MODEL 1
REMARK VINA RESULT:     -11.4      0.000      0.000
REMARK SMILES CC(C)OCCS(=O)(=O)Nc1nccnc1C(=O)NCCCNC(=O)c1ccc(-c2c3nc(c(-c4c(F)c(F)c(F)c(F)c4F)c4ccc([nH]4)c(-c4c(F)c(F)c(F)c(F)c4F)c4nc(c(-c5c(F)c(F)c(F)c(F)c5F)c5ccc2[nH]5)C=C4)C=C3)cc1
REMARK SMILES IDX 17 1 18 2 19 3 16 5 11 6 12 7 13 8 15 9 14 10 10 11 7 13
REMARK SMILES IDX 8 14 9 15 6 16 5 17 4 18 2 19 1 20 3 21 20 22 21 23 22 24
REMARK SMILES IDX 23 25 24 26 25 28 26 29 27 30 88 31 28 32 87 33 29 34 30 35
REMARK SMILES IDX 31 36 81 37 32 38 86 39 80 40 82 41 33 42 85 43 79 44 78 45
REMARK SMILES IDX 34 47 66 48 46 49 65 50 47 51 50 52 64 53 83 54 48 55 49 56
REMARK SMILES IDX 63 58 84 59 51 60 35 61 36 62 44 63 37 64 38 65 42 66 45 67
REMARK SMILES IDX 39 68 40 69 43 70 41 71 67 72 68 73 76 74 69 75 70 76 74 77
REMARK SMILES IDX 77 78 71 79 72 80 75 81 73 82 52 83 53 84 61 85 54 86 55 87
REMARK SMILES IDX 59 88 62 89 56 90 57 91 60 92 58 93
REMARK H PARENT 19 4 10 12 23 27 82 46 50 57
REMARK Flexibility Score: inf
ROOT
ATOM      1  C   UNL A   1      32.050  23.205  26.849  1.00  0.00     0.273 C 
ATOM      2  O   UNL A   1      31.087  23.539  27.555  1.00  0.00    -0.267 OA
ATOM      3  N   UNL A   1      32.854  22.283  27.453  1.00  0.00    -0.351 N 
ATOM      4  H   UNL A   1      32.438  21.851  28.234  1.00  0.00     0.163 HD
ENDROOT
BRANCH   1   5
ATOM      5  C   UNL A   1      32.104  23.690  25.416  1.00  0.00     0.171 A 
ATOM      6  C   UNL A   1      32.141  22.969  24.221  1.00  0.00     0.171 A 
ATOM      7  N   UNL A   1      31.378  23.388  23.175  1.00  0.00    -0.235 NA
ATOM      8  C   UNL A   1      30.798  24.607  23.232  1.00  0.00     0.133 A 
ATOM      9  N   UNL A   1      31.614  24.986  25.400  1.00  0.00    -0.246 NA
ATOM     10  C   UNL A   1      30.979  25.430  24.306  1.00  0.00     0.132 A 
BRANCH   6  11
ATOM     11  N   UNL A   1      32.847  21.827  23.731  1.00  0.00    -0.265 N 
ATOM     12  H   UNL A   1      33.560  22.029  23.084  1.00  0.00     0.181 HD
BRANCH  11  13
ATOM     13  S   UNL A   1      32.661  20.230  24.072  1.00  0.00     0.236 S 
ATOM     14  O   UNL A   1      32.236  19.670  22.792  1.00  0.00    -0.207 OA
ATOM     15  O   UNL A   1      31.792  20.144  25.215  1.00  0.00    -0.207 OA
BRANCH  13  16
ATOM     16  C   UNL A   1      34.127  19.279  24.530  1.00  0.00     0.188 C 
BRANCH  16  17
ATOM     17  C   UNL A   1      34.378  17.859  24.054  1.00  0.00     0.178 C 
BRANCH  17  18
ATOM     18  O   UNL A   1      33.410  16.860  24.385  1.00  0.00    -0.378 OA
BRANCH  18  19
ATOM     19  C   UNL A   1      33.733  15.937  25.422  1.00  0.00     0.112 C 
ATOM     20  C   UNL A   1      32.681  14.824  25.469  1.00  0.00     0.038 C 
ATOM     21  C   UNL A   1      35.241  15.689  25.346  1.00  0.00     0.038 C 
ENDBRANCH  18  19
ENDBRANCH  17  18
ENDBRANCH  16  17
ENDBRANCH  13  16
ENDBRANCH  11  13
ENDBRANCH   6  11
ENDBRANCH   1   5
BRANCH   3  22
ATOM     22  C   UNL A   1      34.183  21.816  27.180  1.00  0.00     0.118 C 
BRANCH  22  23
ATOM     23  C   UNL A   1      35.125  23.005  27.074  1.00  0.00     0.042 C 
BRANCH  23  24
ATOM     24  C   UNL A   1      35.957  22.906  25.813  1.00  0.00     0.118 C 
BRANCH  24  25
ATOM     25  N   UNL A   1      36.834  21.739  25.870  1.00  0.00    -0.352 N 
ATOM     26  C   UNL A   1      38.204  21.660  25.945  1.00  0.00     0.251 C 
ATOM     27  H   UNL A   1      36.370  20.871  25.851  1.00  0.00     0.163 HD
ATOM     28  O   UNL A   1      38.770  20.630  25.590  1.00  0.00    -0.269 OA
BRANCH  26  29
ATOM     29  C   UNL A   1      38.997  22.807  26.441  1.00  0.00     0.039 A 
ATOM     30  C   UNL A   1      40.057  22.594  27.325  1.00  0.00     0.014 A 
ATOM     31  C   UNL A   1      38.668  24.107  26.068  1.00  0.00     0.014 A 
ATOM     32  C   UNL A   1      40.814  23.680  27.778  1.00  0.00     0.010 A 
ATOM     33  C   UNL A   1      39.519  25.156  26.373  1.00  0.00     0.010 A 
ATOM     34  C   UNL A   1      40.578  24.967  27.267  1.00  0.00    -0.014 A 
BRANCH  34  35
ATOM     35  C   UNL A   1      41.372  26.154  27.673  1.00  0.00     0.031 A 
ATOM     36  C   UNL A   1      40.711  27.256  28.464  1.00  0.00     0.074 A 
ATOM     37  C   UNL A   1      42.641  26.293  27.246  1.00  0.00     0.049 A 
ATOM     38  N   UNL A   1      41.165  28.443  28.775  1.00  0.00    -0.248 NA
ATOM     39  C   UNL A   1      39.332  27.010  28.923  1.00  0.00     0.031 C 
ATOM     40  C   UNL A   1      43.372  25.324  26.428  1.00  0.00     0.029 A 
ATOM     41  N   UNL A   1      43.537  27.316  27.426  1.00  0.00    -0.354 N 
ATOM     42  C   UNL A   1      40.120  29.088  29.427  1.00  0.00     0.074 A 
ATOM     43  C   UNL A   1      38.986  28.193  29.402  1.00  0.00     0.031 C 
ATOM     44  C   UNL A   1      44.614  25.783  26.204  1.00  0.00     0.029 A 
ATOM     45  C   UNL A   1      44.747  27.103  26.812  1.00  0.00     0.049 A 
ATOM     46  H   UNL A   1      43.333  28.126  27.947  1.00  0.00     0.167 HD
ATOM     47  C   UNL A   1      40.116  30.303  30.023  1.00  0.00     0.037 A 
ATOM     48  C   UNL A   1      45.834  27.893  26.732  1.00  0.00     0.037 A 
ATOM     49  C   UNL A   1      41.264  31.165  30.086  1.00  0.00     0.049 A 
ATOM     50  C   UNL A   1      45.804  29.242  27.401  1.00  0.00     0.074 A 
ATOM     51  C   UNL A   1      41.396  32.379  30.734  1.00  0.00     0.029 A 
ATOM     52  N   UNL A   1      42.481  30.898  29.476  1.00  0.00    -0.354 N 
ATOM     53  N   UNL A   1      44.837  29.809  28.080  1.00  0.00    -0.248 NA
ATOM     54  C   UNL A   1      47.020  30.060  27.293  1.00  0.00     0.031 C 
ATOM     55  C   UNL A   1      42.675  32.876  30.469  1.00  0.00     0.029 A 
ATOM     56  C   UNL A   1      43.362  31.943  29.707  1.00  0.00     0.049 A 
ATOM     57  H   UNL A   1      42.688  30.089  28.956  1.00  0.00     0.167 HD
ATOM     58  C   UNL A   1      45.332  31.035  28.501  1.00  0.00     0.074 A 
ATOM     59  C   UNL A   1      46.695  31.121  28.017  1.00  0.00     0.031 C 
ATOM     60  C   UNL A   1      44.717  32.003  29.223  1.00  0.00     0.037 A 
BRANCH  47  61
ATOM     61  C   UNL A   1      38.837  30.764  30.664  1.00  0.00     0.064 A 
ATOM     62  C   UNL A   1      38.616  30.646  32.046  1.00  0.00     0.173 A 
ATOM     63  C   UNL A   1      37.830  31.363  29.892  1.00  0.00     0.173 A 
ATOM     64  F   UNL A   1      39.540  30.071  32.831  1.00  0.00    -0.203 F 
ATOM     65  C   UNL A   1      37.424  31.076  32.623  1.00  0.00     0.198 A 
ATOM     66  C   UNL A   1      36.655  31.826  30.479  1.00  0.00     0.198 A 
ATOM     67  F   UNL A   1      37.988  31.508  28.567  1.00  0.00    -0.203 F 
ATOM     68  F   UNL A   1      37.215  30.898  33.935  1.00  0.00    -0.200 F 
ATOM     69  C   UNL A   1      36.449  31.673  31.840  1.00  0.00     0.200 A 
ATOM     70  F   UNL A   1      35.719  32.418  29.722  1.00  0.00    -0.200 F 
ATOM     71  F   UNL A   1      35.307  32.097  32.399  1.00  0.00    -0.200 F 
ENDBRANCH  47  61
BRANCH  48  72
ATOM     72  C   UNL A   1      47.045  27.423  26.008  1.00  0.00     0.064 A 
ATOM     73  C   UNL A   1      48.072  26.753  26.687  1.00  0.00     0.173 A 
ATOM     74  C   UNL A   1      47.203  27.630  24.630  1.00  0.00     0.173 A 
ATOM     75  F   UNL A   1      47.976  26.546  28.009  1.00  0.00    -0.203 F 
ATOM     76  C   UNL A   1      49.220  26.330  26.021  1.00  0.00     0.198 A 
ATOM     77  C   UNL A   1      48.337  27.177  23.958  1.00  0.00     0.198 A 
ATOM     78  F   UNL A   1      46.247  28.258  23.930  1.00  0.00    -0.203 F 
ATOM     79  F   UNL A   1      50.208  25.736  26.704  1.00  0.00    -0.200 F 
ATOM     80  C   UNL A   1      49.350  26.537  24.656  1.00  0.00     0.200 A 
ATOM     81  F   UNL A   1      48.448  27.362  22.636  1.00  0.00    -0.200 F 
ATOM     82  F   UNL A   1      50.452  26.126  24.015  1.00  0.00    -0.200 F 
ENDBRANCH  48  72
BRANCH  60  83
ATOM     83  C   UNL A   1      45.517  33.226  29.563  1.00  0.00     0.064 A 
ATOM     84  C   UNL A   1      45.504  34.365  28.744  1.00  0.00     0.173 A 
ATOM     85  C   UNL A   1      46.255  33.281  30.755  1.00  0.00     0.173 A 
ATOM     86  F   UNL A   1      44.826  34.358  27.587  1.00  0.00    -0.203 F 
ATOM     87  C   UNL A   1      46.217  35.507  29.098  1.00  0.00     0.198 A 
ATOM     88  C   UNL A   1      46.939  34.436  31.122  1.00  0.00     0.198 A 
ATOM     89  F   UNL A   1      46.293  32.221  31.577  1.00  0.00    -0.203 F 
ATOM     90  F   UNL A   1      46.227  36.567  28.280  1.00  0.00    -0.200 F 
ATOM     91  C   UNL A   1      46.924  35.545  30.290  1.00  0.00     0.200 A 
ATOM     92  F   UNL A   1      47.607  34.477  32.284  1.00  0.00    -0.200 F 
ATOM     93  F   UNL A   1      47.597  36.651  30.637  1.00  0.00    -0.200 F 
ENDBRANCH  60  83
ENDBRANCH  34  35
ENDBRANCH  26  29
ENDBRANCH  24  25
ENDBRANCH  23  24
ENDBRANCH  22  23
ENDBRANCH   3  22
TORSDOF 16
ENDMDL
MODEL 2
REMARK VINA RESULT:     -11.4      4.180      9.216
REMARK SMILES CC(C)OCCS(=O)(=O)Nc1nccnc1C(=O)NCCCNC(=O)c1ccc(-c2c3nc(c(-c4c(F)c(F)c(F)c(F)c4F)c4ccc([nH]4)c(-c4c(F)c(F)c(F)c(F)c4F)c4nc(c(-c5c(F)c(F)c(F)c(F)c5F)c5ccc2[nH]5)C=C4)C=C3)cc1
REMARK SMILES IDX 17 1 18 2 19 3 16 5 11 6 12 7 13 8 15 9 14 10 10 11 7 13
REMARK SMILES IDX 8 14 9 15 6 16 5 17 4 18 2 19 1 20 3 21 20 22 21 23 22 24
REMARK SMILES IDX 23 25 24 26 25 28 26 29 27 30 88 31 28 32 87 33 29 34 30 35
REMARK SMILES IDX 31 36 81 37 32 38 86 39 80 40 82 41 33 42 85 43 79 44 78 45
REMARK SMILES IDX 34 47 66 48 46 49 65 50 47 51 50 52 64 53 83 54 48 55 49 56
REMARK SMILES IDX 63 58 84 59 51 60 35 61 36 62 44 63 37 64 38 65 42 66 45 67
REMARK SMILES IDX 39 68 40 69 43 70 41 71 67 72 68 73 76 74 69 75 70 76 74 77
REMARK SMILES IDX 77 78 71 79 72 80 75 81 73 82 52 83 53 84 61 85 54 86 55 87
REMARK SMILES IDX 59 88 62 89 56 90 57 91 60 92 58 93
REMARK H PARENT 19 4 10 12 23 27 82 46 50 57
REMARK Flexibility Score: inf
ROOT
ATOM      1  C   UNL A   1      33.189  25.757  23.206  1.00  0.00     0.273 C 
ATOM      2  O   UNL A   1      33.806  25.376  22.201  1.00  0.00    -0.267 OA
ATOM      3  N   UNL A   1      34.013  26.226  24.187  1.00  0.00    -0.351 N 
ATOM      4  H   UNL A   1      34.928  26.413  23.875  1.00  0.00     0.163 HD
ENDROOT
BRANCH   1   5
ATOM      5  C   UNL A   1      31.678  25.830  23.148  1.00  0.00     0.171 A 
ATOM      6  C   UNL A   1      30.715  25.266  23.986  1.00  0.00     0.171 A 
ATOM      7  N   UNL A   1      29.638  26.013  24.348  1.00  0.00    -0.235 NA
ATOM      8  C   UNL A   1      29.401  27.179  23.707  1.00  0.00     0.133 A 
ATOM      9  N   UNL A   1      31.347  26.958  22.413  1.00  0.00    -0.246 NA
ATOM     10  C   UNL A   1      30.210  27.609  22.695  1.00  0.00     0.132 A 
BRANCH   6  11
ATOM     11  N   UNL A   1      30.506  23.993  24.601  1.00  0.00    -0.265 N 
ATOM     12  H   UNL A   1      29.964  23.363  24.073  1.00  0.00     0.181 HD
BRANCH  11  13
ATOM     13  S   UNL A   1      31.024  23.408  26.047  1.00  0.00     0.236 S 
ATOM     14  O   UNL A   1      30.008  22.414  26.380  1.00  0.00    -0.207 OA
ATOM     15  O   UNL A   1      31.227  24.541  26.909  1.00  0.00    -0.207 OA
BRANCH  13  16
ATOM     16  C   UNL A   1      32.588  22.505  26.092  1.00  0.00     0.188 C 
BRANCH  16  17
ATOM     17  C   UNL A   1      33.688  22.698  25.062  1.00  0.00     0.178 C 
BRANCH  17  18
ATOM     18  O   UNL A   1      35.011  22.962  25.537  1.00  0.00    -0.378 OA
BRANCH  18  19
ATOM     19  C   UNL A   1      36.098  22.329  24.866  1.00  0.00     0.112 C 
ATOM     20  C   UNL A   1      36.094  20.828  25.177  1.00  0.00     0.038 C 
ATOM     21  C   UNL A   1      36.151  22.911  23.452  1.00  0.00     0.038 C 
ENDBRANCH  18  19
ENDBRANCH  17  18
ENDBRANCH  16  17
ENDBRANCH  13  16
ENDBRANCH  11  13
ENDBRANCH   6  11
ENDBRANCH   1   5
BRANCH   3  22
ATOM     22  C   UNL A   1      33.815  26.502  25.581  1.00  0.00     0.118 C 
BRANCH  22  23
ATOM     23  C   UNL A   1      32.941  27.736  25.734  1.00  0.00     0.042 C 
BRANCH  23  24
ATOM     24  C   UNL A   1      33.620  28.941  25.119  1.00  0.00     0.118 C 
BRANCH  24  25
ATOM     25  N   UNL A   1      33.034  30.177  25.635  1.00  0.00    -0.352 N 
ATOM     26  C   UNL A   1      33.291  30.864  26.796  1.00  0.00     0.251 C 
ATOM     27  H   UNL A   1      32.345  30.580  25.058  1.00  0.00     0.163 HD
ATOM     28  O   UNL A   1      32.447  31.637  27.239  1.00  0.00    -0.269 OA
BRANCH  26  29
ATOM     29  C   UNL A   1      34.570  30.672  27.516  1.00  0.00     0.039 A 
ATOM     30  C   UNL A   1      35.478  31.729  27.621  1.00  0.00     0.014 A 
ATOM     31  C   UNL A   1      34.899  29.431  28.054  1.00  0.00     0.014 A 
ATOM     32  C   UNL A   1      36.678  31.546  28.317  1.00  0.00     0.010 A 
ATOM     33  C   UNL A   1      35.997  29.302  28.887  1.00  0.00     0.010 A 
ATOM     34  C   UNL A   1      36.925  30.342  28.996  1.00  0.00    -0.014 A 
BRANCH  34  35
ATOM     35  C   UNL A   1      38.159  30.100  29.787  1.00  0.00     0.031 A 
ATOM     36  C   UNL A   1      39.224  29.181  29.242  1.00  0.00     0.074 A 
ATOM     37  C   UNL A   1      38.274  30.613  31.026  1.00  0.00     0.049 A 
ATOM     38  N   UNL A   1      40.290  28.703  29.830  1.00  0.00    -0.248 NA
ATOM     39  C   UNL A   1      39.037  28.691  27.864  1.00  0.00     0.031 C 
ATOM     40  C   UNL A   1      37.287  31.469  31.686  1.00  0.00     0.029 A 
ATOM     41  N   UNL A   1      39.268  30.472  31.962  1.00  0.00    -0.354 N 
ATOM     42  C   UNL A   1      40.871  27.836  28.912  1.00  0.00     0.074 A 
ATOM     43  C   UNL A   1      40.004  27.794  27.758  1.00  0.00     0.031 C 
ATOM     44  C   UNL A   1      37.739  31.803  32.906  1.00  0.00     0.029 A 
ATOM     45  C   UNL A   1      39.017  31.139  33.136  1.00  0.00     0.049 A 
ATOM     46  H   UNL A   1      40.084  29.945  31.805  1.00  0.00     0.167 HD
ATOM     47  C   UNL A   1      42.040  27.161  29.008  1.00  0.00     0.037 A 
ATOM     48  C   UNL A   1      39.731  31.192  34.277  1.00  0.00     0.037 A 
ATOM     49  C   UNL A   1      42.921  27.248  30.141  1.00  0.00     0.049 A 
ATOM     50  C   UNL A   1      41.027  30.431  34.360  1.00  0.00     0.074 A 
ATOM     51  C   UNL A   1      44.167  26.673  30.310  1.00  0.00     0.029 A 
ATOM     52  N   UNL A   1      42.644  27.959  31.300  1.00  0.00    -0.354 N 
ATOM     53  N   UNL A   1      41.604  29.676  33.458  1.00  0.00    -0.248 NA
ATOM     54  C   UNL A   1      41.771  30.531  35.623  1.00  0.00     0.031 C 
ATOM     55  C   UNL A   1      44.620  26.989  31.594  1.00  0.00     0.029 A 
ATOM     56  C   UNL A   1      43.685  27.812  32.202  1.00  0.00     0.049 A 
ATOM     57  H   UNL A   1      41.830  28.489  31.457  1.00  0.00     0.167 HD
ATOM     58  C   UNL A   1      42.788  29.233  34.030  1.00  0.00     0.074 A 
ATOM     59  C   UNL A   1      42.856  29.819  35.353  1.00  0.00     0.031 C 
ATOM     60  C   UNL A   1      43.735  28.413  33.510  1.00  0.00     0.037 A 
BRANCH  47  61
ATOM     61  C   UNL A   1      42.439  26.283  27.856  1.00  0.00     0.064 A 
ATOM     62  C   UNL A   1      43.338  26.718  26.869  1.00  0.00     0.173 A 
ATOM     63  C   UNL A   1      41.942  24.975  27.753  1.00  0.00     0.173 A 
ATOM     64  F   UNL A   1      43.836  27.964  26.911  1.00  0.00    -0.203 F 
ATOM     65  C   UNL A   1      43.695  25.893  25.806  1.00  0.00     0.198 A 
ATOM     66  C   UNL A   1      42.330  24.139  26.709  1.00  0.00     0.198 A 
ATOM     67  F   UNL A   1      41.084  24.502  28.670  1.00  0.00    -0.203 F 
ATOM     68  F   UNL A   1      44.509  26.353  24.846  1.00  0.00    -0.200 F 
ATOM     69  C   UNL A   1      43.197  24.601  25.732  1.00  0.00     0.200 A 
ATOM     70  F   UNL A   1      41.860  22.884  26.647  1.00  0.00    -0.200 F 
ATOM     71  F   UNL A   1      43.550  23.804  24.714  1.00  0.00    -0.200 F 
ENDBRANCH  47  61
BRANCH  48  72
ATOM     72  C   UNL A   1      39.245  32.007  35.421  1.00  0.00     0.064 A 
ATOM     73  C   UNL A   1      39.571  33.367  35.524  1.00  0.00     0.173 A 
ATOM     74  C   UNL A   1      38.448  31.451  36.433  1.00  0.00     0.173 A 
ATOM     75  F   UNL A   1      40.345  33.941  34.591  1.00  0.00    -0.203 F 
ATOM     76  C   UNL A   1      39.139  34.132  36.605  1.00  0.00     0.198 A 
ATOM     77  C   UNL A   1      37.989  32.227  37.497  1.00  0.00     0.198 A 
ATOM     78  F   UNL A   1      38.099  30.158  36.380  1.00  0.00    -0.203 F 
ATOM     79  F   UNL A   1      39.508  35.417  36.703  1.00  0.00    -0.200 F 
ATOM     80  C   UNL A   1      38.344  33.563  37.588  1.00  0.00     0.200 A 
ATOM     81  F   UNL A   1      37.205  31.676  38.433  1.00  0.00    -0.200 F 
ATOM     82  F   UNL A   1      37.925  34.301  38.625  1.00  0.00    -0.200 F 
ENDBRANCH  48  72
BRANCH  60  83
ATOM     83  C   UNL A   1      44.941  28.126  34.355  1.00  0.00     0.064 A 
ATOM     84  C   UNL A   1      44.997  27.010  35.203  1.00  0.00     0.173 A 
ATOM     85  C   UNL A   1      46.078  28.944  34.267  1.00  0.00     0.173 A 
ATOM     86  F   UNL A   1      43.931  26.206  35.333  1.00  0.00    -0.203 F 
ATOM     87  C   UNL A   1      46.141  26.734  35.946  1.00  0.00     0.198 A 
ATOM     88  C   UNL A   1      47.232  28.646  34.986  1.00  0.00     0.198 A 
ATOM     89  F   UNL A   1      46.079  30.019  33.464  1.00  0.00    -0.203 F 
ATOM     90  F   UNL A   1      46.157  25.689  36.783  1.00  0.00    -0.200 F 
ATOM     91  C   UNL A   1      47.260  27.546  35.829  1.00  0.00     0.200 A 
ATOM     92  F   UNL A   1      48.318  29.421  34.857  1.00  0.00    -0.200 F 
ATOM     93  F   UNL A   1      48.366  27.269  36.533  1.00  0.00    -0.200 F 
ENDBRANCH  60  83
ENDBRANCH  34  35
ENDBRANCH  26  29
ENDBRANCH  24  25
ENDBRANCH  23  24
ENDBRANCH  22  23
ENDBRANCH   3  22
TORSDOF 16
ENDMDL
MODEL 3
REMARK VINA RESULT:     -11.3      1.896      3.413
REMARK SMILES CC(C)OCCS(=O)(=O)Nc1nccnc1C(=O)NCCCNC(=O)c1ccc(-c2c3nc(c(-c4c(F)c(F)c(F)c(F)c4F)c4ccc([nH]4)c(-c4c(F)c(F)c(F)c(F)c4F)c4nc(c(-c5c(F)c(F)c(F)c(F)c5F)c5ccc2[nH]5)C=C4)C=C3)cc1
REMARK SMILES IDX 17 1 18 2 19 3 16 5 11 6 12 7 13 8 15 9 14 10 10 11 7 13
REMARK SMILES IDX 8 14 9 15 6 16 5 17 4 18 2 19 1 20 3 21 20 22 21 23 22 24
REMARK SMILES IDX 23 25 24 26 25 28 26 29 27 30 88 31 28 32 87 33 29 34 30 35
REMARK SMILES IDX 31 36 81 37 32 38 86 39 80 40 82 41 33 42 85 43 79 44 78 45
REMARK SMILES IDX 34 47 66 48 46 49 65 50 47 51 50 52 64 53 83 54 48 55 49 56
REMARK SMILES IDX 63 58 84 59 51 60 35 61 36 62 44 63 37 64 38 65 42 66 45 67
REMARK SMILES IDX 39 68 40 69 43 70 41 71 67 72 68 73 76 74 69 75 70 76 74 77
REMARK SMILES IDX 77 78 71 79 72 80 75 81 73 82 52 83 53 84 61 85 54 86 55 87
REMARK SMILES IDX 59 88 62 89 56 90 57 91 60 92 58 93
REMARK H PARENT 19 4 10 12 23 27 82 46 50 57
REMARK Flexibility Score: inf
ROOT
ATOM      1  C   UNL A   1      36.521  22.625  25.736  1.00  0.00     0.273 C 
ATOM      2  O   UNL A   1      37.182  23.566  26.199  1.00  0.00    -0.267 OA
ATOM      3  N   UNL A   1      37.269  21.501  25.537  1.00  0.00    -0.351 N 
ATOM      4  H   UNL A   1      38.139  21.522  25.998  1.00  0.00     0.163 HD
ENDROOT
BRANCH   1   5
ATOM      5  C   UNL A   1      35.019  22.771  25.636  1.00  0.00     0.171 A 
ATOM      6  C   UNL A   1      33.998  21.964  26.140  1.00  0.00     0.171 A 
ATOM      7  N   UNL A   1      32.913  22.552  26.711  1.00  0.00    -0.235 NA
ATOM      8  C   UNL A   1      32.734  23.884  26.564  1.00  0.00     0.133 A 
ATOM      9  N   UNL A   1      34.750  24.108  25.383  1.00  0.00    -0.246 NA
ATOM     10  C   UNL A   1      33.608  24.642  25.840  1.00  0.00     0.132 A 
BRANCH   6  11
ATOM     11  N   UNL A   1      33.732  20.560  26.200  1.00  0.00    -0.265 N 
ATOM     12  H   UNL A   1      34.137  20.096  26.967  1.00  0.00     0.181 HD
BRANCH  11  13
ATOM     13  S   UNL A   1      32.859  19.595  25.196  1.00  0.00     0.236 S 
ATOM     14  O   UNL A   1      31.949  20.536  24.550  1.00  0.00    -0.207 OA
ATOM     15  O   UNL A   1      32.332  18.524  25.998  1.00  0.00    -0.207 OA
BRANCH  13  16
ATOM     16  C   UNL A   1      33.721  18.776  23.836  1.00  0.00     0.188 C 
BRANCH  16  17
ATOM     17  C   UNL A   1      33.341  17.399  23.321  1.00  0.00     0.178 C 
BRANCH  17  18
ATOM     18  O   UNL A   1      34.151  16.289  23.716  1.00  0.00    -0.378 OA
BRANCH  18  19
ATOM     19  C   UNL A   1      34.191  15.953  25.101  1.00  0.00     0.112 C 
ATOM     20  C   UNL A   1      33.049  14.985  25.430  1.00  0.00     0.038 C 
ATOM     21  C   UNL A   1      35.657  15.702  25.459  1.00  0.00     0.038 C 
ENDBRANCH  18  19
ENDBRANCH  17  18
ENDBRANCH  16  17
ENDBRANCH  13  16
ENDBRANCH  11  13
ENDBRANCH   6  11
ENDBRANCH   1   5
BRANCH   3  22
ATOM     22  C   UNL A   1      37.043  20.296  24.792  1.00  0.00     0.118 C 
BRANCH  22  23
ATOM     23  C   UNL A   1      38.171  19.313  25.065  1.00  0.00     0.042 C 
BRANCH  23  24
ATOM     24  C   UNL A   1      39.308  20.005  25.788  1.00  0.00     0.118 C 
BRANCH  24  25
ATOM     25  N   UNL A   1      40.404  19.069  26.028  1.00  0.00    -0.352 N 
ATOM     26  C   UNL A   1      41.761  19.283  26.070  1.00  0.00     0.251 C 
ATOM     27  H   UNL A   1      40.127  18.138  26.184  1.00  0.00     0.163 HD
ATOM     28  O   UNL A   1      42.527  18.341  25.890  1.00  0.00    -0.269 OA
BRANCH  26  29
ATOM     29  C   UNL A   1      42.301  20.638  26.321  1.00  0.00     0.039 A 
ATOM     30  C   UNL A   1      42.636  21.467  25.247  1.00  0.00     0.014 A 
ATOM     31  C   UNL A   1      42.520  21.082  27.622  1.00  0.00     0.014 A 
ATOM     32  C   UNL A   1      43.130  22.753  25.490  1.00  0.00     0.010 A 
ATOM     33  C   UNL A   1      42.840  22.407  27.861  1.00  0.00     0.010 A 
ATOM     34  C   UNL A   1      43.192  23.250  26.802  1.00  0.00    -0.014 A 
BRANCH  34  35
ATOM     35  C   UNL A   1      43.666  24.620  27.124  1.00  0.00     0.031 A 
ATOM     36  C   UNL A   1      42.695  25.632  27.681  1.00  0.00     0.074 A 
ATOM     37  C   UNL A   1      44.925  24.985  26.819  1.00  0.00     0.049 A 
ATOM     38  N   UNL A   1      42.851  26.916  27.873  1.00  0.00    -0.248 NA
ATOM     39  C   UNL A   1      41.346  25.142  28.020  1.00  0.00     0.031 C 
ATOM     40  C   UNL A   1      45.941  24.115  26.224  1.00  0.00     0.029 A 
ATOM     41  N   UNL A   1      45.562  26.193  26.951  1.00  0.00    -0.354 N 
ATOM     42  C   UNL A   1      41.620  27.385  28.315  1.00  0.00     0.074 A 
ATOM     43  C   UNL A   1      40.706  26.267  28.293  1.00  0.00     0.031 C 
ATOM     44  C   UNL A   1      47.081  24.807  26.072  1.00  0.00     0.029 A 
ATOM     45  C   UNL A   1      46.860  26.183  26.504  1.00  0.00     0.049 A 
ATOM     46  H   UNL A   1      45.129  26.991  27.331  1.00  0.00     0.167 HD
ATOM     47  C   UNL A   1      41.289  28.628  28.735  1.00  0.00     0.037 A 
ATOM     48  C   UNL A   1      47.764  27.178  26.433  1.00  0.00     0.037 A 
ATOM     49  C   UNL A   1      42.218  29.723  28.801  1.00  0.00     0.049 A 
ATOM     50  C   UNL A   1      47.372  28.553  26.903  1.00  0.00     0.074 A 
ATOM     51  C   UNL A   1      42.013  31.001  29.286  1.00  0.00     0.029 A 
ATOM     52  N   UNL A   1      43.535  29.663  28.366  1.00  0.00    -0.354 N 
ATOM     53  N   UNL A   1      46.227  28.967  27.391  1.00  0.00    -0.248 NA
ATOM     54  C   UNL A   1      48.399  29.600  26.814  1.00  0.00     0.031 C 
ATOM     55  C   UNL A   1      43.188  31.733  29.093  1.00  0.00     0.029 A 
ATOM     56  C   UNL A   1      44.145  30.894  28.544  1.00  0.00     0.049 A 
ATOM     57  H   UNL A   1      43.970  28.865  27.988  1.00  0.00     0.167 HD
ATOM     58  C   UNL A   1      46.402  30.311  27.691  1.00  0.00     0.074 A 
ATOM     59  C   UNL A   1      47.770  30.639  27.346  1.00  0.00     0.031 C 
ATOM     60  C   UNL A   1      45.512  31.195  28.203  1.00  0.00     0.037 A 
BRANCH  47  61
ATOM     61  C   UNL A   1      39.870  28.867  29.167  1.00  0.00     0.064 A 
ATOM     62  C   UNL A   1      38.885  29.306  28.266  1.00  0.00     0.173 A 
ATOM     63  C   UNL A   1      39.477  28.621  30.491  1.00  0.00     0.173 A 
ATOM     64  F   UNL A   1      39.206  29.567  26.990  1.00  0.00    -0.203 F 
ATOM     65  C   UNL A   1      37.575  29.525  28.683  1.00  0.00     0.198 A 
ATOM     66  C   UNL A   1      38.157  28.805  30.896  1.00  0.00     0.198 A 
ATOM     67  F   UNL A   1      40.373  28.195  31.395  1.00  0.00    -0.203 F 
ATOM     68  F   UNL A   1      36.669  30.000  27.817  1.00  0.00    -0.200 F 
ATOM     69  C   UNL A   1      37.211  29.266  29.995  1.00  0.00     0.200 A 
ATOM     70  F   UNL A   1      37.803  28.539  32.162  1.00  0.00    -0.200 F 
ATOM     71  F   UNL A   1      35.947  29.466  30.392  1.00  0.00    -0.200 F 
ENDBRANCH  47  61
BRANCH  48  72
ATOM     72  C   UNL A   1      49.131  26.907  25.912  1.00  0.00     0.064 A 
ATOM     73  C   UNL A   1      49.414  27.023  24.544  1.00  0.00     0.173 A 
ATOM     74  C   UNL A   1      50.179  26.528  26.764  1.00  0.00     0.173 A 
ATOM     75  F   UNL A   1      48.441  27.365  23.686  1.00  0.00    -0.203 F 
ATOM     76  C   UNL A   1      50.685  26.747  24.045  1.00  0.00     0.198 A 
ATOM     77  C   UNL A   1      51.459  26.286  26.267  1.00  0.00     0.198 A 
ATOM     78  F   UNL A   1      49.966  26.411  28.082  1.00  0.00    -0.203 F 
ATOM     79  F   UNL A   1      50.914  26.818  22.726  1.00  0.00    -0.200 F 
ATOM     80  C   UNL A   1      51.708  26.385  24.907  1.00  0.00     0.200 A 
ATOM     81  F   UNL A   1      52.449  25.955  27.107  1.00  0.00    -0.200 F 
ATOM     82  F   UNL A   1      52.932  26.125  24.428  1.00  0.00    -0.200 F 
ENDBRANCH  48  72
BRANCH  60  83
ATOM     83  C   UNL A   1      45.993  32.594  28.455  1.00  0.00     0.064 A 
ATOM     84  C   UNL A   1      46.613  32.953  29.661  1.00  0.00     0.173 A 
ATOM     85  C   UNL A   1      45.889  33.570  27.452  1.00  0.00     0.173 A 
ATOM     86  F   UNL A   1      46.724  32.060  30.656  1.00  0.00    -0.203 F 
ATOM     87  C   UNL A   1      47.093  34.244  29.860  1.00  0.00     0.198 A 
ATOM     88  C   UNL A   1      46.400  34.850  27.642  1.00  0.00     0.198 A 
ATOM     89  F   UNL A   1      45.312  33.274  26.278  1.00  0.00    -0.203 F 
ATOM     90  F   UNL A   1      47.642  34.578  31.035  1.00  0.00    -0.200 F 
ATOM     91  C   UNL A   1      46.996  35.187  28.848  1.00  0.00     0.200 A 
ATOM     92  F   UNL A   1      46.322  35.754  26.656  1.00  0.00    -0.200 F 
ATOM     93  F   UNL A   1      47.474  36.425  29.036  1.00  0.00    -0.200 F 
ENDBRANCH  60  83
ENDBRANCH  34  35
ENDBRANCH  26  29
ENDBRANCH  24  25
ENDBRANCH  23  24
ENDBRANCH  22  23
ENDBRANCH   3  22
TORSDOF 16
ENDMDL
