MODEL 1
REMARK VINA RESULT:     -14.1      0.000      0.000
REMARK SMILES Cc1ccn(CC(=O)N2CCC3(CC2)NC(=O)C[C@@H]3C(=O)NCCCNC(=O)c2ccc(-c3c4nc(c(-c5c(F)c(F)c(F)c(F)c5F)c5ccc([nH]5)c(-c5c(F)c(F)c(F)c(F)c5F)c5nc(c(-c6c(F)c(F)c(F)c(F)c6F)c6ccc3[nH]6)C=C5)C=C4)cc2)n1
REMARK SMILES IDX 24 1 23 2 22 3 20 4 21 5 19 7 7 8 8 9 9 10 10 11 14 12 11 13
REMARK SMILES IDX 13 14 12 15 15 16 16 17 18 19 17 20 6 21 5 22 1 23 2 24 3 25
REMARK SMILES IDX 92 26 4 27 25 28 26 29 27 30 28 32 29 33 30 34 91 35 31 36
REMARK SMILES IDX 90 37 32 38 33 39 34 40 84 41 35 42 89 43 83 44 85 45 36 46
REMARK SMILES IDX 88 47 82 48 81 49 37 51 69 52 49 53 68 54 50 55 53 56 67 57
REMARK SMILES IDX 86 58 51 59 52 60 66 62 87 63 54 64 38 65 39 66 47 67 40 68
REMARK SMILES IDX 41 69 45 70 48 71 42 72 43 73 46 74 44 75 70 76 71 77 79 78
REMARK SMILES IDX 72 79 73 80 77 81 80 82 74 83 75 84 78 85 76 86 55 87 56 88
REMARK SMILES IDX 64 89 57 90 58 91 62 92 65 93 59 94 60 95 63 96 61 97
REMARK H PARENT 22 6 15 18 26 31 85 50 53 61
REMARK Flexibility Score: inf
ROOT
ATOM      1  C   UNL A   1      38.235  22.169  25.362  1.00  0.00     0.042 C 
ENDROOT
BRANCH   1   2
ATOM      2  C   UNL A   1      36.971  22.927  25.781  1.00  0.00     0.117 C 
BRANCH   2   3
ATOM      3  N   UNL A   1      36.081  22.085  26.559  1.00  0.00    -0.356 N 
ATOM      4  C   UNL A   1      34.845  21.584  26.341  1.00  0.00     0.226 C 
ATOM      5  O   UNL A   1      34.203  21.338  27.370  1.00  0.00    -0.275 OA
ATOM      6  H   UNL A   1      36.457  21.823  27.431  1.00  0.00     0.163 HD
BRANCH   4   7
ATOM      7  C   UNL A   1      34.238  21.220  24.992  1.00  0.00     0.113 C 
ATOM      8  C   UNL A   1      33.397  26.456  24.844  1.00  0.00     0.244 C 
ATOM      9  O   UNL A   1      33.161  27.104  25.871  1.00  0.00    -0.273 OA
ATOM     10  N   UNL A   1      33.612  25.085  24.912  1.00  0.00    -0.341 N 
ATOM     11  C   UNL A   1      33.059  24.312  26.016  1.00  0.00     0.122 C 
ATOM     12  C   UNL A   1      34.539  24.349  24.069  1.00  0.00     0.122 C 
ATOM     13  C   UNL A   1      32.380  23.025  25.499  1.00  0.00     0.051 C 
ATOM     14  C   UNL A   1      33.812  23.209  23.404  1.00  0.00     0.051 C 
ATOM     15  C   UNL A   1      33.190  22.242  24.433  1.00  0.00     0.055 C 
ATOM     16  N   UNL A   1      32.306  21.380  23.649  1.00  0.00    -0.350 N 
ATOM     17  C   UNL A   1      32.637  20.048  23.674  1.00  0.00     0.221 C 
ATOM     18  H   UNL A   1      31.536  21.729  23.144  1.00  0.00     0.164 HD
ATOM     19  C   UNL A   1      33.581  19.857  24.815  1.00  0.00     0.116 C 
ATOM     20  O   UNL A   1      32.160  19.181  22.983  1.00  0.00    -0.275 OA
BRANCH   8  21
ATOM     21  C   UNL A   1      33.164  27.111  23.493  1.00  0.00     0.244 C 
BRANCH  21  22
ATOM     22  N   UNL A   1      31.816  27.538  23.186  1.00  0.00    -0.263 N 
ATOM     23  C   UNL A   1      29.698  30.091  21.939  1.00  0.00     0.069 C 
ATOM     24  C   UNL A   1      30.301  28.862  22.510  1.00  0.00     0.059 A 
ATOM     25  C   UNL A   1      29.640  27.745  23.074  1.00  0.00     0.045 A 
ATOM     26  N   UNL A   1      31.630  28.720  22.558  1.00  0.00    -0.178 NA
ATOM     27  C   UNL A   1      30.646  26.897  23.477  1.00  0.00     0.109 A 
ENDBRANCH  21  22
ENDBRANCH   8  21
ENDBRANCH   4   7
ENDBRANCH   2   3
ENDBRANCH   1   2
BRANCH   1  28
ATOM     28  C   UNL A   1      39.229  22.164  26.504  1.00  0.00     0.118 C 
BRANCH  28  29
ATOM     29  N   UNL A   1      40.622  22.127  26.022  1.00  0.00    -0.352 N 
ATOM     30  C   UNL A   1      41.582  23.124  26.066  1.00  0.00     0.251 C 
ATOM     31  H   UNL A   1      40.908  21.278  25.614  1.00  0.00     0.163 HD
ATOM     32  O   UNL A   1      42.607  23.062  25.403  1.00  0.00    -0.269 OA
BRANCH  30  33
ATOM     33  C   UNL A   1      41.327  24.258  26.958  1.00  0.00     0.039 A 
ATOM     34  C   UNL A   1      42.002  24.439  28.166  1.00  0.00     0.014 A 
ATOM     35  C   UNL A   1      40.493  25.236  26.439  1.00  0.00     0.014 A 
ATOM     36  C   UNL A   1      41.888  25.674  28.798  1.00  0.00     0.010 A 
ATOM     37  C   UNL A   1      40.650  26.510  26.885  1.00  0.00     0.010 A 
ATOM     38  C   UNL A   1      41.226  26.713  28.126  1.00  0.00    -0.014 A 
BRANCH  38  39
ATOM     39  C   UNL A   1      41.160  28.070  28.637  1.00  0.00     0.031 A 
ATOM     40  C   UNL A   1      42.230  28.959  28.130  1.00  0.00     0.074 A 
ATOM     41  C   UNL A   1      40.079  28.518  29.317  1.00  0.00     0.049 A 
ATOM     42  N   UNL A   1      43.253  29.397  28.784  1.00  0.00    -0.248 NA
ATOM     43  C   UNL A   1      42.274  29.255  26.689  1.00  0.00     0.031 C 
ATOM     44  C   UNL A   1      38.811  27.822  29.598  1.00  0.00     0.029 A 
ATOM     45  N   UNL A   1      39.854  29.750  29.841  1.00  0.00    -0.354 N 
ATOM     46  C   UNL A   1      43.950  30.213  27.898  1.00  0.00     0.074 A 
ATOM     47  C   UNL A   1      43.431  29.913  26.590  1.00  0.00     0.031 C 
ATOM     48  C   UNL A   1      37.885  28.705  30.030  1.00  0.00     0.029 A 
ATOM     49  C   UNL A   1      38.544  29.974  30.252  1.00  0.00     0.049 A 
ATOM     50  H   UNL A   1      40.561  30.430  29.924  1.00  0.00     0.167 HD
ATOM     51  C   UNL A   1      44.686  31.260  28.366  1.00  0.00     0.037 A 
ATOM     52  C   UNL A   1      38.043  31.129  30.752  1.00  0.00     0.037 A 
ATOM     53  C   UNL A   1      44.861  31.146  29.796  1.00  0.00     0.049 A 
ATOM     54  C   UNL A   1      39.202  31.911  31.240  1.00  0.00     0.074 A 
ATOM     55  C   UNL A   1      45.511  30.275  30.644  1.00  0.00     0.029 A 
ATOM     56  N   UNL A   1      43.943  31.821  30.561  1.00  0.00    -0.354 N 
ATOM     57  N   UNL A   1      39.953  31.538  32.240  1.00  0.00    -0.248 NA
ATOM     58  C   UNL A   1      39.803  32.876  30.335  1.00  0.00     0.031 C 
ATOM     59  C   UNL A   1      44.681  30.188  31.803  1.00  0.00     0.029 A 
ATOM     60  C   UNL A   1      43.600  31.058  31.644  1.00  0.00     0.049 A 
ATOM     61  H   UNL A   1      43.586  32.717  30.361  1.00  0.00     0.167 HD
ATOM     62  C   UNL A   1      41.243  31.878  31.860  1.00  0.00     0.074 A 
ATOM     63  C   UNL A   1      41.073  32.808  30.746  1.00  0.00     0.031 C 
ATOM     64  C   UNL A   1      42.309  31.141  32.296  1.00  0.00     0.037 A 
BRANCH  51  65
ATOM     65  C   UNL A   1      44.851  32.592  27.662  1.00  0.00     0.064 A 
ATOM     66  C   UNL A   1      46.057  32.843  26.972  1.00  0.00     0.173 A 
ATOM     67  C   UNL A   1      44.043  33.726  27.891  1.00  0.00     0.173 A 
ATOM     68  F   UNL A   1      46.909  31.844  26.699  1.00  0.00    -0.203 F 
ATOM     69  C   UNL A   1      46.464  34.137  26.635  1.00  0.00     0.198 A 
ATOM     70  C   UNL A   1      44.429  35.010  27.507  1.00  0.00     0.198 A 
ATOM     71  F   UNL A   1      42.904  33.670  28.590  1.00  0.00    -0.203 F 
ATOM     72  F   UNL A   1      47.678  34.336  26.105  1.00  0.00    -0.200 F 
ATOM     73  C   UNL A   1      45.654  35.221  26.913  1.00  0.00     0.200 A 
ATOM     74  F   UNL A   1      43.636  36.051  27.801  1.00  0.00    -0.200 F 
ATOM     75  F   UNL A   1      46.069  36.469  26.654  1.00  0.00    -0.200 F 
ENDBRANCH  51  65
BRANCH  52  76
ATOM     76  C   UNL A   1      36.705  31.723  30.533  1.00  0.00     0.064 A 
ATOM     77  C   UNL A   1      35.862  32.031  31.611  1.00  0.00     0.173 A 
ATOM     78  C   UNL A   1      36.355  32.274  29.284  1.00  0.00     0.173 A 
ATOM     79  F   UNL A   1      36.151  31.581  32.841  1.00  0.00    -0.203 F 
ATOM     80  C   UNL A   1      34.751  32.868  31.457  1.00  0.00     0.198 A 
ATOM     81  C   UNL A   1      35.247  33.109  29.131  1.00  0.00     0.198 A 
ATOM     82  F   UNL A   1      37.142  32.096  28.212  1.00  0.00    -0.203 F 
ATOM     83  F   UNL A   1      34.006  33.193  32.523  1.00  0.00    -0.200 F 
ATOM     84  C   UNL A   1      34.452  33.418  30.221  1.00  0.00     0.200 A 
ATOM     85  F   UNL A   1      34.994  33.670  27.940  1.00  0.00    -0.200 F 
ATOM     86  F   UNL A   1      33.432  34.276  30.088  1.00  0.00    -0.200 F 
ENDBRANCH  52  76
BRANCH  64  87
ATOM     87  C   UNL A   1      42.067  30.195  33.443  1.00  0.00     0.064 A 
ATOM     88  C   UNL A   1      41.755  28.832  33.300  1.00  0.00     0.173 A 
ATOM     89  C   UNL A   1      42.283  30.670  34.742  1.00  0.00     0.173 A 
ATOM     90  F   UNL A   1      41.618  28.278  32.092  1.00  0.00    -0.203 F 
ATOM     91  C   UNL A   1      41.631  27.995  34.410  1.00  0.00     0.198 A 
ATOM     92  C   UNL A   1      42.194  29.826  35.846  1.00  0.00     0.198 A 
ATOM     93  F   UNL A   1      42.631  31.951  34.938  1.00  0.00    -0.203 F 
ATOM     94  F   UNL A   1      41.324  26.699  34.246  1.00  0.00    -0.200 F 
ATOM     95  C   UNL A   1      41.859  28.492  35.681  1.00  0.00     0.200 A 
ATOM     96  F   UNL A   1      42.460  30.303  37.069  1.00  0.00    -0.200 F 
ATOM     97  F   UNL A   1      41.780  27.682  36.746  1.00  0.00    -0.200 F 
ENDBRANCH  64  87
ENDBRANCH  38  39
ENDBRANCH  30  33
ENDBRANCH  28  29
ENDBRANCH   1  28
TORSDOF 12
ENDMDL
MODEL 2
REMARK VINA RESULT:     -14.0      3.688      8.289
REMARK SMILES Cc1ccn(CC(=O)N2CCC3(CC2)NC(=O)C[C@@H]3C(=O)NCCCNC(=O)c2ccc(-c3c4nc(c(-c5c(F)c(F)c(F)c(F)c5F)c5ccc([nH]5)c(-c5c(F)c(F)c(F)c(F)c5F)c5nc(c(-c6c(F)c(F)c(F)c(F)c6F)c6ccc3[nH]6)C=C5)C=C4)cc2)n1
REMARK SMILES IDX 24 1 23 2 22 3 20 4 21 5 19 7 7 8 8 9 9 10 10 11 14 12 11 13
REMARK SMILES IDX 13 14 12 15 15 16 16 17 18 19 17 20 6 21 5 22 1 23 2 24 3 25
REMARK SMILES IDX 92 26 4 27 25 28 26 29 27 30 28 32 29 33 30 34 91 35 31 36
REMARK SMILES IDX 90 37 32 38 33 39 34 40 84 41 35 42 89 43 83 44 85 45 36 46
REMARK SMILES IDX 88 47 82 48 81 49 37 51 69 52 49 53 68 54 50 55 53 56 67 57
REMARK SMILES IDX 86 58 51 59 52 60 66 62 87 63 54 64 38 65 39 66 47 67 40 68
REMARK SMILES IDX 41 69 45 70 48 71 42 72 43 73 46 74 44 75 70 76 71 77 79 78
REMARK SMILES IDX 72 79 73 80 77 81 80 82 74 83 75 84 78 85 76 86 55 87 56 88
REMARK SMILES IDX 64 89 57 90 58 91 62 92 65 93 59 94 60 95 63 96 61 97
REMARK H PARENT 22 6 15 18 26 31 85 50 53 61
REMARK Flexibility Score: inf
ROOT
ATOM      1  C   UNL A   1      33.908  28.665  26.993  1.00  0.00     0.042 C 
ENDROOT
BRANCH   1   2
ATOM      2  C   UNL A   1      34.025  27.415  26.115  1.00  0.00     0.117 C 
BRANCH   2   3
ATOM      3  N   UNL A   1      32.843  27.232  25.292  1.00  0.00    -0.356 N 
ATOM      4  C   UNL A   1      32.029  26.182  25.051  1.00  0.00     0.226 C 
ATOM      5  O   UNL A   1      31.445  26.225  23.960  1.00  0.00    -0.275 OA
ATOM      6  H   UNL A   1      32.578  28.047  24.806  1.00  0.00     0.163 HD
BRANCH   4   7
ATOM      7  C   UNL A   1      31.708  25.043  26.012  1.00  0.00     0.113 C 
ATOM      8  C   UNL A   1      36.107  23.023  23.841  1.00  0.00     0.244 C 
ATOM      9  O   UNL A   1      36.408  23.242  22.662  1.00  0.00    -0.273 OA
ATOM     10  N   UNL A   1      34.949  23.564  24.384  1.00  0.00    -0.341 N 
ATOM     11  C   UNL A   1      33.831  23.915  23.517  1.00  0.00     0.122 C 
ATOM     12  C   UNL A   1      34.810  24.020  25.756  1.00  0.00     0.122 C 
ATOM     13  C   UNL A   1      32.499  23.399  24.103  1.00  0.00     0.051 C 
ATOM     14  C   UNL A   1      33.618  23.349  26.388  1.00  0.00     0.051 C 
ATOM     15  C   UNL A   1      32.313  23.650  25.623  1.00  0.00     0.055 C 
ATOM     16  N   UNL A   1      31.330  22.721  26.179  1.00  0.00    -0.350 N 
ATOM     17  C   UNL A   1      30.259  23.321  26.795  1.00  0.00     0.221 C 
ATOM     18  H   UNL A   1      31.430  21.743  26.117  1.00  0.00     0.164 HD
ATOM     19  C   UNL A   1      30.253  24.749  26.358  1.00  0.00     0.116 C 
ATOM     20  O   UNL A   1      29.417  22.769  27.460  1.00  0.00    -0.275 OA
BRANCH   8  21
ATOM     21  C   UNL A   1      36.852  21.937  24.600  1.00  0.00     0.244 C 
BRANCH  21  22
ATOM     22  N   UNL A   1      37.928  22.355  25.473  1.00  0.00    -0.263 N 
ATOM     23  C   UNL A   1      40.716  21.414  27.445  1.00  0.00     0.069 C 
ATOM     24  C   UNL A   1      39.620  22.110  26.730  1.00  0.00     0.059 A 
ATOM     25  C   UNL A   1      39.232  23.466  26.834  1.00  0.00     0.045 A 
ATOM     26  N   UNL A   1      38.836  21.441  25.878  1.00  0.00    -0.178 NA
ATOM     27  C   UNL A   1      38.153  23.599  25.989  1.00  0.00     0.109 A 
ENDBRANCH  21  22
ENDBRANCH   8  21
ENDBRANCH   4   7
ENDBRANCH   2   3
ENDBRANCH   1   2
BRANCH   1  28
ATOM     28  C   UNL A   1      35.290  29.194  27.313  1.00  0.00     0.118 C 
BRANCH  28  29
ATOM     29  N   UNL A   1      35.385  29.685  28.701  1.00  0.00    -0.352 N 
ATOM     30  C   UNL A   1      36.396  29.488  29.624  1.00  0.00     0.251 C 
ATOM     31  H   UNL A   1      34.623  30.227  29.012  1.00  0.00     0.163 HD
ATOM     32  O   UNL A   1      36.239  29.721  30.814  1.00  0.00    -0.269 OA
BRANCH  30  33
ATOM     33  C   UNL A   1      37.680  28.999  29.114  1.00  0.00     0.039 A 
ATOM     34  C   UNL A   1      38.359  29.612  28.059  1.00  0.00     0.014 A 
ATOM     35  C   UNL A   1      38.264  27.990  29.864  1.00  0.00     0.014 A 
ATOM     36  C   UNL A   1      39.682  29.244  27.834  1.00  0.00     0.010 A 
ATOM     37  C   UNL A   1      39.618  27.883  29.843  1.00  0.00     0.010 A 
ATOM     38  C   UNL A   1      40.308  28.392  28.758  1.00  0.00    -0.014 A 
BRANCH  38  39
ATOM     39  C   UNL A   1      41.717  28.048  28.689  1.00  0.00     0.031 A 
ATOM     40  C   UNL A   1      42.005  26.847  27.872  1.00  0.00     0.074 A 
ATOM     41  C   UNL A   1      42.674  28.893  29.136  1.00  0.00     0.049 A 
ATOM     42  N   UNL A   1      42.351  25.680  28.298  1.00  0.00    -0.248 NA
ATOM     43  C   UNL A   1      41.706  26.889  26.431  1.00  0.00     0.031 C 
ATOM     44  C   UNL A   1      42.526  30.258  29.670  1.00  0.00     0.029 A 
ATOM     45  N   UNL A   1      44.023  28.732  29.129  1.00  0.00    -0.354 N 
ATOM     46  C   UNL A   1      42.537  24.899  27.162  1.00  0.00     0.074 A 
ATOM     47  C   UNL A   1      41.922  25.620  26.079  1.00  0.00     0.031 C 
ATOM     48  C   UNL A   1      43.729  30.870  29.717  1.00  0.00     0.029 A 
ATOM     49  C   UNL A   1      44.745  29.884  29.417  1.00  0.00     0.049 A 
ATOM     50  H   UNL A   1      44.454  27.868  28.936  1.00  0.00     0.167 HD
ATOM     51  C   UNL A   1      43.430  23.870  27.176  1.00  0.00     0.037 A 
ATOM     52  C   UNL A   1      46.094  30.010  29.419  1.00  0.00     0.037 A 
ATOM     53  C   UNL A   1      43.824  23.571  28.534  1.00  0.00     0.049 A 
ATOM     54  C   UNL A   1      46.641  28.641  29.557  1.00  0.00     0.074 A 
ATOM     55  C   UNL A   1      43.196  23.078  29.658  1.00  0.00     0.029 A 
ATOM     56  N   UNL A   1      44.968  24.192  28.969  1.00  0.00    -0.354 N 
ATOM     57  N   UNL A   1      46.482  27.905  30.623  1.00  0.00    -0.248 NA
ATOM     58  C   UNL A   1      46.979  27.917  28.344  1.00  0.00     0.031 C 
ATOM     59  C   UNL A   1      43.794  23.768  30.757  1.00  0.00     0.029 A 
ATOM     60  C   UNL A   1      44.804  24.597  30.266  1.00  0.00     0.049 A 
ATOM     61  H   UNL A   1      45.782  24.325  28.430  1.00  0.00     0.167 HD
ATOM     62  C   UNL A   1      46.273  26.622  30.140  1.00  0.00     0.074 A 
ATOM     63  C   UNL A   1      46.717  26.670  28.748  1.00  0.00     0.031 C 
ATOM     64  C   UNL A   1      45.489  25.742  30.832  1.00  0.00     0.037 A 
BRANCH  51  65
ATOM     65  C   UNL A   1      44.289  23.445  26.003  1.00  0.00     0.064 A 
ATOM     66  C   UNL A   1      44.280  22.086  25.618  1.00  0.00     0.173 A 
ATOM     67  C   UNL A   1      45.335  24.217  25.453  1.00  0.00     0.173 A 
ATOM     68  F   UNL A   1      43.334  21.253  26.078  1.00  0.00    -0.203 F 
ATOM     69  C   UNL A   1      45.294  21.529  24.835  1.00  0.00     0.198 A 
ATOM     70  C   UNL A   1      46.318  23.667  24.630  1.00  0.00     0.198 A 
ATOM     71  F   UNL A   1      45.527  25.501  25.771  1.00  0.00    -0.203 F 
ATOM     72  F   UNL A   1      45.313  20.208  24.612  1.00  0.00    -0.200 F 
ATOM     73  C   UNL A   1      46.319  22.318  24.350  1.00  0.00     0.200 A 
ATOM     74  F   UNL A   1      47.314  24.447  24.183  1.00  0.00    -0.200 F 
ATOM     75  F   UNL A   1      47.329  21.776  23.657  1.00  0.00    -0.200 F 
ENDBRANCH  51  65
BRANCH  52  76
ATOM     76  C   UNL A   1      46.911  31.165  28.983  1.00  0.00     0.064 A 
ATOM     77  C   UNL A   1      46.885  31.612  27.653  1.00  0.00     0.173 A 
ATOM     78  C   UNL A   1      47.496  32.033  29.926  1.00  0.00     0.173 A 
ATOM     79  F   UNL A   1      46.305  30.863  26.703  1.00  0.00    -0.203 F 
ATOM     80  C   UNL A   1      47.387  32.867  27.291  1.00  0.00     0.198 A 
ATOM     81  C   UNL A   1      47.997  33.285  29.564  1.00  0.00     0.198 A 
ATOM     82  F   UNL A   1      47.500  31.724  31.231  1.00  0.00    -0.203 F 
ATOM     83  F   UNL A   1      47.285  33.287  26.022  1.00  0.00    -0.200 F 
ATOM     84  C   UNL A   1      47.930  33.708  28.249  1.00  0.00     0.200 A 
ATOM     85  F   UNL A   1      48.479  34.107  30.507  1.00  0.00    -0.200 F 
ATOM     86  F   UNL A   1      48.344  34.938  27.915  1.00  0.00    -0.200 F 
ENDBRANCH  52  76
BRANCH  64  87
ATOM     87  C   UNL A   1      45.160  26.091  32.260  1.00  0.00     0.064 A 
ATOM     88  C   UNL A   1      43.983  26.739  32.672  1.00  0.00     0.173 A 
ATOM     89  C   UNL A   1      46.024  25.636  33.262  1.00  0.00     0.173 A 
ATOM     90  F   UNL A   1      43.063  27.129  31.784  1.00  0.00    -0.203 F 
ATOM     91  C   UNL A   1      43.704  26.951  34.022  1.00  0.00     0.198 A 
ATOM     92  C   UNL A   1      45.729  25.816  34.611  1.00  0.00     0.198 A 
ATOM     93  F   UNL A   1      47.140  24.966  32.932  1.00  0.00    -0.203 F 
ATOM     94  F   UNL A   1      42.577  27.580  34.387  1.00  0.00    -0.200 F 
ATOM     95  C   UNL A   1      44.574  26.482  34.991  1.00  0.00     0.200 A 
ATOM     96  F   UNL A   1      46.552  25.319  35.543  1.00  0.00    -0.200 F 
ATOM     97  F   UNL A   1      44.291  26.648  36.290  1.00  0.00    -0.200 F 
ENDBRANCH  64  87
ENDBRANCH  38  39
ENDBRANCH  30  33
ENDBRANCH  28  29
ENDBRANCH   1  28
TORSDOF 12
ENDMDL
MODEL 3
REMARK VINA RESULT:     -13.9      3.088      8.948
REMARK SMILES Cc1ccn(CC(=O)N2CCC3(CC2)NC(=O)C[C@@H]3C(=O)NCCCNC(=O)c2ccc(-c3c4nc(c(-c5c(F)c(F)c(F)c(F)c5F)c5ccc([nH]5)c(-c5c(F)c(F)c(F)c(F)c5F)c5nc(c(-c6c(F)c(F)c(F)c(F)c6F)c6ccc3[nH]6)C=C5)C=C4)cc2)n1
REMARK SMILES IDX 24 1 23 2 22 3 20 4 21 5 19 7 7 8 8 9 9 10 10 11 14 12 11 13
REMARK SMILES IDX 13 14 12 15 15 16 16 17 18 19 17 20 6 21 5 22 1 23 2 24 3 25
REMARK SMILES IDX 92 26 4 27 25 28 26 29 27 30 28 32 29 33 30 34 91 35 31 36
REMARK SMILES IDX 90 37 32 38 33 39 34 40 84 41 35 42 89 43 83 44 85 45 36 46
REMARK SMILES IDX 88 47 82 48 81 49 37 51 69 52 49 53 68 54 50 55 53 56 67 57
REMARK SMILES IDX 86 58 51 59 52 60 66 62 87 63 54 64 38 65 39 66 47 67 40 68
REMARK SMILES IDX 41 69 45 70 48 71 42 72 43 73 46 74 44 75 70 76 71 77 79 78
REMARK SMILES IDX 72 79 73 80 77 81 80 82 74 83 75 84 78 85 76 86 55 87 56 88
REMARK SMILES IDX 64 89 57 90 58 91 62 92 65 93 59 94 60 95 63 96 61 97
REMARK H PARENT 22 6 15 18 26 31 85 50 53 61
REMARK Flexibility Score: inf
ROOT
ATOM      1  C   UNL A   1      32.893  30.275  26.847  1.00  0.00     0.042 C 
ENDROOT
BRANCH   1   2
ATOM      2  C   UNL A   1      33.666  29.288  25.966  1.00  0.00     0.117 C 
BRANCH   2   3
ATOM      3  N   UNL A   1      33.242  29.369  24.580  1.00  0.00    -0.356 N 
ATOM      4  C   UNL A   1      32.417  28.623  23.813  1.00  0.00     0.226 C 
ATOM      5  O   UNL A   1      32.663  28.669  22.601  1.00  0.00    -0.275 OA
ATOM      6  H   UNL A   1      33.639  30.129  24.095  1.00  0.00     0.163 HD
BRANCH   4   7
ATOM      7  C   UNL A   1      31.200  27.838  24.287  1.00  0.00     0.113 C 
ATOM      8  C   UNL A   1      34.917  24.177  25.249  1.00  0.00     0.244 C 
ATOM      9  O   UNL A   1      35.923  24.071  24.537  1.00  0.00    -0.273 OA
ATOM     10  N   UNL A   1      33.959  25.144  24.974  1.00  0.00    -0.341 N 
ATOM     11  C   UNL A   1      33.814  25.664  23.620  1.00  0.00     0.122 C 
ATOM     12  C   UNL A   1      33.194  25.863  25.978  1.00  0.00     0.122 C 
ATOM     13  C   UNL A   1      32.327  25.710  23.206  1.00  0.00     0.051 C 
ATOM     14  C   UNL A   1      31.724  25.728  25.677  1.00  0.00     0.051 C 
ATOM     15  C   UNL A   1      31.366  26.279  24.282  1.00  0.00     0.055 C 
ATOM     16  N   UNL A   1      29.998  25.824  24.039  1.00  0.00    -0.350 N 
ATOM     17  C   UNL A   1      29.079  26.833  23.879  1.00  0.00     0.221 C 
ATOM     18  H   UNL A   1      29.755  24.871  23.994  1.00  0.00     0.164 HD
ATOM     19  C   UNL A   1      29.851  28.085  23.624  1.00  0.00     0.116 C 
ATOM     20  O   UNL A   1      27.880  26.705  23.832  1.00  0.00    -0.275 OA
BRANCH   8  21
ATOM     21  C   UNL A   1      34.598  23.069  26.239  1.00  0.00     0.244 C 
BRANCH  21  22
ATOM     22  N   UNL A   1      33.793  21.965  25.762  1.00  0.00    -0.263 N 
ATOM     23  C   UNL A   1      33.703  18.686  24.423  1.00  0.00     0.069 C 
ATOM     24  C   UNL A   1      33.413  20.040  24.953  1.00  0.00     0.059 A 
ATOM     25  C   UNL A   1      32.167  20.708  25.011  1.00  0.00     0.045 A 
ATOM     26  N   UNL A   1      34.399  20.803  25.437  1.00  0.00    -0.178 NA
ATOM     27  C   UNL A   1      32.442  21.938  25.563  1.00  0.00     0.109 A 
ENDBRANCH  21  22
ENDBRANCH   8  21
ENDBRANCH   4   7
ENDBRANCH   2   3
ENDBRANCH   1   2
BRANCH   1  28
ATOM     28  C   UNL A   1      33.768  30.725  27.998  1.00  0.00     0.118 C 
BRANCH  28  29
ATOM     29  N   UNL A   1      34.497  31.968  27.684  1.00  0.00    -0.352 N 
ATOM     30  C   UNL A   1      35.801  32.311  27.995  1.00  0.00     0.251 C 
ATOM     31  H   UNL A   1      33.986  32.645  27.185  1.00  0.00     0.163 HD
ATOM     32  O   UNL A   1      36.204  33.462  27.911  1.00  0.00    -0.269 OA
BRANCH  30  33
ATOM     33  C   UNL A   1      36.695  31.228  28.417  1.00  0.00     0.039 A 
ATOM     34  C   UNL A   1      36.781  30.010  27.740  1.00  0.00     0.014 A 
ATOM     35  C   UNL A   1      37.579  31.558  29.432  1.00  0.00     0.014 A 
ATOM     36  C   UNL A   1      37.843  29.166  28.051  1.00  0.00     0.010 A 
ATOM     37  C   UNL A   1      38.761  30.892  29.490  1.00  0.00     0.010 A 
ATOM     38  C   UNL A   1      38.844  29.638  28.914  1.00  0.00    -0.014 A 
BRANCH  38  39
ATOM     39  C   UNL A   1      40.055  28.891  29.205  1.00  0.00     0.031 A 
ATOM     40  C   UNL A   1      40.308  28.689  30.650  1.00  0.00     0.074 A 
ATOM     41  C   UNL A   1      40.741  28.248  28.231  1.00  0.00     0.049 A 
ATOM     42  N   UNL A   1      41.204  29.271  31.372  1.00  0.00    -0.248 NA
ATOM     43  C   UNL A   1      39.348  27.885  31.425  1.00  0.00     0.031 C 
ATOM     44  C   UNL A   1      40.403  28.104  26.805  1.00  0.00     0.029 A 
ATOM     45  N   UNL A   1      41.869  27.499  28.337  1.00  0.00    -0.354 N 
ATOM     46  C   UNL A   1      41.070  28.735  32.649  1.00  0.00     0.074 A 
ATOM     47  C   UNL A   1      39.795  28.068  32.669  1.00  0.00     0.031 C 
ATOM     48  C   UNL A   1      41.169  27.146  26.241  1.00  0.00     0.029 A 
ATOM     49  C   UNL A   1      42.180  26.758  27.202  1.00  0.00     0.049 A 
ATOM     50  H   UNL A   1      42.422  27.483  29.151  1.00  0.00     0.167 HD
ATOM     51  C   UNL A   1      42.152  28.652  33.474  1.00  0.00     0.037 A 
ATOM     52  C   UNL A   1      43.212  25.892  27.064  1.00  0.00     0.037 A 
ATOM     53  C   UNL A   1      43.236  29.453  32.956  1.00  0.00     0.049 A 
ATOM     54  C   UNL A   1      44.199  26.246  28.110  1.00  0.00     0.074 A 
ATOM     55  C   UNL A   1      43.461  30.798  32.753  1.00  0.00     0.029 A 
ATOM     56  N   UNL A   1      44.143  28.786  32.171  1.00  0.00    -0.354 N 
ATOM     57  N   UNL A   1      44.853  27.375  28.130  1.00  0.00    -0.248 NA
ATOM     58  C   UNL A   1      44.128  25.543  29.380  1.00  0.00     0.031 C 
ATOM     59  C   UNL A   1      44.232  30.876  31.554  1.00  0.00     0.029 A 
ATOM     60  C   UNL A   1      44.505  29.579  31.115  1.00  0.00     0.049 A 
ATOM     61  H   UNL A   1      44.482  27.876  32.341  1.00  0.00     0.167 HD
ATOM     62  C   UNL A   1      44.901  27.732  29.470  1.00  0.00     0.074 A 
ATOM     63  C   UNL A   1      44.556  26.511  30.195  1.00  0.00     0.031 C 
ATOM     64  C   UNL A   1      44.925  29.050  29.834  1.00  0.00     0.037 A 
BRANCH  51  65
ATOM     65  C   UNL A   1      42.411  27.530  34.460  1.00  0.00     0.064 A 
ATOM     66  C   UNL A   1      42.913  26.305  33.969  1.00  0.00     0.173 A 
ATOM     67  C   UNL A   1      41.907  27.487  35.777  1.00  0.00     0.173 A 
ATOM     68  F   UNL A   1      43.417  26.221  32.728  1.00  0.00    -0.203 F 
ATOM     69  C   UNL A   1      42.820  25.118  34.699  1.00  0.00     0.198 A 
ATOM     70  C   UNL A   1      41.862  26.309  36.523  1.00  0.00     0.198 A 
ATOM     71  F   UNL A   1      41.333  28.542  36.364  1.00  0.00    -0.203 F 
ATOM     72  F   UNL A   1      43.185  23.959  34.135  1.00  0.00    -0.200 F 
ATOM     73  C   UNL A   1      42.283  25.119  35.973  1.00  0.00     0.200 A 
ATOM     74  F   UNL A   1      41.322  26.328  37.751  1.00  0.00    -0.200 F 
ATOM     75  F   UNL A   1      42.129  23.973  36.650  1.00  0.00    -0.200 F 
ENDBRANCH  51  65
BRANCH  52  76
ATOM     76  C   UNL A   1      43.243  24.607  26.329  1.00  0.00     0.064 A 
ATOM     77  C   UNL A   1      44.130  24.401  25.262  1.00  0.00     0.173 A 
ATOM     78  C   UNL A   1      42.615  23.459  26.854  1.00  0.00     0.173 A 
ATOM     79  F   UNL A   1      44.801  25.437  24.736  1.00  0.00    -0.203 F 
ATOM     80  C   UNL A   1      44.400  23.120  24.769  1.00  0.00     0.198 A 
ATOM     81  C   UNL A   1      42.884  22.182  26.361  1.00  0.00     0.198 A 
ATOM     82  F   UNL A   1      41.808  23.549  27.922  1.00  0.00    -0.203 F 
ATOM     83  F   UNL A   1      45.303  22.955  23.792  1.00  0.00    -0.200 F 
ATOM     84  C   UNL A   1      43.787  22.010  25.327  1.00  0.00     0.200 A 
ATOM     85  F   UNL A   1      42.319  21.112  26.939  1.00  0.00    -0.200 F 
ATOM     86  F   UNL A   1      44.099  20.777  24.904  1.00  0.00    -0.200 F 
ENDBRANCH  52  76
BRANCH  64  87
ATOM     87  C   UNL A   1      45.240  30.054  28.756  1.00  0.00     0.064 A 
ATOM     88  C   UNL A   1      44.277  30.699  27.961  1.00  0.00     0.173 A 
ATOM     89  C   UNL A   1      46.569  30.467  28.612  1.00  0.00     0.173 A 
ATOM     90  F   UNL A   1      42.976  30.426  28.096  1.00  0.00    -0.203 F 
ATOM     91  C   UNL A   1      44.636  31.685  27.041  1.00  0.00     0.198 A 
ATOM     92  C   UNL A   1      46.923  31.476  27.720  1.00  0.00     0.198 A 
ATOM     93  F   UNL A   1      47.527  29.923  29.379  1.00  0.00    -0.203 F 
ATOM     94  F   UNL A   1      43.697  32.278  26.289  1.00  0.00    -0.200 F 
ATOM     95  C   UNL A   1      45.958  32.078  26.928  1.00  0.00     0.200 A 
ATOM     96  F   UNL A   1      48.197  31.884  27.648  1.00  0.00    -0.200 F 
ATOM     97  F   UNL A   1      46.301  33.053  26.074  1.00  0.00    -0.200 F 
ENDBRANCH  64  87
ENDBRANCH  38  39
ENDBRANCH  30  33
ENDBRANCH  28  29
ENDBRANCH   1  28
TORSDOF 12
ENDMDL
