MODEL 1
REMARK VINA RESULT:     -12.3      0.000      0.000
REMARK SMILES CC1(C)CCC[C@@H]1Nc1cccc(F)c1C(=O)NCCCNC(=O)c1ccc(-c2c3nc(c(-c4c(F)c(F)c(F)c(F)c4F)c4ccc([nH]4)c(-c4c(F)c(F)c(F)c(F)c4F)c4nc(c(-c5c(F)c(F)c(F)c(F)c5F)c5ccc2[nH]5)C=C4)C=C3)cc1
REMARK SMILES IDX 20 1 19 2 18 3 16 4 17 5 15 7 9 8 10 9 11 10 13 11 12 12
REMARK SMILES IDX 14 13 8 14 7 16 1 17 2 18 3 19 4 20 5 21 6 22 21 23 22 24
REMARK SMILES IDX 23 25 24 27 25 28 26 29 87 30 27 31 86 32 28 33 29 34 30 35
REMARK SMILES IDX 80 36 31 37 85 38 79 39 81 40 32 41 84 42 78 43 77 44 33 46
REMARK SMILES IDX 65 47 45 48 64 49 46 50 49 51 63 52 82 53 47 54 48 55 62 57
REMARK SMILES IDX 83 58 50 59 34 60 35 61 43 62 36 63 37 64 41 65 44 66 38 67
REMARK SMILES IDX 39 68 42 69 40 70 66 71 67 72 75 73 68 74 69 75 73 76 76 77
REMARK SMILES IDX 70 78 71 79 74 80 72 81 51 82 52 83 60 84 53 85 54 86 58 87
REMARK SMILES IDX 61 88 55 89 56 90 59 91 57 92
REMARK H PARENT 18 6 8 15 22 26 81 45 49 56
REMARK Flexibility Score: inf
ROOT
ATOM      1  C   UNL A   1      31.401  31.921  26.501  1.00  0.00     0.042 C 
ENDROOT
BRANCH   1   2
ATOM      2  C   UNL A   1      31.519  30.402  26.337  1.00  0.00     0.118 C 
BRANCH   2   3
ATOM      3  N   UNL A   1      32.031  30.078  25.020  1.00  0.00    -0.352 N 
ATOM      4  C   UNL A   1      31.473  29.577  23.874  1.00  0.00     0.256 C 
ATOM      5  O   UNL A   1      32.285  29.329  22.973  1.00  0.00    -0.269 OA
ATOM      6  H   UNL A   1      32.994  30.261  24.928  1.00  0.00     0.163 HD
BRANCH   4   7
ATOM      7  C   UNL A   1      30.008  29.398  23.611  1.00  0.00     0.098 A 
ATOM      8  C   UNL A   1      29.518  28.078  23.373  1.00  0.00     0.050 A 
ATOM      9  C   UNL A   1      28.157  27.904  23.059  1.00  0.00     0.027 A 
ATOM     10  C   UNL A   1      27.278  28.983  23.002  1.00  0.00     0.005 A 
ATOM     11  C   UNL A   1      29.089  30.451  23.610  1.00  0.00     0.138 A 
ATOM     12  C   UNL A   1      27.745  30.256  23.287  1.00  0.00     0.040 A 
ATOM     13  F   UNL A   1      29.426  31.692  23.979  1.00  0.00    -0.206 F 
BRANCH   8  14
ATOM     14  N   UNL A   1      30.360  26.970  23.451  1.00  0.00    -0.381 N 
ATOM     15  H   UNL A   1      31.106  26.916  22.811  1.00  0.00     0.160 HD
BRANCH  14  16
ATOM     16  C   UNL A   1      30.216  25.889  24.407  1.00  0.00     0.084 C 
ATOM     17  C   UNL A   1      31.028  26.869  26.620  1.00  0.00     0.013 C 
ATOM     18  C   UNL A   1      31.329  25.883  25.487  1.00  0.00    -0.015 C 
ATOM     19  C   UNL A   1      32.746  26.163  24.947  1.00  0.00     0.013 C 
ATOM     20  C   UNL A   1      31.235  24.428  25.982  1.00  0.00     0.008 C 
ATOM     21  C   UNL A   1      31.030  23.600  24.718  1.00  0.00     0.003 C 
ATOM     22  C   UNL A   1      30.335  24.523  23.719  1.00  0.00     0.025 C 
ENDBRANCH  14  16
ENDBRANCH   8  14
ENDBRANCH   4   7
ENDBRANCH   2   3
ENDBRANCH   1   2
BRANCH   1  23
ATOM     23  C   UNL A   1      32.719  32.599  26.876  1.00  0.00     0.118 C 
BRANCH  23  24
ATOM     24  N   UNL A   1      32.513  33.937  27.411  1.00  0.00    -0.352 N 
ATOM     25  C   UNL A   1      33.076  34.551  28.501  1.00  0.00     0.251 C 
ATOM     26  H   UNL A   1      31.867  34.487  26.913  1.00  0.00     0.163 HD
ATOM     27  O   UNL A   1      32.593  35.600  28.918  1.00  0.00    -0.269 OA
BRANCH  25  28
ATOM     28  C   UNL A   1      34.253  33.970  29.183  1.00  0.00     0.039 A 
ATOM     29  C   UNL A   1      34.044  33.007  30.176  1.00  0.00     0.014 A 
ATOM     30  C   UNL A   1      35.550  34.409  28.904  1.00  0.00     0.014 A 
ATOM     31  C   UNL A   1      35.133  32.453  30.853  1.00  0.00     0.010 A 
ATOM     32  C   UNL A   1      36.641  33.810  29.533  1.00  0.00     0.010 A 
ATOM     33  C   UNL A   1      36.443  32.831  30.518  1.00  0.00    -0.014 A 
BRANCH  33  34
ATOM     34  C   UNL A   1      37.615  32.213  31.191  1.00  0.00     0.031 A 
ATOM     35  C   UNL A   1      38.394  31.122  30.511  1.00  0.00     0.074 A 
ATOM     36  C   UNL A   1      37.948  32.603  32.436  1.00  0.00     0.049 A 
ATOM     37  N   UNL A   1      39.401  30.417  30.964  1.00  0.00    -0.248 NA
ATOM     38  C   UNL A   1      37.973  30.758  29.148  1.00  0.00     0.031 C 
ATOM     39  C   UNL A   1      37.251  33.630  33.212  1.00  0.00     0.029 A 
ATOM     40  N   UNL A   1      38.953  32.181  33.271  1.00  0.00    -0.354 N 
ATOM     41  C   UNL A   1      39.723  29.525  29.951  1.00  0.00     0.074 A 
ATOM     42  C   UNL A   1      38.777  29.739  28.878  1.00  0.00     0.031 C 
ATOM     43  C   UNL A   1      37.868  33.781  34.394  1.00  0.00     0.029 A 
ATOM     44  C   UNL A   1      38.976  32.835  34.479  1.00  0.00     0.049 A 
ATOM     45  H   UNL A   1      39.597  31.477  33.027  1.00  0.00     0.167 HD
ATOM     46  C   UNL A   1      40.735  28.624  29.910  1.00  0.00     0.037 A 
ATOM     47  C   UNL A   1      39.796  32.687  35.536  1.00  0.00     0.037 A 
ATOM     48  C   UNL A   1      41.691  28.431  30.969  1.00  0.00     0.049 A 
ATOM     49  C   UNL A   1      40.901  31.669  35.474  1.00  0.00     0.074 A 
ATOM     50  C   UNL A   1      42.776  27.573  31.006  1.00  0.00     0.029 A 
ATOM     51  N   UNL A   1      41.677  29.111  32.179  1.00  0.00    -0.354 N 
ATOM     52  N   UNL A   1      41.220  30.856  34.496  1.00  0.00    -0.248 NA
ATOM     53  C   UNL A   1      41.761  31.547  36.660  1.00  0.00     0.031 C 
ATOM     54  C   UNL A   1      43.394  27.702  32.253  1.00  0.00     0.029 A 
ATOM     55  C   UNL A   1      42.727  28.678  32.975  1.00  0.00     0.049 A 
ATOM     56  H   UNL A   1      41.020  29.799  32.434  1.00  0.00     0.167 HD
ATOM     57  C   UNL A   1      42.327  30.145  34.935  1.00  0.00     0.074 A 
ATOM     58  C   UNL A   1      42.634  30.630  36.265  1.00  0.00     0.031 C 
ATOM     59  C   UNL A   1      43.024  29.176  34.294  1.00  0.00     0.037 A 
BRANCH  46  60
ATOM     60  C   UNL A   1      40.877  27.785  28.673  1.00  0.00     0.064 A 
ATOM     61  C   UNL A   1      41.692  28.207  27.612  1.00  0.00     0.173 A 
ATOM     62  C   UNL A   1      40.155  26.593  28.511  1.00  0.00     0.173 A 
ATOM     63  F   UNL A   1      42.398  29.344  27.711  1.00  0.00    -0.203 F 
ATOM     64  C   UNL A   1      41.770  27.472  26.432  1.00  0.00     0.198 A 
ATOM     65  C   UNL A   1      40.258  25.846  27.341  1.00  0.00     0.198 A 
ATOM     66  F   UNL A   1      39.369  26.141  29.500  1.00  0.00    -0.203 F 
ATOM     67  F   UNL A   1      42.530  27.911  25.420  1.00  0.00    -0.200 F 
ATOM     68  C   UNL A   1      41.058  26.290  26.299  1.00  0.00     0.200 A 
ATOM     69  F   UNL A   1      39.587  24.691  27.225  1.00  0.00    -0.200 F 
ATOM     70  F   UNL A   1      41.143  25.577  25.168  1.00  0.00    -0.200 F 
ENDBRANCH  46  60
BRANCH  47  71
ATOM     71  C   UNL A   1      39.622  33.559  36.727  1.00  0.00     0.064 A 
ATOM     72  C   UNL A   1      38.801  33.183  37.800  1.00  0.00     0.173 A 
ATOM     73  C   UNL A   1      40.250  34.810  36.793  1.00  0.00     0.173 A 
ATOM     74  F   UNL A   1      38.174  31.997  37.781  1.00  0.00    -0.203 F 
ATOM     75  C   UNL A   1      38.598  34.034  38.883  1.00  0.00     0.198 A 
ATOM     76  C   UNL A   1      40.067  35.650  37.889  1.00  0.00     0.198 A 
ATOM     77  F   UNL A   1      41.061  35.205  35.800  1.00  0.00    -0.203 F 
ATOM     78  F   UNL A   1      37.780  33.665  39.879  1.00  0.00    -0.200 F 
ATOM     79  C   UNL A   1      39.235  35.265  38.929  1.00  0.00     0.200 A 
ATOM     80  F   UNL A   1      40.702  36.829  37.939  1.00  0.00    -0.200 F 
ATOM     81  F   UNL A   1      39.046  36.081  39.976  1.00  0.00    -0.200 F 
ENDBRANCH  47  71
BRANCH  59  82
ATOM     82  C   UNL A   1      44.208  28.585  35.002  1.00  0.00     0.064 A 
ATOM     83  C   UNL A   1      45.487  29.132  34.825  1.00  0.00     0.173 A 
ATOM     84  C   UNL A   1      44.089  27.431  35.790  1.00  0.00     0.173 A 
ATOM     85  F   UNL A   1      45.654  30.232  34.073  1.00  0.00    -0.203 F 
ATOM     86  C   UNL A   1      46.607  28.536  35.397  1.00  0.00     0.198 A 
ATOM     87  C   UNL A   1      45.208  26.854  36.384  1.00  0.00     0.198 A 
ATOM     88  F   UNL A   1      42.885  26.878  36.000  1.00  0.00    -0.203 F 
ATOM     89  F   UNL A   1      47.824  29.056  35.184  1.00  0.00    -0.200 F 
ATOM     90  C   UNL A   1      46.467  27.400  36.178  1.00  0.00     0.200 A 
ATOM     91  F   UNL A   1      45.068  25.769  37.159  1.00  0.00    -0.200 F 
ATOM     92  F   UNL A   1      47.544  26.831  36.735  1.00  0.00    -0.200 F 
ENDBRANCH  59  82
ENDBRANCH  33  34
ENDBRANCH  25  28
ENDBRANCH  23  24
ENDBRANCH   1  23
TORSDOF 12
ENDMDL
MODEL 2
REMARK VINA RESULT:     -12.2      6.010     11.387
REMARK SMILES CC1(C)CCC[C@@H]1Nc1cccc(F)c1C(=O)NCCCNC(=O)c1ccc(-c2c3nc(c(-c4c(F)c(F)c(F)c(F)c4F)c4ccc([nH]4)c(-c4c(F)c(F)c(F)c(F)c4F)c4nc(c(-c5c(F)c(F)c(F)c(F)c5F)c5ccc2[nH]5)C=C4)C=C3)cc1
REMARK SMILES IDX 20 1 19 2 18 3 16 4 17 5 15 7 9 8 10 9 11 10 13 11 12 12
REMARK SMILES IDX 14 13 8 14 7 16 1 17 2 18 3 19 4 20 5 21 6 22 21 23 22 24
REMARK SMILES IDX 23 25 24 27 25 28 26 29 87 30 27 31 86 32 28 33 29 34 30 35
REMARK SMILES IDX 80 36 31 37 85 38 79 39 81 40 32 41 84 42 78 43 77 44 33 46
REMARK SMILES IDX 65 47 45 48 64 49 46 50 49 51 63 52 82 53 47 54 48 55 62 57
REMARK SMILES IDX 83 58 50 59 34 60 35 61 43 62 36 63 37 64 41 65 44 66 38 67
REMARK SMILES IDX 39 68 42 69 40 70 66 71 67 72 75 73 68 74 69 75 73 76 76 77
REMARK SMILES IDX 70 78 71 79 74 80 72 81 51 82 52 83 60 84 53 85 54 86 58 87
REMARK SMILES IDX 61 88 55 89 56 90 59 91 57 92
REMARK H PARENT 18 6 8 15 22 26 81 45 49 56
REMARK Flexibility Score: inf
ROOT
ATOM      1  C   UNL A   1      38.084  19.606  25.019  1.00  0.00     0.042 C 
ENDROOT
BRANCH   1   2
ATOM      2  C   UNL A   1      37.076  20.690  24.626  1.00  0.00     0.118 C 
BRANCH   2   3
ATOM      3  N   UNL A   1      36.021  20.777  25.617  1.00  0.00    -0.352 N 
ATOM      4  C   UNL A   1      34.698  20.420  25.640  1.00  0.00     0.256 C 
ATOM      5  O   UNL A   1      34.089  20.771  26.658  1.00  0.00    -0.269 OA
ATOM      6  H   UNL A   1      36.322  21.180  26.463  1.00  0.00     0.163 HD
BRANCH   4   7
ATOM      7  C   UNL A   1      33.989  19.595  24.608  1.00  0.00     0.098 A 
ATOM      8  C   UNL A   1      32.868  20.170  23.934  1.00  0.00     0.050 A 
ATOM      9  C   UNL A   1      32.153  19.383  23.012  1.00  0.00     0.027 A 
ATOM     10  C   UNL A   1      32.528  18.073  22.725  1.00  0.00     0.005 A 
ATOM     11  C   UNL A   1      34.379  18.302  24.251  1.00  0.00     0.138 A 
ATOM     12  C   UNL A   1      33.648  17.537  23.340  1.00  0.00     0.040 A 
ATOM     13  F   UNL A   1      35.506  17.745  24.709  1.00  0.00    -0.206 F 
BRANCH   8  14
ATOM     14  N   UNL A   1      32.480  21.488  24.172  1.00  0.00    -0.381 N 
ATOM     15  H   UNL A   1      32.129  21.707  25.064  1.00  0.00     0.160 HD
BRANCH  14  16
ATOM     16  C   UNL A   1      32.557  22.559  23.198  1.00  0.00     0.084 C 
ATOM     17  C   UNL A   1      35.028  23.195  23.126  1.00  0.00     0.013 C 
ATOM     18  C   UNL A   1      33.622  23.628  23.555  1.00  0.00    -0.015 C 
ATOM     19  C   UNL A   1      33.657  24.024  25.044  1.00  0.00     0.013 C 
ATOM     20  C   UNL A   1      33.128  24.815  22.708  1.00  0.00     0.008 C 
ATOM     21  C   UNL A   1      31.610  24.792  22.856  1.00  0.00     0.003 C 
ATOM     22  C   UNL A   1      31.236  23.337  23.127  1.00  0.00     0.025 C 
ENDBRANCH  14  16
ENDBRANCH   8  14
ENDBRANCH   4   7
ENDBRANCH   2   3
ENDBRANCH   1   2
BRANCH   1  23
ATOM     23  C   UNL A   1      39.152  20.092  25.999  1.00  0.00     0.118 C 
BRANCH  23  24
ATOM     24  N   UNL A   1      40.294  19.191  26.057  1.00  0.00    -0.352 N 
ATOM     25  C   UNL A   1      41.636  19.466  26.126  1.00  0.00     0.251 C 
ATOM     26  H   UNL A   1      40.066  18.234  26.044  1.00  0.00     0.163 HD
ATOM     27  O   UNL A   1      42.446  18.565  25.929  1.00  0.00    -0.269 OA
BRANCH  25  28
ATOM     28  C   UNL A   1      42.122  20.830  26.431  1.00  0.00     0.039 A 
ATOM     29  C   UNL A   1      42.281  21.735  25.376  1.00  0.00     0.014 A 
ATOM     30  C   UNL A   1      42.487  21.203  27.727  1.00  0.00     0.014 A 
ATOM     31  C   UNL A   1      42.757  23.024  25.627  1.00  0.00     0.010 A 
ATOM     32  C   UNL A   1      42.901  22.509  27.987  1.00  0.00     0.010 A 
ATOM     33  C   UNL A   1      43.047  23.430  26.939  1.00  0.00    -0.014 A 
BRANCH  33  34
ATOM     34  C   UNL A   1      43.503  24.813  27.230  1.00  0.00     0.031 A 
ATOM     35  C   UNL A   1      42.544  25.832  27.781  1.00  0.00     0.074 A 
ATOM     36  C   UNL A   1      44.774  25.166  26.954  1.00  0.00     0.049 A 
ATOM     37  N   UNL A   1      42.738  27.101  28.034  1.00  0.00    -0.248 NA
ATOM     38  C   UNL A   1      41.176  25.367  28.064  1.00  0.00     0.031 C 
ATOM     39  C   UNL A   1      45.791  24.276  26.391  1.00  0.00     0.029 A 
ATOM     40  N   UNL A   1      45.427  26.363  27.105  1.00  0.00    -0.354 N 
ATOM     41  C   UNL A   1      41.522  27.587  28.493  1.00  0.00     0.074 A 
ATOM     42  C   UNL A   1      40.580  26.491  28.438  1.00  0.00     0.031 C 
ATOM     43  C   UNL A   1      46.946  24.949  26.274  1.00  0.00     0.029 A 
ATOM     44  C   UNL A   1      46.742  26.326  26.713  1.00  0.00     0.049 A 
ATOM     45  H   UNL A   1      44.994  27.173  27.461  1.00  0.00     0.167 HD
ATOM     46  C   UNL A   1      41.224  28.829  28.944  1.00  0.00     0.037 A 
ATOM     47  C   UNL A   1      47.680  27.294  26.705  1.00  0.00     0.037 A 
ATOM     48  C   UNL A   1      42.171  29.911  29.021  1.00  0.00     0.049 A 
ATOM     49  C   UNL A   1      47.320  28.669  27.194  1.00  0.00     0.074 A 
ATOM     50  C   UNL A   1      41.977  31.194  29.501  1.00  0.00     0.029 A 
ATOM     51  N   UNL A   1      43.494  29.833  28.610  1.00  0.00    -0.354 N 
ATOM     52  N   UNL A   1      46.176  29.106  27.661  1.00  0.00    -0.248 NA
ATOM     53  C   UNL A   1      48.381  29.686  27.157  1.00  0.00     0.031 C 
ATOM     54  C   UNL A   1      43.169  31.906  29.342  1.00  0.00     0.029 A 
ATOM     55  C   UNL A   1      44.122  31.053  28.811  1.00  0.00     0.049 A 
ATOM     56  H   UNL A   1      43.923  29.032  28.232  1.00  0.00     0.167 HD
ATOM     57  C   UNL A   1      46.383  30.437  27.995  1.00  0.00     0.074 A 
ATOM     58  C   UNL A   1      47.767  30.735  27.689  1.00  0.00     0.031 C 
ATOM     59  C   UNL A   1      45.503  31.332  28.508  1.00  0.00     0.037 A 
BRANCH  46  60
ATOM     60  C   UNL A   1      39.820  29.089  29.407  1.00  0.00     0.064 A 
ATOM     61  C   UNL A   1      39.459  28.882  30.747  1.00  0.00     0.173 A 
ATOM     62  C   UNL A   1      38.815  29.482  28.510  1.00  0.00     0.173 A 
ATOM     63  F   UNL A   1      40.380  28.498  31.645  1.00  0.00    -0.203 F 
ATOM     64  C   UNL A   1      38.143  29.048  31.168  1.00  0.00     0.198 A 
ATOM     65  C   UNL A   1      37.505  29.676  28.941  1.00  0.00     0.198 A 
ATOM     66  F   UNL A   1      39.110  29.703  27.220  1.00  0.00    -0.203 F 
ATOM     67  F   UNL A   1      37.815  28.815  32.446  1.00  0.00    -0.200 F 
ATOM     68  C   UNL A   1      37.168  29.450  30.268  1.00  0.00     0.200 A 
ATOM     69  F   UNL A   1      36.571  30.087  28.074  1.00  0.00    -0.200 F 
ATOM     70  F   UNL A   1      35.904  29.622  30.677  1.00  0.00    -0.200 F 
ENDBRANCH  46  60
BRANCH  47  71
ATOM     71  C   UNL A   1      49.059  26.975  26.255  1.00  0.00     0.064 A 
ATOM     72  C   UNL A   1      49.431  27.063  24.905  1.00  0.00     0.173 A 
ATOM     73  C   UNL A   1      50.025  26.535  27.170  1.00  0.00     0.173 A 
ATOM     74  F   UNL A   1      48.540  27.473  23.989  1.00  0.00    -0.203 F 
ATOM     75  C   UNL A   1      50.709  26.704  24.487  1.00  0.00     0.198 A 
ATOM     76  C   UNL A   1      51.312  26.201  26.754  1.00  0.00     0.198 A 
ATOM     77  F   UNL A   1      49.723  26.454  28.474  1.00  0.00    -0.203 F 
ATOM     78  F   UNL A   1      51.028  26.763  23.186  1.00  0.00    -0.200 F 
ATOM     79  C   UNL A   1      51.651  26.277  25.411  1.00  0.00     0.200 A 
ATOM     80  F   UNL A   1      52.224  25.811  27.654  1.00  0.00    -0.200 F 
ATOM     81  F   UNL A   1      52.884  25.940  25.009  1.00  0.00    -0.200 F 
ENDBRANCH  47  71
BRANCH  59  82
ATOM     82  C   UNL A   1      46.006  32.715  28.798  1.00  0.00     0.064 A 
ATOM     83  C   UNL A   1      45.954  33.711  27.812  1.00  0.00     0.173 A 
ATOM     84  C   UNL A   1      46.613  33.032  30.022  1.00  0.00     0.173 A 
ATOM     85  F   UNL A   1      45.389  33.455  26.621  1.00  0.00    -0.203 F 
ATOM     86  C   UNL A   1      46.505  34.969  28.034  1.00  0.00     0.198 A 
ATOM     87  C   UNL A   1      47.139  34.300  30.251  1.00  0.00     0.198 A 
ATOM     88  F   UNL A   1      46.676  32.117  31.001  1.00  0.00    -0.203 F 
ATOM     89  F   UNL A   1      46.475  35.894  27.064  1.00  0.00    -0.200 F 
ATOM     90  C   UNL A   1      47.095  35.264  29.254  1.00  0.00     0.200 A 
ATOM     91  F   UNL A   1      47.688  34.592  31.439  1.00  0.00    -0.200 F 
ATOM     92  F   UNL A   1      47.619  36.478  29.470  1.00  0.00    -0.200 F 
ENDBRANCH  59  82
ENDBRANCH  33  34
ENDBRANCH  25  28
ENDBRANCH  23  24
ENDBRANCH   1  23
TORSDOF 12
ENDMDL
MODEL 3
REMARK VINA RESULT:     -12.2      5.947     11.300
REMARK SMILES CC1(C)CCC[C@@H]1Nc1cccc(F)c1C(=O)NCCCNC(=O)c1ccc(-c2c3nc(c(-c4c(F)c(F)c(F)c(F)c4F)c4ccc([nH]4)c(-c4c(F)c(F)c(F)c(F)c4F)c4nc(c(-c5c(F)c(F)c(F)c(F)c5F)c5ccc2[nH]5)C=C4)C=C3)cc1
REMARK SMILES IDX 20 1 19 2 18 3 16 4 17 5 15 7 9 8 10 9 11 10 13 11 12 12
REMARK SMILES IDX 14 13 8 14 7 16 1 17 2 18 3 19 4 20 5 21 6 22 21 23 22 24
REMARK SMILES IDX 23 25 24 27 25 28 26 29 87 30 27 31 86 32 28 33 29 34 30 35
REMARK SMILES IDX 80 36 31 37 85 38 79 39 81 40 32 41 84 42 78 43 77 44 33 46
REMARK SMILES IDX 65 47 45 48 64 49 46 50 49 51 63 52 82 53 47 54 48 55 62 57
REMARK SMILES IDX 83 58 50 59 34 60 35 61 43 62 36 63 37 64 41 65 44 66 38 67
REMARK SMILES IDX 39 68 42 69 40 70 66 71 67 72 75 73 68 74 69 75 73 76 76 77
REMARK SMILES IDX 70 78 71 79 74 80 72 81 51 82 52 83 60 84 53 85 54 86 58 87
REMARK SMILES IDX 61 88 55 89 56 90 59 91 57 92
REMARK H PARENT 18 6 8 15 22 26 81 45 49 56
REMARK Flexibility Score: inf
ROOT
ATOM      1  C   UNL A   1      37.996  19.695  24.948  1.00  0.00     0.042 C 
ENDROOT
BRANCH   1   2
ATOM      2  C   UNL A   1      37.008  20.815  24.608  1.00  0.00     0.118 C 
BRANCH   2   3
ATOM      3  N   UNL A   1      35.971  20.894  25.618  1.00  0.00    -0.352 N 
ATOM      4  C   UNL A   1      34.654  20.521  25.669  1.00  0.00     0.256 C 
ATOM      5  O   UNL A   1      34.060  20.870  26.697  1.00  0.00    -0.269 OA
ATOM      6  H   UNL A   1      36.284  21.307  26.456  1.00  0.00     0.163 HD
BRANCH   4   7
ATOM      7  C   UNL A   1      33.936  19.681  24.656  1.00  0.00     0.098 A 
ATOM      8  C   UNL A   1      32.794  20.236  24.002  1.00  0.00     0.050 A 
ATOM      9  C   UNL A   1      32.071  19.436  23.098  1.00  0.00     0.027 A 
ATOM     10  C   UNL A   1      32.459  18.129  22.811  1.00  0.00     0.005 A 
ATOM     11  C   UNL A   1      34.336  18.391  24.298  1.00  0.00     0.138 A 
ATOM     12  C   UNL A   1      33.598  17.612  23.406  1.00  0.00     0.040 A 
ATOM     13  F   UNL A   1      35.480  17.853  24.736  1.00  0.00    -0.206 F 
BRANCH   8  14
ATOM     14  N   UNL A   1      32.393  21.550  24.240  1.00  0.00    -0.381 N 
ATOM     15  H   UNL A   1      32.073  21.773  25.144  1.00  0.00     0.160 HD
BRANCH  14  16
ATOM     16  C   UNL A   1      32.412  22.612  23.253  1.00  0.00     0.084 C 
ATOM     17  C   UNL A   1      34.878  23.226  23.010  1.00  0.00     0.013 C 
ATOM     18  C   UNL A   1      33.507  23.675  23.528  1.00  0.00    -0.015 C 
ATOM     19  C   UNL A   1      33.645  24.085  25.007  1.00  0.00     0.013 C 
ATOM     20  C   UNL A   1      32.967  24.858  22.704  1.00  0.00     0.008 C 
ATOM     21  C   UNL A   1      31.462  24.849  22.953  1.00  0.00     0.003 C 
ATOM     22  C   UNL A   1      31.095  23.400  23.263  1.00  0.00     0.025 C 
ENDBRANCH  14  16
ENDBRANCH   8  14
ENDBRANCH   4   7
ENDBRANCH   2   3
ENDBRANCH   1   2
BRANCH   1  23
ATOM     23  C   UNL A   1      39.059  20.108  25.966  1.00  0.00     0.118 C 
BRANCH  23  24
ATOM     24  N   UNL A   1      40.187  19.188  25.983  1.00  0.00    -0.352 N 
ATOM     25  C   UNL A   1      41.534  19.439  26.053  1.00  0.00     0.251 C 
ATOM     26  H   UNL A   1      39.945  18.236  25.936  1.00  0.00     0.163 HD
ATOM     27  O   UNL A   1      42.329  18.534  25.818  1.00  0.00    -0.269 OA
BRANCH  25  28
ATOM     28  C   UNL A   1      42.044  20.783  26.405  1.00  0.00     0.039 A 
ATOM     29  C   UNL A   1      42.280  21.700  25.374  1.00  0.00     0.014 A 
ATOM     30  C   UNL A   1      42.354  21.125  27.723  1.00  0.00     0.014 A 
ATOM     31  C   UNL A   1      42.780  22.970  25.670  1.00  0.00     0.010 A 
ATOM     32  C   UNL A   1      42.792  22.415  28.026  1.00  0.00     0.010 A 
ATOM     33  C   UNL A   1      43.015  23.347  27.003  1.00  0.00    -0.014 A 
BRANCH  33  34
ATOM     34  C   UNL A   1      43.496  24.712  27.339  1.00  0.00     0.031 A 
ATOM     35  C   UNL A   1      42.552  25.732  27.911  1.00  0.00     0.074 A 
ATOM     36  C   UNL A   1      44.776  25.047  27.086  1.00  0.00     0.049 A 
ATOM     37  N   UNL A   1      42.769  26.990  28.203  1.00  0.00    -0.248 NA
ATOM     38  C   UNL A   1      41.172  25.287  28.167  1.00  0.00     0.031 C 
ATOM     39  C   UNL A   1      45.781  24.154  26.506  1.00  0.00     0.029 A 
ATOM     40  N   UNL A   1      45.451  26.226  27.278  1.00  0.00    -0.354 N 
ATOM     41  C   UNL A   1      41.557  27.486  28.665  1.00  0.00     0.074 A 
ATOM     42  C   UNL A   1      40.594  26.411  28.568  1.00  0.00     0.031 C 
ATOM     43  C   UNL A   1      46.951  24.807  26.420  1.00  0.00     0.029 A 
ATOM     44  C   UNL A   1      46.770  26.174  26.898  1.00  0.00     0.049 A 
ATOM     45  H   UNL A   1      45.031  27.033  27.655  1.00  0.00     0.167 HD
ATOM     46  C   UNL A   1      41.280  28.720  29.150  1.00  0.00     0.037 A 
ATOM     47  C   UNL A   1      47.726  27.122  26.929  1.00  0.00     0.037 A 
ATOM     48  C   UNL A   1      42.247  29.779  29.269  1.00  0.00     0.049 A 
ATOM     49  C   UNL A   1      47.389  28.490  27.455  1.00  0.00     0.074 A 
ATOM     50  C   UNL A   1      42.073  31.052  29.785  1.00  0.00     0.029 A 
ATOM     51  N   UNL A   1      43.572  29.688  28.868  1.00  0.00    -0.354 N 
ATOM     52  N   UNL A   1      46.249  28.936  27.924  1.00  0.00    -0.248 NA
ATOM     53  C   UNL A   1      48.470  29.485  27.459  1.00  0.00     0.031 C 
ATOM     54  C   UNL A   1      43.281  31.744  29.659  1.00  0.00     0.029 A 
ATOM     55  C   UNL A   1      44.222  30.888  29.112  1.00  0.00     0.049 A 
ATOM     56  H   UNL A   1      43.989  28.889  28.471  1.00  0.00     0.167 HD
ATOM     57  C   UNL A   1      46.479  30.252  28.299  1.00  0.00     0.074 A 
ATOM     58  C   UNL A   1      47.872  30.530  28.015  1.00  0.00     0.031 C 
ATOM     59  C   UNL A   1      45.611  31.148  28.830  1.00  0.00     0.037 A 
BRANCH  46  60
ATOM     60  C   UNL A   1      39.877  28.994  29.608  1.00  0.00     0.064 A 
ATOM     61  C   UNL A   1      39.491  28.733  30.931  1.00  0.00     0.173 A 
ATOM     62  C   UNL A   1      38.894  29.455  28.718  1.00  0.00     0.173 A 
ATOM     63  F   UNL A   1      40.390  28.283  31.821  1.00  0.00    -0.203 F 
ATOM     64  C   UNL A   1      38.174  28.913  31.344  1.00  0.00     0.198 A 
ATOM     65  C   UNL A   1      37.584  29.662  29.142  1.00  0.00     0.198 A 
ATOM     66  F   UNL A   1      39.213  29.729  27.444  1.00  0.00    -0.203 F 
ATOM     67  F   UNL A   1      37.823  28.628  32.605  1.00  0.00    -0.200 F 
ATOM     68  C   UNL A   1      37.223  29.383  30.451  1.00  0.00     0.200 A 
ATOM     69  F   UNL A   1      36.673  30.139  28.283  1.00  0.00    -0.200 F 
ATOM     70  F   UNL A   1      35.958  29.568  30.852  1.00  0.00    -0.200 F 
ENDBRANCH  46  60
BRANCH  47  71
ATOM     71  C   UNL A   1      49.103  26.789  26.482  1.00  0.00     0.064 A 
ATOM     72  C   UNL A   1      50.088  26.369  27.388  1.00  0.00     0.173 A 
ATOM     73  C   UNL A   1      49.470  26.924  25.136  1.00  0.00     0.173 A 
ATOM     74  F   UNL A   1      49.789  26.229  28.688  1.00  0.00    -0.203 F 
ATOM     75  C   UNL A   1      51.391  26.116  26.967  1.00  0.00     0.198 A 
ATOM     76  C   UNL A   1      50.767  26.647  24.712  1.00  0.00     0.198 A 
ATOM     77  F   UNL A   1      48.558  27.304  24.230  1.00  0.00    -0.203 F 
ATOM     78  F   UNL A   1      52.323  25.750  27.859  1.00  0.00    -0.200 F 
ATOM     79  C   UNL A   1      51.730  26.252  25.629  1.00  0.00     0.200 A 
ATOM     80  F   UNL A   1      51.083  26.758  23.415  1.00  0.00    -0.200 F 
ATOM     81  F   UNL A   1      52.982  26.001  25.223  1.00  0.00    -0.200 F 
ENDBRANCH  47  71
BRANCH  59  82
ATOM     82  C   UNL A   1      46.139  32.511  29.167  1.00  0.00     0.064 A 
ATOM     83  C   UNL A   1      46.648  32.779  30.447  1.00  0.00     0.173 A 
ATOM     84  C   UNL A   1      46.067  33.572  28.253  1.00  0.00     0.173 A 
ATOM     85  F   UNL A   1      46.731  31.800  31.361  1.00  0.00    -0.203 F 
ATOM     86  C   UNL A   1      47.050  34.063  30.804  1.00  0.00     0.198 A 
ATOM     87  C   UNL A   1      46.496  34.848  28.604  1.00  0.00     0.198 A 
ATOM     88  F   UNL A   1      45.600  33.362  27.013  1.00  0.00    -0.203 F 
ATOM     89  F   UNL A   1      47.500  34.303  32.044  1.00  0.00    -0.200 F 
ATOM     90  C   UNL A   1      46.977  35.096  29.882  1.00  0.00     0.200 A 
ATOM     91  F   UNL A   1      46.446  35.841  27.704  1.00  0.00    -0.200 F 
ATOM     92  F   UNL A   1      47.371  36.330  30.223  1.00  0.00    -0.200 F 
ENDBRANCH  59  82
ENDBRANCH  33  34
ENDBRANCH  25  28
ENDBRANCH  23  24
ENDBRANCH   1  23
TORSDOF 12
ENDMDL
