MODEL 1
REMARK VINA RESULT:     -13.5      0.000      0.000
REMARK SMILES CC(C)[C@@H]1C(=O)Nc2ccccc2N1C(=O)N[C@H](Cc1ccccc1)C(=O)NCCCNC(=O)c1ccc(-c2c3nc(c(-c4c(F)c(F)c(F)c(F)c4F)c4ccc([nH]4)c(-c4c(F)c(F)c(F)c(F)c4F)c4nc(c(-c5c(F)c(F)c(F)c(F)c5F)c5ccc2[nH]5)C=C4)C=C3)cc1
REMARK SMILES IDX 29 1 28 2 26 3 27 4 18 6 17 7 15 8 16 9 14 11 4 12 5 13 6 14
REMARK SMILES IDX 7 15 13 16 8 17 12 19 9 20 11 21 10 22 2 23 1 24 3 25 19 26
REMARK SMILES IDX 20 27 21 28 25 29 22 30 24 31 23 32 30 33 31 34 32 35 33 36
REMARK SMILES IDX 34 38 35 39 36 40 97 41 37 42 96 43 38 44 39 45 40 46 90 47
REMARK SMILES IDX 41 48 95 49 89 50 91 51 42 52 94 53 88 54 87 55 43 57 75 58
REMARK SMILES IDX 55 59 74 60 56 61 59 62 73 63 92 64 57 65 58 66 72 68 93 69
REMARK SMILES IDX 60 70 44 71 45 72 53 73 46 74 47 75 51 76 54 77 48 78 49 79
REMARK SMILES IDX 52 80 50 81 76 82 77 83 85 84 78 85 79 86 83 87 86 88 80 89
REMARK SMILES IDX 81 90 84 91 82 92 61 93 62 94 70 95 63 96 64 97 68 98 71 99
REMARK SMILES IDX 65 100 66 101 69 102 67 103
REMARK H PARENT 28 5 17 10 7 18 32 37 91 56 59 67
REMARK Flexibility Score: inf
ROOT
ATOM      1  C   UNL A   1      32.505  29.719  26.394  1.00  0.00     0.117 C 
ENDROOT
BRANCH   1   2
ATOM      2  N   UNL A   1      31.433  28.755  26.092  1.00  0.00    -0.354 N 
ATOM      3  C   UNL A   1      31.385  27.419  26.508  1.00  0.00     0.242 C 
ATOM      4  O   UNL A   1      30.658  27.204  27.490  1.00  0.00    -0.273 OA
ATOM      5  H   UNL A   1      30.680  29.080  25.547  1.00  0.00     0.163 HD
BRANCH   3   6
ATOM      6  C   UNL A   1      31.971  26.162  25.687  1.00  0.00     0.177 C 
BRANCH   6   7
ATOM      7  N   UNL A   1      30.803  25.564  25.108  1.00  0.00    -0.326 N 
ATOM      8  C   UNL A   1      29.961  26.203  24.278  1.00  0.00     0.323 C 
ATOM      9  O   UNL A   1      28.773  25.947  24.512  1.00  0.00    -0.248 OA
ATOM     10  H   UNL A   1      30.605  24.627  25.334  1.00  0.00     0.166 HD
BRANCH   8  11
ATOM     11  N   UNL A   1      30.384  26.889  23.162  1.00  0.00    -0.280 N 
ATOM     12  C   UNL A   1      31.503  26.803  22.030  1.00  0.00     0.184 C 
ATOM     13  C   UNL A   1      32.267  28.164  22.203  1.00  0.00     0.247 C 
ATOM     14  O   UNL A   1      33.488  28.296  22.206  1.00  0.00    -0.272 OA
ATOM     15  N   UNL A   1      31.488  29.289  22.147  1.00  0.00    -0.322 N 
ATOM     16  C   UNL A   1      29.581  28.118  23.016  1.00  0.00     0.070 A 
ATOM     17  C   UNL A   1      30.130  29.259  22.433  1.00  0.00     0.065 A 
ATOM     18  H   UNL A   1      31.903  30.145  21.895  1.00  0.00     0.170 HD
ATOM     19  C   UNL A   1      28.213  28.151  23.381  1.00  0.00     0.028 A 
ATOM     20  C   UNL A   1      29.352  30.397  22.213  1.00  0.00     0.028 A 
ATOM     21  C   UNL A   1      27.425  29.272  23.131  1.00  0.00     0.002 A 
ATOM     22  C   UNL A   1      27.994  30.392  22.539  1.00  0.00     0.002 A 
BRANCH  12  23
ATOM     23  C   UNL A   1      32.679  25.761  21.547  1.00  0.00     0.015 C 
ATOM     24  C   UNL A   1      32.951  24.291  21.931  1.00  0.00     0.010 C 
ATOM     25  C   UNL A   1      32.525  25.578  19.996  1.00  0.00     0.010 C 
ENDBRANCH  12  23
ENDBRANCH   8  11
ENDBRANCH   6   7
BRANCH   6  26
ATOM     26  C   UNL A   1      32.841  24.891  26.087  1.00  0.00     0.070 C 
BRANCH  26  27
ATOM     27  C   UNL A   1      33.799  23.991  25.335  1.00  0.00    -0.045 A 
ATOM     28  C   UNL A   1      35.135  24.441  25.173  1.00  0.00     0.004 A 
ATOM     29  C   UNL A   1      33.526  22.660  25.032  1.00  0.00     0.004 A 
ATOM     30  C   UNL A   1      36.143  23.622  24.669  1.00  0.00     0.000 A 
ATOM     31  C   UNL A   1      34.551  21.823  24.558  1.00  0.00     0.000 A 
ATOM     32  C   UNL A   1      35.849  22.304  24.365  1.00  0.00     0.000 A 
ENDBRANCH  26  27
ENDBRANCH   6  26
ENDBRANCH   3   6
ENDBRANCH   1   2
BRANCH   1  33
ATOM     33  C   UNL A   1      32.271  31.236  26.113  1.00  0.00     0.042 C 
BRANCH  33  34
ATOM     34  C   UNL A   1      31.641  32.226  27.110  1.00  0.00     0.118 C 
BRANCH  34  35
ATOM     35  N   UNL A   1      32.481  33.440  27.193  1.00  0.00    -0.352 N 
ATOM     36  C   UNL A   1      33.536  33.797  28.007  1.00  0.00     0.251 C 
ATOM     37  H   UNL A   1      32.238  34.132  26.536  1.00  0.00     0.163 HD
ATOM     38  O   UNL A   1      33.527  34.953  28.441  1.00  0.00    -0.269 OA
BRANCH  36  39
ATOM     39  C   UNL A   1      34.754  32.970  28.273  1.00  0.00     0.039 A 
ATOM     40  C   UNL A   1      34.559  31.661  28.766  1.00  0.00     0.014 A 
ATOM     41  C   UNL A   1      36.049  33.487  28.301  1.00  0.00     0.014 A 
ATOM     42  C   UNL A   1      35.612  30.906  29.314  1.00  0.00     0.010 A 
ATOM     43  C   UNL A   1      37.113  32.720  28.832  1.00  0.00     0.010 A 
ATOM     44  C   UNL A   1      36.903  31.439  29.379  1.00  0.00    -0.014 A 
BRANCH  44  45
ATOM     45  C   UNL A   1      37.998  30.728  30.121  1.00  0.00     0.031 A 
ATOM     46  C   UNL A   1      38.251  31.045  31.576  1.00  0.00     0.074 A 
ATOM     47  C   UNL A   1      38.780  29.808  29.520  1.00  0.00     0.049 A 
ATOM     48  N   UNL A   1      39.213  30.639  32.371  1.00  0.00    -0.248 NA
ATOM     49  C   UNL A   1      37.291  31.954  32.220  1.00  0.00     0.031 C 
ATOM     50  C   UNL A   1      38.647  29.363  28.136  1.00  0.00     0.029 A 
ATOM     51  N   UNL A   1      39.859  29.096  29.997  1.00  0.00    -0.354 N 
ATOM     52  C   UNL A   1      38.994  31.268  33.592  1.00  0.00     0.074 A 
ATOM     53  C   UNL A   1      37.820  32.099  33.426  1.00  0.00     0.031 C 
ATOM     54  C   UNL A   1      39.613  28.467  27.869  1.00  0.00     0.029 A 
ATOM     55  C   UNL A   1      40.458  28.298  29.051  1.00  0.00     0.049 A 
ATOM     56  H   UNL A   1      40.172  29.153  30.929  1.00  0.00     0.167 HD
ATOM     57  C   UNL A   1      39.697  31.162  34.749  1.00  0.00     0.037 A 
ATOM     58  C   UNL A   1      41.570  27.537  29.114  1.00  0.00     0.037 A 
ATOM     59  C   UNL A   1      40.845  30.312  34.937  1.00  0.00     0.049 A 
ATOM     60  C   UNL A   1      42.357  27.455  30.398  1.00  0.00     0.074 A 
ATOM     61  C   UNL A   1      41.589  30.106  36.087  1.00  0.00     0.029 A 
ATOM     62  N   UNL A   1      41.418  29.525  33.950  1.00  0.00    -0.354 N 
ATOM     63  N   UNL A   1      42.129  28.043  31.547  1.00  0.00    -0.248 NA
ATOM     64  C   UNL A   1      43.555  26.600  30.394  1.00  0.00     0.031 C 
ATOM     65  C   UNL A   1      42.639  29.230  35.784  1.00  0.00     0.029 A 
ATOM     66  C   UNL A   1      42.519  28.851  34.457  1.00  0.00     0.049 A 
ATOM     67  H   UNL A   1      41.091  29.454  33.023  1.00  0.00     0.167 HD
ATOM     68  C   UNL A   1      43.136  27.614  32.405  1.00  0.00     0.074 A 
ATOM     69  C   UNL A   1      43.971  26.704  31.648  1.00  0.00     0.031 C 
ATOM     70  C   UNL A   1      43.346  27.944  33.702  1.00  0.00     0.037 A 
BRANCH  57  71
ATOM     71  C   UNL A   1      39.256  32.011  35.909  1.00  0.00     0.064 A 
ATOM     72  C   UNL A   1      39.753  33.308  36.111  1.00  0.00     0.173 A 
ATOM     73  C   UNL A   1      38.301  31.529  36.818  1.00  0.00     0.173 A 
ATOM     74  F   UNL A   1      40.673  33.815  35.276  1.00  0.00    -0.203 F 
ATOM     75  C   UNL A   1      39.342  34.072  37.200  1.00  0.00     0.198 A 
ATOM     76  C   UNL A   1      37.868  32.308  37.887  1.00  0.00     0.198 A 
ATOM     77  F   UNL A   1      37.780  30.302  36.665  1.00  0.00    -0.203 F 
ATOM     78  F   UNL A   1      39.875  35.285  37.404  1.00  0.00    -0.200 F 
ATOM     79  C   UNL A   1      38.396  33.574  38.084  1.00  0.00     0.200 A 
ATOM     80  F   UNL A   1      36.943  31.832  38.732  1.00  0.00    -0.200 F 
ATOM     81  F   UNL A   1      38.002  34.312  39.132  1.00  0.00    -0.200 F 
ENDBRANCH  57  71
BRANCH  58  82
ATOM     82  C   UNL A   1      42.018  26.784  27.911  1.00  0.00     0.064 A 
ATOM     83  C   UNL A   1      42.926  27.346  27.003  1.00  0.00     0.173 A 
ATOM     84  C   UNL A   1      41.547  25.490  27.645  1.00  0.00     0.173 A 
ATOM     85  F   UNL A   1      43.379  28.594  27.196  1.00  0.00    -0.203 F 
ATOM     86  C   UNL A   1      43.344  26.645  25.874  1.00  0.00     0.198 A 
ATOM     87  C   UNL A   1      41.985  24.779  26.529  1.00  0.00     0.198 A 
ATOM     88  F   UNL A   1      40.670  24.911  28.478  1.00  0.00    -0.203 F 
ATOM     89  F   UNL A   1      44.185  27.219  25.004  1.00  0.00    -0.200 F 
ATOM     90  C   UNL A   1      42.881  25.358  25.643  1.00  0.00     0.200 A 
ATOM     91  F   UNL A   1      41.542  23.533  26.315  1.00  0.00    -0.200 F 
ATOM     92  F   UNL A   1      43.291  24.679  24.563  1.00  0.00    -0.200 F 
ENDBRANCH  58  82
BRANCH  70  93
ATOM     93  C   UNL A   1      44.506  27.300  34.405  1.00  0.00     0.064 A 
ATOM     94  C   UNL A   1      44.382  26.056  35.045  1.00  0.00     0.173 A 
ATOM     95  C   UNL A   1      45.770  27.913  34.406  1.00  0.00     0.173 A 
ATOM     96  F   UNL A   1      43.194  25.435  35.086  1.00  0.00    -0.203 F 
ATOM     97  C   UNL A   1      45.473  25.462  35.675  1.00  0.00     0.198 A 
ATOM     98  C   UNL A   1      46.863  27.303  35.014  1.00  0.00     0.198 A 
ATOM     99  F   UNL A   1      45.945  29.099  33.804  1.00  0.00    -0.203 F 
ATOM    100  F   UNL A   1      45.321  24.295  36.314  1.00  0.00    -0.200 F 
ATOM    101  C   UNL A   1      46.714  26.082  35.653  1.00  0.00     0.200 A 
ATOM    102  F   UNL A   1      48.065  27.897  34.981  1.00  0.00    -0.200 F 
ATOM    103  F   UNL A   1      47.764  25.505  36.254  1.00  0.00    -0.200 F 
ENDBRANCH  70  93
ENDBRANCH  44  45
ENDBRANCH  36  39
ENDBRANCH  34  35
ENDBRANCH  33  34
ENDBRANCH   1  33
TORSDOF 15
ENDMDL
MODEL 2
REMARK VINA RESULT:     -13.4      0.592      7.165
REMARK SMILES CC(C)[C@@H]1C(=O)Nc2ccccc2N1C(=O)N[C@H](Cc1ccccc1)C(=O)NCCCNC(=O)c1ccc(-c2c3nc(c(-c4c(F)c(F)c(F)c(F)c4F)c4ccc([nH]4)c(-c4c(F)c(F)c(F)c(F)c4F)c4nc(c(-c5c(F)c(F)c(F)c(F)c5F)c5ccc2[nH]5)C=C4)C=C3)cc1
REMARK SMILES IDX 29 1 28 2 26 3 27 4 18 6 17 7 15 8 16 9 14 11 4 12 5 13 6 14
REMARK SMILES IDX 7 15 13 16 8 17 12 19 9 20 11 21 10 22 2 23 1 24 3 25 19 26
REMARK SMILES IDX 20 27 21 28 25 29 22 30 24 31 23 32 30 33 31 34 32 35 33 36
REMARK SMILES IDX 34 38 35 39 36 40 97 41 37 42 96 43 38 44 39 45 40 46 90 47
REMARK SMILES IDX 41 48 95 49 89 50 91 51 42 52 94 53 88 54 87 55 43 57 75 58
REMARK SMILES IDX 55 59 74 60 56 61 59 62 73 63 92 64 57 65 58 66 72 68 93 69
REMARK SMILES IDX 60 70 44 71 45 72 53 73 46 74 47 75 51 76 54 77 48 78 49 79
REMARK SMILES IDX 52 80 50 81 76 82 77 83 85 84 78 85 79 86 83 87 86 88 80 89
REMARK SMILES IDX 81 90 84 91 82 92 61 93 62 94 70 95 63 96 64 97 68 98 71 99
REMARK SMILES IDX 65 100 66 101 69 102 67 103
REMARK H PARENT 28 5 17 10 7 18 32 37 91 56 59 67
REMARK Flexibility Score: inf
ROOT
ATOM      1  C   UNL A   1      32.542  29.673  26.304  1.00  0.00     0.117 C 
ENDROOT
BRANCH   1   2
ATOM      2  N   UNL A   1      31.459  28.707  26.049  1.00  0.00    -0.354 N 
ATOM      3  C   UNL A   1      31.419  27.379  26.492  1.00  0.00     0.242 C 
ATOM      4  O   UNL A   1      30.719  27.184  27.497  1.00  0.00    -0.273 OA
ATOM      5  H   UNL A   1      30.693  29.025  25.520  1.00  0.00     0.163 HD
BRANCH   3   6
ATOM      6  C   UNL A   1      31.979  26.105  25.678  1.00  0.00     0.177 C 
BRANCH   6   7
ATOM      7  N   UNL A   1      30.800  25.533  25.096  1.00  0.00    -0.326 N 
ATOM      8  C   UNL A   1      29.961  26.198  24.283  1.00  0.00     0.323 C 
ATOM      9  O   UNL A   1      28.771  25.953  24.521  1.00  0.00    -0.248 OA
ATOM     10  H   UNL A   1      30.591  24.594  25.306  1.00  0.00     0.166 HD
BRANCH   8  11
ATOM     11  N   UNL A   1      30.385  26.899  23.177  1.00  0.00    -0.280 N 
ATOM     12  C   UNL A   1      31.518  26.839  22.058  1.00  0.00     0.184 C 
ATOM     13  C   UNL A   1      32.258  28.211  22.249  1.00  0.00     0.247 C 
ATOM     14  O   UNL A   1      33.477  28.361  22.267  1.00  0.00    -0.272 OA
ATOM     15  N   UNL A   1      31.463  29.323  22.193  1.00  0.00    -0.322 N 
ATOM     16  C   UNL A   1      29.565  28.116  23.032  1.00  0.00     0.070 A 
ATOM     17  C   UNL A   1      30.102  29.270  22.464  1.00  0.00     0.065 A 
ATOM     18  H   UNL A   1      31.868  30.188  21.953  1.00  0.00     0.170 HD
ATOM     19  C   UNL A   1      28.193  28.126  23.382  1.00  0.00     0.028 A 
ATOM     20  C   UNL A   1      29.309  30.398  22.244  1.00  0.00     0.028 A 
ATOM     21  C   UNL A   1      27.390  29.236  23.132  1.00  0.00     0.002 A 
ATOM     22  C   UNL A   1      27.948  30.369  22.556  1.00  0.00     0.002 A 
BRANCH  12  23
ATOM     23  C   UNL A   1      32.715  25.819  21.579  1.00  0.00     0.015 C 
ATOM     24  C   UNL A   1      33.045  24.373  22.005  1.00  0.00     0.010 C 
ATOM     25  C   UNL A   1      32.528  25.578  20.040  1.00  0.00     0.010 C 
ENDBRANCH  12  23
ENDBRANCH   8  11
ENDBRANCH   6   7
BRANCH   6  26
ATOM     26  C   UNL A   1      32.817  24.815  26.087  1.00  0.00     0.070 C 
BRANCH  26  27
ATOM     27  C   UNL A   1      33.781  23.909  25.351  1.00  0.00    -0.045 A 
ATOM     28  C   UNL A   1      35.100  24.386  25.138  1.00  0.00     0.004 A 
ATOM     29  C   UNL A   1      33.537  22.559  25.113  1.00  0.00     0.004 A 
ATOM     30  C   UNL A   1      36.118  23.572  24.645  1.00  0.00     0.000 A 
ATOM     31  C   UNL A   1      34.573  21.729  24.651  1.00  0.00     0.000 A 
ATOM     32  C   UNL A   1      35.853  22.235  24.406  1.00  0.00     0.000 A 
ENDBRANCH  26  27
ENDBRANCH   6  26
ENDBRANCH   3   6
ENDBRANCH   1   2
BRANCH   1  33
ATOM     33  C   UNL A   1      32.284  31.193  26.063  1.00  0.00     0.042 C 
BRANCH  33  34
ATOM     34  C   UNL A   1      31.477  32.105  27.005  1.00  0.00     0.118 C 
BRANCH  34  35
ATOM     35  N   UNL A   1      32.166  33.408  27.136  1.00  0.00    -0.352 N 
ATOM     36  C   UNL A   1      33.130  33.876  28.004  1.00  0.00     0.251 C 
ATOM     37  H   UNL A   1      31.878  34.073  26.470  1.00  0.00     0.163 HD
ATOM     38  O   UNL A   1      32.966  35.019  28.442  1.00  0.00    -0.269 OA
BRANCH  36  39
ATOM     39  C   UNL A   1      34.421  33.192  28.329  1.00  0.00     0.039 A 
ATOM     40  C   UNL A   1      34.350  31.925  28.950  1.00  0.00     0.014 A 
ATOM     41  C   UNL A   1      35.664  33.824  28.285  1.00  0.00     0.014 A 
ATOM     42  C   UNL A   1      35.472  31.325  29.551  1.00  0.00     0.010 A 
ATOM     43  C   UNL A   1      36.797  33.212  28.871  1.00  0.00     0.010 A 
ATOM     44  C   UNL A   1      36.709  31.976  29.543  1.00  0.00    -0.014 A 
BRANCH  44  45
ATOM     45  C   UNL A   1      37.870  31.443  30.331  1.00  0.00     0.031 A 
ATOM     46  C   UNL A   1      38.798  30.425  29.711  1.00  0.00     0.074 A 
ATOM     47  C   UNL A   1      38.111  31.842  31.597  1.00  0.00     0.049 A 
ATOM     48  N   UNL A   1      39.786  29.749  30.249  1.00  0.00    -0.248 NA
ATOM     49  C   UNL A   1      38.573  30.121  28.290  1.00  0.00     0.031 C 
ATOM     50  C   UNL A   1      37.335  32.840  32.328  1.00  0.00     0.029 A 
ATOM     51  N   UNL A   1      39.071  31.440  32.499  1.00  0.00    -0.354 N 
ATOM     52  C   UNL A   1      40.275  28.918  29.246  1.00  0.00     0.074 A 
ATOM     53  C   UNL A   1      39.460  29.160  28.073  1.00  0.00     0.031 C 
ATOM     54  C   UNL A   1      37.836  32.962  33.569  1.00  0.00     0.029 A 
ATOM     55  C   UNL A   1      38.949  32.027  33.737  1.00  0.00     0.049 A 
ATOM     56  H   UNL A   1      39.779  30.792  32.278  1.00  0.00     0.167 HD
ATOM     57  C   UNL A   1      41.309  28.040  29.289  1.00  0.00     0.037 A 
ATOM     58  C   UNL A   1      39.633  31.823  34.882  1.00  0.00     0.037 A 
ATOM     59  C   UNL A   1      42.150  27.816  30.438  1.00  0.00     0.049 A 
ATOM     60  C   UNL A   1      40.759  30.820  34.920  1.00  0.00     0.074 A 
ATOM     61  C   UNL A   1      43.248  26.980  30.556  1.00  0.00     0.029 A 
ATOM     62  N   UNL A   1      41.985  28.430  31.670  1.00  0.00    -0.354 N 
ATOM     63  N   UNL A   1      41.218  30.054  33.961  1.00  0.00    -0.248 NA
ATOM     64  C   UNL A   1      41.463  30.656  36.202  1.00  0.00     0.031 C 
ATOM     65  C   UNL A   1      43.720  27.056  31.872  1.00  0.00     0.029 A 
ATOM     66  C   UNL A   1      42.947  27.975  32.561  1.00  0.00     0.049 A 
ATOM     67  H   UNL A   1      41.288  29.093  31.883  1.00  0.00     0.167 HD
ATOM     68  C   UNL A   1      42.274  29.338  34.513  1.00  0.00     0.074 A 
ATOM     69  C   UNL A   1      42.398  29.769  35.890  1.00  0.00     0.031 C 
ATOM     70  C   UNL A   1      43.068  28.409  33.929  1.00  0.00     0.037 A 
BRANCH  57  71
ATOM     71  C   UNL A   1      41.581  27.227  28.053  1.00  0.00     0.064 A 
ATOM     72  C   UNL A   1      40.876  26.047  27.772  1.00  0.00     0.173 A 
ATOM     73  C   UNL A   1      42.543  27.651  27.123  1.00  0.00     0.173 A 
ATOM     74  F   UNL A   1      39.950  25.593  28.630  1.00  0.00    -0.203 F 
ATOM     75  C   UNL A   1      41.154  25.301  26.628  1.00  0.00     0.198 A 
ATOM     76  C   UNL A   1      42.796  26.921  25.965  1.00  0.00     0.198 A 
ATOM     77  F   UNL A   1      43.237  28.780  27.334  1.00  0.00    -0.203 F 
ATOM     78  F   UNL A   1      40.508  24.147  26.410  1.00  0.00    -0.200 F 
ATOM     79  C   UNL A   1      42.109  25.741  25.724  1.00  0.00     0.200 A 
ATOM     80  F   UNL A   1      43.708  27.355  25.085  1.00  0.00    -0.200 F 
ATOM     81  F   UNL A   1      42.374  25.022  24.624  1.00  0.00    -0.200 F 
ENDBRANCH  57  71
BRANCH  58  82
ATOM     82  C   UNL A   1      39.268  32.588  36.105  1.00  0.00     0.064 A 
ATOM     83  C   UNL A   1      38.356  32.071  37.035  1.00  0.00     0.173 A 
ATOM     84  C   UNL A   1      39.821  33.849  36.367  1.00  0.00     0.173 A 
ATOM     85  F   UNL A   1      37.773  30.883  36.812  1.00  0.00    -0.203 F 
ATOM     86  C   UNL A   1      38.010  32.787  38.180  1.00  0.00     0.198 A 
ATOM     87  C   UNL A   1      39.494  34.553  37.524  1.00  0.00     0.198 A 
ATOM     88  F   UNL A   1      40.692  34.392  35.504  1.00  0.00    -0.203 F 
ATOM     89  F   UNL A   1      37.109  32.285  39.035  1.00  0.00    -0.200 F 
ATOM     90  C   UNL A   1      38.587  34.023  38.428  1.00  0.00     0.200 A 
ATOM     91  F   UNL A   1      40.061  35.744  37.765  1.00  0.00    -0.200 F 
ATOM     92  F   UNL A   1      38.262  34.706  39.534  1.00  0.00    -0.200 F 
ENDBRANCH  58  82
BRANCH  70  93
ATOM     93  C   UNL A   1      44.167  27.810  34.761  1.00  0.00     0.064 A 
ATOM     94  C   UNL A   1      45.427  28.419  34.866  1.00  0.00     0.173 A 
ATOM     95  C   UNL A   1      43.945  26.635  35.496  1.00  0.00     0.173 A 
ATOM     96  F   UNL A   1      45.696  29.536  34.173  1.00  0.00    -0.203 F 
ATOM     97  C   UNL A   1      46.429  27.863  35.658  1.00  0.00     0.198 A 
ATOM     98  C   UNL A   1      44.940  26.097  36.307  1.00  0.00     0.198 A 
ATOM     99  F   UNL A   1      42.756  26.015  35.436  1.00  0.00    -0.203 F 
ATOM    100  F   UNL A   1      47.637  28.439  35.710  1.00  0.00    -0.200 F 
ATOM    101  C   UNL A   1      46.182  26.706  36.383  1.00  0.00     0.200 A 
ATOM    102  F   UNL A   1      44.696  24.985  37.017  1.00  0.00    -0.200 F 
ATOM    103  F   UNL A   1      47.145  26.176  37.150  1.00  0.00    -0.200 F 
ENDBRANCH  70  93
ENDBRANCH  44  45
ENDBRANCH  36  39
ENDBRANCH  34  35
ENDBRANCH  33  34
ENDBRANCH   1  33
TORSDOF 15
ENDMDL
MODEL 3
REMARK VINA RESULT:     -13.4      4.644     10.336
REMARK SMILES CC(C)[C@@H]1C(=O)Nc2ccccc2N1C(=O)N[C@H](Cc1ccccc1)C(=O)NCCCNC(=O)c1ccc(-c2c3nc(c(-c4c(F)c(F)c(F)c(F)c4F)c4ccc([nH]4)c(-c4c(F)c(F)c(F)c(F)c4F)c4nc(c(-c5c(F)c(F)c(F)c(F)c5F)c5ccc2[nH]5)C=C4)C=C3)cc1
REMARK SMILES IDX 29 1 28 2 26 3 27 4 18 6 17 7 15 8 16 9 14 11 4 12 5 13 6 14
REMARK SMILES IDX 7 15 13 16 8 17 12 19 9 20 11 21 10 22 2 23 1 24 3 25 19 26
REMARK SMILES IDX 20 27 21 28 25 29 22 30 24 31 23 32 30 33 31 34 32 35 33 36
REMARK SMILES IDX 34 38 35 39 36 40 97 41 37 42 96 43 38 44 39 45 40 46 90 47
REMARK SMILES IDX 41 48 95 49 89 50 91 51 42 52 94 53 88 54 87 55 43 57 75 58
REMARK SMILES IDX 55 59 74 60 56 61 59 62 73 63 92 64 57 65 58 66 72 68 93 69
REMARK SMILES IDX 60 70 44 71 45 72 53 73 46 74 47 75 51 76 54 77 48 78 49 79
REMARK SMILES IDX 52 80 50 81 76 82 77 83 85 84 78 85 79 86 83 87 86 88 80 89
REMARK SMILES IDX 81 90 84 91 82 92 61 93 62 94 70 95 63 96 64 97 68 98 71 99
REMARK SMILES IDX 65 100 66 101 69 102 67 103
REMARK H PARENT 28 5 17 10 7 18 32 37 91 56 59 67
REMARK Flexibility Score: inf
ROOT
ATOM      1  C   UNL A   1      36.694  21.903  25.329  1.00  0.00     0.117 C 
ENDROOT
BRANCH   1   2
ATOM      2  N   UNL A   1      35.679  21.889  24.261  1.00  0.00    -0.354 N 
ATOM      3  C   UNL A   1      35.291  22.983  23.478  1.00  0.00     0.242 C 
ATOM      4  O   UNL A   1      35.801  23.023  22.348  1.00  0.00    -0.273 OA
ATOM      5  H   UNL A   1      35.233  21.030  24.081  1.00  0.00     0.163 HD
BRANCH   3   6
ATOM      6  C   UNL A   1      34.092  24.002  23.824  1.00  0.00     0.177 C 
BRANCH   6   7
ATOM      7  N   UNL A   1      32.996  23.511  23.041  1.00  0.00    -0.326 N 
ATOM      8  C   UNL A   1      32.523  22.254  23.111  1.00  0.00     0.323 C 
ATOM      9  O   UNL A   1      32.245  21.786  21.998  1.00  0.00    -0.248 OA
ATOM     10  H   UNL A   1      32.564  24.132  22.411  1.00  0.00     0.166 HD
BRANCH   8  11
ATOM     11  N   UNL A   1      32.184  21.644  24.297  1.00  0.00    -0.280 N 
ATOM     12  C   UNL A   1      31.609  22.015  25.737  1.00  0.00     0.184 C 
ATOM     13  C   UNL A   1      32.744  21.507  26.696  1.00  0.00     0.247 C 
ATOM     14  O   UNL A   1      33.193  22.131  27.654  1.00  0.00    -0.272 OA
ATOM     15  N   UNL A   1      33.098  20.193  26.547  1.00  0.00    -0.322 N 
ATOM     16  C   UNL A   1      32.520  20.210  24.217  1.00  0.00     0.070 A 
ATOM     17  C   UNL A   1      32.886  19.503  25.361  1.00  0.00     0.065 A 
ATOM     18  H   UNL A   1      33.516  19.723  27.305  1.00  0.00     0.170 HD
ATOM     19  C   UNL A   1      32.402  19.492  23.003  1.00  0.00     0.028 A 
ATOM     20  C   UNL A   1      33.122  18.129  25.310  1.00  0.00     0.028 A 
ATOM     21  C   UNL A   1      32.602  18.115  22.954  1.00  0.00     0.002 A 
ATOM     22  C   UNL A   1      32.955  17.433  24.110  1.00  0.00     0.002 A 
BRANCH  12  23
ATOM     23  C   UNL A   1      31.009  23.333  26.514  1.00  0.00     0.015 C 
ATOM     24  C   UNL A   1      30.554  24.706  25.977  1.00  0.00     0.010 C 
ATOM     25  C   UNL A   1      29.672  22.892  27.206  1.00  0.00     0.010 C 
ENDBRANCH  12  23
ENDBRANCH   8  11
ENDBRANCH   6   7
BRANCH   6  26
ATOM     26  C   UNL A   1      33.914  25.579  23.705  1.00  0.00     0.070 C 
BRANCH  26  27
ATOM     27  C   UNL A   1      33.323  26.644  24.606  1.00  0.00    -0.045 A 
ATOM     28  C   UNL A   1      32.215  27.381  24.113  1.00  0.00     0.004 A 
ATOM     29  C   UNL A   1      33.623  26.758  25.960  1.00  0.00     0.004 A 
ATOM     30  C   UNL A   1      31.477  28.246  24.918  1.00  0.00     0.000 A 
ATOM     31  C   UNL A   1      32.856  27.602  26.780  1.00  0.00     0.000 A 
ATOM     32  C   UNL A   1      31.796  28.352  26.260  1.00  0.00     0.000 A 
ENDBRANCH  26  27
ENDBRANCH   6  26
ENDBRANCH   3   6
ENDBRANCH   1   2
BRANCH   1  33
ATOM     33  C   UNL A   1      37.390  20.569  25.742  1.00  0.00     0.042 C 
BRANCH  33  34
ATOM     34  C   UNL A   1      38.595  19.947  25.011  1.00  0.00     0.118 C 
BRANCH  34  35
ATOM     35  N   UNL A   1      39.601  19.513  26.005  1.00  0.00    -0.352 N 
ATOM     36  C   UNL A   1      40.750  20.099  26.493  1.00  0.00     0.251 C 
ATOM     37  H   UNL A   1      39.411  18.631  26.396  1.00  0.00     0.163 HD
ATOM     38  O   UNL A   1      41.732  19.360  26.619  1.00  0.00    -0.269 OA
BRANCH  36  39
ATOM     39  C   UNL A   1      40.864  21.493  27.027  1.00  0.00     0.039 A 
ATOM     40  C   UNL A   1      40.256  22.527  26.282  1.00  0.00     0.014 A 
ATOM     41  C   UNL A   1      41.727  21.857  28.060  1.00  0.00     0.014 A 
ATOM     42  C   UNL A   1      40.534  23.885  26.528  1.00  0.00     0.010 A 
ATOM     43  C   UNL A   1      41.991  23.222  28.321  1.00  0.00     0.010 A 
ATOM     44  C   UNL A   1      41.430  24.251  27.537  1.00  0.00    -0.014 A 
BRANCH  44  45
ATOM     45  C   UNL A   1      41.880  25.674  27.696  1.00  0.00     0.031 A 
ATOM     46  C   UNL A   1      43.219  26.107  27.146  1.00  0.00     0.074 A 
ATOM     47  C   UNL A   1      41.121  26.591  28.330  1.00  0.00     0.049 A 
ATOM     48  N   UNL A   1      43.851  27.249  27.274  1.00  0.00    -0.248 NA
ATOM     49  C   UNL A   1      43.948  25.108  26.351  1.00  0.00     0.031 C 
ATOM     50  C   UNL A   1      39.793  26.347  28.887  1.00  0.00     0.029 A 
ATOM     51  N   UNL A   1      41.371  27.912  28.629  1.00  0.00    -0.354 N 
ATOM     52  C   UNL A   1      45.063  27.095  26.607  1.00  0.00     0.074 A 
ATOM     53  C   UNL A   1      45.085  25.740  26.096  1.00  0.00     0.031 C 
ATOM     54  C   UNL A   1      39.350  27.472  29.473  1.00  0.00     0.029 A 
ATOM     55  C   UNL A   1      40.375  28.511  29.366  1.00  0.00     0.049 A 
ATOM     56  H   UNL A   1      42.185  28.385  28.342  1.00  0.00     0.167 HD
ATOM     57  C   UNL A   1      46.064  27.995  26.429  1.00  0.00     0.037 A 
ATOM     58  C   UNL A   1      40.301  29.742  29.914  1.00  0.00     0.037 A 
ATOM     59  C   UNL A   1      46.039  29.356  26.903  1.00  0.00     0.049 A 
ATOM     60  C   UNL A   1      41.436  30.718  29.732  1.00  0.00     0.074 A 
ATOM     61  C   UNL A   1      46.987  30.350  26.726  1.00  0.00     0.029 A 
ATOM     62  N   UNL A   1      45.012  29.916  27.647  1.00  0.00    -0.354 N 
ATOM     63  N   UNL A   1      42.566  30.563  29.087  1.00  0.00    -0.248 NA
ATOM     64  C   UNL A   1      41.281  32.044  30.353  1.00  0.00     0.031 C 
ATOM     65  C   UNL A   1      46.554  31.497  27.402  1.00  0.00     0.029 A 
ATOM     66  C   UNL A   1      45.313  31.234  27.958  1.00  0.00     0.049 A 
ATOM     67  H   UNL A   1      44.188  29.448  27.916  1.00  0.00     0.167 HD
ATOM     68  C   UNL A   1      43.245  31.771  29.205  1.00  0.00     0.074 A 
ATOM     69  C   UNL A   1      42.394  32.656  29.971  1.00  0.00     0.031 C 
ATOM     70  C   UNL A   1      44.462  32.113  28.719  1.00  0.00     0.037 A 
BRANCH  57  71
ATOM     71  C   UNL A   1      47.295  27.528  25.704  1.00  0.00     0.064 A 
ATOM     72  C   UNL A   1      48.378  26.944  26.379  1.00  0.00     0.173 A 
ATOM     73  C   UNL A   1      47.382  27.642  24.307  1.00  0.00     0.173 A 
ATOM     74  F   UNL A   1      48.350  26.817  27.715  1.00  0.00    -0.203 F 
ATOM     75  C   UNL A   1      49.516  26.531  25.690  1.00  0.00     0.198 A 
ATOM     76  C   UNL A   1      48.507  27.199  23.617  1.00  0.00     0.198 A 
ATOM     77  F   UNL A   1      46.370  28.178  23.608  1.00  0.00    -0.203 F 
ATOM     78  F   UNL A   1      50.561  26.030  26.364  1.00  0.00    -0.200 F 
ATOM     79  C   UNL A   1      49.577  26.654  24.310  1.00  0.00     0.200 A 
ATOM     80  F   UNL A   1      48.559  27.304  22.283  1.00  0.00    -0.200 F 
ATOM     81  F   UNL A   1      50.673  26.256  23.648  1.00  0.00    -0.200 F 
ENDBRANCH  57  71
BRANCH  58  82
ATOM     82  C   UNL A   1      39.098  30.127  30.700  1.00  0.00     0.064 A 
ATOM     83  C   UNL A   1      37.991  30.725  30.081  1.00  0.00     0.173 A 
ATOM     84  C   UNL A   1      39.031  29.907  32.084  1.00  0.00     0.173 A 
ATOM     85  F   UNL A   1      38.021  30.987  28.767  1.00  0.00    -0.203 F 
ATOM     86  C   UNL A   1      36.865  31.090  30.817  1.00  0.00     0.198 A 
ATOM     87  C   UNL A   1      37.894  30.249  32.813  1.00  0.00     0.198 A 
ATOM     88  F   UNL A   1      40.067  29.346  32.724  1.00  0.00    -0.203 F 
ATOM     89  F   UNL A   1      35.835  31.692  30.207  1.00  0.00    -0.200 F 
ATOM     90  C   UNL A   1      36.814  30.842  32.180  1.00  0.00     0.200 A 
ATOM     91  F   UNL A   1      37.845  30.000  34.129  1.00  0.00    -0.200 F 
ATOM     92  F   UNL A   1      35.726  31.184  32.885  1.00  0.00    -0.200 F 
ENDBRANCH  58  82
BRANCH  70  93
ATOM     93  C   UNL A   1      44.944  33.513  28.969  1.00  0.00     0.064 A 
ATOM     94  C   UNL A   1      45.746  33.830  30.077  1.00  0.00     0.173 A 
ATOM     95  C   UNL A   1      44.634  34.546  28.069  1.00  0.00     0.173 A 
ATOM     96  F   UNL A   1      46.059  32.884  30.975  1.00  0.00    -0.203 F 
ATOM     97  C   UNL A   1      46.202  35.130  30.284  1.00  0.00     0.198 A 
ATOM     98  C   UNL A   1      45.114  35.838  28.265  1.00  0.00     0.198 A 
ATOM     99  F   UNL A   1      43.876  34.296  26.991  1.00  0.00    -0.203 F 
ATOM    100  F   UNL A   1      46.932  35.417  31.370  1.00  0.00    -0.200 F 
ATOM    101  C   UNL A   1      45.891  36.130  29.374  1.00  0.00     0.200 A 
ATOM    102  F   UNL A   1      44.823  36.801  27.379  1.00  0.00    -0.200 F 
ATOM    103  F   UNL A   1      46.336  37.379  29.572  1.00  0.00    -0.200 F 
ENDBRANCH  70  93
ENDBRANCH  44  45
ENDBRANCH  36  39
ENDBRANCH  34  35
ENDBRANCH  33  34
ENDBRANCH   1  33
TORSDOF 15
ENDMDL
