MODEL 1
REMARK VINA RESULT:     -12.5      0.000      0.000
REMARK SMILES C[C@@H]1[C@H](C(=O)NCCCNC(=O)c2ccc(-c3c4nc(c(-c5c(F)c(F)c(F)c(F)c5F)c5ccc([nH]5)c(-c5c(F)c(F)c(F)c(F)c5F)c5nc(c(-c6c(F)c(F)c(F)c(F)c6F)c6ccc3[nH]6)C=C5)C=C4)cc2)CC[N@H+]1Cc1ccccc1[N+](=O)[O-]
REMARK SMILES IDX 7 1 6 2 4 3 5 4 3 6 1 7 2 8 78 9 76 10 77 11 79 13 80 14
REMARK SMILES IDX 81 15 85 16 82 17 84 18 83 19 86 20 87 21 88 22 8 23 9 24
REMARK SMILES IDX 10 25 11 26 12 28 13 29 14 30 75 31 15 32 74 33 16 34 17 35
REMARK SMILES IDX 18 36 68 37 19 38 73 39 67 40 69 41 20 42 72 43 66 44 65 45
REMARK SMILES IDX 21 47 53 48 33 49 52 50 34 51 37 52 51 53 70 54 35 55 36 56
REMARK SMILES IDX 50 58 71 59 38 60 22 61 23 62 31 63 24 64 25 65 29 66 32 67
REMARK SMILES IDX 26 68 27 69 30 70 28 71 54 72 55 73 63 74 56 75 57 76 61 77
REMARK SMILES IDX 64 78 58 79 59 80 62 81 60 82 39 83 40 84 48 85 41 86 42 87
REMARK SMILES IDX 46 88 49 89 43 90 44 91 47 92 45 93
REMARK H PARENT 6 5 78 12 10 27 69 46 37 57
REMARK Flexibility Score: inf
ROOT
ATOM      1  C   UNL A   1      31.028  30.948  25.372  1.00  0.00     0.117 C 
ENDROOT
BRANCH   1   2
ATOM      2  N   UNL A   1      32.232  30.139  25.395  1.00  0.00    -0.356 N 
ATOM      3  C   UNL A   1      32.446  28.823  25.629  1.00  0.00     0.229 C 
ATOM      4  O   UNL A   1      33.630  28.486  25.755  1.00  0.00    -0.275 OA
ATOM      5  H   UNL A   1      33.054  30.646  25.202  1.00  0.00     0.163 HD
BRANCH   3   6
ATOM      6  C   UNL A   1      31.361  27.760  25.688  1.00  0.00     0.142 C 
ATOM      7  C   UNL A   1      31.050  27.830  23.077  1.00  0.00     0.076 C 
ATOM      8  C   UNL A   1      30.670  27.227  24.413  1.00  0.00     0.193 C 
ATOM      9  N   UNL A   1      30.816  25.787  24.579  1.00  0.00    -0.328 N 
ATOM     10  C   UNL A   1      31.746  26.513  26.498  1.00  0.00     0.081 C 
ATOM     11  C   UNL A   1      30.774  25.464  25.986  1.00  0.00     0.263 C 
ATOM     12  H   UNL A   1      31.467  25.468  23.861  1.00  0.00     0.348 HD
BRANCH   9  13
ATOM     13  C   UNL A   1      30.810  24.781  23.551  1.00  0.00     0.306 C 
BRANCH  13  14
ATOM     14  C   UNL A   1      31.970  23.804  23.695  1.00  0.00     0.084 A 
ATOM     15  C   UNL A   1      31.725  22.522  24.220  1.00  0.00     0.017 A 
ATOM     16  C   UNL A   1      33.290  24.069  23.275  1.00  0.00     0.278 A 
ATOM     17  C   UNL A   1      32.732  21.549  24.273  1.00  0.00     0.001 A 
ATOM     18  C   UNL A   1      34.296  23.089  23.293  1.00  0.00     0.086 A 
ATOM     19  C   UNL A   1      34.009  21.822  23.787  1.00  0.00     0.007 A 
BRANCH  16  20
ATOM     20  N   UNL A   1      33.701  25.391  22.841  1.00  0.00     0.063 N 
ATOM     21  O   UNL A   1      34.028  26.200  23.721  1.00  0.00    -0.258 OA
ATOM     22  O   UNL A   1      33.653  25.629  21.626  1.00  0.00    -0.258 OA
ENDBRANCH  16  20
ENDBRANCH  13  14
ENDBRANCH   9  13
ENDBRANCH   3   6
ENDBRANCH   1   2
BRANCH   1  23
ATOM     23  C   UNL A   1      31.028  31.955  26.526  1.00  0.00     0.042 C 
BRANCH  23  24
ATOM     24  C   UNL A   1      32.400  32.515  26.875  1.00  0.00     0.118 C 
BRANCH  24  25
ATOM     25  N   UNL A   1      32.337  33.881  27.363  1.00  0.00    -0.352 N 
ATOM     26  C   UNL A   1      33.033  34.529  28.356  1.00  0.00     0.251 C 
ATOM     27  H   UNL A   1      31.676  34.446  26.900  1.00  0.00     0.163 HD
ATOM     28  O   UNL A   1      32.642  35.635  28.720  1.00  0.00    -0.269 OA
BRANCH  26  29
ATOM     29  C   UNL A   1      34.217  33.929  29.024  1.00  0.00     0.039 A 
ATOM     30  C   UNL A   1      34.011  32.858  29.904  1.00  0.00     0.014 A 
ATOM     31  C   UNL A   1      35.509  34.436  28.875  1.00  0.00     0.014 A 
ATOM     32  C   UNL A   1      35.088  32.275  30.581  1.00  0.00     0.010 A 
ATOM     33  C   UNL A   1      36.596  33.792  29.469  1.00  0.00     0.010 A 
ATOM     34  C   UNL A   1      36.399  32.714  30.344  1.00  0.00    -0.014 A 
BRANCH  34  35
ATOM     35  C   UNL A   1      37.568  32.092  31.027  1.00  0.00     0.031 A 
ATOM     36  C   UNL A   1      38.390  31.044  30.323  1.00  0.00     0.074 A 
ATOM     37  C   UNL A   1      37.859  32.421  32.301  1.00  0.00     0.049 A 
ATOM     38  N   UNL A   1      39.374  30.311  30.783  1.00  0.00    -0.248 NA
ATOM     39  C   UNL A   1      38.041  30.761  28.922  1.00  0.00     0.031 C 
ATOM     40  C   UNL A   1      37.124  33.389  33.116  1.00  0.00     0.029 A 
ATOM     41  N   UNL A   1      38.848  31.965  33.139  1.00  0.00    -0.354 N 
ATOM     42  C   UNL A   1      39.732  29.461  29.744  1.00  0.00     0.074 A 
ATOM     43  C   UNL A   1      38.836  29.739  28.643  1.00  0.00     0.031 C 
ATOM     44  C   UNL A   1      37.701  33.475  34.325  1.00  0.00     0.029 A 
ATOM     45  C   UNL A   1      38.821  32.540  34.387  1.00  0.00     0.049 A 
ATOM     46  H   UNL A   1      39.513  31.291  32.871  1.00  0.00     0.167 HD
ATOM     47  C   UNL A   1      40.733  28.548  29.702  1.00  0.00     0.037 A 
ATOM     48  C   UNL A   1      39.604  32.331  35.462  1.00  0.00     0.037 A 
ATOM     49  C   UNL A   1      41.661  28.306  30.773  1.00  0.00     0.049 A 
ATOM     50  C   UNL A   1      40.724  31.330  35.381  1.00  0.00     0.074 A 
ATOM     51  C   UNL A   1      42.747  27.449  30.799  1.00  0.00     0.029 A 
ATOM     52  N   UNL A   1      41.618  28.934  32.009  1.00  0.00    -0.354 N 
ATOM     53  N   UNL A   1      41.079  30.567  34.377  1.00  0.00    -0.248 NA
ATOM     54  C   UNL A   1      41.554  31.165  36.583  1.00  0.00     0.031 C 
ATOM     55  C   UNL A   1      43.345  27.536  32.061  1.00  0.00     0.029 A 
ATOM     56  C   UNL A   1      42.653  28.475  32.808  1.00  0.00     0.049 A 
ATOM     57  H   UNL A   1      40.951  29.606  32.279  1.00  0.00     0.167 HD
ATOM     58  C   UNL A   1      42.184  29.851  34.815  1.00  0.00     0.074 A 
ATOM     59  C   UNL A   1      42.451  30.280  36.172  1.00  0.00     0.031 C 
ATOM     60  C   UNL A   1      42.913  28.921  34.151  1.00  0.00     0.037 A 
BRANCH  47  61
ATOM     61  C   UNL A   1      40.883  27.743  28.443  1.00  0.00     0.064 A 
ATOM     62  C   UNL A   1      41.697  28.176  27.386  1.00  0.00     0.173 A 
ATOM     63  C   UNL A   1      40.233  26.507  28.306  1.00  0.00     0.173 A 
ATOM     64  F   UNL A   1      42.331  29.356  27.464  1.00  0.00    -0.203 F 
ATOM     65  C   UNL A   1      41.832  27.416  26.227  1.00  0.00     0.198 A 
ATOM     66  C   UNL A   1      40.392  25.737  27.157  1.00  0.00     0.198 A 
ATOM     67  F   UNL A   1      39.447  26.043  29.290  1.00  0.00    -0.203 F 
ATOM     68  F   UNL A   1      42.577  27.874  25.211  1.00  0.00    -0.200 F 
ATOM     69  C   UNL A   1      41.186  26.195  26.116  1.00  0.00     0.200 A 
ATOM     70  F   UNL A   1      39.776  24.551  27.055  1.00  0.00    -0.200 F 
ATOM     71  F   UNL A   1      41.321  25.463  25.002  1.00  0.00    -0.200 F 
ENDBRANCH  47  61
BRANCH  48  72
ATOM     72  C   UNL A   1      39.376  33.112  36.706  1.00  0.00     0.064 A 
ATOM     73  C   UNL A   1      38.468  32.665  37.675  1.00  0.00     0.173 A 
ATOM     74  C   UNL A   1      40.056  34.313  36.950  1.00  0.00     0.173 A 
ATOM     75  F   UNL A   1      37.780  31.531  37.474  1.00  0.00    -0.203 F 
ATOM     76  C   UNL A   1      38.237  33.398  38.837  1.00  0.00     0.198 A 
ATOM     77  C   UNL A   1      39.841  35.034  38.124  1.00  0.00     0.198 A 
ATOM     78  F   UNL A   1      40.938  34.781  36.055  1.00  0.00    -0.203 F 
ATOM     79  F   UNL A   1      37.335  32.966  39.729  1.00  0.00    -0.200 F 
ATOM     80  C   UNL A   1      38.928  34.579  39.063  1.00  0.00     0.200 A 
ATOM     81  F   UNL A   1      40.520  36.167  38.345  1.00  0.00    -0.200 F 
ATOM     82  F   UNL A   1      38.708  35.281  40.182  1.00  0.00    -0.200 F 
ENDBRANCH  48  72
BRANCH  60  83
ATOM     83  C   UNL A   1      44.089  28.330  34.869  1.00  0.00     0.064 A 
ATOM     84  C   UNL A   1      43.977  27.145  35.610  1.00  0.00     0.173 A 
ATOM     85  C   UNL A   1      45.352  28.934  34.778  1.00  0.00     0.173 A 
ATOM     86  F   UNL A   1      42.787  26.540  35.738  1.00  0.00    -0.203 F 
ATOM     87  C   UNL A   1      45.084  26.597  36.252  1.00  0.00     0.198 A 
ATOM     88  C   UNL A   1      46.462  28.370  35.400  1.00  0.00     0.198 A 
ATOM     89  F   UNL A   1      45.512  30.066  34.076  1.00  0.00    -0.203 F 
ATOM     90  F   UNL A   1      44.947  25.486  36.988  1.00  0.00    -0.200 F 
ATOM     91  C   UNL A   1      46.326  27.206  36.141  1.00  0.00     0.200 A 
ATOM     92  F   UNL A   1      47.663  28.954  35.286  1.00  0.00    -0.200 F 
ATOM     93  F   UNL A   1      47.392  26.673  36.756  1.00  0.00    -0.200 F 
ENDBRANCH  60  83
ENDBRANCH  34  35
ENDBRANCH  26  29
ENDBRANCH  24  25
ENDBRANCH  23  24
ENDBRANCH   1  23
TORSDOF 13
ENDMDL
MODEL 2
REMARK VINA RESULT:     -12.5      0.088      1.638
REMARK SMILES C[C@@H]1[C@H](C(=O)NCCCNC(=O)c2ccc(-c3c4nc(c(-c5c(F)c(F)c(F)c(F)c5F)c5ccc([nH]5)c(-c5c(F)c(F)c(F)c(F)c5F)c5nc(c(-c6c(F)c(F)c(F)c(F)c6F)c6ccc3[nH]6)C=C5)C=C4)cc2)CC[N@H+]1Cc1ccccc1[N+](=O)[O-]
REMARK SMILES IDX 7 1 6 2 4 3 5 4 3 6 1 7 2 8 78 9 76 10 77 11 79 13 80 14
REMARK SMILES IDX 81 15 85 16 82 17 84 18 83 19 86 20 87 21 88 22 8 23 9 24
REMARK SMILES IDX 10 25 11 26 12 28 13 29 14 30 75 31 15 32 74 33 16 34 17 35
REMARK SMILES IDX 18 36 68 37 19 38 73 39 67 40 69 41 20 42 72 43 66 44 65 45
REMARK SMILES IDX 21 47 53 48 33 49 52 50 34 51 37 52 51 53 70 54 35 55 36 56
REMARK SMILES IDX 50 58 71 59 38 60 22 61 23 62 31 63 24 64 25 65 29 66 32 67
REMARK SMILES IDX 26 68 27 69 30 70 28 71 54 72 55 73 63 74 56 75 57 76 61 77
REMARK SMILES IDX 64 78 58 79 59 80 62 81 60 82 39 83 40 84 48 85 41 86 42 87
REMARK SMILES IDX 46 88 49 89 43 90 44 91 47 92 45 93
REMARK H PARENT 6 5 78 12 10 27 69 46 37 57
REMARK Flexibility Score: inf
ROOT
ATOM      1  C   UNL A   1      31.022  30.954  25.377  1.00  0.00     0.117 C 
ENDROOT
BRANCH   1   2
ATOM      2  N   UNL A   1      32.213  30.126  25.377  1.00  0.00    -0.356 N 
ATOM      3  C   UNL A   1      32.408  28.803  25.587  1.00  0.00     0.229 C 
ATOM      4  O   UNL A   1      33.586  28.444  25.699  1.00  0.00    -0.275 OA
ATOM      5  H   UNL A   1      33.042  30.623  25.188  1.00  0.00     0.163 HD
BRANCH   3   6
ATOM      6  C   UNL A   1      31.306  27.756  25.635  1.00  0.00     0.142 C 
ATOM      7  C   UNL A   1      31.067  27.783  23.016  1.00  0.00     0.076 C 
ATOM      8  C   UNL A   1      30.642  27.209  24.352  1.00  0.00     0.193 C 
ATOM      9  N   UNL A   1      30.763  25.771  24.547  1.00  0.00    -0.328 N 
ATOM     10  C   UNL A   1      31.650  26.519  26.477  1.00  0.00     0.081 C 
ATOM     11  C   UNL A   1      30.678  25.474  25.957  1.00  0.00     0.263 C 
ATOM     12  H   UNL A   1      31.428  25.430  23.853  1.00  0.00     0.348 HD
BRANCH   9  13
ATOM     13  C   UNL A   1      30.770  24.746  23.537  1.00  0.00     0.306 C 
BRANCH  13  14
ATOM     14  C   UNL A   1      31.937  23.782  23.704  1.00  0.00     0.084 A 
ATOM     15  C   UNL A   1      31.698  22.505  24.245  1.00  0.00     0.017 A 
ATOM     16  C   UNL A   1      33.258  24.052  23.292  1.00  0.00     0.278 A 
ATOM     17  C   UNL A   1      32.713  21.541  24.320  1.00  0.00     0.001 A 
ATOM     18  C   UNL A   1      34.272  23.081  23.332  1.00  0.00     0.086 A 
ATOM     19  C   UNL A   1      33.991  21.818  23.842  1.00  0.00     0.007 A 
BRANCH  16  20
ATOM     20  N   UNL A   1      33.662  25.371  22.843  1.00  0.00     0.063 N 
ATOM     21  O   UNL A   1      33.652  25.581  21.622  1.00  0.00    -0.258 OA
ATOM     22  O   UNL A   1      34.029  26.177  23.709  1.00  0.00    -0.258 OA
ENDBRANCH  16  20
ENDBRANCH  13  14
ENDBRANCH   9  13
ENDBRANCH   3   6
ENDBRANCH   1   2
BRANCH   1  23
ATOM     23  C   UNL A   1      31.041  31.933  26.554  1.00  0.00     0.042 C 
BRANCH  23  24
ATOM     24  C   UNL A   1      32.415  32.499  26.883  1.00  0.00     0.118 C 
BRANCH  24  25
ATOM     25  N   UNL A   1      32.355  33.870  27.357  1.00  0.00    -0.352 N 
ATOM     26  C   UNL A   1      33.050  34.526  28.345  1.00  0.00     0.251 C 
ATOM     27  H   UNL A   1      31.697  34.432  26.886  1.00  0.00     0.163 HD
ATOM     28  O   UNL A   1      32.662  35.637  28.696  1.00  0.00    -0.269 OA
BRANCH  26  29
ATOM     29  C   UNL A   1      34.231  33.929  29.022  1.00  0.00     0.039 A 
ATOM     30  C   UNL A   1      34.024  32.839  29.878  1.00  0.00     0.014 A 
ATOM     31  C   UNL A   1      35.517  34.457  28.906  1.00  0.00     0.014 A 
ATOM     32  C   UNL A   1      35.097  32.257  30.562  1.00  0.00     0.010 A 
ATOM     33  C   UNL A   1      36.603  33.817  29.508  1.00  0.00     0.010 A 
ATOM     34  C   UNL A   1      36.406  32.719  30.357  1.00  0.00    -0.014 A 
BRANCH  34  35
ATOM     35  C   UNL A   1      37.571  32.100  31.049  1.00  0.00     0.031 A 
ATOM     36  C   UNL A   1      38.396  31.048  30.354  1.00  0.00     0.074 A 
ATOM     37  C   UNL A   1      37.856  32.435  32.323  1.00  0.00     0.049 A 
ATOM     38  N   UNL A   1      39.377  30.316  30.823  1.00  0.00    -0.248 NA
ATOM     39  C   UNL A   1      38.054  30.758  28.953  1.00  0.00     0.031 C 
ATOM     40  C   UNL A   1      37.118  33.407  33.129  1.00  0.00     0.029 A 
ATOM     41  N   UNL A   1      38.840  31.982  33.169  1.00  0.00    -0.354 N 
ATOM     42  C   UNL A   1      39.740  29.462  29.790  1.00  0.00     0.074 A 
ATOM     43  C   UNL A   1      38.850  29.735  28.683  1.00  0.00     0.031 C 
ATOM     44  C   UNL A   1      37.688  33.498  34.341  1.00  0.00     0.029 A 
ATOM     45  C   UNL A   1      38.807  32.563  34.414  1.00  0.00     0.049 A 
ATOM     46  H   UNL A   1      39.507  31.306  32.907  1.00  0.00     0.167 HD
ATOM     47  C   UNL A   1      40.741  28.548  29.757  1.00  0.00     0.037 A 
ATOM     48  C   UNL A   1      39.585  32.359  35.494  1.00  0.00     0.037 A 
ATOM     49  C   UNL A   1      41.664  28.311  30.834  1.00  0.00     0.049 A 
ATOM     50  C   UNL A   1      40.705  31.358  35.423  1.00  0.00     0.074 A 
ATOM     51  C   UNL A   1      42.749  27.454  30.869  1.00  0.00     0.029 A 
ATOM     52  N   UNL A   1      41.615  28.945  32.067  1.00  0.00    -0.354 N 
ATOM     53  N   UNL A   1      41.064  30.589  34.424  1.00  0.00    -0.248 NA
ATOM     54  C   UNL A   1      41.529  31.198  36.630  1.00  0.00     0.031 C 
ATOM     55  C   UNL A   1      43.341  27.546  32.134  1.00  0.00     0.029 A 
ATOM     56  C   UNL A   1      42.646  28.489  32.873  1.00  0.00     0.049 A 
ATOM     57  H   UNL A   1      40.947  29.618  32.330  1.00  0.00     0.167 HD
ATOM     58  C   UNL A   1      42.167  29.875  34.871  1.00  0.00     0.074 A 
ATOM     59  C   UNL A   1      42.428  30.310  36.228  1.00  0.00     0.031 C 
ATOM     60  C   UNL A   1      42.899  28.942  34.216  1.00  0.00     0.037 A 
BRANCH  47  61
ATOM     61  C   UNL A   1      40.897  27.737  28.503  1.00  0.00     0.064 A 
ATOM     62  C   UNL A   1      40.229  26.515  28.331  1.00  0.00     0.173 A 
ATOM     63  C   UNL A   1      41.695  28.203  27.447  1.00  0.00     0.173 A 
ATOM     64  F   UNL A   1      39.464  26.021  29.316  1.00  0.00    -0.203 F 
ATOM     65  C   UNL A   1      40.378  25.775  27.160  1.00  0.00     0.198 A 
ATOM     66  C   UNL A   1      41.819  27.474  26.267  1.00  0.00     0.198 A 
ATOM     67  F   UNL A   1      42.350  29.369  27.558  1.00  0.00    -0.203 F 
ATOM     68  F   UNL A   1      39.769  24.588  27.038  1.00  0.00    -0.200 F 
ATOM     69  C   UNL A   1      41.167  26.258  26.128  1.00  0.00     0.200 A 
ATOM     70  F   UNL A   1      42.572  27.947  25.265  1.00  0.00    -0.200 F 
ATOM     71  F   UNL A   1      41.305  25.548  25.000  1.00  0.00    -0.200 F 
ENDBRANCH  47  61
BRANCH  48  72
ATOM     72  C   UNL A   1      39.351  33.146  36.732  1.00  0.00     0.064 A 
ATOM     73  C   UNL A   1      38.439  32.702  37.700  1.00  0.00     0.173 A 
ATOM     74  C   UNL A   1      40.029  34.349  36.973  1.00  0.00     0.173 A 
ATOM     75  F   UNL A   1      37.753  31.567  37.502  1.00  0.00    -0.203 F 
ATOM     76  C   UNL A   1      38.202  33.442  38.857  1.00  0.00     0.198 A 
ATOM     77  C   UNL A   1      39.809  35.075  38.143  1.00  0.00     0.198 A 
ATOM     78  F   UNL A   1      40.914  34.813  36.079  1.00  0.00    -0.203 F 
ATOM     79  F   UNL A   1      37.298  33.013  39.748  1.00  0.00    -0.200 F 
ATOM     80  C   UNL A   1      38.891  34.624  39.080  1.00  0.00     0.200 A 
ATOM     81  F   UNL A   1      40.485  36.211  38.361  1.00  0.00    -0.200 F 
ATOM     82  F   UNL A   1      38.667  35.331  40.195  1.00  0.00    -0.200 F 
ENDBRANCH  48  72
BRANCH  60  83
ATOM     83  C   UNL A   1      44.072  28.353  34.942  1.00  0.00     0.064 A 
ATOM     84  C   UNL A   1      45.329  28.973  34.929  1.00  0.00     0.173 A 
ATOM     85  C   UNL A   1      43.923  27.178  35.693  1.00  0.00     0.173 A 
ATOM     86  F   UNL A   1      45.523  30.089  34.212  1.00  0.00    -0.203 F 
ATOM     87  C   UNL A   1      46.402  28.425  35.626  1.00  0.00     0.198 A 
ATOM     88  C   UNL A   1      44.991  26.646  36.410  1.00  0.00     0.198 A 
ATOM     89  F   UNL A   1      42.737  26.551  35.741  1.00  0.00    -0.203 F 
ATOM     90  F   UNL A   1      47.606  29.011  35.569  1.00  0.00    -0.200 F 
ATOM     91  C   UNL A   1      46.230  27.266  36.371  1.00  0.00     0.200 A 
ATOM     92  F   UNL A   1      44.822  25.532  37.136  1.00  0.00    -0.200 F 
ATOM     93  F   UNL A   1      47.264  26.744  37.047  1.00  0.00    -0.200 F 
ENDBRANCH  60  83
ENDBRANCH  34  35
ENDBRANCH  26  29
ENDBRANCH  24  25
ENDBRANCH  23  24
ENDBRANCH   1  23
TORSDOF 13
ENDMDL
MODEL 3
REMARK VINA RESULT:     -12.4      0.402      7.262
REMARK SMILES C[C@@H]1[C@H](C(=O)NCCCNC(=O)c2ccc(-c3c4nc(c(-c5c(F)c(F)c(F)c(F)c5F)c5ccc([nH]5)c(-c5c(F)c(F)c(F)c(F)c5F)c5nc(c(-c6c(F)c(F)c(F)c(F)c6F)c6ccc3[nH]6)C=C5)C=C4)cc2)CC[N@H+]1Cc1ccccc1[N+](=O)[O-]
REMARK SMILES IDX 7 1 6 2 4 3 5 4 3 6 1 7 2 8 78 9 76 10 77 11 79 13 80 14
REMARK SMILES IDX 81 15 85 16 82 17 84 18 83 19 86 20 87 21 88 22 8 23 9 24
REMARK SMILES IDX 10 25 11 26 12 28 13 29 14 30 75 31 15 32 74 33 16 34 17 35
REMARK SMILES IDX 18 36 68 37 19 38 73 39 67 40 69 41 20 42 72 43 66 44 65 45
REMARK SMILES IDX 21 47 53 48 33 49 52 50 34 51 37 52 51 53 70 54 35 55 36 56
REMARK SMILES IDX 50 58 71 59 38 60 22 61 23 62 31 63 24 64 25 65 29 66 32 67
REMARK SMILES IDX 26 68 27 69 30 70 28 71 54 72 55 73 63 74 56 75 57 76 61 77
REMARK SMILES IDX 64 78 58 79 59 80 62 81 60 82 39 83 40 84 48 85 41 86 42 87
REMARK SMILES IDX 46 88 49 89 43 90 44 91 47 92 45 93
REMARK H PARENT 6 5 78 12 10 27 69 46 37 57
REMARK Flexibility Score: inf
ROOT
ATOM      1  C   UNL A   1      31.000  31.036  25.379  1.00  0.00     0.117 C 
ENDROOT
BRANCH   1   2
ATOM      2  N   UNL A   1      32.201  30.222  25.410  1.00  0.00    -0.356 N 
ATOM      3  C   UNL A   1      32.405  28.900  25.612  1.00  0.00     0.229 C 
ATOM      4  O   UNL A   1      33.584  28.555  25.759  1.00  0.00    -0.275 OA
ATOM      5  H   UNL A   1      33.029  30.732  25.253  1.00  0.00     0.163 HD
BRANCH   3   6
ATOM      6  C   UNL A   1      31.316  27.839  25.613  1.00  0.00     0.142 C 
ATOM      7  C   UNL A   1      31.072  27.984  22.998  1.00  0.00     0.076 C 
ATOM      8  C   UNL A   1      30.656  27.344  24.307  1.00  0.00     0.193 C 
ATOM      9  N   UNL A   1      30.794  25.900  24.435  1.00  0.00    -0.328 N 
ATOM     10  C   UNL A   1      31.676  26.568  26.397  1.00  0.00     0.081 C 
ATOM     11  C   UNL A   1      30.715  25.537  25.831  1.00  0.00     0.263 C 
ATOM     12  H   UNL A   1      31.462  25.599  23.725  1.00  0.00     0.348 HD
BRANCH   9  13
ATOM     13  C   UNL A   1      30.812  24.923  23.379  1.00  0.00     0.306 C 
BRANCH  13  14
ATOM     14  C   UNL A   1      31.980  23.956  23.510  1.00  0.00     0.084 A 
ATOM     15  C   UNL A   1      31.741  22.652  23.983  1.00  0.00     0.017 A 
ATOM     16  C   UNL A   1      33.304  24.251  23.126  1.00  0.00     0.278 A 
ATOM     17  C   UNL A   1      32.758  21.689  24.019  1.00  0.00     0.001 A 
ATOM     18  C   UNL A   1      34.322  23.282  23.128  1.00  0.00     0.086 A 
ATOM     19  C   UNL A   1      34.041  21.994  23.570  1.00  0.00     0.007 A 
BRANCH  16  20
ATOM     20  N   UNL A   1      33.708  25.592  22.748  1.00  0.00     0.063 N 
ATOM     21  O   UNL A   1      34.036  26.363  23.662  1.00  0.00    -0.258 OA
ATOM     22  O   UNL A   1      33.652  25.883  21.546  1.00  0.00    -0.258 OA
ENDBRANCH  16  20
ENDBRANCH  13  14
ENDBRANCH   9  13
ENDBRANCH   3   6
ENDBRANCH   1   2
BRANCH   1  23
ATOM     23  C   UNL A   1      31.028  32.088  26.491  1.00  0.00     0.042 C 
BRANCH  23  24
ATOM     24  C   UNL A   1      32.424  32.496  26.939  1.00  0.00     0.118 C 
BRANCH  24  25
ATOM     25  N   UNL A   1      32.477  33.864  27.424  1.00  0.00    -0.352 N 
ATOM     26  C   UNL A   1      33.248  34.459  28.395  1.00  0.00     0.251 C 
ATOM     27  H   UNL A   1      31.848  34.476  26.978  1.00  0.00     0.163 HD
ATOM     28  O   UNL A   1      32.951  35.592  28.765  1.00  0.00    -0.269 OA
BRANCH  26  29
ATOM     29  C   UNL A   1      34.402  33.773  29.032  1.00  0.00     0.039 A 
ATOM     30  C   UNL A   1      34.141  32.703  29.900  1.00  0.00     0.014 A 
ATOM     31  C   UNL A   1      35.721  34.198  28.868  1.00  0.00     0.014 A 
ATOM     32  C   UNL A   1      35.190  32.041  30.548  1.00  0.00     0.010 A 
ATOM     33  C   UNL A   1      36.774  33.475  29.432  1.00  0.00     0.010 A 
ATOM     34  C   UNL A   1      36.522  32.398  30.294  1.00  0.00    -0.014 A 
BRANCH  34  35
ATOM     35  C   UNL A   1      37.659  31.690  30.946  1.00  0.00     0.031 A 
ATOM     36  C   UNL A   1      38.052  32.027  32.361  1.00  0.00     0.074 A 
ATOM     37  C   UNL A   1      38.381  30.788  30.252  1.00  0.00     0.049 A 
ATOM     38  N   UNL A   1      39.074  31.603  33.064  1.00  0.00    -0.248 NA
ATOM     39  C   UNL A   1      37.199  32.992  33.073  1.00  0.00     0.031 C 
ATOM     40  C   UNL A   1      38.138  30.396  28.864  1.00  0.00     0.029 A 
ATOM     41  N   UNL A   1      39.477  30.045  30.619  1.00  0.00    -0.354 N 
ATOM     42  C   UNL A   1      39.004  32.274  34.278  1.00  0.00     0.074 A 
ATOM     43  C   UNL A   1      37.866  33.163  34.205  1.00  0.00     0.031 C 
ATOM     44  C   UNL A   1      39.038  29.467  28.504  1.00  0.00     0.029 A 
ATOM     45  C   UNL A   1      39.948  29.227  29.621  1.00  0.00     0.049 A 
ATOM     46  H   UNL A   1      39.886  30.094  31.514  1.00  0.00     0.167 HD
ATOM     47  C   UNL A   1      39.802  32.144  35.367  1.00  0.00     0.037 A 
ATOM     48  C   UNL A   1      40.998  28.384  29.604  1.00  0.00     0.037 A 
ATOM     49  C   UNL A   1      40.901  31.222  35.466  1.00  0.00     0.049 A 
ATOM     50  C   UNL A   1      41.852  28.240  30.833  1.00  0.00     0.074 A 
ATOM     51  C   UNL A   1      41.725  30.973  36.549  1.00  0.00     0.029 A 
ATOM     52  N   UNL A   1      41.324  30.387  34.442  1.00  0.00    -0.354 N 
ATOM     53  N   UNL A   1      41.747  28.848  31.989  1.00  0.00    -0.248 NA
ATOM     54  C   UNL A   1      42.971  27.289  30.756  1.00  0.00     0.031 C 
ATOM     55  C   UNL A   1      42.666  30.007  36.173  1.00  0.00     0.029 A 
ATOM     56  C   UNL A   1      42.403  29.630  34.866  1.00  0.00     0.049 A 
ATOM     57  H   UNL A   1      40.917  30.340  33.547  1.00  0.00     0.167 HD
ATOM     58  C   UNL A   1      42.765  28.337  32.782  1.00  0.00     0.074 A 
ATOM     59  C   UNL A   1      43.471  27.359  31.981  1.00  0.00     0.031 C 
ATOM     60  C   UNL A   1      43.087  28.651  34.061  1.00  0.00     0.037 A 
BRANCH  47  61
ATOM     61  C   UNL A   1      39.507  33.020  36.550  1.00  0.00     0.064 A 
ATOM     62  C   UNL A   1      40.146  34.256  36.727  1.00  0.00     0.173 A 
ATOM     63  C   UNL A   1      38.548  32.635  37.500  1.00  0.00     0.173 A 
ATOM     64  F   UNL A   1      41.078  34.664  35.852  1.00  0.00    -0.203 F 
ATOM     65  C   UNL A   1      39.858  35.061  37.826  1.00  0.00     0.198 A 
ATOM     66  C   UNL A   1      38.243  33.455  38.583  1.00  0.00     0.198 A 
ATOM     67  F   UNL A   1      37.903  31.465  37.375  1.00  0.00    -0.203 F 
ATOM     68  F   UNL A   1      40.517  36.216  37.998  1.00  0.00    -0.200 F 
ATOM     69  C   UNL A   1      38.903  34.664  38.748  1.00  0.00     0.200 A 
ATOM     70  F   UNL A   1      37.312  33.076  39.468  1.00  0.00    -0.200 F 
ATOM     71  F   UNL A   1      38.624  35.443  39.803  1.00  0.00    -0.200 F 
ENDBRANCH  47  61
BRANCH  48  72
ATOM     72  C   UNL A   1      41.284  27.583  28.386  1.00  0.00     0.064 A 
ATOM     73  C   UNL A   1      40.603  26.381  28.144  1.00  0.00     0.173 A 
ATOM     74  C   UNL A   1      42.235  27.998  27.444  1.00  0.00     0.173 A 
ATOM     75  F   UNL A   1      39.699  25.935  29.029  1.00  0.00    -0.203 F 
ATOM     76  C   UNL A   1      40.876  25.616  27.012  1.00  0.00     0.198 A 
ATOM     77  C   UNL A   1      42.489  27.243  26.300  1.00  0.00     0.198 A 
ATOM     78  F   UNL A   1      42.909  29.142  27.629  1.00  0.00    -0.203 F 
ATOM     79  F   UNL A   1      40.238  24.452  26.825  1.00  0.00    -0.200 F 
ATOM     80  C   UNL A   1      41.814  26.051  26.088  1.00  0.00     0.200 A 
ATOM     81  F   UNL A   1      43.387  27.673  25.403  1.00  0.00    -0.200 F 
ATOM     82  F   UNL A   1      42.072  25.317  24.998  1.00  0.00    -0.200 F 
ENDBRANCH  48  72
BRANCH  60  83
ATOM     83  C   UNL A   1      44.228  27.907  34.685  1.00  0.00     0.064 A 
ATOM     84  C   UNL A   1      44.037  26.679  35.335  1.00  0.00     0.173 A 
ATOM     85  C   UNL A   1      45.536  28.408  34.595  1.00  0.00     0.173 A 
ATOM     86  F   UNL A   1      42.803  26.169  35.461  1.00  0.00    -0.203 F 
ATOM     87  C   UNL A   1      45.111  25.990  35.891  1.00  0.00     0.198 A 
ATOM     88  C   UNL A   1      46.611  27.704  35.129  1.00  0.00     0.198 A 
ATOM     89  F   UNL A   1      45.771  29.576  33.977  1.00  0.00    -0.203 F 
ATOM     90  F   UNL A   1      44.901  24.838  36.542  1.00  0.00    -0.200 F 
ATOM     91  C   UNL A   1      46.397  26.500  35.781  1.00  0.00     0.200 A 
ATOM     92  F   UNL A   1      47.854  28.193  35.015  1.00  0.00    -0.200 F 
ATOM     93  F   UNL A   1      47.431  25.831  36.312  1.00  0.00    -0.200 F 
ENDBRANCH  60  83
ENDBRANCH  34  35
ENDBRANCH  26  29
ENDBRANCH  24  25
ENDBRANCH  23  24
ENDBRANCH   1  23
TORSDOF 13
ENDMDL
