MODEL 1
REMARK VINA RESULT:     -14.1      0.000      0.000
REMARK SMILES O=C(NCCCNC(=O)[C@H]1Cc2c([nH]c3ccccc23)[C@H](c2c[nH]c3ccccc23)[NH2+]1)c1ccc(-c2c3nc(c(-c4c(F)c(F)c(F)c(F)c4F)c4ccc([nH]4)c(-c4c(F)c(F)c(F)c(F)c4F)c4nc(c(-c5c(F)c(F)c(F)c(F)c5F)c5ccc2[nH]5)C=C4)C=C3)cc1
REMARK SMILES IDX 4 1 3 2 1 3 2 4 32 6 33 7 94 8 34 9 93 10 35 11 36 12 37 13
REMARK SMILES IDX 87 14 38 15 92 16 86 17 88 18 39 19 91 20 85 21 84 22 40 24
REMARK SMILES IDX 72 25 52 26 71 27 53 28 56 29 70 30 89 31 54 32 55 33 69 35
REMARK SMILES IDX 90 36 57 37 41 38 42 39 50 40 43 41 44 42 48 43 51 44 45 45
REMARK SMILES IDX 46 46 49 47 47 48 73 49 74 50 82 51 75 52 76 53 80 54 83 55
REMARK SMILES IDX 77 56 78 57 81 58 79 59 58 60 59 61 67 62 60 63 61 64 65 65
REMARK SMILES IDX 68 66 62 67 63 68 66 69 64 70 5 71 6 72 7 73 8 74 9 76 10 77
REMARK SMILES IDX 11 78 31 79 12 80 21 81 13 84 20 85 14 86 15 87 19 88 16 90
REMARK SMILES IDX 18 91 17 92 22 93 23 94 30 95 24 96 25 97 29 98 26 100
REMARK SMILES IDX 28 101 27 102
REMARK H PARENT 3 5 88 23 56 34 7 75 31 82 31 83 14 89 24 99
REMARK Flexibility Score: inf
ROOT
ATOM      1  C   UNL A   1      33.623  29.016  24.972  1.00  0.00     0.118 C 
ENDROOT
BRANCH   1   2
ATOM      2  N   UNL A   1      33.026  30.244  25.483  1.00  0.00    -0.352 N 
ATOM      3  O   UNL A   1      32.444  31.778  27.012  1.00  0.00    -0.269 OA
ATOM      4  C   UNL A   1      33.251  30.925  26.653  1.00  0.00     0.251 C 
ATOM      5  H   UNL A   1      32.353  30.651  24.891  1.00  0.00     0.163 HD
BRANCH   4   6
ATOM      6  C   UNL A   1      34.445  30.650  27.487  1.00  0.00     0.039 A 
ATOM      7  C   UNL A   1      34.690  29.379  28.004  1.00  0.00     0.014 A 
ATOM      8  C   UNL A   1      35.385  31.670  27.686  1.00  0.00     0.014 A 
ATOM      9  C   UNL A   1      35.789  29.159  28.828  1.00  0.00     0.010 A 
ATOM     10  C   UNL A   1      36.544  31.420  28.428  1.00  0.00     0.010 A 
ATOM     11  C   UNL A   1      36.746  30.166  29.023  1.00  0.00    -0.014 A 
BRANCH  11  12
ATOM     12  C   UNL A   1      37.985  29.853  29.780  1.00  0.00     0.031 A 
ATOM     13  C   UNL A   1      38.211  30.395  31.162  1.00  0.00     0.074 A 
ATOM     14  C   UNL A   1      38.902  29.049  29.209  1.00  0.00     0.049 A 
ATOM     15  N   UNL A   1      39.231  30.212  31.963  1.00  0.00    -0.248 NA
ATOM     16  C   UNL A   1      37.161  31.262  31.718  1.00  0.00     0.031 C 
ATOM     17  C   UNL A   1      38.798  28.476  27.865  1.00  0.00     0.029 A 
ATOM     18  N   UNL A   1      40.092  28.560  29.684  1.00  0.00    -0.354 N 
ATOM     19  C   UNL A   1      38.956  30.950  33.106  1.00  0.00     0.074 A 
ATOM     20  C   UNL A   1      37.686  31.610  32.885  1.00  0.00     0.031 C 
ATOM     21  C   UNL A   1      39.852  27.678  27.641  1.00  0.00     0.029 A 
ATOM     22  C   UNL A   1      40.739  27.736  28.797  1.00  0.00     0.049 A 
ATOM     23  H   UNL A   1      40.449  28.779  30.575  1.00  0.00     0.167 HD
ATOM     24  C   UNL A   1      39.693  31.058  34.238  1.00  0.00     0.037 A 
ATOM     25  C   UNL A   1      41.927  27.109  28.891  1.00  0.00     0.037 A 
ATOM     26  C   UNL A   1      40.952  30.388  34.453  1.00  0.00     0.049 A 
ATOM     27  C   UNL A   1      42.735  27.271  30.146  1.00  0.00     0.074 A 
ATOM     28  C   UNL A   1      41.757  30.405  35.578  1.00  0.00     0.029 A 
ATOM     29  N   UNL A   1      41.589  29.583  33.519  1.00  0.00    -0.354 N 
ATOM     30  N   UNL A   1      42.447  27.943  31.234  1.00  0.00    -0.248 NA
ATOM     31  C   UNL A   1      44.035  26.589  30.185  1.00  0.00     0.031 C 
ATOM     32  C   UNL A   1      42.906  29.652  35.307  1.00  0.00     0.029 A 
ATOM     33  C   UNL A   1      42.791  29.120  34.033  1.00  0.00     0.049 A 
ATOM     34  H   UNL A   1      41.240  29.371  32.623  1.00  0.00     0.167 HD
ATOM     35  C   UNL A   1      43.517  27.752  32.094  1.00  0.00     0.074 A 
ATOM     36  C   UNL A   1      44.452  26.883  31.409  1.00  0.00     0.031 C 
ATOM     37  C   UNL A   1      43.710  28.254  33.338  1.00  0.00     0.037 A 
BRANCH  24  38
ATOM     38  C   UNL A   1      39.172  31.950  35.328  1.00  0.00     0.064 A 
ATOM     39  C   UNL A   1      38.402  31.449  36.389  1.00  0.00     0.173 A 
ATOM     40  C   UNL A   1      39.484  33.319  35.336  1.00  0.00     0.173 A 
ATOM     41  F   UNL A   1      38.066  30.151  36.424  1.00  0.00    -0.203 F 
ATOM     42  C   UNL A   1      37.943  32.289  37.401  1.00  0.00     0.198 A 
ATOM     43  C   UNL A   1      39.048  34.150  36.365  1.00  0.00     0.198 A 
ATOM     44  F   UNL A   1      40.224  33.849  34.350  1.00  0.00    -0.203 F 
ATOM     45  F   UNL A   1      37.171  31.796  38.379  1.00  0.00    -0.200 F 
ATOM     46  C   UNL A   1      38.272  33.636  37.392  1.00  0.00     0.200 A 
ATOM     47  F   UNL A   1      39.379  35.448  36.362  1.00  0.00    -0.200 F 
ATOM     48  F   UNL A   1      37.835  34.441  38.371  1.00  0.00    -0.200 F 
ENDBRANCH  24  38
BRANCH  25  49
ATOM     49  C   UNL A   1      42.416  26.281  27.759  1.00  0.00     0.064 A 
ATOM     50  C   UNL A   1      42.034  24.939  27.627  1.00  0.00     0.173 A 
ATOM     51  C   UNL A   1      43.262  26.819  26.777  1.00  0.00     0.173 A 
ATOM     52  F   UNL A   1      41.242  24.375  28.550  1.00  0.00    -0.203 F 
ATOM     53  C   UNL A   1      42.492  24.163  26.564  1.00  0.00     0.198 A 
ATOM     54  C   UNL A   1      43.693  26.051  25.698  1.00  0.00     0.198 A 
ATOM     55  F   UNL A   1      43.651  28.100  26.854  1.00  0.00    -0.203 F 
ATOM     56  F   UNL A   1      42.145  22.870  26.484  1.00  0.00    -0.200 F 
ATOM     57  C   UNL A   1      43.314  24.721  25.597  1.00  0.00     0.200 A 
ATOM     58  F   UNL A   1      44.472  26.600  24.757  1.00  0.00    -0.200 F 
ATOM     59  F   UNL A   1      43.745  23.976  24.570  1.00  0.00    -0.200 F 
ENDBRANCH  25  49
BRANCH  37  60
ATOM     60  C   UNL A   1      44.967  27.849  34.050  1.00  0.00     0.064 A 
ATOM     61  C   UNL A   1      45.026  26.692  34.841  1.00  0.00     0.173 A 
ATOM     62  C   UNL A   1      46.135  28.615  33.917  1.00  0.00     0.173 A 
ATOM     63  F   UNL A   1      43.931  25.936  35.013  1.00  0.00    -0.203 F 
ATOM     64  C   UNL A   1      46.201  26.332  35.494  1.00  0.00     0.198 A 
ATOM     65  C   UNL A   1      47.316  28.234  34.547  1.00  0.00     0.198 A 
ATOM     66  F   UNL A   1      46.132  29.728  33.169  1.00  0.00    -0.203 F 
ATOM     67  F   UNL A   1      46.221  25.250  36.285  1.00  0.00    -0.200 F 
ATOM     68  C   UNL A   1      47.346  27.099  35.341  1.00  0.00     0.200 A 
ATOM     69  F   UNL A   1      48.425  28.970  34.388  1.00  0.00    -0.200 F 
ATOM     70  F   UNL A   1      48.478  26.748  35.967  1.00  0.00    -0.200 F 
ENDBRANCH  37  60
ENDBRANCH  11  12
ENDBRANCH   4   6
ENDBRANCH   1   2
BRANCH   1  71
ATOM     71  C   UNL A   1      33.030  28.631  23.625  1.00  0.00     0.042 C 
BRANCH  71  72
ATOM     72  C   UNL A   1      32.315  27.284  23.645  1.00  0.00     0.118 C 
BRANCH  72  73
ATOM     73  N   UNL A   1      31.867  26.969  24.984  1.00  0.00    -0.351 N 
ATOM     74  C   UNL A   1      31.964  25.821  25.715  1.00  0.00     0.278 C 
ATOM     75  H   UNL A   1      31.415  27.710  25.447  1.00  0.00     0.163 HD
ATOM     76  O   UNL A   1      31.353  25.820  26.787  1.00  0.00    -0.268 OA
BRANCH  74  77
ATOM     77  C   UNL A   1      32.801  24.610  25.227  1.00  0.00     0.277 C 
ATOM     78  C   UNL A   1      34.214  24.808  25.849  1.00  0.00     0.114 C 
ATOM     79  N   UNL A   1      32.120  23.341  25.618  1.00  0.00    -0.324 N 
ATOM     80  C   UNL A   1      34.991  23.549  25.796  1.00  0.00    -0.006 A 
ATOM     81  C   UNL A   1      32.890  22.092  25.454  1.00  0.00     0.264 C 
ATOM     82  H   UNL A   1      31.275  23.259  25.053  1.00  0.00     0.347 HD
ATOM     83  H   UNL A   1      31.957  23.423  26.621  1.00  0.00     0.347 HD
ATOM     84  C   UNL A   1      34.358  22.336  25.648  1.00  0.00     0.083 A 
ATOM     85  C   UNL A   1      36.388  23.316  25.901  1.00  0.00     0.003 A 
ATOM     86  N   UNL A   1      35.320  21.364  25.734  1.00  0.00    -0.353 N 
ATOM     87  C   UNL A   1      36.568  21.934  25.851  1.00  0.00     0.046 A 
ATOM     88  C   UNL A   1      37.520  24.142  26.040  1.00  0.00     0.010 A 
ATOM     89  H   UNL A   1      35.145  20.396  25.714  1.00  0.00     0.166 HD
ATOM     90  C   UNL A   1      37.829  21.332  25.922  1.00  0.00     0.026 A 
ATOM     91  C   UNL A   1      38.791  23.556  26.105  1.00  0.00     0.001 A 
ATOM     92  C   UNL A   1      38.939  22.172  26.045  1.00  0.00     0.002 A 
BRANCH  81  93
ATOM     93  C   UNL A   1      32.618  21.309  24.169  1.00  0.00     0.041 A 
ATOM     94  C   UNL A   1      32.052  21.888  23.034  1.00  0.00     0.093 A 
ATOM     95  C   UNL A   1      32.835  19.930  23.802  1.00  0.00     0.009 A 
ATOM     96  N   UNL A   1      31.803  20.922  22.102  1.00  0.00    -0.361 N 
ATOM     97  C   UNL A   1      32.280  19.716  22.538  1.00  0.00     0.046 A 
ATOM     98  C   UNL A   1      33.442  18.818  24.410  1.00  0.00     0.011 A 
ATOM     99  H   UNL A   1      31.347  21.072  21.242  1.00  0.00     0.166 HD
ATOM    100  C   UNL A   1      32.258  18.464  21.903  1.00  0.00     0.026 A 
ATOM    101  C   UNL A   1      33.456  17.561  23.794  1.00  0.00     0.001 A 
ATOM    102  C   UNL A   1      32.856  17.387  22.557  1.00  0.00     0.002 A 
ENDBRANCH  81  93
ENDBRANCH  74  77
ENDBRANCH  72  73
ENDBRANCH  71  72
ENDBRANCH   1  71
TORSDOF 11
ENDMDL
MODEL 2
REMARK VINA RESULT:     -14.0      0.259      1.647
REMARK SMILES O=C(NCCCNC(=O)[C@H]1Cc2c([nH]c3ccccc23)[C@H](c2c[nH]c3ccccc23)[NH2+]1)c1ccc(-c2c3nc(c(-c4c(F)c(F)c(F)c(F)c4F)c4ccc([nH]4)c(-c4c(F)c(F)c(F)c(F)c4F)c4nc(c(-c5c(F)c(F)c(F)c(F)c5F)c5ccc2[nH]5)C=C4)C=C3)cc1
REMARK SMILES IDX 4 1 3 2 1 3 2 4 32 6 33 7 94 8 34 9 93 10 35 11 36 12 37 13
REMARK SMILES IDX 87 14 38 15 92 16 86 17 88 18 39 19 91 20 85 21 84 22 40 24
REMARK SMILES IDX 72 25 52 26 71 27 53 28 56 29 70 30 89 31 54 32 55 33 69 35
REMARK SMILES IDX 90 36 57 37 41 38 42 39 50 40 43 41 44 42 48 43 51 44 45 45
REMARK SMILES IDX 46 46 49 47 47 48 73 49 74 50 82 51 75 52 76 53 80 54 83 55
REMARK SMILES IDX 77 56 78 57 81 58 79 59 58 60 59 61 67 62 60 63 61 64 65 65
REMARK SMILES IDX 68 66 62 67 63 68 66 69 64 70 5 71 6 72 7 73 8 74 9 76 10 77
REMARK SMILES IDX 11 78 31 79 12 80 21 81 13 84 20 85 14 86 15 87 19 88 16 90
REMARK SMILES IDX 18 91 17 92 22 93 23 94 30 95 24 96 25 97 29 98 26 100
REMARK SMILES IDX 28 101 27 102
REMARK H PARENT 3 5 88 23 56 34 7 75 31 82 31 83 14 89 24 99
REMARK Flexibility Score: inf
ROOT
ATOM      1  C   UNL A   1      33.334  29.242  25.188  1.00  0.00     0.118 C 
ENDROOT
BRANCH   1   2
ATOM      2  N   UNL A   1      32.905  30.519  25.744  1.00  0.00    -0.352 N 
ATOM      3  O   UNL A   1      32.642  32.112  27.303  1.00  0.00    -0.269 OA
ATOM      4  C   UNL A   1      33.328  31.193  26.863  1.00  0.00     0.251 C 
ATOM      5  H   UNL A   1      32.196  30.974  25.233  1.00  0.00     0.163 HD
BRANCH   4   6
ATOM      6  C   UNL A   1      34.592  30.831  27.547  1.00  0.00     0.039 A 
ATOM      7  C   UNL A   1      35.586  31.781  27.784  1.00  0.00     0.014 A 
ATOM      8  C   UNL A   1      34.752  29.529  28.038  1.00  0.00     0.014 A 
ATOM      9  C   UNL A   1      36.785  31.405  28.380  1.00  0.00     0.010 A 
ATOM     10  C   UNL A   1      35.915  29.177  28.730  1.00  0.00     0.010 A 
ATOM     11  C   UNL A   1      36.952  30.108  28.889  1.00  0.00    -0.014 A 
BRANCH  11  12
ATOM     12  C   UNL A   1      38.181  29.783  29.656  1.00  0.00     0.031 A 
ATOM     13  C   UNL A   1      38.411  30.341  31.031  1.00  0.00     0.074 A 
ATOM     14  C   UNL A   1      39.085  28.953  29.103  1.00  0.00     0.049 A 
ATOM     15  N   UNL A   1      39.424  30.151  31.839  1.00  0.00    -0.248 NA
ATOM     16  C   UNL A   1      37.376  31.238  31.568  1.00  0.00     0.031 C 
ATOM     17  C   UNL A   1      38.976  28.360  27.767  1.00  0.00     0.029 A 
ATOM     18  N   UNL A   1      40.263  28.448  29.591  1.00  0.00    -0.354 N 
ATOM     19  C   UNL A   1      39.158  30.913  32.970  1.00  0.00     0.074 A 
ATOM     20  C   UNL A   1      37.902  31.593  32.732  1.00  0.00     0.031 C 
ATOM     21  C   UNL A   1      40.015  27.539  27.561  1.00  0.00     0.029 A 
ATOM     22  C   UNL A   1      40.898  27.597  28.719  1.00  0.00     0.049 A 
ATOM     23  H   UNL A   1      40.620  28.673  30.480  1.00  0.00     0.167 HD
ATOM     24  C   UNL A   1      39.892  31.024  34.103  1.00  0.00     0.037 A 
ATOM     25  C   UNL A   1      42.073  26.949  28.829  1.00  0.00     0.037 A 
ATOM     26  C   UNL A   1      41.136  30.333  34.334  1.00  0.00     0.049 A 
ATOM     27  C   UNL A   1      42.878  27.114  30.085  1.00  0.00     0.074 A 
ATOM     28  C   UNL A   1      41.937  30.352  35.464  1.00  0.00     0.029 A 
ATOM     29  N   UNL A   1      41.762  29.501  33.417  1.00  0.00    -0.354 N 
ATOM     30  N   UNL A   1      42.598  27.809  31.161  1.00  0.00    -0.248 NA
ATOM     31  C   UNL A   1      44.164  26.408  30.142  1.00  0.00     0.031 C 
ATOM     32  C   UNL A   1      43.072  29.573  35.210  1.00  0.00     0.029 A 
ATOM     33  C   UNL A   1      42.952  29.022  33.943  1.00  0.00     0.049 A 
ATOM     34  H   UNL A   1      41.413  29.282  32.522  1.00  0.00     0.167 HD
ATOM     35  C   UNL A   1      43.661  27.611  32.029  1.00  0.00     0.074 A 
ATOM     36  C   UNL A   1      44.582  26.713  31.362  1.00  0.00     0.031 C 
ATOM     37  C   UNL A   1      43.857  28.128  33.267  1.00  0.00     0.037 A 
BRANCH  24  38
ATOM     38  C   UNL A   1      39.384  31.943  35.177  1.00  0.00     0.064 A 
ATOM     39  C   UNL A   1      38.566  31.481  36.220  1.00  0.00     0.173 A 
ATOM     40  C   UNL A   1      39.755  33.297  35.187  1.00  0.00     0.173 A 
ATOM     41  F   UNL A   1      38.174  30.198  36.252  1.00  0.00    -0.203 F 
ATOM     42  C   UNL A   1      38.119  32.344  37.217  1.00  0.00     0.198 A 
ATOM     43  C   UNL A   1      39.330  34.151  36.203  1.00  0.00     0.198 A 
ATOM     44  F   UNL A   1      40.541  33.790  34.219  1.00  0.00    -0.203 F 
ATOM     45  F   UNL A   1      37.302  31.890  38.178  1.00  0.00    -0.200 F 
ATOM     46  C   UNL A   1      38.507  33.676  37.211  1.00  0.00     0.200 A 
ATOM     47  F   UNL A   1      39.717  35.433  36.203  1.00  0.00    -0.200 F 
ATOM     48  F   UNL A   1      38.081  34.504  38.177  1.00  0.00    -0.200 F 
ENDBRANCH  24  38
BRANCH  25  49
ATOM     49  C   UNL A   1      42.551  26.094  27.713  1.00  0.00     0.064 A 
ATOM     50  C   UNL A   1      43.480  26.575  26.780  1.00  0.00     0.173 A 
ATOM     51  C   UNL A   1      42.100  24.774  27.563  1.00  0.00     0.173 A 
ATOM     52  F   UNL A   1      43.926  27.836  26.870  1.00  0.00    -0.203 F 
ATOM     53  C   UNL A   1      43.928  25.772  25.733  1.00  0.00     0.198 A 
ATOM     54  C   UNL A   1      42.573  23.962  26.535  1.00  0.00     0.198 A 
ATOM     55  F   UNL A   1      41.215  24.264  28.433  1.00  0.00    -0.203 F 
ATOM     56  F   UNL A   1      44.787  26.270  24.831  1.00  0.00    -0.200 F 
ATOM     57  C   UNL A   1      43.482  24.465  25.616  1.00  0.00     0.200 A 
ATOM     58  F   UNL A   1      42.151  22.695  26.438  1.00  0.00    -0.200 F 
ATOM     59  F   UNL A   1      43.921  23.691  24.615  1.00  0.00    -0.200 F 
ENDBRANCH  25  49
BRANCH  37  60
ATOM     60  C   UNL A   1      45.103  27.710  33.991  1.00  0.00     0.064 A 
ATOM     61  C   UNL A   1      46.294  28.445  33.893  1.00  0.00     0.173 A 
ATOM     62  C   UNL A   1      45.098  26.574  34.813  1.00  0.00     0.173 A 
ATOM     63  F   UNL A   1      46.355  29.529  33.104  1.00  0.00    -0.203 F 
ATOM     64  C   UNL A   1      47.440  28.043  34.572  1.00  0.00     0.198 A 
ATOM     65  C   UNL A   1      46.238  26.192  35.515  1.00  0.00     0.198 A 
ATOM     66  F   UNL A   1      43.984  25.839  34.944  1.00  0.00    -0.203 F 
ATOM     67  F   UNL A   1      48.581  28.731  34.423  1.00  0.00    -0.200 F 
ATOM     68  C   UNL A   1      47.410  26.922  35.387  1.00  0.00     0.200 A 
ATOM     69  F   UNL A   1      46.203  25.116  36.313  1.00  0.00    -0.200 F 
ATOM     70  F   UNL A   1      48.513  26.538  36.044  1.00  0.00    -0.200 F 
ENDBRANCH  37  60
ENDBRANCH  11  12
ENDBRANCH   4   6
ENDBRANCH   1   2
BRANCH   1  71
ATOM     71  C   UNL A   1      32.511  28.867  23.965  1.00  0.00     0.042 C 
BRANCH  71  72
ATOM     72  C   UNL A   1      32.112  27.395  23.937  1.00  0.00     0.118 C 
BRANCH  72  73
ATOM     73  N   UNL A   1      31.626  26.977  25.234  1.00  0.00    -0.351 N 
ATOM     74  C   UNL A   1      31.725  25.783  25.886  1.00  0.00     0.278 C 
ATOM     75  H   UNL A   1      31.143  27.675  25.732  1.00  0.00     0.163 HD
ATOM     76  O   UNL A   1      31.077  25.694  26.934  1.00  0.00    -0.268 OA
BRANCH  74  77
ATOM     77  C   UNL A   1      32.604  24.626  25.344  1.00  0.00     0.277 C 
ATOM     78  C   UNL A   1      34.013  24.854  25.963  1.00  0.00     0.114 C 
ATOM     79  N   UNL A   1      31.976  23.316  25.689  1.00  0.00    -0.324 N 
ATOM     80  C   UNL A   1      34.838  23.630  25.854  1.00  0.00    -0.006 A 
ATOM     81  C   UNL A   1      32.792  22.106  25.469  1.00  0.00     0.264 C 
ATOM     82  H   UNL A   1      31.130  23.224  25.127  1.00  0.00     0.347 HD
ATOM     83  H   UNL A   1      31.819  23.353  26.696  1.00  0.00     0.347 HD
ATOM     84  C   UNL A   1      34.252  22.400  25.663  1.00  0.00     0.083 A 
ATOM     85  C   UNL A   1      36.244  23.448  25.940  1.00  0.00     0.003 A 
ATOM     86  N   UNL A   1      35.252  21.464  25.703  1.00  0.00    -0.353 N 
ATOM     87  C   UNL A   1      36.477  22.077  25.833  1.00  0.00     0.046 A 
ATOM     88  C   UNL A   1      37.345  24.311  26.103  1.00  0.00     0.010 A 
ATOM     89  H   UNL A   1      35.113  20.491  25.645  1.00  0.00     0.166 HD
ATOM     90  C   UNL A   1      37.761  21.522  25.871  1.00  0.00     0.026 A 
ATOM     91  C   UNL A   1      38.637  23.773  26.137  1.00  0.00     0.001 A 
ATOM     92  C   UNL A   1      38.839  22.399  26.020  1.00  0.00     0.002 A 
BRANCH  81  93
ATOM     93  C   UNL A   1      32.540  21.364  24.156  1.00  0.00     0.041 A 
ATOM     94  C   UNL A   1      32.002  21.982  23.029  1.00  0.00     0.093 A 
ATOM     95  C   UNL A   1      32.753  19.996  23.752  1.00  0.00     0.009 A 
ATOM     96  N   UNL A   1      31.763  21.047  22.063  1.00  0.00    -0.361 N 
ATOM     97  C   UNL A   1      32.221  19.824  22.471  1.00  0.00     0.046 A 
ATOM     98  C   UNL A   1      33.339  18.860  24.338  1.00  0.00     0.011 A 
ATOM     99  H   UNL A   1      31.326  21.227  21.199  1.00  0.00     0.166 HD
ATOM    100  C   UNL A   1      32.202  18.592  21.798  1.00  0.00     0.026 A 
ATOM    101  C   UNL A   1      33.354  17.622  23.684  1.00  0.00     0.001 A 
ATOM    102  C   UNL A   1      32.778  17.490  22.432  1.00  0.00     0.002 A 
ENDBRANCH  81  93
ENDBRANCH  74  77
ENDBRANCH  72  73
ENDBRANCH  71  72
ENDBRANCH   1  71
TORSDOF 11
ENDMDL
MODEL 3
REMARK VINA RESULT:     -13.9      2.100      3.136
REMARK SMILES O=C(NCCCNC(=O)[C@H]1Cc2c([nH]c3ccccc23)[C@H](c2c[nH]c3ccccc23)[NH2+]1)c1ccc(-c2c3nc(c(-c4c(F)c(F)c(F)c(F)c4F)c4ccc([nH]4)c(-c4c(F)c(F)c(F)c(F)c4F)c4nc(c(-c5c(F)c(F)c(F)c(F)c5F)c5ccc2[nH]5)C=C4)C=C3)cc1
REMARK SMILES IDX 4 1 3 2 1 3 2 4 32 6 33 7 94 8 34 9 93 10 35 11 36 12 37 13
REMARK SMILES IDX 87 14 38 15 92 16 86 17 88 18 39 19 91 20 85 21 84 22 40 24
REMARK SMILES IDX 72 25 52 26 71 27 53 28 56 29 70 30 89 31 54 32 55 33 69 35
REMARK SMILES IDX 90 36 57 37 41 38 42 39 50 40 43 41 44 42 48 43 51 44 45 45
REMARK SMILES IDX 46 46 49 47 47 48 73 49 74 50 82 51 75 52 76 53 80 54 83 55
REMARK SMILES IDX 77 56 78 57 81 58 79 59 58 60 59 61 67 62 60 63 61 64 65 65
REMARK SMILES IDX 68 66 62 67 63 68 66 69 64 70 5 71 6 72 7 73 8 74 9 76 10 77
REMARK SMILES IDX 11 78 31 79 12 80 21 81 13 84 20 85 14 86 15 87 19 88 16 90
REMARK SMILES IDX 18 91 17 92 22 93 23 94 30 95 24 96 25 97 29 98 26 100
REMARK SMILES IDX 28 101 27 102
REMARK H PARENT 3 5 88 23 56 34 7 75 31 82 31 83 14 89 24 99
REMARK Flexibility Score: inf
ROOT
ATOM      1  C   UNL A   1      33.880  28.606  26.209  1.00  0.00     0.118 C 
ENDROOT
BRANCH   1   2
ATOM      2  N   UNL A   1      33.739  29.975  26.689  1.00  0.00    -0.352 N 
ATOM      3  O   UNL A   1      34.013  31.718  28.075  1.00  0.00    -0.269 OA
ATOM      4  C   UNL A   1      34.471  30.676  27.615  1.00  0.00     0.251 C 
ATOM      5  H   UNL A   1      32.997  30.479  26.283  1.00  0.00     0.163 HD
BRANCH   4   6
ATOM      6  C   UNL A   1      35.799  30.198  28.067  1.00  0.00     0.039 A 
ATOM      7  C   UNL A   1      36.924  30.303  27.249  1.00  0.00     0.014 A 
ATOM      8  C   UNL A   1      35.939  29.710  29.372  1.00  0.00     0.014 A 
ATOM      9  C   UNL A   1      38.149  29.799  27.675  1.00  0.00     0.010 A 
ATOM     10  C   UNL A   1      37.192  29.301  29.838  1.00  0.00     0.010 A 
ATOM     11  C   UNL A   1      38.305  29.322  28.985  1.00  0.00    -0.014 A 
BRANCH  11  12
ATOM     12  C   UNL A   1      39.658  28.937  29.459  1.00  0.00     0.031 A 
ATOM     13  C   UNL A   1      40.401  29.774  30.461  1.00  0.00     0.074 A 
ATOM     14  C   UNL A   1      40.207  27.800  28.989  1.00  0.00     0.049 A 
ATOM     15  N   UNL A   1      41.585  29.576  30.986  1.00  0.00    -0.248 NA
ATOM     16  C   UNL A   1      39.735  30.999  30.930  1.00  0.00     0.031 C 
ATOM     17  C   UNL A   1      39.585  26.912  28.002  1.00  0.00     0.029 A 
ATOM     18  N   UNL A   1      41.396  27.183  29.283  1.00  0.00    -0.354 N 
ATOM     19  C   UNL A   1      41.812  30.654  31.831  1.00  0.00     0.074 A 
ATOM     20  C   UNL A   1      40.656  31.521  31.727  1.00  0.00     0.031 C 
ATOM     21  C   UNL A   1      40.374  25.846  27.808  1.00  0.00     0.029 A 
ATOM     22  C   UNL A   1      41.585  26.005  28.603  1.00  0.00     0.049 A 
ATOM     23  H   UNL A   1      42.051  27.550  29.920  1.00  0.00     0.167 HD
ATOM     24  C   UNL A   1      42.883  30.891  32.626  1.00  0.00     0.037 A 
ATOM     25  C   UNL A   1      42.628  25.154  28.602  1.00  0.00     0.037 A 
ATOM     26  C   UNL A   1      44.024  30.016  32.731  1.00  0.00     0.049 A 
ATOM     27  C   UNL A   1      43.814  25.457  29.471  1.00  0.00     0.074 A 
ATOM     28  C   UNL A   1      45.144  30.150  33.534  1.00  0.00     0.029 A 
ATOM     29  N   UNL A   1      44.193  28.845  32.005  1.00  0.00    -0.354 N 
ATOM     30  N   UNL A   1      44.000  26.462  30.293  1.00  0.00    -0.248 NA
ATOM     31  C   UNL A   1      44.935  24.511  29.411  1.00  0.00     0.031 C 
ATOM     32  C   UNL A   1      46.012  29.087  33.257  1.00  0.00     0.029 A 
ATOM     33  C   UNL A   1      45.410  28.261  32.322  1.00  0.00     0.049 A 
ATOM     34  H   UNL A   1      43.544  28.482  31.359  1.00  0.00     0.167 HD
ATOM     35  C   UNL A   1      45.249  26.260  30.861  1.00  0.00     0.074 A 
ATOM     36  C   UNL A   1      45.766  25.026  30.306  1.00  0.00     0.031 C 
ATOM     37  C   UNL A   1      45.909  27.031  31.760  1.00  0.00     0.037 A 
BRANCH  24  38
ATOM     38  C   UNL A   1      42.888  32.157  33.433  1.00  0.00     0.064 A 
ATOM     39  C   UNL A   1      43.342  33.373  32.899  1.00  0.00     0.173 A 
ATOM     40  C   UNL A   1      42.390  32.165  34.746  1.00  0.00     0.173 A 
ATOM     41  F   UNL A   1      43.837  33.420  31.653  1.00  0.00    -0.203 F 
ATOM     42  C   UNL A   1      43.321  34.542  33.657  1.00  0.00     0.198 A 
ATOM     43  C   UNL A   1      42.344  33.342  35.490  1.00  0.00     0.198 A 
ATOM     44  F   UNL A   1      41.937  31.033  35.303  1.00  0.00    -0.203 F 
ATOM     45  F   UNL A   1      43.802  35.682  33.141  1.00  0.00    -0.200 F 
ATOM     46  C   UNL A   1      42.817  34.527  34.949  1.00  0.00     0.200 A 
ATOM     47  F   UNL A   1      41.843  33.327  36.733  1.00  0.00    -0.200 F 
ATOM     48  F   UNL A   1      42.791  35.654  35.673  1.00  0.00    -0.200 F 
ENDBRANCH  24  38
BRANCH  25  49
ATOM     49  C   UNL A   1      42.590  23.943  27.743  1.00  0.00     0.064 A 
ATOM     50  C   UNL A   1      42.934  24.007  26.386  1.00  0.00     0.173 A 
ATOM     51  C   UNL A   1      42.225  22.692  28.265  1.00  0.00     0.173 A 
ATOM     52  F   UNL A   1      43.272  25.183  25.837  1.00  0.00    -0.203 F 
ATOM     53  C   UNL A   1      42.898  22.871  25.581  1.00  0.00     0.198 A 
ATOM     54  C   UNL A   1      42.221  21.551  27.467  1.00  0.00     0.198 A 
ATOM     55  F   UNL A   1      41.894  22.576  29.559  1.00  0.00    -0.203 F 
ATOM     56  F   UNL A   1      43.192  22.968  24.276  1.00  0.00    -0.200 F 
ATOM     57  C   UNL A   1      42.551  21.643  26.123  1.00  0.00     0.200 A 
ATOM     58  F   UNL A   1      41.902  20.365  28.000  1.00  0.00    -0.200 F 
ATOM     59  F   UNL A   1      42.527  20.549  25.350  1.00  0.00    -0.200 F 
ENDBRANCH  25  49
BRANCH  37  60
ATOM     60  C   UNL A   1      47.251  26.543  32.222  1.00  0.00     0.064 A 
ATOM     61  C   UNL A   1      47.380  25.637  33.285  1.00  0.00     0.173 A 
ATOM     62  C   UNL A   1      48.421  26.968  31.574  1.00  0.00     0.173 A 
ATOM     63  F   UNL A   1      46.293  25.215  33.947  1.00  0.00    -0.203 F 
ATOM     64  C   UNL A   1      48.633  25.194  33.699  1.00  0.00     0.198 A 
ATOM     65  C   UNL A   1      49.670  26.499  31.971  1.00  0.00     0.198 A 
ATOM     66  F   UNL A   1      48.351  27.830  30.549  1.00  0.00    -0.203 F 
ATOM     67  F   UNL A   1      48.736  24.369  34.749  1.00  0.00    -0.200 F 
ATOM     68  C   UNL A   1      49.775  25.620  33.038  1.00  0.00     0.200 A 
ATOM     69  F   UNL A   1      50.772  26.902  31.324  1.00  0.00    -0.200 F 
ATOM     70  F   UNL A   1      50.981  25.190  33.435  1.00  0.00    -0.200 F 
ENDBRANCH  37  60
ENDBRANCH  11  12
ENDBRANCH   4   6
ENDBRANCH   1   2
BRANCH   1  71
ATOM     71  C   UNL A   1      33.683  28.525  24.703  1.00  0.00     0.042 C 
BRANCH  71  72
ATOM     72  C   UNL A   1      32.664  27.470  24.285  1.00  0.00     0.118 C 
BRANCH  72  73
ATOM     73  N   UNL A   1      31.963  26.957  25.442  1.00  0.00    -0.351 N 
ATOM     74  C   UNL A   1      31.867  25.692  25.944  1.00  0.00     0.278 C 
ATOM     75  H   UNL A   1      31.472  27.638  25.956  1.00  0.00     0.163 HD
ATOM     76  O   UNL A   1      31.071  25.549  26.877  1.00  0.00    -0.268 OA
BRANCH  74  77
ATOM     77  C   UNL A   1      32.717  24.523  25.382  1.00  0.00     0.277 C 
ATOM     78  C   UNL A   1      34.134  24.711  25.996  1.00  0.00     0.114 C 
ATOM     79  N   UNL A   1      32.061  23.224  25.712  1.00  0.00    -0.324 N 
ATOM     80  C   UNL A   1      34.930  23.470  25.866  1.00  0.00    -0.006 A 
ATOM     81  C   UNL A   1      32.848  21.999  25.472  1.00  0.00     0.264 C 
ATOM     82  H   UNL A   1      31.210  23.158  25.154  1.00  0.00     0.347 HD
ATOM     83  H   UNL A   1      31.910  23.250  26.721  1.00  0.00     0.347 HD
ATOM     84  C   UNL A   1      34.315  22.256  25.662  1.00  0.00     0.083 A 
ATOM     85  C   UNL A   1      36.332  23.255  25.942  1.00  0.00     0.003 A 
ATOM     86  N   UNL A   1      35.294  21.297  25.683  1.00  0.00    -0.353 N 
ATOM     87  C   UNL A   1      36.534  21.880  25.815  1.00  0.00     0.046 A 
ATOM     88  C   UNL A   1      37.453  24.090  26.110  1.00  0.00     0.010 A 
ATOM     89  H   UNL A   1      35.133  20.329  25.613  1.00  0.00     0.166 HD
ATOM     90  C   UNL A   1      37.805  21.296  25.838  1.00  0.00     0.026 A 
ATOM     91  C   UNL A   1      38.733  23.523  26.129  1.00  0.00     0.001 A 
ATOM     92  C   UNL A   1      38.903  22.147  25.993  1.00  0.00     0.002 A 
BRANCH  81  93
ATOM     93  C   UNL A   1      32.572  21.281  24.150  1.00  0.00     0.041 A 
ATOM     94  C   UNL A   1      32.047  21.927  23.033  1.00  0.00     0.093 A 
ATOM     95  C   UNL A   1      32.748  19.912  23.728  1.00  0.00     0.009 A 
ATOM     96  N   UNL A   1      31.780  21.011  22.056  1.00  0.00    -0.361 N 
ATOM     97  C   UNL A   1      32.207  19.771  22.447  1.00  0.00     0.046 A 
ATOM     98  C   UNL A   1      33.305  18.754  24.297  1.00  0.00     0.011 A 
ATOM     99  H   UNL A   1      31.346  21.213  21.196  1.00  0.00     0.166 HD
ATOM    100  C   UNL A   1      32.154  18.549  21.759  1.00  0.00     0.026 A 
ATOM    101  C   UNL A   1      33.286  17.525  23.628  1.00  0.00     0.001 A 
ATOM    102  C   UNL A   1      32.702  17.424  22.375  1.00  0.00     0.002 A 
ENDBRANCH  81  93
ENDBRANCH  74  77
ENDBRANCH  72  73
ENDBRANCH  71  72
ENDBRANCH   1  71
TORSDOF 11
ENDMDL
