MODEL 1
REMARK VINA RESULT:     -12.2      0.000      0.000
REMARK SMILES CCC[NH+]1CCN(c2ccc(C(=O)NCCCNC(=O)c3ccc(-c4c5nc(c(-c6c(F)c(F)c(F)c(F)c6F)c6ccc([nH]6)c(-c6c(F)c(F)c(F)c(F)c6F)c6nc(c(-c7c(F)c(F)c(F)c(F)c7F)c7ccc4[nH]7)C=C6)C=C5)cc3)cc2NS(=O)(=O)CC)CC1
REMARK SMILES IDX 15 1 14 2 12 3 13 4 11 6 8 7 9 8 85 9 10 10 84 11 7 12 4 13
REMARK SMILES IDX 5 14 93 15 6 17 92 18 3 19 2 20 1 21 86 22 87 24 88 25 89 26
REMARK SMILES IDX 90 27 91 28 16 29 17 30 18 31 19 32 20 34 21 35 22 36 83 37
REMARK SMILES IDX 23 38 82 39 24 40 25 41 26 42 76 43 27 44 81 45 75 46 77 47
REMARK SMILES IDX 28 48 80 49 74 50 73 51 29 53 61 54 41 55 60 56 42 57 45 58
REMARK SMILES IDX 59 59 78 60 43 61 44 62 58 64 79 65 46 66 30 67 31 68 39 69
REMARK SMILES IDX 32 70 33 71 37 72 40 73 34 74 35 75 38 76 36 77 62 78 63 79
REMARK SMILES IDX 71 80 64 81 65 82 69 83 72 84 66 85 67 86 70 87 68 88 47 89
REMARK SMILES IDX 48 90 56 91 49 92 50 93 54 94 57 95 51 96 52 97 55 98 53 99
REMARK H PARENT 14 5 4 16 86 23 18 33 77 52 45 63
REMARK Flexibility Score: inf
ROOT
ATOM      1  C   UNL A   1      31.340  30.925  25.918  1.00  0.00     0.118 C 
ENDROOT
BRANCH   1   2
ATOM      2  N   UNL A   1      30.616  30.731  24.677  1.00  0.00    -0.352 N 
ATOM      3  C   UNL A   1      30.486  29.715  23.766  1.00  0.00     0.251 C 
ATOM      4  O   UNL A   1      29.689  29.927  22.847  1.00  0.00    -0.269 OA
ATOM      5  H   UNL A   1      30.088  31.523  24.429  1.00  0.00     0.163 HD
BRANCH   3   6
ATOM      6  C   UNL A   1      31.263  28.437  23.751  1.00  0.00     0.042 A 
ATOM      7  C   UNL A   1      32.979  26.170  23.884  1.00  0.00     0.062 A 
ATOM      8  C   UNL A   1      33.502  27.443  23.675  1.00  0.00     0.029 A 
ATOM      9  C   UNL A   1      31.584  26.065  24.083  1.00  0.00     0.073 A 
ATOM     10  C   UNL A   1      32.661  28.563  23.648  1.00  0.00     0.016 A 
ATOM     11  C   UNL A   1      30.738  27.153  23.880  1.00  0.00     0.042 A 
BRANCH   7  12
ATOM     12  N   UNL A   1      33.789  25.053  23.941  1.00  0.00    -0.359 N 
ATOM     13  N   UNL A   1      34.428  22.289  24.601  1.00  0.00    -0.332 N 
ATOM     14  C   UNL A   1      34.388  23.376  25.608  1.00  0.00     0.283 C 
ATOM     15  C   UNL A   1      33.616  22.630  23.413  1.00  0.00     0.283 C 
ATOM     16  H   UNL A   1      34.007  21.463  25.023  1.00  0.00     0.348 HD
ATOM     17  C   UNL A   1      34.685  24.795  25.061  1.00  0.00     0.178 C 
ATOM     18  C   UNL A   1      33.806  24.061  22.852  1.00  0.00     0.178 C 
BRANCH  13  19
ATOM     19  C   UNL A   1      35.800  21.910  24.253  1.00  0.00     0.262 C 
BRANCH  19  20
ATOM     20  C   UNL A   1      36.167  20.622  24.998  1.00  0.00     0.058 C 
ATOM     21  C   UNL A   1      37.657  20.308  24.933  1.00  0.00     0.010 C 
ENDBRANCH  19  20
ENDBRANCH  13  19
ENDBRANCH   7  12
BRANCH   9  22
ATOM     22  N   UNL A   1      31.159  24.879  24.748  1.00  0.00    -0.281 N 
ATOM     23  H   UNL A   1      31.136  24.072  24.183  1.00  0.00     0.180 HD
BRANCH  22  24
ATOM     24  S   UNL A   1      30.702  24.642  26.304  1.00  0.00     0.232 S 
ATOM     25  O   UNL A   1      31.801  24.992  27.173  1.00  0.00    -0.207 OA
ATOM     26  O   UNL A   1      29.420  25.308  26.419  1.00  0.00    -0.207 OA
BRANCH  24  27
ATOM     27  C   UNL A   1      30.383  22.889  26.481  1.00  0.00     0.156 C 
ATOM     28  C   UNL A   1      29.200  22.510  27.348  1.00  0.00     0.023 C 
ENDBRANCH  24  27
ENDBRANCH  22  24
ENDBRANCH   9  22
ENDBRANCH   3   6
ENDBRANCH   1   2
BRANCH   1  29
ATOM     29  C   UNL A   1      31.212  32.339  26.472  1.00  0.00     0.042 C 
BRANCH  29  30
ATOM     30  C   UNL A   1      32.495  32.829  27.128  1.00  0.00     0.118 C 
BRANCH  30  31
ATOM     31  N   UNL A   1      32.383  34.213  27.585  1.00  0.00    -0.352 N 
ATOM     32  C   UNL A   1      33.007  34.901  28.595  1.00  0.00     0.251 C 
ATOM     33  H   UNL A   1      31.741  34.754  27.071  1.00  0.00     0.163 HD
ATOM     34  O   UNL A   1      32.573  36.004  28.921  1.00  0.00    -0.269 OA
BRANCH  32  35
ATOM     35  C   UNL A   1      34.176  34.341  29.305  1.00  0.00     0.039 A 
ATOM     36  C   UNL A   1      33.969  33.591  30.468  1.00  0.00     0.014 A 
ATOM     37  C   UNL A   1      35.478  34.587  28.870  1.00  0.00     0.014 A 
ATOM     38  C   UNL A   1      35.058  33.041  31.149  1.00  0.00     0.010 A 
ATOM     39  C   UNL A   1      36.549  33.942  29.475  1.00  0.00     0.010 A 
ATOM     40  C   UNL A   1      36.356  33.178  30.633  1.00  0.00    -0.014 A 
BRANCH  40  41
ATOM     41  C   UNL A   1      37.533  32.563  31.301  1.00  0.00     0.031 A 
ATOM     42  C   UNL A   1      38.281  31.444  30.623  1.00  0.00     0.074 A 
ATOM     43  C   UNL A   1      37.877  32.954  32.543  1.00  0.00     0.049 A 
ATOM     44  N   UNL A   1      39.264  30.709  31.079  1.00  0.00    -0.248 NA
ATOM     45  C   UNL A   1      37.842  31.077  29.266  1.00  0.00     0.031 C 
ATOM     46  C   UNL A   1      37.201  33.992  33.323  1.00  0.00     0.029 A 
ATOM     47  N   UNL A   1      38.878  32.517  33.374  1.00  0.00    -0.354 N 
ATOM     48  C   UNL A   1      39.534  29.780  30.081  1.00  0.00     0.074 A 
ATOM     49  C   UNL A   1      38.578  30.003  29.021  1.00  0.00     0.031 C 
ATOM     50  C   UNL A   1      37.827  34.136  34.502  1.00  0.00     0.029 A 
ATOM     51  C   UNL A   1      38.916  33.168  34.583  1.00  0.00     0.049 A 
ATOM     52  H   UNL A   1      39.510  31.803  33.127  1.00  0.00     0.167 HD
ATOM     53  C   UNL A   1      40.509  28.841  30.043  1.00  0.00     0.037 A 
ATOM     54  C   UNL A   1      39.733  32.998  35.638  1.00  0.00     0.037 A 
ATOM     55  C   UNL A   1      41.489  28.657  31.080  1.00  0.00     0.049 A 
ATOM     56  C   UNL A   1      40.810  31.947  35.567  1.00  0.00     0.074 A 
ATOM     57  C   UNL A   1      42.570  27.793  31.101  1.00  0.00     0.029 A 
ATOM     58  N   UNL A   1      41.506  29.349  32.282  1.00  0.00    -0.354 N 
ATOM     59  N   UNL A   1      41.105  31.129  34.586  1.00  0.00    -0.248 NA
ATOM     60  C   UNL A   1      41.670  31.800  36.749  1.00  0.00     0.031 C 
ATOM     61  C   UNL A   1      43.207  27.922  32.339  1.00  0.00     0.029 A 
ATOM     62  C   UNL A   1      42.562  28.911  33.064  1.00  0.00     0.049 A 
ATOM     63  H   UNL A   1      40.863  30.050  32.539  1.00  0.00     0.167 HD
ATOM     64  C   UNL A   1      42.205  30.399  35.016  1.00  0.00     0.074 A 
ATOM     65  C   UNL A   1      42.533  30.882  36.341  1.00  0.00     0.031 C 
ATOM     66  C   UNL A   1      42.883  29.416  34.374  1.00  0.00     0.037 A 
BRANCH  53  67
ATOM     67  C   UNL A   1      40.571  27.941  28.842  1.00  0.00     0.064 A 
ATOM     68  C   UNL A   1      39.839  26.746  28.772  1.00  0.00     0.173 A 
ATOM     69  C   UNL A   1      41.336  28.305  27.723  1.00  0.00     0.173 A 
ATOM     70  F   UNL A   1      39.100  26.344  29.816  1.00  0.00    -0.203 F 
ATOM     71  C   UNL A   1      39.893  25.936  27.639  1.00  0.00     0.198 A 
ATOM     72  C   UNL A   1      41.362  27.510  26.580  1.00  0.00     0.198 A 
ATOM     73  F   UNL A   1      42.053  29.440  27.732  1.00  0.00    -0.203 F 
ATOM     74  F   UNL A   1      39.226  24.775  27.616  1.00  0.00    -0.200 F 
ATOM     75  C   UNL A   1      40.646  26.323  26.541  1.00  0.00     0.200 A 
ATOM     76  F   UNL A   1      42.078  27.894  25.514  1.00  0.00    -0.200 F 
ATOM     77  F   UNL A   1      40.687  25.549  25.448  1.00  0.00    -0.200 F 
ENDBRANCH  53  67
BRANCH  54  78
ATOM     78  C   UNL A   1      39.590  33.855  36.846  1.00  0.00     0.064 A 
ATOM     79  C   UNL A   1      38.803  33.440  37.930  1.00  0.00     0.173 A 
ATOM     80  C   UNL A   1      40.210  35.110  36.934  1.00  0.00     0.173 A 
ATOM     81  F   UNL A   1      38.173  32.257  37.886  1.00  0.00    -0.203 F 
ATOM     82  C   UNL A   1      38.615  34.260  39.041  1.00  0.00     0.198 A 
ATOM     83  C   UNL A   1      40.049  35.916  38.061  1.00  0.00     0.198 A 
ATOM     84  F   UNL A   1      40.979  35.553  35.929  1.00  0.00    -0.203 F 
ATOM     85  F   UNL A   1      37.809  33.863  40.035  1.00  0.00    -0.200 F 
ATOM     86  C   UNL A   1      39.242  35.495  39.107  1.00  0.00     0.200 A 
ATOM     87  F   UNL A   1      40.668  37.101  38.127  1.00  0.00    -0.200 F 
ATOM     88  F   UNL A   1      39.059  36.284  40.174  1.00  0.00    -0.200 F 
ENDBRANCH  54  78
BRANCH  66  89
ATOM     89  C   UNL A   1      44.077  28.832  35.071  1.00  0.00     0.064 A 
ATOM     90  C   UNL A   1      43.972  27.703  35.896  1.00  0.00     0.173 A 
ATOM     91  C   UNL A   1      45.351  29.388  34.877  1.00  0.00     0.173 A 
ATOM     92  F   UNL A   1      42.775  27.142  36.126  1.00  0.00    -0.203 F 
ATOM     93  C   UNL A   1      45.095  27.169  36.524  1.00  0.00     0.198 A 
ATOM     94  C   UNL A   1      46.476  28.830  35.477  1.00  0.00     0.198 A 
ATOM     95  F   UNL A   1      45.508  30.463  34.090  1.00  0.00    -0.203 F 
ATOM     96  F   UNL A   1      44.963  26.122  37.350  1.00  0.00    -0.200 F 
ATOM     97  C   UNL A   1      46.346  27.728  36.307  1.00  0.00     0.200 A 
ATOM     98  F   UNL A   1      47.686  29.361  35.252  1.00  0.00    -0.200 F 
ATOM     99  F   UNL A   1      47.427  27.206  36.904  1.00  0.00    -0.200 F 
ENDBRANCH  66  89
ENDBRANCH  40  41
ENDBRANCH  32  35
ENDBRANCH  30  31
ENDBRANCH  29  30
ENDBRANCH   1  29
TORSDOF 16
ENDMDL
MODEL 2
REMARK VINA RESULT:     -11.9      5.431     11.089
REMARK SMILES CCC[NH+]1CCN(c2ccc(C(=O)NCCCNC(=O)c3ccc(-c4c5nc(c(-c6c(F)c(F)c(F)c(F)c6F)c6ccc([nH]6)c(-c6c(F)c(F)c(F)c(F)c6F)c6nc(c(-c7c(F)c(F)c(F)c(F)c7F)c7ccc4[nH]7)C=C6)C=C5)cc3)cc2NS(=O)(=O)CC)CC1
REMARK SMILES IDX 15 1 14 2 12 3 13 4 11 6 8 7 9 8 85 9 10 10 84 11 7 12 4 13
REMARK SMILES IDX 5 14 93 15 6 17 92 18 3 19 2 20 1 21 86 22 87 24 88 25 89 26
REMARK SMILES IDX 90 27 91 28 16 29 17 30 18 31 19 32 20 34 21 35 22 36 83 37
REMARK SMILES IDX 23 38 82 39 24 40 25 41 26 42 76 43 27 44 81 45 75 46 77 47
REMARK SMILES IDX 28 48 80 49 74 50 73 51 29 53 61 54 41 55 60 56 42 57 45 58
REMARK SMILES IDX 59 59 78 60 43 61 44 62 58 64 79 65 46 66 30 67 31 68 39 69
REMARK SMILES IDX 32 70 33 71 37 72 40 73 34 74 35 75 38 76 36 77 62 78 63 79
REMARK SMILES IDX 71 80 64 81 65 82 69 83 72 84 66 85 67 86 70 87 68 88 47 89
REMARK SMILES IDX 48 90 56 91 49 92 50 93 54 94 57 95 51 96 52 97 55 98 53 99
REMARK H PARENT 14 5 4 16 86 23 18 33 77 52 45 63
REMARK Flexibility Score: inf
ROOT
ATOM      1  C   UNL A   1      36.765  20.102  24.910  1.00  0.00     0.118 C 
ENDROOT
BRANCH   1   2
ATOM      2  N   UNL A   1      35.511  19.379  24.981  1.00  0.00    -0.352 N 
ATOM      3  C   UNL A   1      34.184  19.720  25.039  1.00  0.00     0.251 C 
ATOM      4  O   UNL A   1      33.392  18.774  25.016  1.00  0.00    -0.269 OA
ATOM      5  H   UNL A   1      35.644  18.404  24.989  1.00  0.00     0.163 HD
BRANCH   3   6
ATOM      6  C   UNL A   1      33.634  21.102  25.200  1.00  0.00     0.042 A 
ATOM      7  C   UNL A   1      32.870  23.805  25.660  1.00  0.00     0.062 A 
ATOM      8  C   UNL A   1      33.591  23.099  26.620  1.00  0.00     0.029 A 
ATOM      9  C   UNL A   1      32.591  23.146  24.442  1.00  0.00     0.073 A 
ATOM     10  C   UNL A   1      33.999  21.782  26.377  1.00  0.00     0.016 A 
ATOM     11  C   UNL A   1      32.845  21.786  24.279  1.00  0.00     0.042 A 
BRANCH   7  12
ATOM     12  N   UNL A   1      32.478  25.113  25.864  1.00  0.00    -0.359 N 
ATOM     13  N   UNL A   1      31.536  27.744  25.042  1.00  0.00    -0.332 N 
ATOM     14  C   UNL A   1      32.932  27.284  24.847  1.00  0.00     0.283 C 
ATOM     15  C   UNL A   1      30.609  26.599  25.173  1.00  0.00     0.283 C 
ATOM     16  H   UNL A   1      31.263  28.255  24.204  1.00  0.00     0.348 HD
ATOM     17  C   UNL A   1      33.424  26.222  25.862  1.00  0.00     0.178 C 
ATOM     18  C   UNL A   1      31.069  25.462  26.117  1.00  0.00     0.178 C 
BRANCH  13  19
ATOM     19  C   UNL A   1      31.417  28.693  26.151  1.00  0.00     0.262 C 
BRANCH  19  20
ATOM     20  C   UNL A   1      32.226  29.952  25.821  1.00  0.00     0.058 C 
ATOM     21  C   UNL A   1      33.042  30.456  27.006  1.00  0.00     0.010 C 
ENDBRANCH  19  20
ENDBRANCH  13  19
ENDBRANCH   7  12
BRANCH   9  22
ATOM     22  N   UNL A   1      32.297  24.008  23.346  1.00  0.00    -0.281 N 
ATOM     23  H   UNL A   1      31.372  24.345  23.320  1.00  0.00     0.180 HD
BRANCH  22  24
ATOM     24  S   UNL A   1      33.253  24.527  22.121  1.00  0.00     0.232 S 
ATOM     25  O   UNL A   1      34.427  25.158  22.677  1.00  0.00    -0.207 OA
ATOM     26  O   UNL A   1      33.370  23.386  21.233  1.00  0.00    -0.207 OA
BRANCH  24  27
ATOM     27  C   UNL A   1      32.316  25.768  21.233  1.00  0.00     0.156 C 
ATOM     28  C   UNL A   1      32.209  25.579  19.734  1.00  0.00     0.023 C 
ENDBRANCH  24  27
ENDBRANCH  22  24
ENDBRANCH   9  22
ENDBRANCH   3   6
ENDBRANCH   1   2
BRANCH   1  29
ATOM     29  C   UNL A   1      37.985  19.196  25.026  1.00  0.00     0.042 C 
BRANCH  29  30
ATOM     30  C   UNL A   1      39.144  19.866  25.749  1.00  0.00     0.118 C 
BRANCH  30  31
ATOM     31  N   UNL A   1      40.274  18.956  25.937  1.00  0.00    -0.352 N 
ATOM     32  C   UNL A   1      41.616  19.180  26.115  1.00  0.00     0.251 C 
ATOM     33  H   UNL A   1      40.025  18.004  25.936  1.00  0.00     0.163 HD
ATOM     34  O   UNL A   1      42.394  18.234  26.027  1.00  0.00    -0.269 OA
BRANCH  32  35
ATOM     35  C   UNL A   1      42.143  20.532  26.399  1.00  0.00     0.039 A 
ATOM     36  C   UNL A   1      42.526  21.349  25.330  1.00  0.00     0.014 A 
ATOM     37  C   UNL A   1      42.313  20.987  27.706  1.00  0.00     0.014 A 
ATOM     38  C   UNL A   1      43.015  22.635  25.573  1.00  0.00     0.010 A 
ATOM     39  C   UNL A   1      42.683  22.304  27.943  1.00  0.00     0.010 A 
ATOM     40  C   UNL A   1      43.059  23.139  26.882  1.00  0.00    -0.014 A 
BRANCH  40  41
ATOM     41  C   UNL A   1      43.523  24.520  27.174  1.00  0.00     0.031 A 
ATOM     42  C   UNL A   1      42.549  25.546  27.692  1.00  0.00     0.074 A 
ATOM     43  C   UNL A   1      44.795  24.870  26.901  1.00  0.00     0.049 A 
ATOM     44  N   UNL A   1      42.729  26.825  27.910  1.00  0.00    -0.248 NA
ATOM     45  C   UNL A   1      41.178  25.083  27.966  1.00  0.00     0.031 C 
ATOM     46  C   UNL A   1      45.820  23.979  26.352  1.00  0.00     0.029 A 
ATOM     47  N   UNL A   1      45.442  26.072  27.039  1.00  0.00    -0.354 N 
ATOM     48  C   UNL A   1      41.493  27.317  28.312  1.00  0.00     0.074 A 
ATOM     49  C   UNL A   1      40.558  26.217  28.255  1.00  0.00     0.031 C 
ATOM     50  C   UNL A   1      46.974  24.656  26.234  1.00  0.00     0.029 A 
ATOM     51  C   UNL A   1      46.759  26.038  26.650  1.00  0.00     0.049 A 
ATOM     52  H   UNL A   1      45.003  26.884  27.384  1.00  0.00     0.167 HD
ATOM     53  C   UNL A   1      41.175  28.568  28.717  1.00  0.00     0.037 A 
ATOM     54  C   UNL A   1      47.685  27.014  26.625  1.00  0.00     0.037 A 
ATOM     55  C   UNL A   1      42.122  29.647  28.821  1.00  0.00     0.049 A 
ATOM     56  C   UNL A   1      47.302  28.396  27.084  1.00  0.00     0.074 A 
ATOM     57  C   UNL A   1      41.920  30.928  29.302  1.00  0.00     0.029 A 
ATOM     58  N   UNL A   1      43.452  29.568  28.435  1.00  0.00    -0.354 N 
ATOM     59  N   UNL A   1      46.151  28.830  27.538  1.00  0.00    -0.248 NA
ATOM     60  C   UNL A   1      48.350  29.424  27.032  1.00  0.00     0.031 C 
ATOM     61  C   UNL A   1      43.113  31.642  29.154  1.00  0.00     0.029 A 
ATOM     62  C   UNL A   1      44.075  30.787  28.640  1.00  0.00     0.049 A 
ATOM     63  H   UNL A   1      43.887  28.763  28.071  1.00  0.00     0.167 HD
ATOM     64  C   UNL A   1      46.345  30.166  27.859  1.00  0.00     0.074 A 
ATOM     65  C   UNL A   1      47.730  30.468  27.562  1.00  0.00     0.031 C 
ATOM     66  C   UNL A   1      45.460  31.064  28.355  1.00  0.00     0.037 A 
BRANCH  53  67
ATOM     67  C   UNL A   1      39.744  28.845  29.086  1.00  0.00     0.064 A 
ATOM     68  C   UNL A   1      39.270  28.679  30.396  1.00  0.00     0.173 A 
ATOM     69  C   UNL A   1      38.846  29.332  28.122  1.00  0.00     0.173 A 
ATOM     70  F   UNL A   1      40.082  28.206  31.354  1.00  0.00    -0.203 F 
ATOM     71  C   UNL A   1      37.945  28.962  30.722  1.00  0.00     0.198 A 
ATOM     72  C   UNL A   1      37.532  29.645  28.459  1.00  0.00     0.198 A 
ATOM     73  F   UNL A   1      39.246  29.514  26.855  1.00  0.00    -0.203 F 
ATOM     74  F   UNL A   1      37.504  28.747  31.968  1.00  0.00    -0.200 F 
ATOM     75  C   UNL A   1      37.081  29.454  29.756  1.00  0.00     0.200 A 
ATOM     76  F   UNL A   1      36.702  30.135  27.527  1.00  0.00    -0.200 F 
ATOM     77  F   UNL A   1      35.809  29.737  30.073  1.00  0.00    -0.200 F 
ENDBRANCH  53  67
BRANCH  54  78
ATOM     78  C   UNL A   1      49.073  26.722  26.177  1.00  0.00     0.064 A 
ATOM     79  C   UNL A   1      50.032  26.241  27.081  1.00  0.00     0.173 A 
ATOM     80  C   UNL A   1      49.480  26.939  24.853  1.00  0.00     0.173 A 
ATOM     81  F   UNL A   1      49.699  26.035  28.364  1.00  0.00    -0.203 F 
ATOM     82  C   UNL A   1      51.350  26.019  26.685  1.00  0.00     0.198 A 
ATOM     83  C   UNL A   1      50.790  26.685  24.449  1.00  0.00     0.198 A 
ATOM     84  F   UNL A   1      48.602  27.392  23.945  1.00  0.00    -0.203 F 
ATOM     85  F   UNL A   1      52.258  25.616  27.584  1.00  0.00    -0.200 F 
ATOM     86  C   UNL A   1      51.726  26.237  25.369  1.00  0.00     0.200 A 
ATOM     87  F   UNL A   1      51.145  26.883  23.173  1.00  0.00    -0.200 F 
ATOM     88  F   UNL A   1      52.994  26.026  24.989  1.00  0.00    -0.200 F 
ENDBRANCH  54  78
BRANCH  66  89
ATOM     89  C   UNL A   1      45.970  32.443  28.655  1.00  0.00     0.064 A 
ATOM     90  C   UNL A   1      45.913  33.476  27.707  1.00  0.00     0.173 A 
ATOM     91  C   UNL A   1      46.484  32.745  29.926  1.00  0.00     0.173 A 
ATOM     92  F   UNL A   1      45.443  33.236  26.474  1.00  0.00    -0.203 F 
ATOM     93  C   UNL A   1      46.380  34.752  28.011  1.00  0.00     0.198 A 
ATOM     94  C   UNL A   1      46.917  34.031  30.237  1.00  0.00     0.198 A 
ATOM     95  F   UNL A   1      46.553  31.796  30.872  1.00  0.00    -0.203 F 
ATOM     96  F   UNL A   1      46.366  35.709  27.073  1.00  0.00    -0.200 F 
ATOM     97  C   UNL A   1      46.874  35.030  29.278  1.00  0.00     0.200 A 
ATOM     98  F   UNL A   1      47.377  34.301  31.467  1.00  0.00    -0.200 F 
ATOM     99  F   UNL A   1      47.314  36.262  29.571  1.00  0.00    -0.200 F 
ENDBRANCH  66  89
ENDBRANCH  40  41
ENDBRANCH  32  35
ENDBRANCH  30  31
ENDBRANCH  29  30
ENDBRANCH   1  29
TORSDOF 16
ENDMDL
MODEL 3
REMARK VINA RESULT:     -11.8      0.684      7.365
REMARK SMILES CCC[NH+]1CCN(c2ccc(C(=O)NCCCNC(=O)c3ccc(-c4c5nc(c(-c6c(F)c(F)c(F)c(F)c6F)c6ccc([nH]6)c(-c6c(F)c(F)c(F)c(F)c6F)c6nc(c(-c7c(F)c(F)c(F)c(F)c7F)c7ccc4[nH]7)C=C6)C=C5)cc3)cc2NS(=O)(=O)CC)CC1
REMARK SMILES IDX 15 1 14 2 12 3 13 4 11 6 8 7 9 8 85 9 10 10 84 11 7 12 4 13
REMARK SMILES IDX 5 14 93 15 6 17 92 18 3 19 2 20 1 21 86 22 87 24 88 25 89 26
REMARK SMILES IDX 90 27 91 28 16 29 17 30 18 31 19 32 20 34 21 35 22 36 83 37
REMARK SMILES IDX 23 38 82 39 24 40 25 41 26 42 76 43 27 44 81 45 75 46 77 47
REMARK SMILES IDX 28 48 80 49 74 50 73 51 29 53 61 54 41 55 60 56 42 57 45 58
REMARK SMILES IDX 59 59 78 60 43 61 44 62 58 64 79 65 46 66 30 67 31 68 39 69
REMARK SMILES IDX 32 70 33 71 37 72 40 73 34 74 35 75 38 76 36 77 62 78 63 79
REMARK SMILES IDX 71 80 64 81 65 82 69 83 72 84 66 85 67 86 70 87 68 88 47 89
REMARK SMILES IDX 48 90 56 91 49 92 50 93 54 94 57 95 51 96 52 97 55 98 53 99
REMARK H PARENT 14 5 4 16 86 23 18 33 77 52 45 63
REMARK Flexibility Score: inf
ROOT
ATOM      1  C   UNL A   1      31.104  30.960  25.934  1.00  0.00     0.118 C 
ENDROOT
BRANCH   1   2
ATOM      2  N   UNL A   1      30.465  30.829  24.639  1.00  0.00    -0.352 N 
ATOM      3  C   UNL A   1      30.382  29.854  23.680  1.00  0.00     0.251 C 
ATOM      4  O   UNL A   1      29.654  30.116  22.719  1.00  0.00    -0.269 OA
ATOM      5  H   UNL A   1      29.968  31.641  24.388  1.00  0.00     0.163 HD
BRANCH   3   6
ATOM      6  C   UNL A   1      31.138  28.563  23.665  1.00  0.00     0.042 A 
ATOM      7  C   UNL A   1      32.825  26.273  23.782  1.00  0.00     0.062 A 
ATOM      8  C   UNL A   1      33.356  27.531  23.508  1.00  0.00     0.029 A 
ATOM      9  C   UNL A   1      31.441  26.197  24.053  1.00  0.00     0.073 A 
ATOM     10  C   UNL A   1      32.531  28.663  23.488  1.00  0.00     0.016 A 
ATOM     11  C   UNL A   1      30.602  27.292  23.860  1.00  0.00     0.042 A 
BRANCH   7  12
ATOM     12  N   UNL A   1      33.621  25.145  23.833  1.00  0.00    -0.359 N 
ATOM     13  N   UNL A   1      34.251  22.392  24.541  1.00  0.00    -0.332 N 
ATOM     14  C   UNL A   1      34.274  23.506  25.517  1.00  0.00     0.283 C 
ATOM     15  C   UNL A   1      33.387  22.712  23.383  1.00  0.00     0.283 C 
ATOM     16  H   UNL A   1      33.838  21.585  25.007  1.00  0.00     0.348 HD
ATOM     17  C   UNL A   1      34.566  24.904  24.916  1.00  0.00     0.178 C 
ATOM     18  C   UNL A   1      33.571  24.123  22.774  1.00  0.00     0.178 C 
BRANCH  13  19
ATOM     19  C   UNL A   1      35.599  21.980  24.139  1.00  0.00     0.262 C 
BRANCH  19  20
ATOM     20  C   UNL A   1      36.023  20.770  24.977  1.00  0.00     0.058 C 
ATOM     21  C   UNL A   1      37.527  20.531  24.949  1.00  0.00     0.010 C 
ENDBRANCH  19  20
ENDBRANCH  13  19
ENDBRANCH   7  12
BRANCH   9  22
ATOM     22  N   UNL A   1      31.033  25.038  24.775  1.00  0.00    -0.281 N 
ATOM     23  H   UNL A   1      30.928  24.226  24.229  1.00  0.00     0.180 HD
BRANCH  22  24
ATOM     24  S   UNL A   1      30.710  24.842  26.370  1.00  0.00     0.232 S 
ATOM     25  O   UNL A   1      31.792  25.409  27.140  1.00  0.00    -0.207 OA
ATOM     26  O   UNL A   1      29.350  25.318  26.534  1.00  0.00    -0.207 OA
BRANCH  24  27
ATOM     27  C   UNL A   1      30.671  23.078  26.669  1.00  0.00     0.156 C 
ATOM     28  C   UNL A   1      29.363  22.517  27.190  1.00  0.00     0.023 C 
ENDBRANCH  24  27
ENDBRANCH  22  24
ENDBRANCH   9  22
ENDBRANCH   3   6
ENDBRANCH   1   2
BRANCH   1  29
ATOM     29  C   UNL A   1      31.163  32.399  26.430  1.00  0.00     0.042 C 
BRANCH  29  30
ATOM     30  C   UNL A   1      32.546  32.789  26.933  1.00  0.00     0.118 C 
BRANCH  30  31
ATOM     31  N   UNL A   1      32.544  34.098  27.586  1.00  0.00    -0.352 N 
ATOM     32  C   UNL A   1      33.242  34.591  28.659  1.00  0.00     0.251 C 
ATOM     33  H   UNL A   1      31.926  34.747  27.179  1.00  0.00     0.163 HD
ATOM     34  O   UNL A   1      32.895  35.661  29.154  1.00  0.00    -0.269 OA
BRANCH  32  35
ATOM     35  C   UNL A   1      34.390  33.860  29.237  1.00  0.00     0.039 A 
ATOM     36  C   UNL A   1      35.688  34.285  28.933  1.00  0.00     0.014 A 
ATOM     37  C   UNL A   1      34.206  32.729  30.033  1.00  0.00     0.014 A 
ATOM     38  C   UNL A   1      36.787  33.617  29.477  1.00  0.00     0.010 A 
ATOM     39  C   UNL A   1      35.291  32.141  30.670  1.00  0.00     0.010 A 
ATOM     40  C   UNL A   1      36.596  32.563  30.384  1.00  0.00    -0.014 A 
BRANCH  40  41
ATOM     41  C   UNL A   1      37.741  31.864  31.024  1.00  0.00     0.031 A 
ATOM     42  C   UNL A   1      38.165  32.239  32.420  1.00  0.00     0.074 A 
ATOM     43  C   UNL A   1      38.444  30.953  30.324  1.00  0.00     0.049 A 
ATOM     44  N   UNL A   1      39.195  31.824  33.114  1.00  0.00    -0.248 NA
ATOM     45  C   UNL A   1      37.343  33.242  33.118  1.00  0.00     0.031 C 
ATOM     46  C   UNL A   1      38.162  30.540  28.947  1.00  0.00     0.029 A 
ATOM     47  N   UNL A   1      39.548  30.215  30.670  1.00  0.00    -0.354 N 
ATOM     48  C   UNL A   1      39.160  32.536  34.306  1.00  0.00     0.074 A 
ATOM     49  C   UNL A   1      38.044  33.450  34.223  1.00  0.00     0.031 C 
ATOM     50  C   UNL A   1      39.046  29.599  28.579  1.00  0.00     0.029 A 
ATOM     51  C   UNL A   1      39.986  29.377  29.673  1.00  0.00     0.049 A 
ATOM     52  H   UNL A   1      39.985  30.280  31.550  1.00  0.00     0.167 HD
ATOM     53  C   UNL A   1      39.971  32.420  35.384  1.00  0.00     0.037 A 
ATOM     54  C   UNL A   1      41.034  28.532  29.644  1.00  0.00     0.037 A 
ATOM     55  C   UNL A   1      41.050  31.473  35.480  1.00  0.00     0.049 A 
ATOM     56  C   UNL A   1      41.917  28.422  30.859  1.00  0.00     0.074 A 
ATOM     57  C   UNL A   1      41.877  31.215  36.559  1.00  0.00     0.029 A 
ATOM     58  N   UNL A   1      41.451  30.628  34.456  1.00  0.00    -0.354 N 
ATOM     59  N   UNL A   1      41.826  29.044  32.009  1.00  0.00    -0.248 NA
ATOM     60  C   UNL A   1      43.048  27.489  30.770  1.00  0.00     0.031 C 
ATOM     61  C   UNL A   1      42.815  30.254  36.169  1.00  0.00     0.029 A 
ATOM     62  C   UNL A   1      42.533  29.868  34.869  1.00  0.00     0.049 A 
ATOM     63  H   UNL A   1      41.029  30.575  33.569  1.00  0.00     0.167 HD
ATOM     64  C   UNL A   1      42.860  28.551  32.793  1.00  0.00     0.074 A 
ATOM     65  C   UNL A   1      43.558  27.568  31.991  1.00  0.00     0.031 C 
ATOM     66  C   UNL A   1      43.204  28.881  34.062  1.00  0.00     0.037 A 
BRANCH  53  67
ATOM     67  C   UNL A   1      39.725  33.334  36.550  1.00  0.00     0.064 A 
ATOM     68  C   UNL A   1      40.343  34.590  36.652  1.00  0.00     0.173 A 
ATOM     69  C   UNL A   1      38.818  32.968  37.558  1.00  0.00     0.173 A 
ATOM     70  F   UNL A   1      41.226  34.986  35.723  1.00  0.00    -0.203 F 
ATOM     71  C   UNL A   1      40.084  35.433  37.731  1.00  0.00     0.198 A 
ATOM     72  C   UNL A   1      38.537  33.827  38.617  1.00  0.00     0.198 A 
ATOM     73  F   UNL A   1      38.195  31.781  37.510  1.00  0.00    -0.203 F 
ATOM     74  F   UNL A   1      40.725  36.605  37.831  1.00  0.00    -0.200 F 
ATOM     75  C   UNL A   1      39.174  35.055  38.707  1.00  0.00     0.200 A 
ATOM     76  F   UNL A   1      37.646  33.466  39.552  1.00  0.00    -0.200 F 
ATOM     77  F   UNL A   1      38.917  35.872  39.738  1.00  0.00    -0.200 F 
ENDBRANCH  53  67
BRANCH  54  78
ATOM     78  C   UNL A   1      41.295  27.700  28.439  1.00  0.00     0.064 A 
ATOM     79  C   UNL A   1      42.196  28.129  27.453  1.00  0.00     0.173 A 
ATOM     80  C   UNL A   1      40.636  26.479  28.232  1.00  0.00     0.173 A 
ATOM     81  F   UNL A   1      42.836  29.299  27.595  1.00  0.00    -0.203 F 
ATOM     82  C   UNL A   1      42.404  27.385  26.293  1.00  0.00     0.198 A 
ATOM     83  C   UNL A   1      40.871  25.719  27.086  1.00  0.00     0.198 A 
ATOM     84  F   UNL A   1      39.769  26.018  29.145  1.00  0.00    -0.203 F 
ATOM     85  F   UNL A   1      43.225  27.849  25.342  1.00  0.00    -0.200 F 
ATOM     86  C   UNL A   1      41.745  26.179  26.113  1.00  0.00     0.200 A 
ATOM     87  F   UNL A   1      40.243  24.547  26.924  1.00  0.00    -0.200 F 
ATOM     88  F   UNL A   1      41.943  25.466  24.997  1.00  0.00    -0.200 F 
ENDBRANCH  54  78
BRANCH  66  89
ATOM     89  C   UNL A   1      44.353  28.140  34.681  1.00  0.00     0.064 A 
ATOM     90  C   UNL A   1      45.667  28.625  34.615  1.00  0.00     0.173 A 
ATOM     91  C   UNL A   1      44.127  26.948  35.387  1.00  0.00     0.173 A 
ATOM     92  F   UNL A   1      45.939  29.752  33.940  1.00  0.00    -0.203 F 
ATOM     93  C   UNL A   1      46.718  27.928  35.207  1.00  0.00     0.198 A 
ATOM     94  C   UNL A   1      45.174  26.273  36.008  1.00  0.00     0.198 A 
ATOM     95  F   UNL A   1      42.887  26.445  35.488  1.00  0.00    -0.203 F 
ATOM     96  F   UNL A   1      47.973  28.381  35.085  1.00  0.00    -0.200 F 
ATOM     97  C   UNL A   1      46.468  26.758  35.910  1.00  0.00     0.200 A 
ATOM     98  F   UNL A   1      44.928  25.153  36.701  1.00  0.00    -0.200 F 
ATOM     99  F   UNL A   1      47.479  26.094  36.488  1.00  0.00    -0.200 F 
ENDBRANCH  66  89
ENDBRANCH  40  41
ENDBRANCH  32  35
ENDBRANCH  30  31
ENDBRANCH  29  30
ENDBRANCH   1  29
TORSDOF 16
ENDMDL
