MODEL 1
REMARK VINA RESULT:     -10.8      0.000      0.000
REMARK SMILES C=CC[N@@H+](CC(=O)NCCCNC(=O)c1ccc(-c2c3nc(c(-c4c(F)c(F)c(F)c(F)c4F)c4ccc([nH]4)c(-c4c(F)c(F)c(F)c(F)c4F)c4nc(c(-c5c(F)c(F)c(F)c(F)c5F)c5ccc2[nH]5)C=C4)C=C3)cc1)C[C@H]1CNC(=O)O1
REMARK SMILES IDX 9 1 8 2 6 3 7 4 5 6 4 7 3 9 2 10 1 11 78 12 79 13 80 14
REMARK SMILES IDX 84 15 81 16 82 17 83 19 10 20 11 21 12 22 13 23 14 25 15 26
REMARK SMILES IDX 16 27 77 28 17 29 76 30 18 31 19 32 20 33 70 34 21 35 75 36
REMARK SMILES IDX 69 37 71 38 22 39 74 40 68 41 67 42 23 44 55 45 35 46 54 47
REMARK SMILES IDX 36 48 39 49 53 50 72 51 37 52 38 53 52 55 73 56 40 57 24 58
REMARK SMILES IDX 25 59 33 60 26 61 27 62 31 63 34 64 28 65 29 66 32 67 30 68
REMARK SMILES IDX 56 69 57 70 65 71 58 72 59 73 63 74 66 75 60 76 61 77 64 78
REMARK SMILES IDX 62 79 41 80 42 81 50 82 43 83 44 84 48 85 51 86 45 87 46 88
REMARK SMILES IDX 49 89 47 90
REMARK H PARENT 8 5 4 8 81 18 12 24 71 43 39 54
REMARK Flexibility Score: inf
ROOT
ATOM      1  C   UNL A   1      31.178  31.084  25.820  1.00  0.00     0.118 C 
ENDROOT
BRANCH   1   2
ATOM      2  N   UNL A   1      32.240  30.198  26.276  1.00  0.00    -0.351 N 
ATOM      3  C   UNL A   1      33.182  29.486  25.597  1.00  0.00     0.275 C 
ATOM      4  O   UNL A   1      34.163  29.119  26.256  1.00  0.00    -0.269 OA
ATOM      5  H   UNL A   1      32.286  30.096  27.254  1.00  0.00     0.163 HD
BRANCH   3   6
ATOM      6  C   UNL A   1      33.067  29.115  24.114  1.00  0.00     0.363 C 
BRANCH   6   7
ATOM      7  N   UNL A   1      31.849  28.363  23.709  1.00  0.00    -0.321 N 
ATOM      8  H   UNL A   1      31.176  28.485  24.466  1.00  0.00     0.348 HD
BRANCH   7   9
ATOM      9  C   UNL A   1      32.095  26.939  23.651  1.00  0.00     0.290 C 
BRANCH   9  10
ATOM     10  C   UNL A   1      31.123  26.090  22.897  1.00  0.00     0.025 C 
ATOM     11  C   UNL A   1      30.682  24.909  23.357  1.00  0.00     0.010 C 
ENDBRANCH   9  10
ENDBRANCH   7   9
BRANCH   7  12
ATOM     12  C   UNL A   1      31.073  28.948  22.596  1.00  0.00     0.310 C 
BRANCH  12  13
ATOM     13  C   UNL A   1      29.686  29.586  22.817  1.00  0.00     0.252 C 
ATOM     14  C   UNL A   1      28.985  30.153  21.603  1.00  0.00     0.170 C 
ATOM     15  O   UNL A   1      28.740  28.605  23.298  1.00  0.00    -0.438 OA
ATOM     16  N   UNL A   1      27.621  30.010  21.975  1.00  0.00    -0.318 N 
ATOM     17  C   UNL A   1      27.499  29.043  22.932  1.00  0.00     0.407 C 
ATOM     18  H   UNL A   1      26.874  30.531  21.599  1.00  0.00     0.167 HD
ATOM     19  O   UNL A   1      26.443  28.616  23.368  1.00  0.00    -0.225 OA
ENDBRANCH  12  13
ENDBRANCH   7  12
ENDBRANCH   6   7
ENDBRANCH   3   6
ENDBRANCH   1   2
BRANCH   1  20
ATOM     20  C   UNL A   1      31.174  32.470  26.477  1.00  0.00     0.042 C 
BRANCH  20  21
ATOM     21  C   UNL A   1      32.475  32.872  27.158  1.00  0.00     0.118 C 
BRANCH  21  22
ATOM     22  N   UNL A   1      32.438  34.258  27.576  1.00  0.00    -0.352 N 
ATOM     23  C   UNL A   1      33.054  34.858  28.647  1.00  0.00     0.251 C 
ATOM     24  H   UNL A   1      31.892  34.854  27.014  1.00  0.00     0.163 HD
ATOM     25  O   UNL A   1      32.629  35.936  29.052  1.00  0.00    -0.269 OA
BRANCH  23  26
ATOM     26  C   UNL A   1      34.218  34.229  29.322  1.00  0.00     0.039 A 
ATOM     27  C   UNL A   1      35.498  34.473  28.816  1.00  0.00     0.014 A 
ATOM     28  C   UNL A   1      34.060  33.334  30.385  1.00  0.00     0.014 A 
ATOM     29  C   UNL A   1      36.610  33.841  29.382  1.00  0.00     0.010 A 
ATOM     30  C   UNL A   1      35.177  32.778  31.010  1.00  0.00     0.010 A 
ATOM     31  C   UNL A   1      36.464  33.000  30.496  1.00  0.00    -0.014 A 
BRANCH  31  32
ATOM     32  C   UNL A   1      37.637  32.311  31.100  1.00  0.00     0.031 A 
ATOM     33  C   UNL A   1      38.113  32.683  32.480  1.00  0.00     0.074 A 
ATOM     34  C   UNL A   1      38.293  31.365  30.400  1.00  0.00     0.049 A 
ATOM     35  N   UNL A   1      39.124  32.211  33.167  1.00  0.00    -0.248 NA
ATOM     36  C   UNL A   1      37.369  33.748  33.169  1.00  0.00     0.031 C 
ATOM     37  C   UNL A   1      37.953  30.929  29.047  1.00  0.00     0.029 A 
ATOM     38  N   UNL A   1      39.382  30.598  30.735  1.00  0.00    -0.354 N 
ATOM     39  C   UNL A   1      39.138  32.925  34.360  1.00  0.00     0.074 A 
ATOM     40  C   UNL A   1      38.083  33.911  34.271  1.00  0.00     0.031 C 
ATOM     41  C   UNL A   1      38.789  29.944  28.681  1.00  0.00     0.029 A 
ATOM     42  C   UNL A   1      39.751  29.711  29.753  1.00  0.00     0.049 A 
ATOM     43  H   UNL A   1      39.854  30.676  31.595  1.00  0.00     0.167 HD
ATOM     44  C   UNL A   1      39.937  32.758  35.442  1.00  0.00     0.037 A 
ATOM     45  C   UNL A   1      40.752  28.810  29.722  1.00  0.00     0.037 A 
ATOM     46  C   UNL A   1      40.985  31.773  35.530  1.00  0.00     0.049 A 
ATOM     47  C   UNL A   1      41.660  28.676  30.915  1.00  0.00     0.074 A 
ATOM     48  C   UNL A   1      41.825  31.496  36.593  1.00  0.00     0.029 A 
ATOM     49  N   UNL A   1      41.344  30.911  34.503  1.00  0.00    -0.354 N 
ATOM     50  N   UNL A   1      41.625  29.312  32.060  1.00  0.00    -0.248 NA
ATOM     51  C   UNL A   1      42.744  27.690  30.810  1.00  0.00     0.031 C 
ATOM     52  C   UNL A   1      42.735  30.512  36.189  1.00  0.00     0.029 A 
ATOM     53  C   UNL A   1      42.415  30.122  34.898  1.00  0.00     0.049 A 
ATOM     54  H   UNL A   1      40.903  30.864  33.624  1.00  0.00     0.167 HD
ATOM     55  C   UNL A   1      42.656  28.781  32.825  1.00  0.00     0.074 A 
ATOM     56  C   UNL A   1      43.289  27.761  32.015  1.00  0.00     0.031 C 
ATOM     57  C   UNL A   1      43.038  29.106  34.085  1.00  0.00     0.037 A 
BRANCH  44  58
ATOM     58  C   UNL A   1      39.710  33.675  36.615  1.00  0.00     0.064 A 
ATOM     59  C   UNL A   1      40.341  34.927  36.709  1.00  0.00     0.173 A 
ATOM     60  C   UNL A   1      38.855  33.298  37.662  1.00  0.00     0.173 A 
ATOM     61  F   UNL A   1      41.175  35.338  35.741  1.00  0.00    -0.203 F 
ATOM     62  C   UNL A   1      40.169  35.738  37.829  1.00  0.00     0.198 A 
ATOM     63  C   UNL A   1      38.653  34.130  38.761  1.00  0.00     0.198 A 
ATOM     64  F   UNL A   1      38.215  32.120  37.624  1.00  0.00    -0.203 F 
ATOM     65  F   UNL A   1      40.846  36.890  37.929  1.00  0.00    -0.200 F 
ATOM     66  C   UNL A   1      39.322  35.342  38.851  1.00  0.00     0.200 A 
ATOM     67  F   UNL A   1      37.818  33.754  39.741  1.00  0.00    -0.200 F 
ATOM     68  F   UNL A   1      39.160  36.121  39.930  1.00  0.00    -0.200 F 
ENDBRANCH  44  58
BRANCH  45  69
ATOM     69  C   UNL A   1      40.922  27.935  28.532  1.00  0.00     0.064 A 
ATOM     70  C   UNL A   1      41.761  28.316  27.475  1.00  0.00     0.173 A 
ATOM     71  C   UNL A   1      40.264  26.700  28.429  1.00  0.00     0.173 A 
ATOM     72  F   UNL A   1      42.397  29.496  27.518  1.00  0.00    -0.203 F 
ATOM     73  C   UNL A   1      41.924  27.504  26.355  1.00  0.00     0.198 A 
ATOM     74  C   UNL A   1      40.452  25.874  27.322  1.00  0.00     0.198 A 
ATOM     75  F   UNL A   1      39.455  26.285  29.415  1.00  0.00    -0.203 F 
ATOM     76  F   UNL A   1      42.701  27.911  25.343  1.00  0.00    -0.200 F 
ATOM     77  C   UNL A   1      41.276  26.280  26.283  1.00  0.00     0.200 A 
ATOM     78  F   UNL A   1      39.839  24.684  27.267  1.00  0.00    -0.200 F 
ATOM     79  F   UNL A   1      41.442  25.492  25.212  1.00  0.00    -0.200 F 
ENDBRANCH  45  69
BRANCH  57  80
ATOM     80  C   UNL A   1      44.168  28.320  34.689  1.00  0.00     0.064 A 
ATOM     81  C   UNL A   1      45.508  28.714  34.547  1.00  0.00     0.173 A 
ATOM     82  C   UNL A   1      43.903  27.171  35.450  1.00  0.00     0.173 A 
ATOM     83  F   UNL A   1      45.820  29.797  33.818  1.00  0.00    -0.203 F 
ATOM     84  C   UNL A   1      46.539  27.969  35.116  1.00  0.00     0.198 A 
ATOM     85  C   UNL A   1      44.933  26.451  36.050  1.00  0.00     0.198 A 
ATOM     86  F   UNL A   1      42.640  26.752  35.626  1.00  0.00    -0.203 F 
ATOM     87  F   UNL A   1      47.814  28.332  34.916  1.00  0.00    -0.200 F 
ATOM     88  C   UNL A   1      46.251  26.844  35.874  1.00  0.00     0.200 A 
ATOM     89  F   UNL A   1      44.649  25.374  36.795  1.00  0.00    -0.200 F 
ATOM     90  F   UNL A   1      47.243  26.133  36.426  1.00  0.00    -0.200 F 
ENDBRANCH  57  80
ENDBRANCH  31  32
ENDBRANCH  23  26
ENDBRANCH  21  22
ENDBRANCH  20  21
ENDBRANCH   1  20
TORSDOF 15
ENDMDL
MODEL 2
REMARK VINA RESULT:     -10.7      1.722      7.792
REMARK SMILES C=CC[N@@H+](CC(=O)NCCCNC(=O)c1ccc(-c2c3nc(c(-c4c(F)c(F)c(F)c(F)c4F)c4ccc([nH]4)c(-c4c(F)c(F)c(F)c(F)c4F)c4nc(c(-c5c(F)c(F)c(F)c(F)c5F)c5ccc2[nH]5)C=C4)C=C3)cc1)C[C@H]1CNC(=O)O1
REMARK SMILES IDX 9 1 8 2 6 3 7 4 5 6 4 7 3 9 2 10 1 11 78 12 79 13 80 14
REMARK SMILES IDX 84 15 81 16 82 17 83 19 10 20 11 21 12 22 13 23 14 25 15 26
REMARK SMILES IDX 16 27 77 28 17 29 76 30 18 31 19 32 20 33 70 34 21 35 75 36
REMARK SMILES IDX 69 37 71 38 22 39 74 40 68 41 67 42 23 44 55 45 35 46 54 47
REMARK SMILES IDX 36 48 39 49 53 50 72 51 37 52 38 53 52 55 73 56 40 57 24 58
REMARK SMILES IDX 25 59 33 60 26 61 27 62 31 63 34 64 28 65 29 66 32 67 30 68
REMARK SMILES IDX 56 69 57 70 65 71 58 72 59 73 63 74 66 75 60 76 61 77 64 78
REMARK SMILES IDX 62 79 41 80 42 81 50 82 43 83 44 84 48 85 51 86 45 87 46 88
REMARK SMILES IDX 49 89 47 90
REMARK H PARENT 8 5 4 8 81 18 12 24 71 43 39 54
REMARK Flexibility Score: inf
ROOT
ATOM      1  C   UNL A   1      31.310  31.092  26.097  1.00  0.00     0.118 C 
ENDROOT
BRANCH   1   2
ATOM      2  N   UNL A   1      32.430  30.293  26.575  1.00  0.00    -0.351 N 
ATOM      3  C   UNL A   1      33.346  29.529  25.917  1.00  0.00     0.275 C 
ATOM      4  O   UNL A   1      34.382  29.267  26.541  1.00  0.00    -0.269 OA
ATOM      5  H   UNL A   1      32.547  30.309  27.552  1.00  0.00     0.163 HD
BRANCH   3   6
ATOM      6  C   UNL A   1      33.141  28.981  24.500  1.00  0.00     0.363 C 
BRANCH   6   7
ATOM      7  N   UNL A   1      32.681  27.570  24.392  1.00  0.00    -0.321 N 
ATOM      8  H   UNL A   1      32.180  27.502  23.506  1.00  0.00     0.348 HD
BRANCH   7   9
ATOM      9  C   UNL A   1      31.700  27.249  25.405  1.00  0.00     0.290 C 
BRANCH   9  10
ATOM     10  C   UNL A   1      32.055  26.214  26.422  1.00  0.00     0.025 C 
ATOM     11  C   UNL A   1      31.522  24.982  26.420  1.00  0.00     0.010 C 
ENDBRANCH   9  10
ENDBRANCH   7   9
BRANCH   7  12
ATOM     12  C   UNL A   1      33.738  26.567  24.152  1.00  0.00     0.310 C 
BRANCH  12  13
ATOM     13  C   UNL A   1      33.649  25.551  22.994  1.00  0.00     0.252 C 
ATOM     14  C   UNL A   1      32.419  24.672  22.939  1.00  0.00     0.170 C 
ATOM     15  O   UNL A   1      33.610  26.229  21.718  1.00  0.00    -0.438 OA
ATOM     16  N   UNL A   1      32.320  24.417  21.544  1.00  0.00    -0.318 N 
ATOM     17  C   UNL A   1      32.979  25.388  20.845  1.00  0.00     0.407 C 
ATOM     18  H   UNL A   1      31.847  23.652  21.141  1.00  0.00     0.167 HD
ATOM     19  O   UNL A   1      32.976  25.504  19.631  1.00  0.00    -0.225 OA
ENDBRANCH  12  13
ENDBRANCH   7  12
ENDBRANCH   6   7
ENDBRANCH   3   6
ENDBRANCH   1   2
BRANCH   1  20
ATOM     20  C   UNL A   1      31.345  32.564  26.527  1.00  0.00     0.042 C 
BRANCH  20  21
ATOM     21  C   UNL A   1      32.599  32.996  27.273  1.00  0.00     0.118 C 
BRANCH  21  22
ATOM     22  N   UNL A   1      32.518  34.387  27.667  1.00  0.00    -0.352 N 
ATOM     23  C   UNL A   1      33.058  35.011  28.765  1.00  0.00     0.251 C 
ATOM     24  H   UNL A   1      32.001  34.968  27.063  1.00  0.00     0.163 HD
ATOM     25  O   UNL A   1      32.594  36.089  29.126  1.00  0.00    -0.269 OA
BRANCH  23  26
ATOM     26  C   UNL A   1      34.185  34.407  29.521  1.00  0.00     0.039 A 
ATOM     27  C   UNL A   1      35.478  34.524  29.003  1.00  0.00     0.014 A 
ATOM     28  C   UNL A   1      33.976  33.653  30.680  1.00  0.00     0.014 A 
ATOM     29  C   UNL A   1      36.553  33.908  29.651  1.00  0.00     0.010 A 
ATOM     30  C   UNL A   1      35.061  33.119  31.377  1.00  0.00     0.010 A 
ATOM     31  C   UNL A   1      36.360  33.213  30.854  1.00  0.00    -0.014 A 
BRANCH  31  32
ATOM     32  C   UNL A   1      37.493  32.541  31.547  1.00  0.00     0.031 A 
ATOM     33  C   UNL A   1      38.209  31.388  30.893  1.00  0.00     0.074 A 
ATOM     34  C   UNL A   1      37.867  32.950  32.775  1.00  0.00     0.049 A 
ATOM     35  N   UNL A   1      39.205  30.664  31.344  1.00  0.00    -0.248 NA
ATOM     36  C   UNL A   1      37.724  30.976  29.568  1.00  0.00     0.031 C 
ATOM     37  C   UNL A   1      37.242  34.035  33.530  1.00  0.00     0.029 A 
ATOM     38  N   UNL A   1      38.866  32.500  33.602  1.00  0.00    -0.354 N 
ATOM     39  C   UNL A   1      39.456  29.713  30.362  1.00  0.00     0.074 A 
ATOM     40  C   UNL A   1      38.462  29.904  29.329  1.00  0.00     0.031 C 
ATOM     41  C   UNL A   1      37.896  34.195  34.690  1.00  0.00     0.029 A 
ATOM     42  C   UNL A   1      38.956  33.196  34.783  1.00  0.00     0.049 A 
ATOM     43  H   UNL A   1      39.461  31.751  33.372  1.00  0.00     0.167 HD
ATOM     44  C   UNL A   1      40.441  28.783  30.310  1.00  0.00     0.037 A 
ATOM     45  C   UNL A   1      39.799  33.046  35.823  1.00  0.00     0.037 A 
ATOM     46  C   UNL A   1      41.432  28.597  31.340  1.00  0.00     0.049 A 
ATOM     47  C   UNL A   1      40.853  31.973  35.768  1.00  0.00     0.074 A 
ATOM     48  C   UNL A   1      42.494  27.710  31.367  1.00  0.00     0.029 A 
ATOM     49  N   UNL A   1      41.473  29.305  32.533  1.00  0.00    -0.354 N 
ATOM     50  N   UNL A   1      41.121  31.121  34.808  1.00  0.00    -0.248 NA
ATOM     51  C   UNL A   1      41.728  31.848  36.942  1.00  0.00     0.031 C 
ATOM     52  C   UNL A   1      43.138  27.836  32.604  1.00  0.00     0.029 A 
ATOM     53  C   UNL A   1      42.523  28.853  33.318  1.00  0.00     0.049 A 
ATOM     54  H   UNL A   1      40.849  30.023  32.785  1.00  0.00     0.167 HD
ATOM     55  C   UNL A   1      42.214  30.383  35.246  1.00  0.00     0.074 A 
ATOM     56  C   UNL A   1      42.566  30.899  36.552  1.00  0.00     0.031 C 
ATOM     57  C   UNL A   1      42.868  29.375  34.618  1.00  0.00     0.037 A 
BRANCH  44  58
ATOM     58  C   UNL A   1      40.481  27.887  29.100  1.00  0.00     0.064 A 
ATOM     59  C   UNL A   1      41.275  28.189  27.982  1.00  0.00     0.173 A 
ATOM     60  C   UNL A   1      39.712  26.714  29.054  1.00  0.00     0.173 A 
ATOM     61  F   UNL A   1      42.026  29.301  27.965  1.00  0.00    -0.203 F 
ATOM     62  C   UNL A   1      41.255  27.382  26.845  1.00  0.00     0.198 A 
ATOM     63  C   UNL A   1      39.727  25.888  27.933  1.00  0.00     0.198 A 
ATOM     64  F   UNL A   1      38.943  26.367  30.096  1.00  0.00    -0.203 F 
ATOM     65  F   UNL A   1      41.961  27.737  25.763  1.00  0.00    -0.200 F 
ATOM     66  C   UNL A   1      40.485  26.230  26.823  1.00  0.00     0.200 A 
ATOM     67  F   UNL A   1      38.995  24.764  27.920  1.00  0.00    -0.200 F 
ATOM     68  F   UNL A   1      40.463  25.458  25.729  1.00  0.00    -0.200 F 
ENDBRANCH  44  58
BRANCH  45  69
ATOM     69  C   UNL A   1      39.705  33.964  36.989  1.00  0.00     0.064 A 
ATOM     70  C   UNL A   1      38.945  33.618  38.115  1.00  0.00     0.173 A 
ATOM     71  C   UNL A   1      40.378  35.194  37.011  1.00  0.00     0.173 A 
ATOM     72  F   UNL A   1      38.267  32.461  38.134  1.00  0.00    -0.203 F 
ATOM     73  C   UNL A   1      38.849  34.472  39.211  1.00  0.00     0.198 A 
ATOM     74  C   UNL A   1      40.306  36.035  38.120  1.00  0.00     0.198 A 
ATOM     75  F   UNL A   1      41.124  35.571  35.962  1.00  0.00    -0.203 F 
ATOM     76  F   UNL A   1      38.083  34.134  40.256  1.00  0.00    -0.200 F 
ATOM     77  C   UNL A   1      39.536  35.677  39.216  1.00  0.00     0.200 A 
ATOM     78  F   UNL A   1      40.989  37.188  38.128  1.00  0.00    -0.200 F 
ATOM     79  F   UNL A   1      39.455  36.493  40.275  1.00  0.00    -0.200 F 
ENDBRANCH  45  69
BRANCH  57  80
ATOM     80  C   UNL A   1      44.065  28.788  35.314  1.00  0.00     0.064 A 
ATOM     81  C   UNL A   1      45.360  29.290  35.117  1.00  0.00     0.173 A 
ATOM     82  C   UNL A   1      43.906  27.726  36.218  1.00  0.00     0.173 A 
ATOM     83  F   UNL A   1      45.571  30.295  34.253  1.00  0.00    -0.203 F 
ATOM     84  C   UNL A   1      46.454  28.730  35.773  1.00  0.00     0.198 A 
ATOM     85  C   UNL A   1      44.996  27.194  36.902  1.00  0.00     0.198 A 
ATOM     86  F   UNL A   1      42.689  27.211  36.451  1.00  0.00    -0.203 F 
ATOM     87  F   UNL A   1      47.689  29.188  35.524  1.00  0.00    -0.200 F 
ATOM     88  C   UNL A   1      46.271  27.689  36.671  1.00  0.00     0.200 A 
ATOM     89  F   UNL A   1      44.814  26.199  37.781  1.00  0.00    -0.200 F 
ATOM     90  F   UNL A   1      47.323  27.156  37.307  1.00  0.00    -0.200 F 
ENDBRANCH  57  80
ENDBRANCH  31  32
ENDBRANCH  23  26
ENDBRANCH  21  22
ENDBRANCH  20  21
ENDBRANCH   1  20
TORSDOF 15
ENDMDL
MODEL 3
REMARK VINA RESULT:     -10.7      6.267     11.319
REMARK SMILES C=CC[N@@H+](CC(=O)NCCCNC(=O)c1ccc(-c2c3nc(c(-c4c(F)c(F)c(F)c(F)c4F)c4ccc([nH]4)c(-c4c(F)c(F)c(F)c(F)c4F)c4nc(c(-c5c(F)c(F)c(F)c(F)c5F)c5ccc2[nH]5)C=C4)C=C3)cc1)C[C@H]1CNC(=O)O1
REMARK SMILES IDX 9 1 8 2 6 3 7 4 5 6 4 7 3 9 2 10 1 11 78 12 79 13 80 14
REMARK SMILES IDX 84 15 81 16 82 17 83 19 10 20 11 21 12 22 13 23 14 25 15 26
REMARK SMILES IDX 16 27 77 28 17 29 76 30 18 31 19 32 20 33 70 34 21 35 75 36
REMARK SMILES IDX 69 37 71 38 22 39 74 40 68 41 67 42 23 44 55 45 35 46 54 47
REMARK SMILES IDX 36 48 39 49 53 50 72 51 37 52 38 53 52 55 73 56 40 57 24 58
REMARK SMILES IDX 25 59 33 60 26 61 27 62 31 63 34 64 28 65 29 66 32 67 30 68
REMARK SMILES IDX 56 69 57 70 65 71 58 72 59 73 63 74 66 75 60 76 61 77 64 78
REMARK SMILES IDX 62 79 41 80 42 81 50 82 43 83 44 84 48 85 51 86 45 87 46 88
REMARK SMILES IDX 49 89 47 90
REMARK H PARENT 8 5 4 8 81 18 12 24 71 43 39 54
REMARK Flexibility Score: inf
ROOT
ATOM      1  C   UNL A   1      36.755  19.894  24.974  1.00  0.00     0.118 C 
ENDROOT
BRANCH   1   2
ATOM      2  N   UNL A   1      36.337  21.288  24.915  1.00  0.00    -0.351 N 
ATOM      3  C   UNL A   1      35.331  21.961  25.542  1.00  0.00     0.275 C 
ATOM      4  O   UNL A   1      35.444  23.192  25.577  1.00  0.00    -0.269 OA
ATOM      5  H   UNL A   1      36.879  21.845  24.313  1.00  0.00     0.163 HD
BRANCH   3   6
ATOM      6  C   UNL A   1      34.104  21.282  26.160  1.00  0.00     0.363 C 
BRANCH   6   7
ATOM      7  N   UNL A   1      33.244  20.496  25.235  1.00  0.00    -0.321 N 
ATOM      8  H   UNL A   1      33.860  20.149  24.500  1.00  0.00     0.348 HD
BRANCH   7   9
ATOM      9  C   UNL A   1      32.284  21.336  24.554  1.00  0.00     0.290 C 
BRANCH   9  10
ATOM     10  C   UNL A   1      32.492  21.601  23.098  1.00  0.00     0.025 C 
ATOM     11  C   UNL A   1      33.054  22.729  22.639  1.00  0.00     0.010 C 
ENDBRANCH   9  10
ENDBRANCH   7   9
BRANCH   7  12
ATOM     12  C   UNL A   1      32.743  19.209  25.760  1.00  0.00     0.310 C 
BRANCH  12  13
ATOM     13  C   UNL A   1      32.686  17.939  24.887  1.00  0.00     0.252 C 
ATOM     14  C   UNL A   1      33.853  17.685  23.959  1.00  0.00     0.170 C 
ATOM     15  O   UNL A   1      32.672  16.750  25.709  1.00  0.00    -0.438 OA
ATOM     16  N   UNL A   1      33.834  16.266  23.867  1.00  0.00    -0.318 N 
ATOM     17  C   UNL A   1      33.186  15.739  24.948  1.00  0.00     0.407 C 
ATOM     18  H   UNL A   1      34.229  15.741  23.133  1.00  0.00     0.167 HD
ATOM     19  O   UNL A   1      33.107  14.550  25.207  1.00  0.00    -0.225 OA
ENDBRANCH  12  13
ENDBRANCH   7  12
ENDBRANCH   6   7
ENDBRANCH   3   6
ENDBRANCH   1   2
BRANCH   1  20
ATOM     20  C   UNL A   1      38.258  19.668  24.763  1.00  0.00     0.042 C 
BRANCH  20  21
ATOM     21  C   UNL A   1      39.144  20.028  25.946  1.00  0.00     0.118 C 
BRANCH  21  22
ATOM     22  N   UNL A   1      40.302  19.161  26.014  1.00  0.00    -0.352 N 
ATOM     23  C   UNL A   1      41.634  19.492  26.045  1.00  0.00     0.251 C 
ATOM     24  H   UNL A   1      40.105  18.196  26.039  1.00  0.00     0.163 HD
ATOM     25  O   UNL A   1      42.467  18.644  25.738  1.00  0.00    -0.269 OA
BRANCH  23  26
ATOM     26  C   UNL A   1      42.084  20.852  26.438  1.00  0.00     0.039 A 
ATOM     27  C   UNL A   1      42.162  21.164  27.799  1.00  0.00     0.014 A 
ATOM     28  C   UNL A   1      42.340  21.848  25.491  1.00  0.00     0.014 A 
ATOM     29  C   UNL A   1      42.513  22.456  28.205  1.00  0.00     0.010 A 
ATOM     30  C   UNL A   1      42.782  23.108  25.895  1.00  0.00     0.010 A 
ATOM     31  C   UNL A   1      42.844  23.437  27.258  1.00  0.00    -0.014 A 
BRANCH  31  32
ATOM     32  C   UNL A   1      43.206  24.819  27.676  1.00  0.00     0.031 A 
ATOM     33  C   UNL A   1      44.650  25.242  27.741  1.00  0.00     0.074 A 
ATOM     34  C   UNL A   1      42.239  25.692  28.020  1.00  0.00     0.049 A 
ATOM     35  N   UNL A   1      45.166  26.393  28.099  1.00  0.00    -0.248 NA
ATOM     36  C   UNL A   1      45.652  24.226  27.384  1.00  0.00     0.031 C 
ATOM     37  C   UNL A   1      40.806  25.404  28.025  1.00  0.00     0.029 A 
ATOM     38  N   UNL A   1      42.318  27.000  28.429  1.00  0.00    -0.354 N 
ATOM     39  C   UNL A   1      46.544  26.235  28.014  1.00  0.00     0.074 A 
ATOM     40  C   UNL A   1      46.785  24.856  27.647  1.00  0.00     0.031 C 
ATOM     41  C   UNL A   1      40.137  26.512  28.379  1.00  0.00     0.029 A 
ATOM     42  C   UNL A   1      41.094  27.575  28.668  1.00  0.00     0.049 A 
ATOM     43  H   UNL A   1      43.170  27.480  28.541  1.00  0.00     0.167 HD
ATOM     44  C   UNL A   1      47.519  27.157  28.199  1.00  0.00     0.037 A 
ATOM     45  C   UNL A   1      40.779  28.820  29.076  1.00  0.00     0.037 A 
ATOM     46  C   UNL A   1      47.276  28.530  28.563  1.00  0.00     0.049 A 
ATOM     47  C   UNL A   1      41.880  29.815  29.324  1.00  0.00     0.074 A 
ATOM     48  C   UNL A   1      48.190  29.553  28.737  1.00  0.00     0.029 A 
ATOM     49  N   UNL A   1      46.022  29.067  28.822  1.00  0.00    -0.354 N 
ATOM     50  N   UNL A   1      43.176  29.672  29.182  1.00  0.00    -0.248 NA
ATOM     51  C   UNL A   1      41.472  31.149  29.786  1.00  0.00     0.031 C 
ATOM     52  C   UNL A   1      47.497  30.692  29.164  1.00  0.00     0.029 A 
ATOM     53  C   UNL A   1      46.142  30.400  29.186  1.00  0.00     0.049 A 
ATOM     54  H   UNL A   1      45.172  28.574  28.756  1.00  0.00     0.167 HD
ATOM     55  C   UNL A   1      43.734  30.904  29.500  1.00  0.00     0.074 A 
ATOM     56  C   UNL A   1      42.633  31.784  29.831  1.00  0.00     0.031 C 
ATOM     57  C   UNL A   1      45.039  31.271  29.511  1.00  0.00     0.037 A 
BRANCH  44  58
ATOM     58  C   UNL A   1      48.944  26.700  28.021  1.00  0.00     0.064 A 
ATOM     59  C   UNL A   1      49.746  26.334  29.114  1.00  0.00     0.173 A 
ATOM     60  C   UNL A   1      49.517  26.631  26.742  1.00  0.00     0.173 A 
ATOM     61  F   UNL A   1      49.254  26.388  30.362  1.00  0.00    -0.203 F 
ATOM     62  C   UNL A   1      51.080  25.972  28.939  1.00  0.00     0.198 A 
ATOM     63  C   UNL A   1      50.839  26.228  26.567  1.00  0.00     0.198 A 
ATOM     64  F   UNL A   1      48.798  26.957  25.658  1.00  0.00    -0.203 F 
ATOM     65  F   UNL A   1      51.845  25.706  30.007  1.00  0.00    -0.200 F 
ATOM     66  C   UNL A   1      51.624  25.915  27.666  1.00  0.00     0.200 A 
ATOM     67  F   UNL A   1      51.358  26.155  25.333  1.00  0.00    -0.200 F 
ATOM     68  F   UNL A   1      52.909  25.571  27.499  1.00  0.00    -0.200 F 
ENDBRANCH  44  58
BRANCH  45  69
ATOM     69  C   UNL A   1      39.352  29.207  29.233  1.00  0.00     0.064 A 
ATOM     70  C   UNL A   1      38.582  29.576  28.121  1.00  0.00     0.173 A 
ATOM     71  C   UNL A   1      38.724  29.202  30.487  1.00  0.00     0.173 A 
ATOM     72  F   UNL A   1      39.142  29.614  26.903  1.00  0.00    -0.203 F 
ATOM     73  C   UNL A   1      37.244  29.942  28.259  1.00  0.00     0.198 A 
ATOM     74  C   UNL A   1      37.378  29.539  30.620  1.00  0.00     0.198 A 
ATOM     75  F   UNL A   1      39.413  28.851  31.583  1.00  0.00    -0.203 F 
ATOM     76  F   UNL A   1      36.544  30.330  27.185  1.00  0.00    -0.200 F 
ATOM     77  C   UNL A   1      36.641  29.915  29.507  1.00  0.00     0.200 A 
ATOM     78  F   UNL A   1      36.795  29.492  31.826  1.00  0.00    -0.200 F 
ATOM     79  F   UNL A   1      35.352  30.255  29.639  1.00  0.00    -0.200 F 
ENDBRANCH  45  69
BRANCH  57  80
ATOM     80  C   UNL A   1      45.352  32.702  29.849  1.00  0.00     0.064 A 
ATOM     81  C   UNL A   1      45.630  33.113  31.162  1.00  0.00     0.173 A 
ATOM     82  C   UNL A   1      45.406  33.672  28.836  1.00  0.00     0.173 A 
ATOM     83  F   UNL A   1      45.579  32.230  32.171  1.00  0.00    -0.203 F 
ATOM     84  C   UNL A   1      45.917  34.445  31.451  1.00  0.00     0.198 A 
ATOM     85  C   UNL A   1      45.731  34.996  29.123  1.00  0.00     0.198 A 
ATOM     86  F   UNL A   1      45.156  33.335  27.561  1.00  0.00    -0.203 F 
ATOM     87  F   UNL A   1      46.121  34.824  32.721  1.00  0.00    -0.200 F 
ATOM     88  C   UNL A   1      45.976  35.384  30.431  1.00  0.00     0.200 A 
ATOM     89  F   UNL A   1      45.803  35.896  28.133  1.00  0.00    -0.200 F 
ATOM     90  F   UNL A   1      46.259  36.663  30.710  1.00  0.00    -0.200 F 
ENDBRANCH  57  80
ENDBRANCH  31  32
ENDBRANCH  23  26
ENDBRANCH  21  22
ENDBRANCH  20  21
ENDBRANCH   1  20
TORSDOF 15
ENDMDL
