MODEL 1
REMARK VINA RESULT:     -12.6      0.000      0.000
REMARK SMILES COC(=O)c1ccc(Cl)c(-c2ccc(C(=O)NCCCNC(=O)c3ccc(-c4c5nc(c(-c6c(F)c(F)c(F)c(F)c6F)c6ccc([nH]6)c(-c6c(F)c(F)c(F)c(F)c6F)c6nc(c(-c7c(F)c(F)c(F)c(F)c7F)c7ccc4[nH]7)C=C6)C=C5)cc3)nc2)c1
REMARK SMILES IDX 18 1 17 2 15 3 16 4 14 6 11 7 12 8 88 9 13 10 87 11 10 12
REMARK SMILES IDX 5 13 6 14 89 15 7 16 8 17 9 18 3 19 4 20 2 21 1 22 19 23
REMARK SMILES IDX 20 24 21 25 22 26 23 28 24 29 25 30 86 31 26 32 85 33 27 34
REMARK SMILES IDX 28 35 29 36 79 37 30 38 84 39 78 40 80 41 31 42 83 43 77 44
REMARK SMILES IDX 76 45 32 47 64 48 44 49 63 50 45 51 48 52 62 53 81 54 46 55
REMARK SMILES IDX 47 56 61 58 82 59 49 60 33 61 34 62 42 63 35 64 36 65 40 66
REMARK SMILES IDX 43 67 37 68 38 69 41 70 39 71 65 72 66 73 74 74 67 75 68 76
REMARK SMILES IDX 72 77 75 78 69 79 70 80 73 81 71 82 50 83 51 84 59 85 52 86
REMARK SMILES IDX 53 87 57 88 60 89 54 90 55 91 58 92 56 93
REMARK H PARENT 17 5 21 27 80 46 48 57
REMARK Flexibility Score: inf
ROOT
ATOM      1  C   UNL A   1      31.457  28.086  24.188  1.00  0.00     0.118 C 
ENDROOT
BRANCH   1   2
ATOM      2  N   UNL A   1      32.422  28.269  23.122  1.00  0.00    -0.351 N 
ATOM      3  C   UNL A   1      33.412  27.459  22.610  1.00  0.00     0.269 C 
ATOM      4  O   UNL A   1      34.038  27.913  21.650  1.00  0.00    -0.268 OA
ATOM      5  H   UNL A   1      32.356  29.143  22.675  1.00  0.00     0.163 HD
BRANCH   3   6
ATOM      6  C   UNL A   1      33.733  26.088  23.144  1.00  0.00     0.128 A 
ATOM      7  C   UNL A   1      34.288  23.480  23.922  1.00  0.00     0.002 A 
ATOM      8  C   UNL A   1      34.355  24.519  24.850  1.00  0.00     0.013 A 
ATOM      9  C   UNL A   1      33.965  23.834  22.616  1.00  0.00     0.120 A 
ATOM     10  C   UNL A   1      34.103  25.832  24.456  1.00  0.00     0.035 A 
ATOM     11  N   UNL A   1      33.679  25.096  22.215  1.00  0.00    -0.250 NA
BRANCH   7  12
ATOM     12  C   UNL A   1      34.601  22.103  24.315  1.00  0.00     0.003 A 
ATOM     13  C   UNL A   1      33.815  19.818  24.673  1.00  0.00     0.060 A 
ATOM     14  C   UNL A   1      35.122  19.395  24.929  1.00  0.00     0.017 A 
ATOM     15  C   UNL A   1      33.560  21.159  24.357  1.00  0.00     0.026 A 
ATOM     16  C   UNL A   1      36.166  20.320  24.895  1.00  0.00     0.022 A 
ATOM     17  C   UNL A   1      35.908  21.664  24.601  1.00  0.00     0.048 A 
ATOM     18  Cl  UNL A   1      37.255  22.751  24.610  1.00  0.00    -0.084 Cl
BRANCH  13  19
ATOM     19  C   UNL A   1      32.666  18.885  24.714  1.00  0.00     0.337 C 
ATOM     20  O   UNL A   1      32.304  18.306  25.718  1.00  0.00    -0.246 OA
BRANCH  19  21
ATOM     21  O   UNL A   1      32.176  18.726  23.459  1.00  0.00    -0.465 OA
ATOM     22  C   UNL A   1      32.787  17.658  22.734  1.00  0.00     0.282 C 
ENDBRANCH  19  21
ENDBRANCH  13  19
ENDBRANCH   7  12
ENDBRANCH   3   6
ENDBRANCH   1   2
BRANCH   1  23
ATOM     23  C   UNL A   1      32.082  28.383  25.552  1.00  0.00     0.042 C 
BRANCH  23  24
ATOM     24  C   UNL A   1      33.270  29.341  25.480  1.00  0.00     0.118 C 
BRANCH  24  25
ATOM     25  N   UNL A   1      32.896  30.692  25.874  1.00  0.00    -0.352 N 
ATOM     26  C   UNL A   1      33.323  31.473  26.913  1.00  0.00     0.251 C 
ATOM     27  H   UNL A   1      32.222  31.115  25.294  1.00  0.00     0.163 HD
ATOM     28  O   UNL A   1      32.672  32.469  27.217  1.00  0.00    -0.269 OA
BRANCH  26  29
ATOM     29  C   UNL A   1      34.550  31.143  27.672  1.00  0.00     0.039 A 
ATOM     30  C   UNL A   1      34.634  29.889  28.283  1.00  0.00     0.014 A 
ATOM     31  C   UNL A   1      35.578  32.074  27.852  1.00  0.00     0.014 A 
ATOM     32  C   UNL A   1      35.759  29.556  29.038  1.00  0.00     0.010 A 
ATOM     33  C   UNL A   1      36.737  31.712  28.538  1.00  0.00     0.010 A 
ATOM     34  C   UNL A   1      36.835  30.454  29.146  1.00  0.00    -0.014 A 
BRANCH  34  35
ATOM     35  C   UNL A   1      38.066  30.063  29.878  1.00  0.00     0.031 A 
ATOM     36  C   UNL A   1      38.324  30.552  31.276  1.00  0.00     0.074 A 
ATOM     37  C   UNL A   1      38.971  29.281  29.258  1.00  0.00     0.049 A 
ATOM     38  N   UNL A   1      39.328  30.285  32.073  1.00  0.00    -0.248 NA
ATOM     39  C   UNL A   1      37.339  31.484  31.846  1.00  0.00     0.031 C 
ATOM     40  C   UNL A   1      38.863  28.802  27.878  1.00  0.00     0.029 A 
ATOM     41  N   UNL A   1      40.155  28.749  29.703  1.00  0.00    -0.354 N 
ATOM     42  C   UNL A   1      39.101  31.018  33.231  1.00  0.00     0.074 A 
ATOM     43  C   UNL A   1      37.896  31.788  33.011  1.00  0.00     0.031 C 
ATOM     44  C   UNL A   1      39.914  28.015  27.603  1.00  0.00     0.029 A 
ATOM     45  C   UNL A   1      40.786  27.963  28.771  1.00  0.00     0.049 A 
ATOM     46  H   UNL A   1      40.516  28.916  30.604  1.00  0.00     0.167 HD
ATOM     47  C   UNL A   1      39.820  31.029  34.380  1.00  0.00     0.037 A 
ATOM     48  C   UNL A   1      41.939  27.272  28.851  1.00  0.00     0.037 A 
ATOM     49  C   UNL A   1      41.013  30.250  34.592  1.00  0.00     0.049 A 
ATOM     50  C   UNL A   1      42.707  27.286  30.144  1.00  0.00     0.074 A 
ATOM     51  C   UNL A   1      41.782  30.141  35.738  1.00  0.00     0.029 A 
ATOM     52  N   UNL A   1      41.617  29.450  33.632  1.00  0.00    -0.354 N 
ATOM     53  N   UNL A   1      42.436  27.914  31.262  1.00  0.00    -0.248 NA
ATOM     54  C   UNL A   1      43.933  26.480  30.189  1.00  0.00     0.031 C 
ATOM     55  C   UNL A   1      42.880  29.324  35.453  1.00  0.00     0.029 A 
ATOM     56  C   UNL A   1      42.763  28.866  34.151  1.00  0.00     0.049 A 
ATOM     57  H   UNL A   1      41.280  29.318  32.716  1.00  0.00     0.167 HD
ATOM     58  C   UNL A   1      43.440  27.560  32.152  1.00  0.00     0.074 A 
ATOM     59  C   UNL A   1      44.312  26.641  31.448  1.00  0.00     0.031 C 
ATOM     60  C   UNL A   1      43.624  27.958  33.436  1.00  0.00     0.037 A 
BRANCH  47  61
ATOM     61  C   UNL A   1      39.337  31.916  35.494  1.00  0.00     0.064 A 
ATOM     62  C   UNL A   1      38.467  31.446  36.491  1.00  0.00     0.173 A 
ATOM     63  C   UNL A   1      39.777  33.246  35.589  1.00  0.00     0.173 A 
ATOM     64  F   UNL A   1      38.008  30.186  36.447  1.00  0.00    -0.203 F 
ATOM     65  C   UNL A   1      38.029  32.281  37.516  1.00  0.00     0.198 A 
ATOM     66  C   UNL A   1      39.365  34.068  36.634  1.00  0.00     0.198 A 
ATOM     67  F   UNL A   1      40.615  33.748  34.669  1.00  0.00    -0.203 F 
ATOM     68  F   UNL A   1      37.154  31.824  38.422  1.00  0.00    -0.200 F 
ATOM     69  C   UNL A   1      38.483  33.589  37.591  1.00  0.00     0.200 A 
ATOM     70  F   UNL A   1      39.817  35.327  36.713  1.00  0.00    -0.200 F 
ATOM     71  F   UNL A   1      38.067  34.389  38.582  1.00  0.00    -0.200 F 
ENDBRANCH  47  61
BRANCH  48  72
ATOM     72  C   UNL A   1      42.409  26.482  27.684  1.00  0.00     0.064 A 
ATOM     73  C   UNL A   1      43.363  27.000  26.798  1.00  0.00     0.173 A 
ATOM     74  C   UNL A   1      41.924  25.189  27.437  1.00  0.00     0.173 A 
ATOM     75  F   UNL A   1      43.847  28.237  26.981  1.00  0.00    -0.203 F 
ATOM     76  C   UNL A   1      43.798  26.264  25.697  1.00  0.00     0.198 A 
ATOM     77  C   UNL A   1      42.384  24.441  26.355  1.00  0.00     0.198 A 
ATOM     78  F   UNL A   1      41.018  24.642  28.261  1.00  0.00    -0.203 F 
ATOM     79  F   UNL A   1      44.677  26.801  24.839  1.00  0.00    -0.200 F 
ATOM     80  C   UNL A   1      43.313  24.983  25.480  1.00  0.00     0.200 A 
ATOM     81  F   UNL A   1      41.928  23.196  26.162  1.00  0.00    -0.200 F 
ATOM     82  F   UNL A   1      43.739  24.272  24.427  1.00  0.00    -0.200 F 
ENDBRANCH  48  72
BRANCH  60  83
ATOM     83  C   UNL A   1      44.797  27.371  34.169  1.00  0.00     0.064 A 
ATOM     84  C   UNL A   1      46.050  28.001  34.190  1.00  0.00     0.173 A 
ATOM     85  C   UNL A   1      44.662  26.160  34.867  1.00  0.00     0.173 A 
ATOM     86  F   UNL A   1      46.237  29.153  33.527  1.00  0.00    -0.203 F 
ATOM     87  C   UNL A   1      47.135  27.419  34.840  1.00  0.00     0.198 A 
ATOM     88  C   UNL A   1      45.738  25.601  35.548  1.00  0.00     0.198 A 
ATOM     89  F   UNL A   1      43.483  25.519  34.889  1.00  0.00    -0.203 F 
ATOM     90  F   UNL A   1      48.340  28.004  34.785  1.00  0.00    -0.200 F 
ATOM     91  C   UNL A   1      46.976  26.223  35.524  1.00  0.00     0.200 A 
ATOM     92  F   UNL A   1      45.579  24.453  36.222  1.00  0.00    -0.200 F 
ATOM     93  F   UNL A   1      48.022  25.663  36.147  1.00  0.00    -0.200 F 
ENDBRANCH  60  83
ENDBRANCH  34  35
ENDBRANCH  26  29
ENDBRANCH  24  25
ENDBRANCH  23  24
ENDBRANCH   1  23
TORSDOF 13
ENDMDL
MODEL 2
REMARK VINA RESULT:     -12.6      0.291      1.332
REMARK SMILES COC(=O)c1ccc(Cl)c(-c2ccc(C(=O)NCCCNC(=O)c3ccc(-c4c5nc(c(-c6c(F)c(F)c(F)c(F)c6F)c6ccc([nH]6)c(-c6c(F)c(F)c(F)c(F)c6F)c6nc(c(-c7c(F)c(F)c(F)c(F)c7F)c7ccc4[nH]7)C=C6)C=C5)cc3)nc2)c1
REMARK SMILES IDX 18 1 17 2 15 3 16 4 14 6 11 7 12 8 88 9 13 10 87 11 10 12
REMARK SMILES IDX 5 13 6 14 89 15 7 16 8 17 9 18 3 19 4 20 2 21 1 22 19 23
REMARK SMILES IDX 20 24 21 25 22 26 23 28 24 29 25 30 86 31 26 32 85 33 27 34
REMARK SMILES IDX 28 35 29 36 79 37 30 38 84 39 78 40 80 41 31 42 83 43 77 44
REMARK SMILES IDX 76 45 32 47 64 48 44 49 63 50 45 51 48 52 62 53 81 54 46 55
REMARK SMILES IDX 47 56 61 58 82 59 49 60 33 61 34 62 42 63 35 64 36 65 40 66
REMARK SMILES IDX 43 67 37 68 38 69 41 70 39 71 65 72 66 73 74 74 67 75 68 76
REMARK SMILES IDX 72 77 75 78 69 79 70 80 73 81 71 82 50 83 51 84 59 85 52 86
REMARK SMILES IDX 53 87 57 88 60 89 54 90 55 91 58 92 56 93
REMARK H PARENT 17 5 21 27 80 46 48 57
REMARK Flexibility Score: inf
ROOT
ATOM      1  C   UNL A   1      31.277  28.102  24.217  1.00  0.00     0.118 C 
ENDROOT
BRANCH   1   2
ATOM      2  N   UNL A   1      32.298  28.342  23.216  1.00  0.00    -0.351 N 
ATOM      3  C   UNL A   1      33.334  27.571  22.737  1.00  0.00     0.269 C 
ATOM      4  O   UNL A   1      34.005  28.072  21.830  1.00  0.00    -0.268 OA
ATOM      5  H   UNL A   1      32.238  29.230  22.795  1.00  0.00     0.163 HD
BRANCH   3   6
ATOM      6  C   UNL A   1      33.657  26.190  23.243  1.00  0.00     0.128 A 
ATOM      7  C   UNL A   1      34.218  23.568  23.966  1.00  0.00     0.002 A 
ATOM      8  C   UNL A   1      34.253  24.583  24.922  1.00  0.00     0.013 A 
ATOM      9  C   UNL A   1      33.924  23.953  22.663  1.00  0.00     0.120 A 
ATOM     10  C   UNL A   1      33.997  25.904  24.557  1.00  0.00     0.035 A 
ATOM     11  N   UNL A   1      33.635  25.222  22.288  1.00  0.00    -0.250 NA
BRANCH   7  12
ATOM     12  C   UNL A   1      34.535  22.185  24.331  1.00  0.00     0.003 A 
ATOM     13  C   UNL A   1      33.782  19.871  24.548  1.00  0.00     0.060 A 
ATOM     14  C   UNL A   1      35.077  19.468  24.884  1.00  0.00     0.017 A 
ATOM     15  C   UNL A   1      33.518  21.217  24.263  1.00  0.00     0.026 A 
ATOM     16  C   UNL A   1      36.098  20.416  24.961  1.00  0.00     0.022 A 
ATOM     17  C   UNL A   1      35.829  21.763  24.697  1.00  0.00     0.048 A 
ATOM     18  Cl  UNL A   1      37.144  22.879  24.845  1.00  0.00    -0.084 Cl
BRANCH  13  19
ATOM     19  C   UNL A   1      32.656  18.912  24.470  1.00  0.00     0.337 C 
ATOM     20  O   UNL A   1      31.952  18.778  23.489  1.00  0.00    -0.246 OA
BRANCH  19  21
ATOM     21  O   UNL A   1      32.500  18.310  25.676  1.00  0.00    -0.465 OA
ATOM     22  C   UNL A   1      32.637  16.890  25.631  1.00  0.00     0.282 C 
ENDBRANCH  19  21
ENDBRANCH  13  19
ENDBRANCH   7  12
ENDBRANCH   3   6
ENDBRANCH   1   2
BRANCH   1  23
ATOM     23  C   UNL A   1      31.725  28.607  25.590  1.00  0.00     0.042 C 
BRANCH  23  24
ATOM     24  C   UNL A   1      32.981  29.476  25.537  1.00  0.00     0.118 C 
BRANCH  24  25
ATOM     25  N   UNL A   1      32.708  30.841  25.964  1.00  0.00    -0.352 N 
ATOM     26  C   UNL A   1      33.221  31.575  26.999  1.00  0.00     0.251 C 
ATOM     27  H   UNL A   1      32.043  31.316  25.415  1.00  0.00     0.163 HD
ATOM     28  O   UNL A   1      32.646  32.606  27.341  1.00  0.00    -0.269 OA
BRANCH  26  29
ATOM     29  C   UNL A   1      34.450  31.156  27.708  1.00  0.00     0.039 A 
ATOM     30  C   UNL A   1      35.428  32.121  27.965  1.00  0.00     0.014 A 
ATOM     31  C   UNL A   1      34.684  29.821  28.051  1.00  0.00     0.014 A 
ATOM     32  C   UNL A   1      36.617  31.756  28.597  1.00  0.00     0.010 A 
ATOM     33  C   UNL A   1      35.835  29.472  28.756  1.00  0.00     0.010 A 
ATOM     34  C   UNL A   1      36.818  30.433  29.027  1.00  0.00    -0.014 A 
BRANCH  34  35
ATOM     35  C   UNL A   1      38.046  30.067  29.776  1.00  0.00     0.031 A 
ATOM     36  C   UNL A   1      38.278  30.569  31.175  1.00  0.00     0.074 A 
ATOM     37  C   UNL A   1      38.971  29.296  29.172  1.00  0.00     0.049 A 
ATOM     38  N   UNL A   1      39.276  30.323  31.986  1.00  0.00    -0.248 NA
ATOM     39  C   UNL A   1      37.271  31.488  31.726  1.00  0.00     0.031 C 
ATOM     40  C   UNL A   1      38.889  28.807  27.795  1.00  0.00     0.029 A 
ATOM     41  N   UNL A   1      40.158  28.787  29.636  1.00  0.00    -0.354 N 
ATOM     42  C   UNL A   1      39.022  31.059  33.136  1.00  0.00     0.074 A 
ATOM     43  C   UNL A   1      37.808  31.808  32.896  1.00  0.00     0.031 C 
ATOM     44  C   UNL A   1      39.956  28.035  27.538  1.00  0.00     0.029 A 
ATOM     45  C   UNL A   1      40.814  28.004  28.717  1.00  0.00     0.049 A 
ATOM     46  H   UNL A   1      40.505  28.964  30.540  1.00  0.00     0.167 HD
ATOM     47  C   UNL A   1      39.726  31.090  34.293  1.00  0.00     0.037 A 
ATOM     48  C   UNL A   1      41.976  27.333  28.816  1.00  0.00     0.037 A 
ATOM     49  C   UNL A   1      40.929  30.331  34.526  1.00  0.00     0.049 A 
ATOM     50  C   UNL A   1      42.727  27.368  30.119  1.00  0.00     0.074 A 
ATOM     51  C   UNL A   1      41.685  30.242  35.682  1.00  0.00     0.029 A 
ATOM     52  N   UNL A   1      41.558  29.536  33.579  1.00  0.00    -0.354 N 
ATOM     53  N   UNL A   1      42.432  27.998  31.229  1.00  0.00    -0.248 NA
ATOM     54  C   UNL A   1      43.966  26.582  30.185  1.00  0.00     0.031 C 
ATOM     55  C   UNL A   1      42.800  29.441  35.417  1.00  0.00     0.029 A 
ATOM     56  C   UNL A   1      42.706  28.974  34.116  1.00  0.00     0.049 A 
ATOM     57  H   UNL A   1      41.236  29.392  32.660  1.00  0.00     0.167 HD
ATOM     58  C   UNL A   1      43.430  27.667  32.134  1.00  0.00     0.074 A 
ATOM     59  C   UNL A   1      44.326  26.758  31.447  1.00  0.00     0.031 C 
ATOM     60  C   UNL A   1      43.591  28.075  33.418  1.00  0.00     0.037 A 
BRANCH  47  61
ATOM     61  C   UNL A   1      39.215  31.976  35.396  1.00  0.00     0.064 A 
ATOM     62  C   UNL A   1      38.421  31.475  36.441  1.00  0.00     0.173 A 
ATOM     63  C   UNL A   1      39.551  33.338  35.430  1.00  0.00     0.173 A 
ATOM     64  F   UNL A   1      38.062  30.183  36.455  1.00  0.00    -0.203 F 
ATOM     65  C   UNL A   1      37.955  32.310  37.454  1.00  0.00     0.198 A 
ATOM     66  C   UNL A   1      39.113  34.162  36.463  1.00  0.00     0.198 A 
ATOM     67  F   UNL A   1      40.314  33.870  34.463  1.00  0.00    -0.203 F 
ATOM     68  F   UNL A   1      37.152  31.818  38.408  1.00  0.00    -0.200 F 
ATOM     69  C   UNL A   1      38.307  33.650  37.468  1.00  0.00     0.200 A 
ATOM     70  F   UNL A   1      39.467  35.455  36.483  1.00  0.00    -0.200 F 
ATOM     71  F   UNL A   1      37.864  34.451  38.448  1.00  0.00    -0.200 F 
ENDBRANCH  47  61
BRANCH  48  72
ATOM     72  C   UNL A   1      42.474  26.543  27.660  1.00  0.00     0.064 A 
ATOM     73  C   UNL A   1      42.009  25.243  27.420  1.00  0.00     0.173 A 
ATOM     74  C   UNL A   1      43.413  27.076  26.765  1.00  0.00     0.173 A 
ATOM     75  F   UNL A   1      41.122  24.683  28.256  1.00  0.00    -0.203 F 
ATOM     76  C   UNL A   1      42.482  24.497  26.342  1.00  0.00     0.198 A 
ATOM     77  C   UNL A   1      43.860  26.341  25.669  1.00  0.00     0.198 A 
ATOM     78  F   UNL A   1      43.881  28.320  26.943  1.00  0.00    -0.203 F 
ATOM     79  F   UNL A   1      42.056  23.239  26.162  1.00  0.00    -0.200 F 
ATOM     80  C   UNL A   1      43.401  25.049  25.464  1.00  0.00     0.200 A 
ATOM     81  F   UNL A   1      44.732  26.887  24.810  1.00  0.00    -0.200 F 
ATOM     82  F   UNL A   1      43.848  24.335  24.421  1.00  0.00    -0.200 F 
ENDBRANCH  48  72
BRANCH  60  83
ATOM     83  C   UNL A   1      44.764  27.512  34.169  1.00  0.00     0.064 A 
ATOM     84  C   UNL A   1      46.011  28.156  34.191  1.00  0.00     0.173 A 
ATOM     85  C   UNL A   1      44.636  26.310  34.884  1.00  0.00     0.173 A 
ATOM     86  F   UNL A   1      46.190  29.299  33.513  1.00  0.00    -0.203 F 
ATOM     87  C   UNL A   1      47.096  27.595  34.859  1.00  0.00     0.198 A 
ATOM     88  C   UNL A   1      45.713  25.773  35.583  1.00  0.00     0.198 A 
ATOM     89  F   UNL A   1      43.465  25.657  34.907  1.00  0.00    -0.203 F 
ATOM     90  F   UNL A   1      48.295  28.192  34.805  1.00  0.00    -0.200 F 
ATOM     91  C   UNL A   1      46.944  26.408  35.559  1.00  0.00     0.200 A 
ATOM     92  F   UNL A   1      45.560  24.634  36.273  1.00  0.00    -0.200 F 
ATOM     93  F   UNL A   1      47.991  25.869  36.200  1.00  0.00    -0.200 F 
ENDBRANCH  60  83
ENDBRANCH  34  35
ENDBRANCH  26  29
ENDBRANCH  24  25
ENDBRANCH  23  24
ENDBRANCH   1  23
TORSDOF 13
ENDMDL
MODEL 3
REMARK VINA RESULT:     -12.5      4.780      7.960
REMARK SMILES COC(=O)c1ccc(Cl)c(-c2ccc(C(=O)NCCCNC(=O)c3ccc(-c4c5nc(c(-c6c(F)c(F)c(F)c(F)c6F)c6ccc([nH]6)c(-c6c(F)c(F)c(F)c(F)c6F)c6nc(c(-c7c(F)c(F)c(F)c(F)c7F)c7ccc4[nH]7)C=C6)C=C5)cc3)nc2)c1
REMARK SMILES IDX 18 1 17 2 15 3 16 4 14 6 11 7 12 8 88 9 13 10 87 11 10 12
REMARK SMILES IDX 5 13 6 14 89 15 7 16 8 17 9 18 3 19 4 20 2 21 1 22 19 23
REMARK SMILES IDX 20 24 21 25 22 26 23 28 24 29 25 30 86 31 26 32 85 33 27 34
REMARK SMILES IDX 28 35 29 36 79 37 30 38 84 39 78 40 80 41 31 42 83 43 77 44
REMARK SMILES IDX 76 45 32 47 64 48 44 49 63 50 45 51 48 52 62 53 81 54 46 55
REMARK SMILES IDX 47 56 61 58 82 59 49 60 33 61 34 62 42 63 35 64 36 65 40 66
REMARK SMILES IDX 43 67 37 68 38 69 41 70 39 71 65 72 66 73 74 74 67 75 68 76
REMARK SMILES IDX 72 77 75 78 69 79 70 80 73 81 71 82 50 83 51 84 59 85 52 86
REMARK SMILES IDX 53 87 57 88 60 89 54 90 55 91 58 92 56 93
REMARK H PARENT 17 5 21 27 80 46 48 57
REMARK Flexibility Score: inf
ROOT
ATOM      1  C   UNL A   1      34.179  35.217  28.855  1.00  0.00     0.118 C 
ENDROOT
BRANCH   1   2
ATOM      2  N   UNL A   1      33.246  35.651  29.877  1.00  0.00    -0.351 N 
ATOM      3  C   UNL A   1      33.227  35.502  31.246  1.00  0.00     0.269 C 
ATOM      4  O   UNL A   1      32.289  36.045  31.834  1.00  0.00    -0.268 OA
ATOM      5  H   UNL A   1      32.476  36.152  29.522  1.00  0.00     0.163 HD
BRANCH   3   6
ATOM      6  C   UNL A   1      34.273  34.748  32.023  1.00  0.00     0.128 A 
ATOM      7  C   UNL A   1      36.076  33.176  33.433  1.00  0.00     0.002 A 
ATOM      8  C   UNL A   1      36.331  34.533  33.239  1.00  0.00     0.013 A 
ATOM      9  C   UNL A   1      34.910  32.675  32.863  1.00  0.00     0.120 A 
ATOM     10  C   UNL A   1      35.440  35.319  32.509  1.00  0.00     0.035 A 
ATOM     11  N   UNL A   1      34.011  33.423  32.182  1.00  0.00    -0.250 NA
BRANCH   7  12
ATOM     12  C   UNL A   1      37.031  32.331  34.155  1.00  0.00     0.003 A 
ATOM     13  C   UNL A   1      38.605  30.463  34.100  1.00  0.00     0.060 A 
ATOM     14  C   UNL A   1      38.986  30.728  35.418  1.00  0.00     0.017 A 
ATOM     15  C   UNL A   1      37.645  31.266  33.472  1.00  0.00     0.026 A 
ATOM     16  C   UNL A   1      38.384  31.778  36.113  1.00  0.00     0.022 A 
ATOM     17  C   UNL A   1      37.409  32.566  35.492  1.00  0.00     0.048 A 
ATOM     18  Cl  UNL A   1      36.690  33.829  36.434  1.00  0.00    -0.084 Cl
BRANCH  13  19
ATOM     19  C   UNL A   1      39.196  29.350  33.321  1.00  0.00     0.337 C 
ATOM     20  O   UNL A   1      38.541  28.460  32.817  1.00  0.00    -0.246 OA
BRANCH  19  21
ATOM     21  O   UNL A   1      40.548  29.450  33.357  1.00  0.00    -0.465 OA
ATOM     22  C   UNL A   1      41.210  28.208  33.599  1.00  0.00     0.282 C 
ENDBRANCH  19  21
ENDBRANCH  13  19
ENDBRANCH   7  12
ENDBRANCH   3   6
ENDBRANCH   1   2
BRANCH   1  23
ATOM     23  C   UNL A   1      33.710  33.918  28.199  1.00  0.00     0.042 C 
BRANCH  23  24
ATOM     24  C   UNL A   1      34.459  32.682  28.696  1.00  0.00     0.118 C 
BRANCH  24  25
ATOM     25  N   UNL A   1      33.826  31.452  28.241  1.00  0.00    -0.352 N 
ATOM     26  C   UNL A   1      34.367  30.246  27.882  1.00  0.00     0.251 C 
ATOM     27  H   UNL A   1      32.845  31.493  28.184  1.00  0.00     0.163 HD
ATOM     28  O   UNL A   1      33.672  29.441  27.268  1.00  0.00    -0.269 OA
BRANCH  26  29
ATOM     29  C   UNL A   1      35.764  29.896  28.220  1.00  0.00     0.039 A 
ATOM     30  C   UNL A   1      36.746  30.063  27.239  1.00  0.00     0.014 A 
ATOM     31  C   UNL A   1      36.106  29.336  29.455  1.00  0.00     0.014 A 
ATOM     32  C   UNL A   1      38.067  29.708  27.508  1.00  0.00     0.010 A 
ATOM     33  C   UNL A   1      37.439  29.059  29.752  1.00  0.00     0.010 A 
ATOM     34  C   UNL A   1      38.432  29.232  28.778  1.00  0.00    -0.014 A 
BRANCH  34  35
ATOM     35  C   UNL A   1      39.853  28.937  29.089  1.00  0.00     0.031 A 
ATOM     36  C   UNL A   1      40.691  29.907  29.876  1.00  0.00     0.074 A 
ATOM     37  C   UNL A   1      40.396  27.794  28.627  1.00  0.00     0.049 A 
ATOM     38  N   UNL A   1      41.936  29.797  30.265  1.00  0.00    -0.248 NA
ATOM     39  C   UNL A   1      40.055  31.177  30.256  1.00  0.00     0.031 C 
ATOM     40  C   UNL A   1      39.703  26.810  27.794  1.00  0.00     0.029 A 
ATOM     41  N   UNL A   1      41.651  27.264  28.794  1.00  0.00    -0.354 N 
ATOM     42  C   UNL A   1      42.235  30.981  30.925  1.00  0.00     0.074 A 
ATOM     43  C   UNL A   1      41.060  31.821  30.834  1.00  0.00     0.031 C 
ATOM     44  C   UNL A   1      40.526  25.777  27.557  1.00  0.00     0.029 A 
ATOM     45  C   UNL A   1      41.814  26.042  28.188  1.00  0.00     0.049 A 
ATOM     46  H   UNL A   1      42.366  27.716  29.299  1.00  0.00     0.167 HD
ATOM     47  C   UNL A   1      43.377  31.327  31.569  1.00  0.00     0.037 A 
ATOM     48  C   UNL A   1      42.882  25.224  28.150  1.00  0.00     0.037 A 
ATOM     49  C   UNL A   1      44.537  30.478  31.664  1.00  0.00     0.049 A 
ATOM     50  C   UNL A   1      44.130  25.622  28.889  1.00  0.00     0.074 A 
ATOM     51  C   UNL A   1      45.722  30.706  32.342  1.00  0.00     0.029 A 
ATOM     52  N   UNL A   1      44.663  29.239  31.052  1.00  0.00    -0.354 N 
ATOM     53  N   UNL A   1      44.370  26.707  29.584  1.00  0.00    -0.248 NA
ATOM     54  C   UNL A   1      45.249  24.672  28.851  1.00  0.00     0.031 C 
ATOM     55  C   UNL A   1      46.583  29.632  32.094  1.00  0.00     0.029 A 
ATOM     56  C   UNL A   1      45.914  28.702  31.316  1.00  0.00     0.049 A 
ATOM     57  H   UNL A   1      43.965  28.805  30.509  1.00  0.00     0.167 HD
ATOM     58  C   UNL A   1      45.655  26.560  30.088  1.00  0.00     0.074 A 
ATOM     59  C   UNL A   1      46.132  25.268  29.638  1.00  0.00     0.031 C 
ATOM     60  C   UNL A   1      46.376  27.416  30.856  1.00  0.00     0.037 A 
BRANCH  47  61
ATOM     61  C   UNL A   1      43.428  32.683  32.217  1.00  0.00     0.064 A 
ATOM     62  C   UNL A   1      43.889  33.816  31.527  1.00  0.00     0.173 A 
ATOM     63  C   UNL A   1      42.978  32.861  33.534  1.00  0.00     0.173 A 
ATOM     64  F   UNL A   1      44.339  33.703  30.268  1.00  0.00    -0.203 F 
ATOM     65  C   UNL A   1      43.932  35.065  32.143  1.00  0.00     0.198 A 
ATOM     66  C   UNL A   1      42.989  34.117  34.135  1.00  0.00     0.198 A 
ATOM     67  F   UNL A   1      42.519  31.816  34.239  1.00  0.00    -0.203 F 
ATOM     68  F   UNL A   1      44.430  36.119  31.481  1.00  0.00    -0.200 F 
ATOM     69  C   UNL A   1      43.475  35.216  33.443  1.00  0.00     0.200 A 
ATOM     70  F   UNL A   1      42.533  34.264  35.386  1.00  0.00    -0.200 F 
ATOM     71  F   UNL A   1      43.510  36.420  34.031  1.00  0.00    -0.200 F 
ENDBRANCH  47  61
BRANCH  48  72
ATOM     72  C   UNL A   1      42.798  23.933  27.419  1.00  0.00     0.064 A 
ATOM     73  C   UNL A   1      42.306  22.779  28.044  1.00  0.00     0.173 A 
ATOM     74  C   UNL A   1      43.195  23.829  26.078  1.00  0.00     0.173 A 
ATOM     75  F   UNL A   1      41.927  22.823  29.330  1.00  0.00    -0.203 F 
ATOM     76  C   UNL A   1      42.235  21.566  27.363  1.00  0.00     0.198 A 
ATOM     77  C   UNL A   1      43.093  22.623  25.388  1.00  0.00     0.198 A 
ATOM     78  F   UNL A   1      43.663  24.906  25.430  1.00  0.00    -0.203 F 
ATOM     79  F   UNL A   1      41.804  20.467  27.999  1.00  0.00    -0.200 F 
ATOM     80  C   UNL A   1      42.622  21.490  26.034  1.00  0.00     0.200 A 
ATOM     81  F   UNL A   1      43.448  22.559  24.098  1.00  0.00    -0.200 F 
ATOM     82  F   UNL A   1      42.545  20.325  25.377  1.00  0.00    -0.200 F 
ENDBRANCH  48  72
BRANCH  60  83
ATOM     83  C   UNL A   1      47.743  26.962  31.282  1.00  0.00     0.064 A 
ATOM     84  C   UNL A   1      47.941  26.178  32.429  1.00  0.00     0.173 A 
ATOM     85  C   UNL A   1      48.873  27.314  30.526  1.00  0.00     0.173 A 
ATOM     86  F   UNL A   1      46.897  25.826  33.193  1.00  0.00    -0.203 F 
ATOM     87  C   UNL A   1      49.221  25.804  32.829  1.00  0.00     0.198 A 
ATOM     88  C   UNL A   1      50.147  26.904  30.908  1.00  0.00     0.198 A 
ATOM     89  F   UNL A   1      48.742  28.053  29.415  1.00  0.00    -0.203 F 
ATOM     90  F   UNL A   1      49.391  25.116  33.967  1.00  0.00    -0.200 F 
ATOM     91  C   UNL A   1      50.322  26.162  32.065  1.00  0.00     0.200 A 
ATOM     92  F   UNL A   1      51.209  27.238  30.160  1.00  0.00    -0.200 F 
ATOM     93  F   UNL A   1      51.553  25.802  32.453  1.00  0.00    -0.200 F 
ENDBRANCH  60  83
ENDBRANCH  34  35
ENDBRANCH  26  29
ENDBRANCH  24  25
ENDBRANCH  23  24
ENDBRANCH   1  23
TORSDOF 13
ENDMDL
