MODEL 1
REMARK VINA RESULT:     -13.8      0.000      0.000
REMARK SMILES CN1C(=O)C[C@H](C(=O)NCCCNC(=O)c2ccc(-c3c4nc(c(-c5c(F)c(F)c(F)c(F)c5F)c5ccc([nH]5)c(-c5c(F)c(F)c(F)c(F)c5F)c5nc(c(-c6c(F)c(F)c(F)c(F)c6F)c6ccc3[nH]6)C=C5)C=C4)cc2)C12CC[NH+](Cc1ccc(Cl)c(F)c1)CC2
REMARK SMILES IDX 11 1 10 2 9 3 7 4 8 5 6 7 1 8 2 9 3 10 79 11 4 12 5 13 80 14
REMARK SMILES IDX 93 15 81 16 92 17 82 18 83 20 84 21 85 22 91 23 86 24 89 25
REMARK SMILES IDX 87 26 90 27 88 28 12 29 13 30 14 31 15 33 16 34 17 35 78 36
REMARK SMILES IDX 18 37 77 38 19 39 20 40 21 41 71 42 22 43 76 44 70 45 72 46
REMARK SMILES IDX 23 47 75 48 69 49 68 50 24 52 56 53 36 54 55 55 37 56 40 57
REMARK SMILES IDX 54 58 73 59 38 60 39 61 53 63 74 64 41 65 25 66 26 67 34 68
REMARK SMILES IDX 27 69 28 70 32 71 35 72 29 73 30 74 33 75 31 76 57 77 58 78
REMARK SMILES IDX 66 79 59 80 60 81 64 82 67 83 61 84 62 85 65 86 63 87 42 88
REMARK SMILES IDX 43 89 51 90 44 91 45 92 49 93 52 94 46 95 47 96 50 97 48 98
REMARK H PARENT 9 6 82 19 13 32 72 51 40 62
REMARK Flexibility Score: inf
ROOT
ATOM      1  C   UNL A   1      31.362  32.021  26.995  1.00  0.00     0.042 C 
ENDROOT
BRANCH   1   2
ATOM      2  C   UNL A   1      31.543  30.832  26.071  1.00  0.00     0.117 C 
BRANCH   2   3
ATOM      3  N   UNL A   1      32.527  29.892  26.564  1.00  0.00    -0.356 N 
ATOM      4  C   UNL A   1      33.212  28.933  25.889  1.00  0.00     0.226 C 
ATOM      5  O   UNL A   1      34.288  28.610  26.383  1.00  0.00    -0.275 OA
ATOM      6  H   UNL A   1      32.728  29.957  27.524  1.00  0.00     0.163 HD
BRANCH   4   7
ATOM      7  C   UNL A   1      32.683  28.443  24.547  1.00  0.00     0.114 C 
ATOM      8  C   UNL A   1      32.940  25.538  22.131  1.00  0.00     0.147 C 
ATOM      9  N   UNL A   1      33.026  26.751  22.927  1.00  0.00    -0.339 N 
ATOM     10  C   UNL A   1      33.726  27.845  22.464  1.00  0.00     0.223 C 
ATOM     11  C   UNL A   1      32.476  26.908  24.304  1.00  0.00     0.065 C 
ATOM     12  O   UNL A   1      34.272  27.965  21.377  1.00  0.00    -0.275 OA
ATOM     13  C   UNL A   1      33.744  28.884  23.526  1.00  0.00     0.116 C 
ATOM     14  C   UNL A   1      30.971  26.507  24.282  1.00  0.00     0.091 C 
ATOM     15  C   UNL A   1      33.216  25.994  25.296  1.00  0.00     0.091 C 
ATOM     16  C   UNL A   1      30.331  26.281  25.650  1.00  0.00     0.265 C 
ATOM     17  C   UNL A   1      32.497  25.816  26.647  1.00  0.00     0.265 C 
ATOM     18  N   UNL A   1      31.097  25.428  26.544  1.00  0.00    -0.331 N 
ATOM     19  H   UNL A   1      30.688  25.649  27.451  1.00  0.00     0.348 HD
BRANCH  18  20
ATOM     20  C   UNL A   1      30.804  23.993  26.578  1.00  0.00     0.299 C 
BRANCH  20  21
ATOM     21  C   UNL A   1      31.901  23.070  26.095  1.00  0.00     0.009 A 
ATOM     22  C   UNL A   1      32.829  22.527  26.995  1.00  0.00     0.011 A 
ATOM     23  C   UNL A   1      31.959  22.680  24.747  1.00  0.00     0.050 A 
ATOM     24  C   UNL A   1      33.727  21.539  26.576  1.00  0.00     0.024 A 
ATOM     25  C   UNL A   1      32.825  21.666  24.346  1.00  0.00     0.142 A 
ATOM     26  C   UNL A   1      33.697  21.084  25.258  1.00  0.00     0.076 A 
ATOM     27  F   UNL A   1      32.745  21.217  23.085  1.00  0.00    -0.205 F 
ATOM     28  Cl  UNL A   1      34.698  19.762  24.796  1.00  0.00    -0.081 Cl
ENDBRANCH  20  21
ENDBRANCH  18  20
ENDBRANCH   4   7
ENDBRANCH   2   3
ENDBRANCH   1   2
BRANCH   1  29
ATOM     29  C   UNL A   1      32.627  32.828  27.249  1.00  0.00     0.118 C 
BRANCH  29  30
ATOM     30  N   UNL A   1      32.367  34.198  27.666  1.00  0.00    -0.352 N 
ATOM     31  C   UNL A   1      32.996  34.970  28.611  1.00  0.00     0.251 C 
ATOM     32  H   UNL A   1      31.624  34.641  27.196  1.00  0.00     0.163 HD
ATOM     33  O   UNL A   1      32.529  36.064  28.915  1.00  0.00    -0.269 OA
BRANCH  31  34
ATOM     34  C   UNL A   1      34.207  34.471  29.293  1.00  0.00     0.039 A 
ATOM     35  C   UNL A   1      34.057  33.793  30.504  1.00  0.00     0.014 A 
ATOM     36  C   UNL A   1      35.478  34.651  28.743  1.00  0.00     0.014 A 
ATOM     37  C   UNL A   1      35.174  33.232  31.121  1.00  0.00     0.010 A 
ATOM     38  C   UNL A   1      36.575  34.002  29.304  1.00  0.00     0.010 A 
ATOM     39  C   UNL A   1      36.435  33.289  30.502  1.00  0.00    -0.014 A 
BRANCH  39  40
ATOM     40  C   UNL A   1      37.597  32.584  31.100  1.00  0.00     0.031 A 
ATOM     41  C   UNL A   1      38.099  32.950  32.469  1.00  0.00     0.074 A 
ATOM     42  C   UNL A   1      38.218  31.623  30.388  1.00  0.00     0.049 A 
ATOM     43  N   UNL A   1      39.067  32.410  33.166  1.00  0.00    -0.248 NA
ATOM     44  C   UNL A   1      37.448  34.089  33.136  1.00  0.00     0.031 C 
ATOM     45  C   UNL A   1      37.872  31.230  29.020  1.00  0.00     0.029 A 
ATOM     46  N   UNL A   1      39.260  30.794  30.718  1.00  0.00    -0.354 N 
ATOM     47  C   UNL A   1      39.139  33.139  34.344  1.00  0.00     0.074 A 
ATOM     48  C   UNL A   1      38.167  34.205  34.242  1.00  0.00     0.031 C 
ATOM     49  C   UNL A   1      38.652  30.203  28.647  1.00  0.00     0.029 A 
ATOM     50  C   UNL A   1      39.576  29.890  29.731  1.00  0.00     0.049 A 
ATOM     51  H   UNL A   1      39.736  30.841  31.578  1.00  0.00     0.167 HD
ATOM     52  C   UNL A   1      39.924  32.921  35.427  1.00  0.00     0.037 A 
ATOM     53  C   UNL A   1      40.502  28.913  29.708  1.00  0.00     0.037 A 
ATOM     54  C   UNL A   1      40.883  31.851  35.529  1.00  0.00     0.049 A 
ATOM     55  C   UNL A   1      41.356  28.691  30.927  1.00  0.00     0.074 A 
ATOM     56  C   UNL A   1      41.683  31.507  36.604  1.00  0.00     0.029 A 
ATOM     57  N   UNL A   1      41.177  30.955  34.510  1.00  0.00    -0.354 N 
ATOM     58  N   UNL A   1      41.351  29.329  32.072  1.00  0.00    -0.248 NA
ATOM     59  C   UNL A   1      42.337  27.601  30.851  1.00  0.00     0.031 C 
ATOM     60  C   UNL A   1      42.504  30.443  36.216  1.00  0.00     0.029 A 
ATOM     61  C   UNL A   1      42.170  30.078  34.921  1.00  0.00     0.049 A 
ATOM     62  H   UNL A   1      40.745  30.944  33.625  1.00  0.00     0.167 HD
ATOM     63  C   UNL A   1      42.309  28.706  32.860  1.00  0.00     0.074 A 
ATOM     64  C   UNL A   1      42.850  27.619  32.072  1.00  0.00     0.031 C 
ATOM     65  C   UNL A   1      42.710  29.009  34.121  1.00  0.00     0.037 A 
BRANCH  52  66
ATOM     66  C   UNL A   1      39.774  33.857  36.593  1.00  0.00     0.064 A 
ATOM     67  C   UNL A   1      40.431  35.098  36.634  1.00  0.00     0.173 A 
ATOM     68  C   UNL A   1      38.933  33.529  37.668  1.00  0.00     0.173 A 
ATOM     69  F   UNL A   1      41.257  35.457  35.639  1.00  0.00    -0.203 F 
ATOM     70  C   UNL A   1      40.278  35.957  37.718  1.00  0.00     0.198 A 
ATOM     71  C   UNL A   1      38.755  34.406  38.735  1.00  0.00     0.198 A 
ATOM     72  F   UNL A   1      38.277  32.359  37.681  1.00  0.00    -0.203 F 
ATOM     73  F   UNL A   1      40.959  37.111  37.758  1.00  0.00    -0.200 F 
ATOM     74  C   UNL A   1      39.433  35.616  38.763  1.00  0.00     0.200 A 
ATOM     75  F   UNL A   1      37.927  34.081  39.737  1.00  0.00    -0.200 F 
ATOM     76  F   UNL A   1      39.279  36.449  39.802  1.00  0.00    -0.200 F 
ENDBRANCH  52  66
BRANCH  53  77
ATOM     77  C   UNL A   1      40.647  28.052  28.504  1.00  0.00     0.064 A 
ATOM     78  C   UNL A   1      41.450  28.448  27.424  1.00  0.00     0.173 A 
ATOM     79  C   UNL A   1      39.982  26.821  28.405  1.00  0.00     0.173 A 
ATOM     80  F   UNL A   1      42.093  29.625  27.464  1.00  0.00    -0.203 F 
ATOM     81  C   UNL A   1      41.557  27.661  26.280  1.00  0.00     0.198 A 
ATOM     82  C   UNL A   1      40.118  26.019  27.274  1.00  0.00     0.198 A 
ATOM     83  F   UNL A   1      39.209  26.391  29.413  1.00  0.00    -0.203 F 
ATOM     84  F   UNL A   1      42.286  28.090  25.241  1.00  0.00    -0.200 F 
ATOM     85  C   UNL A   1      40.897  26.444  26.209  1.00  0.00     0.200 A 
ATOM     86  F   UNL A   1      39.493  24.835  27.217  1.00  0.00    -0.200 F 
ATOM     87  F   UNL A   1      41.005  25.684  25.110  1.00  0.00    -0.200 F 
ENDBRANCH  53  77
BRANCH  65  88
ATOM     88  C   UNL A   1      43.773  28.136  34.724  1.00  0.00     0.064 A 
ATOM     89  C   UNL A   1      45.135  28.473  34.648  1.00  0.00     0.173 A 
ATOM     90  C   UNL A   1      43.429  26.946  35.383  1.00  0.00     0.173 A 
ATOM     91  F   UNL A   1      45.519  29.593  34.018  1.00  0.00    -0.203 F 
ATOM     92  C   UNL A   1      46.112  27.626  35.166  1.00  0.00     0.198 A 
ATOM     93  C   UNL A   1      44.407  26.122  35.934  1.00  0.00     0.198 A 
ATOM     94  F   UNL A   1      42.144  26.580  35.494  1.00  0.00    -0.203 F 
ATOM     95  F   UNL A   1      47.408  27.933  35.014  1.00  0.00    -0.200 F 
ATOM     96  C   UNL A   1      45.748  26.455  35.812  1.00  0.00     0.200 A 
ATOM     97  F   UNL A   1      44.052  24.999  36.573  1.00  0.00    -0.200 F 
ATOM     98  F   UNL A   1      46.690  25.640  36.306  1.00  0.00    -0.200 F 
ENDBRANCH  65  88
ENDBRANCH  39  40
ENDBRANCH  31  34
ENDBRANCH  29  30
ENDBRANCH   1  29
TORSDOF 12
ENDMDL
MODEL 2
REMARK VINA RESULT:     -13.8      0.067      1.559
REMARK SMILES CN1C(=O)C[C@H](C(=O)NCCCNC(=O)c2ccc(-c3c4nc(c(-c5c(F)c(F)c(F)c(F)c5F)c5ccc([nH]5)c(-c5c(F)c(F)c(F)c(F)c5F)c5nc(c(-c6c(F)c(F)c(F)c(F)c6F)c6ccc3[nH]6)C=C5)C=C4)cc2)C12CC[NH+](Cc1ccc(Cl)c(F)c1)CC2
REMARK SMILES IDX 11 1 10 2 9 3 7 4 8 5 6 7 1 8 2 9 3 10 79 11 4 12 5 13 80 14
REMARK SMILES IDX 93 15 81 16 92 17 82 18 83 20 84 21 85 22 91 23 86 24 89 25
REMARK SMILES IDX 87 26 90 27 88 28 12 29 13 30 14 31 15 33 16 34 17 35 78 36
REMARK SMILES IDX 18 37 77 38 19 39 20 40 21 41 71 42 22 43 76 44 70 45 72 46
REMARK SMILES IDX 23 47 75 48 69 49 68 50 24 52 56 53 36 54 55 55 37 56 40 57
REMARK SMILES IDX 54 58 73 59 38 60 39 61 53 63 74 64 41 65 25 66 26 67 34 68
REMARK SMILES IDX 27 69 28 70 32 71 35 72 29 73 30 74 33 75 31 76 57 77 58 78
REMARK SMILES IDX 66 79 59 80 60 81 64 82 67 83 61 84 62 85 65 86 63 87 42 88
REMARK SMILES IDX 43 89 51 90 44 91 45 92 49 93 52 94 46 95 47 96 50 97 48 98
REMARK H PARENT 9 6 82 19 13 32 72 51 40 62
REMARK Flexibility Score: inf
ROOT
ATOM      1  C   UNL A   1      31.328  32.032  26.927  1.00  0.00     0.042 C 
ENDROOT
BRANCH   1   2
ATOM      2  C   UNL A   1      31.523  30.842  26.007  1.00  0.00     0.117 C 
BRANCH   2   3
ATOM      3  N   UNL A   1      32.515  29.914  26.504  1.00  0.00    -0.356 N 
ATOM      4  C   UNL A   1      33.206  28.955  25.835  1.00  0.00     0.226 C 
ATOM      5  O   UNL A   1      34.286  28.645  26.328  1.00  0.00    -0.275 OA
ATOM      6  H   UNL A   1      32.719  29.988  27.464  1.00  0.00     0.163 HD
BRANCH   4   7
ATOM      7  C   UNL A   1      32.678  28.451  24.498  1.00  0.00     0.114 C 
ATOM      8  C   UNL A   1      32.950  25.529  22.104  1.00  0.00     0.147 C 
ATOM      9  N   UNL A   1      33.029  26.749  22.890  1.00  0.00    -0.339 N 
ATOM     10  C   UNL A   1      33.720  27.843  22.417  1.00  0.00     0.223 C 
ATOM     11  C   UNL A   1      32.481  26.913  24.267  1.00  0.00     0.065 C 
ATOM     12  O   UNL A   1      34.263  27.958  21.328  1.00  0.00    -0.275 OA
ATOM     13  C   UNL A   1      33.734  28.891  23.472  1.00  0.00     0.116 C 
ATOM     14  C   UNL A   1      30.979  26.501  24.252  1.00  0.00     0.091 C 
ATOM     15  C   UNL A   1      33.229  26.012  25.265  1.00  0.00     0.091 C 
ATOM     16  C   UNL A   1      30.343  26.282  25.624  1.00  0.00     0.265 C 
ATOM     17  C   UNL A   1      32.515  25.840  26.620  1.00  0.00     0.265 C 
ATOM     18  N   UNL A   1      31.117  25.441  26.522  1.00  0.00    -0.331 N 
ATOM     19  H   UNL A   1      30.709  25.667  27.429  1.00  0.00     0.348 HD
BRANCH  18  20
ATOM     20  C   UNL A   1      30.834  24.005  26.569  1.00  0.00     0.299 C 
BRANCH  20  21
ATOM     21  C   UNL A   1      31.930  23.086  26.075  1.00  0.00     0.009 A 
ATOM     22  C   UNL A   1      32.879  22.561  26.963  1.00  0.00     0.011 A 
ATOM     23  C   UNL A   1      31.966  22.682  24.730  1.00  0.00     0.050 A 
ATOM     24  C   UNL A   1      33.778  21.576  26.539  1.00  0.00     0.024 A 
ATOM     25  C   UNL A   1      32.834  21.672  24.324  1.00  0.00     0.142 A 
ATOM     26  C   UNL A   1      33.728  21.107  25.226  1.00  0.00     0.076 A 
ATOM     27  F   UNL A   1      32.734  21.208  23.070  1.00  0.00    -0.205 F 
ATOM     28  Cl  UNL A   1      34.731  19.789  24.760  1.00  0.00    -0.081 Cl
ENDBRANCH  20  21
ENDBRANCH  18  20
ENDBRANCH   4   7
ENDBRANCH   2   3
ENDBRANCH   1   2
BRANCH   1  29
ATOM     29  C   UNL A   1      32.591  32.834  27.207  1.00  0.00     0.118 C 
BRANCH  29  30
ATOM     30  N   UNL A   1      32.327  34.202  27.630  1.00  0.00    -0.352 N 
ATOM     31  C   UNL A   1      32.957  34.973  28.574  1.00  0.00     0.251 C 
ATOM     32  H   UNL A   1      31.580  34.643  27.165  1.00  0.00     0.163 HD
ATOM     33  O   UNL A   1      32.488  36.063  28.885  1.00  0.00    -0.269 OA
BRANCH  31  34
ATOM     34  C   UNL A   1      34.174  34.476  29.248  1.00  0.00     0.039 A 
ATOM     35  C   UNL A   1      34.037  33.836  30.481  1.00  0.00     0.014 A 
ATOM     36  C   UNL A   1      35.437  34.621  28.670  1.00  0.00     0.014 A 
ATOM     37  C   UNL A   1      35.158  33.277  31.094  1.00  0.00     0.010 A 
ATOM     38  C   UNL A   1      36.535  33.973  29.230  1.00  0.00     0.010 A 
ATOM     39  C   UNL A   1      36.407  33.298  30.450  1.00  0.00    -0.014 A 
BRANCH  39  40
ATOM     40  C   UNL A   1      37.571  32.593  31.048  1.00  0.00     0.031 A 
ATOM     41  C   UNL A   1      38.074  32.960  32.416  1.00  0.00     0.074 A 
ATOM     42  C   UNL A   1      38.191  31.631  30.335  1.00  0.00     0.049 A 
ATOM     43  N   UNL A   1      39.044  32.420  33.112  1.00  0.00    -0.248 NA
ATOM     44  C   UNL A   1      37.423  34.099  33.083  1.00  0.00     0.031 C 
ATOM     45  C   UNL A   1      37.844  31.238  28.968  1.00  0.00     0.029 A 
ATOM     46  N   UNL A   1      39.234  30.803  30.664  1.00  0.00    -0.354 N 
ATOM     47  C   UNL A   1      39.116  33.150  34.290  1.00  0.00     0.074 A 
ATOM     48  C   UNL A   1      38.143  34.216  34.187  1.00  0.00     0.031 C 
ATOM     49  C   UNL A   1      38.624  30.211  28.595  1.00  0.00     0.029 A 
ATOM     50  C   UNL A   1      39.549  29.899  29.678  1.00  0.00     0.049 A 
ATOM     51  H   UNL A   1      39.711  30.851  31.524  1.00  0.00     0.167 HD
ATOM     52  C   UNL A   1      39.902  32.933  35.372  1.00  0.00     0.037 A 
ATOM     53  C   UNL A   1      40.475  28.922  29.654  1.00  0.00     0.037 A 
ATOM     54  C   UNL A   1      40.862  31.863  35.473  1.00  0.00     0.049 A 
ATOM     55  C   UNL A   1      41.330  28.701  30.872  1.00  0.00     0.074 A 
ATOM     56  C   UNL A   1      41.664  31.521  36.547  1.00  0.00     0.029 A 
ATOM     57  N   UNL A   1      41.155  30.967  34.454  1.00  0.00    -0.354 N 
ATOM     58  N   UNL A   1      41.326  29.339  32.017  1.00  0.00    -0.248 NA
ATOM     59  C   UNL A   1      42.312  27.611  30.796  1.00  0.00     0.031 C 
ATOM     60  C   UNL A   1      42.485  30.456  36.159  1.00  0.00     0.029 A 
ATOM     61  C   UNL A   1      42.149  30.091  34.865  1.00  0.00     0.049 A 
ATOM     62  H   UNL A   1      40.722  30.955  33.570  1.00  0.00     0.167 HD
ATOM     63  C   UNL A   1      42.286  28.717  32.804  1.00  0.00     0.074 A 
ATOM     64  C   UNL A   1      42.827  27.630  32.016  1.00  0.00     0.031 C 
ATOM     65  C   UNL A   1      42.688  29.021  34.064  1.00  0.00     0.037 A 
BRANCH  52  66
ATOM     66  C   UNL A   1      39.754  33.870  36.538  1.00  0.00     0.064 A 
ATOM     67  C   UNL A   1      38.926  33.564  37.630  1.00  0.00     0.173 A 
ATOM     68  C   UNL A   1      40.476  35.072  36.583  1.00  0.00     0.173 A 
ATOM     69  F   UNL A   1      38.202  32.434  37.634  1.00  0.00    -0.203 F 
ATOM     70  C   UNL A   1      38.803  34.439  38.706  1.00  0.00     0.198 A 
ATOM     71  C   UNL A   1      40.377  35.929  37.677  1.00  0.00     0.198 A 
ATOM     72  F   UNL A   1      41.285  35.414  35.569  1.00  0.00    -0.203 F 
ATOM     73  F   UNL A   1      37.964  34.150  39.711  1.00  0.00    -0.200 F 
ATOM     74  C   UNL A   1      39.535  35.616  38.733  1.00  0.00     0.200 A 
ATOM     75  F   UNL A   1      41.098  37.059  37.708  1.00  0.00    -0.200 F 
ATOM     76  F   UNL A   1      39.423  36.453  39.774  1.00  0.00    -0.200 F 
ENDBRANCH  52  66
BRANCH  53  77
ATOM     77  C   UNL A   1      40.619  28.060  28.451  1.00  0.00     0.064 A 
ATOM     78  C   UNL A   1      39.985  26.812  28.375  1.00  0.00     0.173 A 
ATOM     79  C   UNL A   1      41.399  28.462  27.356  1.00  0.00     0.173 A 
ATOM     80  F   UNL A   1      39.243  26.375  29.403  1.00  0.00    -0.203 F 
ATOM     81  C   UNL A   1      40.150  25.987  27.265  1.00  0.00     0.198 A 
ATOM     82  C   UNL A   1      41.534  27.651  26.232  1.00  0.00     0.198 A 
ATOM     83  F   UNL A   1      42.020  29.651  27.373  1.00  0.00    -0.203 F 
ATOM     84  F   UNL A   1      39.577  24.775  27.243  1.00  0.00    -0.200 F 
ATOM     85  C   UNL A   1      40.919  26.410  26.192  1.00  0.00     0.200 A 
ATOM     86  F   UNL A   1      42.263  28.072  25.189  1.00  0.00    -0.200 F 
ATOM     87  F   UNL A   1      41.072  25.618  25.121  1.00  0.00    -0.200 F 
ENDBRANCH  53  77
BRANCH  65  88
ATOM     88  C   UNL A   1      43.753  28.149  34.667  1.00  0.00     0.064 A 
ATOM     89  C   UNL A   1      45.115  28.476  34.572  1.00  0.00     0.173 A 
ATOM     90  C   UNL A   1      43.409  26.969  35.344  1.00  0.00     0.173 A 
ATOM     91  F   UNL A   1      45.500  29.586  33.924  1.00  0.00    -0.203 F 
ATOM     92  C   UNL A   1      46.093  27.630  35.089  1.00  0.00     0.198 A 
ATOM     93  C   UNL A   1      44.387  26.146  35.895  1.00  0.00     0.198 A 
ATOM     94  F   UNL A   1      42.122  26.613  35.473  1.00  0.00    -0.203 F 
ATOM     95  F   UNL A   1      47.389  27.926  34.920  1.00  0.00    -0.200 F 
ATOM     96  C   UNL A   1      45.728  26.469  35.754  1.00  0.00     0.200 A 
ATOM     97  F   UNL A   1      44.032  25.033  36.551  1.00  0.00    -0.200 F 
ATOM     98  F   UNL A   1      46.671  25.654  36.248  1.00  0.00    -0.200 F 
ENDBRANCH  65  88
ENDBRANCH  39  40
ENDBRANCH  31  34
ENDBRANCH  29  30
ENDBRANCH   1  29
TORSDOF 12
ENDMDL
MODEL 3
REMARK VINA RESULT:     -13.7      0.590      7.262
REMARK SMILES CN1C(=O)C[C@H](C(=O)NCCCNC(=O)c2ccc(-c3c4nc(c(-c5c(F)c(F)c(F)c(F)c5F)c5ccc([nH]5)c(-c5c(F)c(F)c(F)c(F)c5F)c5nc(c(-c6c(F)c(F)c(F)c(F)c6F)c6ccc3[nH]6)C=C5)C=C4)cc2)C12CC[NH+](Cc1ccc(Cl)c(F)c1)CC2
REMARK SMILES IDX 11 1 10 2 9 3 7 4 8 5 6 7 1 8 2 9 3 10 79 11 4 12 5 13 80 14
REMARK SMILES IDX 93 15 81 16 92 17 82 18 83 20 84 21 85 22 91 23 86 24 89 25
REMARK SMILES IDX 87 26 90 27 88 28 12 29 13 30 14 31 15 33 16 34 17 35 78 36
REMARK SMILES IDX 18 37 77 38 19 39 20 40 21 41 71 42 22 43 76 44 70 45 72 46
REMARK SMILES IDX 23 47 75 48 69 49 68 50 24 52 56 53 36 54 55 55 37 56 40 57
REMARK SMILES IDX 54 58 73 59 38 60 39 61 53 63 74 64 41 65 25 66 26 67 34 68
REMARK SMILES IDX 27 69 28 70 32 71 35 72 29 73 30 74 33 75 31 76 57 77 58 78
REMARK SMILES IDX 66 79 59 80 60 81 64 82 67 83 61 84 62 85 65 86 63 87 42 88
REMARK SMILES IDX 43 89 51 90 44 91 45 92 49 93 52 94 46 95 47 96 50 97 48 98
REMARK H PARENT 9 6 82 19 13 32 72 51 40 62
REMARK Flexibility Score: inf
ROOT
ATOM      1  C   UNL A   1      31.319  32.069  26.919  1.00  0.00     0.042 C 
ENDROOT
BRANCH   1   2
ATOM      2  C   UNL A   1      31.514  30.875  26.005  1.00  0.00     0.117 C 
BRANCH   2   3
ATOM      3  N   UNL A   1      32.493  29.941  26.515  1.00  0.00    -0.356 N 
ATOM      4  C   UNL A   1      33.174  28.966  25.858  1.00  0.00     0.226 C 
ATOM      5  O   UNL A   1      34.249  28.647  26.358  1.00  0.00    -0.275 OA
ATOM      6  H   UNL A   1      32.696  30.023  27.474  1.00  0.00     0.163 HD
BRANCH   4   7
ATOM      7  C   UNL A   1      32.643  28.452  24.526  1.00  0.00     0.114 C 
ATOM      8  C   UNL A   1      32.938  25.532  22.132  1.00  0.00     0.147 C 
ATOM      9  N   UNL A   1      33.006  26.754  22.917  1.00  0.00    -0.339 N 
ATOM     10  C   UNL A   1      33.678  27.858  22.437  1.00  0.00     0.223 C 
ATOM     11  C   UNL A   1      32.466  26.912  24.298  1.00  0.00     0.065 C 
ATOM     12  O   UNL A   1      34.211  27.979  21.344  1.00  0.00    -0.275 OA
ATOM     13  C   UNL A   1      33.685  28.907  23.491  1.00  0.00     0.116 C 
ATOM     14  C   UNL A   1      30.970  26.479  24.295  1.00  0.00     0.091 C 
ATOM     15  C   UNL A   1      33.235  26.022  25.290  1.00  0.00     0.091 C 
ATOM     16  C   UNL A   1      30.348  26.251  25.671  1.00  0.00     0.265 C 
ATOM     17  C   UNL A   1      32.533  25.841  26.651  1.00  0.00     0.265 C 
ATOM     18  N   UNL A   1      31.140  25.423  26.564  1.00  0.00    -0.331 N 
ATOM     19  H   UNL A   1      30.735  25.644  27.474  1.00  0.00     0.348 HD
BRANCH  18  20
ATOM     20  C   UNL A   1      30.878  23.983  26.614  1.00  0.00     0.299 C 
BRANCH  20  21
ATOM     21  C   UNL A   1      31.985  23.079  26.118  1.00  0.00     0.009 A 
ATOM     22  C   UNL A   1      32.934  22.554  27.007  1.00  0.00     0.011 A 
ATOM     23  C   UNL A   1      32.034  22.688  24.770  1.00  0.00     0.050 A 
ATOM     24  C   UNL A   1      33.844  21.581  26.579  1.00  0.00     0.024 A 
ATOM     25  C   UNL A   1      32.912  21.689  24.360  1.00  0.00     0.142 A 
ATOM     26  C   UNL A   1      33.806  21.124  25.261  1.00  0.00     0.076 A 
ATOM     27  F   UNL A   1      32.824  21.237  23.100  1.00  0.00    -0.205 F 
ATOM     28  Cl  UNL A   1      34.825  19.820  24.789  1.00  0.00    -0.081 Cl
ENDBRANCH  20  21
ENDBRANCH  18  20
ENDBRANCH   4   7
ENDBRANCH   2   3
ENDBRANCH   1   2
BRANCH   1  29
ATOM     29  C   UNL A   1      32.600  32.808  27.282  1.00  0.00     0.118 C 
BRANCH  29  30
ATOM     30  N   UNL A   1      32.386  34.207  27.620  1.00  0.00    -0.352 N 
ATOM     31  C   UNL A   1      33.000  34.994  28.562  1.00  0.00     0.251 C 
ATOM     32  H   UNL A   1      31.691  34.661  27.090  1.00  0.00     0.163 HD
ATOM     33  O   UNL A   1      32.572  36.122  28.790  1.00  0.00    -0.269 OA
BRANCH  31  34
ATOM     34  C   UNL A   1      34.147  34.473  29.333  1.00  0.00     0.039 A 
ATOM     35  C   UNL A   1      33.896  33.836  30.549  1.00  0.00     0.014 A 
ATOM     36  C   UNL A   1      35.456  34.592  28.861  1.00  0.00     0.014 A 
ATOM     37  C   UNL A   1      34.951  33.254  31.251  1.00  0.00     0.010 A 
ATOM     38  C   UNL A   1      36.490  33.922  29.508  1.00  0.00     0.010 A 
ATOM     39  C   UNL A   1      36.250  33.249  30.712  1.00  0.00    -0.014 A 
BRANCH  39  40
ATOM     40  C   UNL A   1      37.346  32.522  31.402  1.00  0.00     0.031 A 
ATOM     41  C   UNL A   1      38.035  31.361  30.741  1.00  0.00     0.074 A 
ATOM     42  C   UNL A   1      37.702  32.901  32.646  1.00  0.00     0.049 A 
ATOM     43  N   UNL A   1      39.041  30.642  31.174  1.00  0.00    -0.248 NA
ATOM     44  C   UNL A   1      37.511  30.930  29.435  1.00  0.00     0.031 C 
ATOM     45  C   UNL A   1      37.059  33.963  33.422  1.00  0.00     0.029 A 
ATOM     46  N   UNL A   1      38.699  32.445  33.471  1.00  0.00    -0.354 N 
ATOM     47  C   UNL A   1      39.268  29.682  30.199  1.00  0.00     0.074 A 
ATOM     48  C   UNL A   1      38.252  29.861  29.185  1.00  0.00     0.031 C 
ATOM     49  C   UNL A   1      37.708  34.112  34.587  1.00  0.00     0.029 A 
ATOM     50  C   UNL A   1      38.787  33.134  34.658  1.00  0.00     0.049 A 
ATOM     51  H   UNL A   1      39.294  31.697  33.237  1.00  0.00     0.167 HD
ATOM     52  C   UNL A   1      40.254  28.754  30.139  1.00  0.00     0.037 A 
ATOM     53  C   UNL A   1      39.648  32.996  35.683  1.00  0.00     0.037 A 
ATOM     54  C   UNL A   1      41.269  28.587  31.146  1.00  0.00     0.049 A 
ATOM     55  C   UNL A   1      40.735  31.961  35.587  1.00  0.00     0.074 A 
ATOM     56  C   UNL A   1      42.346  27.718  31.152  1.00  0.00     0.029 A 
ATOM     57  N   UNL A   1      41.328  29.302  32.334  1.00  0.00    -0.354 N 
ATOM     58  N   UNL A   1      40.997  31.119  34.617  1.00  0.00    -0.248 NA
ATOM     59  C   UNL A   1      41.656  31.866  36.728  1.00  0.00     0.031 C 
ATOM     60  C   UNL A   1      43.021  27.864  32.369  1.00  0.00     0.029 A 
ATOM     61  C   UNL A   1      42.405  28.871  33.095  1.00  0.00     0.049 A 
ATOM     62  H   UNL A   1      40.697  30.010  32.599  1.00  0.00     0.167 HD
ATOM     63  C   UNL A   1      42.122  30.412  35.018  1.00  0.00     0.074 A 
ATOM     64  C   UNL A   1      42.511  30.948  36.306  1.00  0.00     0.031 C 
ATOM     65  C   UNL A   1      42.772  29.405  34.382  1.00  0.00     0.037 A 
BRANCH  52  66
ATOM     66  C   UNL A   1      40.283  27.849  28.940  1.00  0.00     0.064 A 
ATOM     67  C   UNL A   1      41.015  28.174  27.786  1.00  0.00     0.173 A 
ATOM     68  C   UNL A   1      39.602  26.622  28.955  1.00  0.00     0.173 A 
ATOM     69  F   UNL A   1      41.675  29.340  27.712  1.00  0.00    -0.203 F 
ATOM     70  C   UNL A   1      41.038  27.322  26.685  1.00  0.00     0.198 A 
ATOM     71  C   UNL A   1      39.655  25.756  27.865  1.00  0.00     0.198 A 
ATOM     72  F   UNL A   1      38.889  26.257  30.032  1.00  0.00    -0.203 F 
ATOM     73  F   UNL A   1      41.699  27.681  25.576  1.00  0.00    -0.200 F 
ATOM     74  C   UNL A   1      40.366  26.110  26.728  1.00  0.00     0.200 A 
ATOM     75  F   UNL A   1      39.017  24.579  27.915  1.00  0.00    -0.200 F 
ATOM     76  F   UNL A   1      40.396  25.286  25.672  1.00  0.00    -0.200 F 
ENDBRANCH  52  66
BRANCH  53  77
ATOM     77  C   UNL A   1      39.538  33.882  36.873  1.00  0.00     0.064 A 
ATOM     78  C   UNL A   1      38.779  33.502  37.990  1.00  0.00     0.173 A 
ATOM     79  C   UNL A   1      40.181  35.127  36.916  1.00  0.00     0.173 A 
ATOM     80  F   UNL A   1      38.130  32.327  37.990  1.00  0.00    -0.203 F 
ATOM     81  C   UNL A   1      38.643  34.346  39.090  1.00  0.00     0.198 A 
ATOM     82  C   UNL A   1      40.072  35.955  38.031  1.00  0.00     0.198 A 
ATOM     83  F   UNL A   1      40.926  35.536  35.879  1.00  0.00    -0.203 F 
ATOM     84  F   UNL A   1      37.866  33.981  40.119  1.00  0.00    -0.200 F 
ATOM     85  C   UNL A   1      39.295  35.568  39.112  1.00  0.00     0.200 A 
ATOM     86  F   UNL A   1      40.719  37.128  38.057  1.00  0.00    -0.200 F 
ATOM     87  F   UNL A   1      39.169  36.378  40.173  1.00  0.00    -0.200 F 
ENDBRANCH  53  77
BRANCH  65  88
ATOM     88  C   UNL A   1      43.982  28.836  35.069  1.00  0.00     0.064 A 
ATOM     89  C   UNL A   1      43.886  27.742  35.944  1.00  0.00     0.173 A 
ATOM     90  C   UNL A   1      45.251  29.393  34.853  1.00  0.00     0.173 A 
ATOM     91  F   UNL A   1      42.694  27.180  36.196  1.00  0.00    -0.203 F 
ATOM     92  C   UNL A   1      45.008  27.260  36.614  1.00  0.00     0.198 A 
ATOM     93  C   UNL A   1      46.378  28.883  35.494  1.00  0.00     0.198 A 
ATOM     94  F   UNL A   1      45.402  30.433  34.019  1.00  0.00    -0.203 F 
ATOM     95  F   UNL A   1      44.879  26.264  37.501  1.00  0.00    -0.200 F 
ATOM     96  C   UNL A   1      46.253  27.828  36.385  1.00  0.00     0.200 A 
ATOM     97  F   UNL A   1      47.582  29.422  35.259  1.00  0.00    -0.200 F 
ATOM     98  F   UNL A   1      47.331  27.365  37.034  1.00  0.00    -0.200 F 
ENDBRANCH  65  88
ENDBRANCH  39  40
ENDBRANCH  31  34
ENDBRANCH  29  30
ENDBRANCH   1  29
TORSDOF 12
ENDMDL
