MODEL 1
REMARK VINA RESULT:     -12.3      0.000      0.000
REMARK SMILES CCCc1cc(OC(F)(F)F)cc2c1O[C@H](C(F)(F)F)C(C(=O)NCCCNC(=O)c1ccc(-c3c4nc(c(-c5c(F)c(F)c(F)c(F)c5F)c5ccc([nH]5)c(-c5c(F)c(F)c(F)c(F)c5F)c5nc(c(-c6c(F)c(F)c(F)c(F)c6F)c6ccc3[nH]6)C=C5)C=C4)cc1)=C2
REMARK SMILES IDX 26 1 25 2 24 3 22 4 23 5 21 7 4 8 5 9 14 10 6 11 13 12 15 13
REMARK SMILES IDX 12 14 94 15 16 16 3 17 2 18 1 19 7 20 8 21 9 22 10 23 11 24
REMARK SMILES IDX 17 25 18 26 19 27 20 28 27 29 28 30 29 31 30 33 31 34 32 35
REMARK SMILES IDX 93 36 33 37 92 38 34 39 35 40 36 41 86 42 37 43 91 44 85 45
REMARK SMILES IDX 87 46 38 47 90 48 84 49 83 50 39 52 71 53 51 54 70 55 52 56
REMARK SMILES IDX 55 57 69 58 88 59 53 60 54 61 68 63 89 64 56 65 40 66 41 67
REMARK SMILES IDX 49 68 42 69 43 70 47 71 50 72 44 73 45 74 48 75 46 76 72 77
REMARK SMILES IDX 73 78 81 79 74 80 75 81 79 82 82 83 76 84 77 85 80 86 78 87
REMARK SMILES IDX 57 88 58 89 66 90 59 91 60 92 64 93 67 94 61 95 62 96 65 97
REMARK SMILES IDX 63 98
REMARK H PARENT 24 6 28 32 87 51 55 62
REMARK Flexibility Score: inf
ROOT
ATOM      1  C   UNL A   1      36.079  23.583  24.331  1.00  0.00     0.042 C 
ENDROOT
BRANCH   1   2
ATOM      2  C   UNL A   1      34.690  22.981  24.126  1.00  0.00     0.118 C 
BRANCH   2   3
ATOM      3  N   UNL A   1      34.268  23.126  22.746  1.00  0.00    -0.352 N 
ATOM      4  C   UNL A   1      33.482  24.030  22.115  1.00  0.00     0.251 C 
ATOM      5  O   UNL A   1      33.285  23.862  20.912  1.00  0.00    -0.270 OA
ATOM      6  H   UNL A   1      34.624  22.429  22.150  1.00  0.00     0.163 HD
BRANCH   4   7
ATOM      7  C   UNL A   1      32.944  25.251  22.772  1.00  0.00     0.067 C 
ATOM      8  C   UNL A   1      31.020  28.853  23.794  1.00  0.00    -0.002 A 
ATOM      9  C   UNL A   1      31.681  29.732  24.683  1.00  0.00     0.054 A 
ATOM     10  C   UNL A   1      31.657  27.647  23.467  1.00  0.00     0.131 A 
ATOM     11  C   UNL A   1      32.946  29.436  25.195  1.00  0.00     0.130 A 
ATOM     12  C   UNL A   1      32.928  27.344  23.968  1.00  0.00     0.021 A 
ATOM     13  O   UNL A   1      31.035  26.805  22.590  1.00  0.00    -0.475 OA
ATOM     14  C   UNL A   1      33.564  28.240  24.832  1.00  0.00     0.058 A 
ATOM     15  C   UNL A   1      33.623  26.143  23.508  1.00  0.00     0.025 C 
ATOM     16  C   UNL A   1      31.444  25.415  22.603  1.00  0.00     0.314 C 
BRANCH   8  17
ATOM     17  C   UNL A   1      29.629  29.245  23.319  1.00  0.00     0.039 C 
BRANCH  17  18
ATOM     18  C   UNL A   1      29.228  30.728  23.388  1.00  0.00     0.001 C 
ATOM     19  C   UNL A   1      27.723  30.928  23.526  1.00  0.00     0.004 C 
ENDBRANCH  17  18
ENDBRANCH   8  17
BRANCH  11  20
ATOM     20  O   UNL A   1      33.687  30.215  26.038  1.00  0.00    -0.406 OA
BRANCH  20  21
ATOM     21  C   UNL A   1      33.114  30.588  27.280  1.00  0.00     0.573 C 
ATOM     22  F   UNL A   1      32.456  31.762  27.181  1.00  0.00    -0.132 F 
ATOM     23  F   UNL A   1      32.272  29.633  27.731  1.00  0.00    -0.132 F 
ATOM     24  F   UNL A   1      34.106  30.736  28.185  1.00  0.00    -0.132 F 
ENDBRANCH  20  21
ENDBRANCH  11  20
BRANCH  16  25
ATOM     25  C   UNL A   1      30.644  24.615  23.655  1.00  0.00     0.429 C 
ATOM     26  F   UNL A   1      30.111  23.480  23.139  1.00  0.00    -0.167 F 
ATOM     27  F   UNL A   1      31.428  24.239  24.696  1.00  0.00    -0.167 F 
ATOM     28  F   UNL A   1      29.625  25.327  24.185  1.00  0.00    -0.167 F 
ENDBRANCH  16  25
ENDBRANCH   4   7
ENDBRANCH   2   3
ENDBRANCH   1   2
BRANCH   1  29
ATOM     29  C   UNL A   1      36.528  23.550  25.790  1.00  0.00     0.118 C 
BRANCH  29  30
ATOM     30  N   UNL A   1      37.601  22.589  25.998  1.00  0.00    -0.352 N 
ATOM     31  C   UNL A   1      38.906  22.800  26.357  1.00  0.00     0.251 C 
ATOM     32  H   UNL A   1      37.353  21.647  25.859  1.00  0.00     0.163 HD
ATOM     33  O   UNL A   1      39.727  21.893  26.225  1.00  0.00    -0.269 OA
BRANCH  31  34
ATOM     34  C   UNL A   1      39.336  24.105  26.899  1.00  0.00     0.039 A 
ATOM     35  C   UNL A   1      40.007  24.997  26.059  1.00  0.00     0.014 A 
ATOM     36  C   UNL A   1      39.135  24.426  28.246  1.00  0.00     0.014 A 
ATOM     37  C   UNL A   1      40.444  26.226  26.557  1.00  0.00     0.010 A 
ATOM     38  C   UNL A   1      39.511  25.678  28.724  1.00  0.00     0.010 A 
ATOM     39  C   UNL A   1      40.183  26.583  27.888  1.00  0.00    -0.014 A 
BRANCH  39  40
ATOM     40  C   UNL A   1      40.619  27.892  28.432  1.00  0.00     0.031 A 
ATOM     41  C   UNL A   1      42.060  28.110  28.802  1.00  0.00     0.074 A 
ATOM     42  C   UNL A   1      39.707  28.857  28.652  1.00  0.00     0.049 A 
ATOM     43  N   UNL A   1      42.624  29.150  29.362  1.00  0.00    -0.248 NA
ATOM     44  C   UNL A   1      42.987  27.000  28.530  1.00  0.00     0.031 C 
ATOM     45  C   UNL A   1      38.274  28.744  28.378  1.00  0.00     0.029 A 
ATOM     46  N   UNL A   1      39.848  30.119  29.173  1.00  0.00    -0.354 N 
ATOM     47  C   UNL A   1      43.960  28.811  29.532  1.00  0.00     0.074 A 
ATOM     48  C   UNL A   1      44.116  27.453  29.054  1.00  0.00     0.031 C 
ATOM     49  C   UNL A   1      37.670  29.892  28.719  1.00  0.00     0.029 A 
ATOM     50  C   UNL A   1      38.664  30.809  29.267  1.00  0.00     0.049 A 
ATOM     51  H   UNL A   1      40.714  30.493  29.453  1.00  0.00     0.167 HD
ATOM     52  C   UNL A   1      44.967  29.570  30.022  1.00  0.00     0.037 A 
ATOM     53  C   UNL A   1      38.411  32.040  29.750  1.00  0.00     0.037 A 
ATOM     54  C   UNL A   1      44.812  30.933  30.461  1.00  0.00     0.049 A 
ATOM     55  C   UNL A   1      39.552  32.868  30.274  1.00  0.00     0.074 A 
ATOM     56  C   UNL A   1      45.781  31.815  30.904  1.00  0.00     0.029 A 
ATOM     57  N   UNL A   1      43.602  31.610  30.511  1.00  0.00    -0.354 N 
ATOM     58  N   UNL A   1      40.824  32.564  30.361  1.00  0.00    -0.248 NA
ATOM     59  C   UNL A   1      39.223  34.216  30.759  1.00  0.00     0.031 C 
ATOM     60  C   UNL A   1      45.154  33.012  31.260  1.00  0.00     0.029 A 
ATOM     61  C   UNL A   1      43.799  32.893  30.996  1.00  0.00     0.049 A 
ATOM     62  H   UNL A   1      42.733  31.236  30.240  1.00  0.00     0.167 HD
ATOM     63  C   UNL A   1      41.450  33.687  30.884  1.00  0.00     0.074 A 
ATOM     64  C   UNL A   1      40.420  34.685  31.081  1.00  0.00     0.031 C 
ATOM     65  C   UNL A   1      42.760  33.874  31.176  1.00  0.00     0.037 A 
BRANCH  52  66
ATOM     66  C   UNL A   1      46.331  28.949  30.110  1.00  0.00     0.064 A 
ATOM     67  C   UNL A   1      46.734  28.211  31.233  1.00  0.00     0.173 A 
ATOM     68  C   UNL A   1      47.233  29.060  29.041  1.00  0.00     0.173 A 
ATOM     69  F   UNL A   1      45.914  28.083  32.287  1.00  0.00    -0.203 F 
ATOM     70  C   UNL A   1      47.998  27.629  31.294  1.00  0.00     0.198 A 
ATOM     71  C   UNL A   1      48.486  28.453  29.093  1.00  0.00     0.198 A 
ATOM     72  F   UNL A   1      46.897  29.751  27.941  1.00  0.00    -0.203 F 
ATOM     73  F   UNL A   1      48.377  26.968  32.395  1.00  0.00    -0.200 F 
ATOM     74  C   UNL A   1      48.870  27.746  30.221  1.00  0.00     0.200 A 
ATOM     75  F   UNL A   1      49.322  28.557  28.051  1.00  0.00    -0.200 F 
ATOM     76  F   UNL A   1      50.083  27.180  30.279  1.00  0.00    -0.200 F 
ENDBRANCH  52  66
BRANCH  53  77
ATOM     77  C   UNL A   1      37.024  32.571  29.737  1.00  0.00     0.064 A 
ATOM     78  C   UNL A   1      36.531  33.266  28.624  1.00  0.00     0.173 A 
ATOM     79  C   UNL A   1      36.165  32.395  30.831  1.00  0.00     0.173 A 
ATOM     80  F   UNL A   1      37.323  33.475  27.562  1.00  0.00    -0.203 F 
ATOM     81  C   UNL A   1      35.238  33.784  28.614  1.00  0.00     0.198 A 
ATOM     82  C   UNL A   1      34.862  32.889  30.809  1.00  0.00     0.198 A 
ATOM     83  F   UNL A   1      36.586  31.731  31.917  1.00  0.00    -0.203 F 
ATOM     84  F   UNL A   1      34.807  34.482  27.556  1.00  0.00    -0.200 F 
ATOM     85  C   UNL A   1      34.403  33.590  29.705  1.00  0.00     0.200 A 
ATOM     86  F   UNL A   1      34.053  32.688  31.858  1.00  0.00    -0.200 F 
ATOM     87  F   UNL A   1      33.157  34.084  29.692  1.00  0.00    -0.200 F 
ENDBRANCH  53  77
BRANCH  65  88
ATOM     88  C   UNL A   1      43.158  35.220  31.708  1.00  0.00     0.064 A 
ATOM     89  C   UNL A   1      43.632  36.233  30.862  1.00  0.00     0.173 A 
ATOM     90  C   UNL A   1      43.026  35.510  33.074  1.00  0.00     0.173 A 
ATOM     91  F   UNL A   1      43.789  35.998  29.551  1.00  0.00    -0.203 F 
ATOM     92  C   UNL A   1      43.981  37.482  31.369  1.00  0.00     0.198 A 
ATOM     93  C   UNL A   1      43.350  36.768  33.574  1.00  0.00     0.198 A 
ATOM     94  F   UNL A   1      42.573  34.575  33.923  1.00  0.00    -0.203 F 
ATOM     95  F   UNL A   1      44.474  38.421  30.551  1.00  0.00    -0.200 F 
ATOM     96  C   UNL A   1      43.832  37.750  32.722  1.00  0.00     0.200 A 
ATOM     97  F   UNL A   1      43.195  37.030  34.879  1.00  0.00    -0.200 F 
ATOM     98  F   UNL A   1      44.163  38.955  33.207  1.00  0.00    -0.200 F 
ENDBRANCH  65  88
ENDBRANCH  39  40
ENDBRANCH  31  34
ENDBRANCH  29  30
ENDBRANCH   1  29
TORSDOF 15
ENDMDL
MODEL 2
REMARK VINA RESULT:     -12.2      0.272      1.578
REMARK SMILES CCCc1cc(OC(F)(F)F)cc2c1O[C@H](C(F)(F)F)C(C(=O)NCCCNC(=O)c1ccc(-c3c4nc(c(-c5c(F)c(F)c(F)c(F)c5F)c5ccc([nH]5)c(-c5c(F)c(F)c(F)c(F)c5F)c5nc(c(-c6c(F)c(F)c(F)c(F)c6F)c6ccc3[nH]6)C=C5)C=C4)cc1)=C2
REMARK SMILES IDX 26 1 25 2 24 3 22 4 23 5 21 7 4 8 5 9 14 10 6 11 13 12 15 13
REMARK SMILES IDX 12 14 94 15 16 16 3 17 2 18 1 19 7 20 8 21 9 22 10 23 11 24
REMARK SMILES IDX 17 25 18 26 19 27 20 28 27 29 28 30 29 31 30 33 31 34 32 35
REMARK SMILES IDX 93 36 33 37 92 38 34 39 35 40 36 41 86 42 37 43 91 44 85 45
REMARK SMILES IDX 87 46 38 47 90 48 84 49 83 50 39 52 71 53 51 54 70 55 52 56
REMARK SMILES IDX 55 57 69 58 88 59 53 60 54 61 68 63 89 64 56 65 40 66 41 67
REMARK SMILES IDX 49 68 42 69 43 70 47 71 50 72 44 73 45 74 48 75 46 76 72 77
REMARK SMILES IDX 73 78 81 79 74 80 75 81 79 82 82 83 76 84 77 85 80 86 78 87
REMARK SMILES IDX 57 88 58 89 66 90 59 91 60 92 64 93 67 94 61 95 62 96 65 97
REMARK SMILES IDX 63 98
REMARK H PARENT 24 6 28 32 87 51 55 62
REMARK Flexibility Score: inf
ROOT
ATOM      1  C   UNL A   1      35.866  23.749  24.701  1.00  0.00     0.042 C 
ENDROOT
BRANCH   1   2
ATOM      2  C   UNL A   1      34.598  22.964  24.369  1.00  0.00     0.118 C 
BRANCH   2   3
ATOM      3  N   UNL A   1      34.290  23.063  22.956  1.00  0.00    -0.352 N 
ATOM      4  C   UNL A   1      33.553  23.940  22.234  1.00  0.00     0.251 C 
ATOM      5  O   UNL A   1      33.456  23.733  21.025  1.00  0.00    -0.270 OA
ATOM      6  H   UNL A   1      34.698  22.350  22.413  1.00  0.00     0.163 HD
BRANCH   4   7
ATOM      7  C   UNL A   1      32.956  25.176  22.806  1.00  0.00     0.067 C 
ATOM      8  C   UNL A   1      30.935  28.792  23.553  1.00  0.00    -0.002 A 
ATOM      9  C   UNL A   1      31.514  29.703  24.465  1.00  0.00     0.054 A 
ATOM     10  C   UNL A   1      31.602  27.582  23.317  1.00  0.00     0.131 A 
ATOM     11  C   UNL A   1      32.734  29.433  25.090  1.00  0.00     0.130 A 
ATOM     12  C   UNL A   1      32.829  27.304  23.932  1.00  0.00     0.021 A 
ATOM     13  O   UNL A   1      31.060  26.709  22.418  1.00  0.00    -0.475 OA
ATOM     14  C   UNL A   1      33.386  28.231  24.817  1.00  0.00     0.058 A 
ATOM     15  C   UNL A   1      33.566  26.095  23.568  1.00  0.00     0.025 C 
ATOM     16  C   UNL A   1      31.474  25.323  22.508  1.00  0.00     0.314 C 
BRANCH   8  17
ATOM     17  C   UNL A   1      29.586  29.159  22.952  1.00  0.00     0.039 C 
BRANCH  17  18
ATOM     18  C   UNL A   1      29.146  30.631  22.995  1.00  0.00     0.001 C 
ATOM     19  C   UNL A   1      27.716  30.808  23.494  1.00  0.00     0.004 C 
ENDBRANCH  17  18
ENDBRANCH   8  17
BRANCH  11  20
ATOM     20  O   UNL A   1      33.398  30.242  25.967  1.00  0.00    -0.406 OA
BRANCH  20  21
ATOM     21  C   UNL A   1      33.291  29.957  27.352  1.00  0.00     0.573 C 
ATOM     22  F   UNL A   1      33.382  31.083  28.090  1.00  0.00    -0.132 F 
ATOM     23  F   UNL A   1      32.131  29.325  27.628  1.00  0.00    -0.132 F 
ATOM     24  F   UNL A   1      34.309  29.141  27.703  1.00  0.00    -0.132 F 
ENDBRANCH  20  21
ENDBRANCH  11  20
BRANCH  16  25
ATOM     25  C   UNL A   1      30.593  24.549  23.514  1.00  0.00     0.429 C 
ATOM     26  F   UNL A   1      30.261  23.315  23.060  1.00  0.00    -0.167 F 
ATOM     27  F   UNL A   1      31.231  24.370  24.698  1.00  0.00    -0.167 F 
ATOM     28  F   UNL A   1      29.440  25.193  23.798  1.00  0.00    -0.167 F 
ENDBRANCH  16  25
ENDBRANCH   4   7
ENDBRANCH   2   3
ENDBRANCH   1   2
BRANCH   1  29
ATOM     29  C   UNL A   1      36.373  23.483  26.116  1.00  0.00     0.118 C 
BRANCH  29  30
ATOM     30  N   UNL A   1      37.510  22.574  26.116  1.00  0.00    -0.352 N 
ATOM     31  C   UNL A   1      38.840  22.837  26.309  1.00  0.00     0.251 C 
ATOM     32  H   UNL A   1      37.290  21.629  25.951  1.00  0.00     0.163 HD
ATOM     33  O   UNL A   1      39.678  21.987  26.011  1.00  0.00    -0.269 OA
BRANCH  31  34
ATOM     34  C   UNL A   1      39.277  24.131  26.872  1.00  0.00     0.039 A 
ATOM     35  C   UNL A   1      39.961  25.029  26.049  1.00  0.00     0.014 A 
ATOM     36  C   UNL A   1      39.069  24.436  28.222  1.00  0.00     0.014 A 
ATOM     37  C   UNL A   1      40.405  26.246  26.566  1.00  0.00     0.010 A 
ATOM     38  C   UNL A   1      39.453  25.678  28.719  1.00  0.00     0.010 A 
ATOM     39  C   UNL A   1      40.138  26.589  27.901  1.00  0.00    -0.014 A 
BRANCH  39  40
ATOM     40  C   UNL A   1      40.582  27.886  28.465  1.00  0.00     0.031 A 
ATOM     41  C   UNL A   1      42.021  28.087  28.846  1.00  0.00     0.074 A 
ATOM     42  C   UNL A   1      39.675  28.855  28.693  1.00  0.00     0.049 A 
ATOM     43  N   UNL A   1      42.590  29.114  29.425  1.00  0.00    -0.248 NA
ATOM     44  C   UNL A   1      42.941  26.973  28.566  1.00  0.00     0.031 C 
ATOM     45  C   UNL A   1      38.244  28.758  28.408  1.00  0.00     0.029 A 
ATOM     46  N   UNL A   1      39.823  30.109  29.232  1.00  0.00    -0.354 N 
ATOM     47  C   UNL A   1      43.922  28.762  29.598  1.00  0.00     0.074 A 
ATOM     48  C   UNL A   1      44.070  27.410  29.103  1.00  0.00     0.031 C 
ATOM     49  C   UNL A   1      37.646  29.906  28.761  1.00  0.00     0.029 A 
ATOM     50  C   UNL A   1      38.645  30.807  29.328  1.00  0.00     0.049 A 
ATOM     51  H   UNL A   1      40.691  30.472  29.522  1.00  0.00     0.167 HD
ATOM     52  C   UNL A   1      44.933  29.506  30.105  1.00  0.00     0.037 A 
ATOM     53  C   UNL A   1      38.399  32.033  29.826  1.00  0.00     0.037 A 
ATOM     54  C   UNL A   1      44.786  30.864  30.562  1.00  0.00     0.049 A 
ATOM     55  C   UNL A   1      39.543  32.845  30.369  1.00  0.00     0.074 A 
ATOM     56  C   UNL A   1      45.760  31.732  31.022  1.00  0.00     0.029 A 
ATOM     57  N   UNL A   1      43.581  31.550  30.613  1.00  0.00    -0.354 N 
ATOM     58  N   UNL A   1      40.812  32.529  30.459  1.00  0.00    -0.248 NA
ATOM     59  C   UNL A   1      39.222  34.189  30.870  1.00  0.00     0.031 C 
ATOM     60  C   UNL A   1      45.140  32.929  31.391  1.00  0.00     0.029 A 
ATOM     61  C   UNL A   1      43.785  32.825  31.118  1.00  0.00     0.049 A 
ATOM     62  H   UNL A   1      42.710  31.187  30.332  1.00  0.00     0.167 HD
ATOM     63  C   UNL A   1      41.443  33.640  31.002  1.00  0.00     0.074 A 
ATOM     64  C   UNL A   1      40.420  34.644  31.206  1.00  0.00     0.031 C 
ATOM     65  C   UNL A   1      42.754  33.812  31.305  1.00  0.00     0.037 A 
BRANCH  52  66
ATOM     66  C   UNL A   1      46.291  28.873  30.192  1.00  0.00     0.064 A 
ATOM     67  C   UNL A   1      47.213  28.957  29.138  1.00  0.00     0.173 A 
ATOM     68  C   UNL A   1      46.690  28.205  31.360  1.00  0.00     0.173 A 
ATOM     69  F   UNL A   1      46.877  29.574  27.995  1.00  0.00    -0.203 F 
ATOM     70  C   UNL A   1      48.473  28.374  29.239  1.00  0.00     0.198 A 
ATOM     71  C   UNL A   1      47.963  27.649  31.469  1.00  0.00     0.198 A 
ATOM     72  F   UNL A   1      45.850  28.100  32.401  1.00  0.00    -0.203 F 
ATOM     73  F   UNL A   1      49.319  28.428  28.202  1.00  0.00    -0.200 F 
ATOM     74  C   UNL A   1      48.850  27.726  30.407  1.00  0.00     0.200 A 
ATOM     75  F   UNL A   1      48.328  27.034  32.603  1.00  0.00    -0.200 F 
ATOM     76  F   UNL A   1      50.066  27.173  30.505  1.00  0.00    -0.200 F 
ENDBRANCH  52  66
BRANCH  53  77
ATOM     77  C   UNL A   1      37.016  32.576  29.813  1.00  0.00     0.064 A 
ATOM     78  C   UNL A   1      36.534  33.287  28.705  1.00  0.00     0.173 A 
ATOM     79  C   UNL A   1      36.150  32.395  30.900  1.00  0.00     0.173 A 
ATOM     80  F   UNL A   1      37.333  33.501  27.649  1.00  0.00    -0.203 F 
ATOM     81  C   UNL A   1      35.245  33.816  28.694  1.00  0.00     0.198 A 
ATOM     82  C   UNL A   1      34.851  32.900  30.877  1.00  0.00     0.198 A 
ATOM     83  F   UNL A   1      36.560  31.716  31.981  1.00  0.00    -0.203 F 
ATOM     84  F   UNL A   1      34.826  34.529  27.641  1.00  0.00    -0.200 F 
ATOM     85  C   UNL A   1      34.403  33.617  29.778  1.00  0.00     0.200 A 
ATOM     86  F   UNL A   1      34.035  32.694  31.919  1.00  0.00    -0.200 F 
ATOM     87  F   UNL A   1      33.162  34.121  29.764  1.00  0.00    -0.200 F 
ENDBRANCH  53  77
BRANCH  65  88
ATOM     88  C   UNL A   1      43.159  35.147  31.857  1.00  0.00     0.064 A 
ATOM     89  C   UNL A   1      43.094  35.424  33.230  1.00  0.00     0.173 A 
ATOM     90  C   UNL A   1      43.656  36.145  31.006  1.00  0.00     0.173 A 
ATOM     91  F   UNL A   1      42.611  34.506  34.082  1.00  0.00    -0.203 F 
ATOM     92  C   UNL A   1      43.490  36.662  33.729  1.00  0.00     0.198 A 
ATOM     93  C   UNL A   1      44.077  37.372  31.511  1.00  0.00     0.198 A 
ATOM     94  F   UNL A   1      43.743  35.926  29.685  1.00  0.00    -0.203 F 
ATOM     95  F   UNL A   1      43.376  36.922  35.038  1.00  0.00    -0.200 F 
ATOM     96  C   UNL A   1      43.988  37.632  32.870  1.00  0.00     0.200 A 
ATOM     97  F   UNL A   1      44.569  38.303  30.683  1.00  0.00    -0.200 F 
ATOM     98  F   UNL A   1      44.375  38.820  33.353  1.00  0.00    -0.200 F 
ENDBRANCH  65  88
ENDBRANCH  39  40
ENDBRANCH  31  34
ENDBRANCH  29  30
ENDBRANCH   1  29
TORSDOF 15
ENDMDL
MODEL 3
REMARK VINA RESULT:     -12.1      3.278      8.456
REMARK SMILES CCCc1cc(OC(F)(F)F)cc2c1O[C@H](C(F)(F)F)C(C(=O)NCCCNC(=O)c1ccc(-c3c4nc(c(-c5c(F)c(F)c(F)c(F)c5F)c5ccc([nH]5)c(-c5c(F)c(F)c(F)c(F)c5F)c5nc(c(-c6c(F)c(F)c(F)c(F)c6F)c6ccc3[nH]6)C=C5)C=C4)cc1)=C2
REMARK SMILES IDX 26 1 25 2 24 3 22 4 23 5 21 7 4 8 5 9 14 10 6 11 13 12 15 13
REMARK SMILES IDX 12 14 94 15 16 16 3 17 2 18 1 19 7 20 8 21 9 22 10 23 11 24
REMARK SMILES IDX 17 25 18 26 19 27 20 28 27 29 28 30 29 31 30 33 31 34 32 35
REMARK SMILES IDX 93 36 33 37 92 38 34 39 35 40 36 41 86 42 37 43 91 44 85 45
REMARK SMILES IDX 87 46 38 47 90 48 84 49 83 50 39 52 71 53 51 54 70 55 52 56
REMARK SMILES IDX 55 57 69 58 88 59 53 60 54 61 68 63 89 64 56 65 40 66 41 67
REMARK SMILES IDX 49 68 42 69 43 70 47 71 50 72 44 73 45 74 48 75 46 76 72 77
REMARK SMILES IDX 73 78 81 79 74 80 75 81 79 82 82 83 76 84 77 85 80 86 78 87
REMARK SMILES IDX 57 88 58 89 66 90 59 91 60 92 64 93 67 94 61 95 62 96 65 97
REMARK SMILES IDX 63 98
REMARK H PARENT 24 6 28 32 87 51 55 62
REMARK Flexibility Score: inf
ROOT
ATOM      1  C   UNL A   1      38.243  19.774  24.871  1.00  0.00     0.042 C 
ENDROOT
BRANCH   1   2
ATOM      2  C   UNL A   1      37.066  20.748  24.842  1.00  0.00     0.118 C 
BRANCH   2   3
ATOM      3  N   UNL A   1      35.818  20.050  25.079  1.00  0.00    -0.352 N 
ATOM      4  C   UNL A   1      34.535  20.470  25.186  1.00  0.00     0.251 C 
ATOM      5  O   UNL A   1      33.681  19.616  25.424  1.00  0.00    -0.270 OA
ATOM      6  H   UNL A   1      35.924  19.077  25.183  1.00  0.00     0.163 HD
BRANCH   4   7
ATOM      7  C   UNL A   1      34.105  21.870  24.928  1.00  0.00     0.067 C 
ATOM      8  C   UNL A   1      33.515  25.786  23.502  1.00  0.00    -0.002 A 
ATOM      9  C   UNL A   1      33.234  26.803  24.444  1.00  0.00     0.054 A 
ATOM     10  C   UNL A   1      33.696  24.480  23.979  1.00  0.00     0.131 A 
ATOM     11  C   UNL A   1      33.175  26.533  25.814  1.00  0.00     0.130 A 
ATOM     12  C   UNL A   1      33.647  24.199  25.349  1.00  0.00     0.021 A 
ATOM     13  O   UNL A   1      33.991  23.498  23.077  1.00  0.00    -0.475 OA
ATOM     14  C   UNL A   1      33.383  25.227  26.258  1.00  0.00     0.058 A 
ATOM     15  C   UNL A   1      33.969  22.856  25.828  1.00  0.00     0.025 C 
ATOM     16  C   UNL A   1      33.734  22.130  23.479  1.00  0.00     0.314 C 
BRANCH   8  17
ATOM     17  C   UNL A   1      33.521  26.171  22.030  1.00  0.00     0.039 C 
BRANCH  17  18
ATOM     18  C   UNL A   1      32.253  25.905  21.203  1.00  0.00     0.001 C 
ATOM     19  C   UNL A   1      32.557  25.387  19.802  1.00  0.00     0.004 C 
ENDBRANCH  17  18
ENDBRANCH   8  17
BRANCH  11  20
ATOM     20  O   UNL A   1      32.936  27.432  26.812  1.00  0.00    -0.406 OA
BRANCH  20  21
ATOM     21  C   UNL A   1      31.617  27.930  26.962  1.00  0.00     0.573 C 
ATOM     22  F   UNL A   1      31.358  28.247  28.248  1.00  0.00    -0.132 F 
ATOM     23  F   UNL A   1      31.416  29.011  26.179  1.00  0.00    -0.132 F 
ATOM     24  F   UNL A   1      30.748  26.968  26.582  1.00  0.00    -0.132 F 
ENDBRANCH  20  21
ENDBRANCH  11  20
BRANCH  16  25
ATOM     25  C   UNL A   1      32.277  21.727  23.163  1.00  0.00     0.429 C 
ATOM     26  F   UNL A   1      31.463  21.865  24.239  1.00  0.00    -0.167 F 
ATOM     27  F   UNL A   1      31.752  22.496  22.177  1.00  0.00    -0.167 F 
ATOM     28  F   UNL A   1      32.169  20.448  22.745  1.00  0.00    -0.167 F 
ENDBRANCH  16  25
ENDBRANCH   4   7
ENDBRANCH   2   3
ENDBRANCH   1   2
BRANCH   1  29
ATOM     29  C   UNL A   1      39.169  19.999  26.063  1.00  0.00     0.118 C 
BRANCH  29  30
ATOM     30  N   UNL A   1      40.312  19.098  26.030  1.00  0.00    -0.352 N 
ATOM     31  C   UNL A   1      41.650  19.385  26.014  1.00  0.00     0.251 C 
ATOM     32  H   UNL A   1      40.089  18.139  26.018  1.00  0.00     0.163 HD
ATOM     33  O   UNL A   1      42.458  18.504  25.720  1.00  0.00    -0.269 OA
BRANCH  31  34
ATOM     34  C   UNL A   1      42.134  20.741  26.346  1.00  0.00     0.039 A 
ATOM     35  C   UNL A   1      42.361  21.067  27.686  1.00  0.00     0.014 A 
ATOM     36  C   UNL A   1      42.306  21.708  25.350  1.00  0.00     0.014 A 
ATOM     37  C   UNL A   1      42.795  22.350  28.025  1.00  0.00     0.010 A 
ATOM     38  C   UNL A   1      42.803  22.965  25.682  1.00  0.00     0.010 A 
ATOM     39  C   UNL A   1      43.038  23.302  27.024  1.00  0.00    -0.014 A 
BRANCH  39  40
ATOM     40  C   UNL A   1      43.519  24.664  27.360  1.00  0.00     0.031 A 
ATOM     41  C   UNL A   1      42.567  25.680  27.927  1.00  0.00     0.074 A 
ATOM     42  C   UNL A   1      44.795  25.002  27.093  1.00  0.00     0.049 A 
ATOM     43  N   UNL A   1      42.773  26.941  28.211  1.00  0.00    -0.248 NA
ATOM     44  C   UNL A   1      41.191  25.225  28.183  1.00  0.00     0.031 C 
ATOM     45  C   UNL A   1      45.797  24.116  26.499  1.00  0.00     0.029 A 
ATOM     46  N   UNL A   1      45.462  26.188  27.271  1.00  0.00    -0.354 N 
ATOM     47  C   UNL A   1      41.552  27.433  28.655  1.00  0.00     0.074 A 
ATOM     48  C   UNL A   1      40.600  26.348  28.562  1.00  0.00     0.031 C 
ATOM     49  C   UNL A   1      46.954  24.783  26.376  1.00  0.00     0.029 A 
ATOM     50  C   UNL A   1      46.768  26.151  26.848  1.00  0.00     0.049 A 
ATOM     51  H   UNL A   1      45.044  26.987  27.665  1.00  0.00     0.167 HD
ATOM     52  C   UNL A   1      41.260  28.672  29.115  1.00  0.00     0.037 A 
ATOM     53  C   UNL A   1      47.705  27.118  26.836  1.00  0.00     0.037 A 
ATOM     54  C   UNL A   1      42.222  29.736  29.239  1.00  0.00     0.049 A 
ATOM     55  C   UNL A   1      47.357  28.481  27.369  1.00  0.00     0.074 A 
ATOM     56  C   UNL A   1      42.046  31.004  29.765  1.00  0.00     0.029 A 
ATOM     57  N   UNL A   1      43.545  29.652  28.831  1.00  0.00    -0.354 N 
ATOM     58  N   UNL A   1      46.219  28.913  27.854  1.00  0.00    -0.248 NA
ATOM     59  C   UNL A   1      48.427  29.488  27.360  1.00  0.00     0.031 C 
ATOM     60  C   UNL A   1      43.251  31.701  29.637  1.00  0.00     0.029 A 
ATOM     61  C   UNL A   1      44.192  30.853  29.074  1.00  0.00     0.049 A 
ATOM     62  H   UNL A   1      43.963  28.857  28.428  1.00  0.00     0.167 HD
ATOM     63  C   UNL A   1      46.442  30.230  28.232  1.00  0.00     0.074 A 
ATOM     64  C   UNL A   1      47.828  30.521  27.934  1.00  0.00     0.031 C 
ATOM     65  C   UNL A   1      45.575  31.119  28.777  1.00  0.00     0.037 A 
BRANCH  52  66
ATOM     66  C   UNL A   1      39.842  28.948  29.524  1.00  0.00     0.064 A 
ATOM     67  C   UNL A   1      38.888  29.414  28.607  1.00  0.00     0.173 A 
ATOM     68  C   UNL A   1      39.421  28.705  30.840  1.00  0.00     0.173 A 
ATOM     69  F   UNL A   1      39.241  29.672  27.339  1.00  0.00    -0.203 F 
ATOM     70  C   UNL A   1      37.573  29.653  28.998  1.00  0.00     0.198 A 
ATOM     71  C   UNL A   1      38.098  28.918  31.221  1.00  0.00     0.198 A 
ATOM     72  F   UNL A   1      40.291  28.254  31.757  1.00  0.00    -0.203 F 
ATOM     73  F   UNL A   1      36.692  30.143  28.116  1.00  0.00    -0.200 F 
ATOM     74  C   UNL A   1      37.178  29.399  30.304  1.00  0.00     0.200 A 
ATOM     75  F   UNL A   1      37.716  28.660  32.480  1.00  0.00    -0.200 F 
ATOM     76  F   UNL A   1      35.911  29.623  30.677  1.00  0.00    -0.200 F 
ENDBRANCH  52  66
BRANCH  53  77
ATOM     77  C   UNL A   1      49.068  26.823  26.323  1.00  0.00     0.064 A 
ATOM     78  C   UNL A   1      50.056  26.299  27.168  1.00  0.00     0.173 A 
ATOM     79  C   UNL A   1      49.410  27.056  24.983  1.00  0.00     0.173 A 
ATOM     80  F   UNL A   1      49.780  26.077  28.461  1.00  0.00    -0.203 F 
ATOM     81  C   UNL A   1      51.341  26.039  26.698  1.00  0.00     0.198 A 
ATOM     82  C   UNL A   1      50.688  26.770  24.507  1.00  0.00     0.198 A 
ATOM     83  F   UNL A   1      48.499  27.550  24.132  1.00  0.00    -0.203 F 
ATOM     84  F   UNL A   1      52.278  25.580  27.537  1.00  0.00    -0.200 F 
ATOM     85  C   UNL A   1      51.654  26.270  25.366  1.00  0.00     0.200 A 
ATOM     86  F   UNL A   1      50.984  26.980  23.217  1.00  0.00    -0.200 F 
ATOM     87  F   UNL A   1      52.889  26.015  24.914  1.00  0.00    -0.200 F 
ENDBRANCH  53  77
BRANCH  65  88
ATOM     88  C   UNL A   1      46.111  32.479  29.116  1.00  0.00     0.064 A 
ATOM     89  C   UNL A   1      46.707  32.745  30.357  1.00  0.00     0.173 A 
ATOM     90  C   UNL A   1      46.063  33.516  28.172  1.00  0.00     0.173 A 
ATOM     91  F   UNL A   1      46.763  31.789  31.298  1.00  0.00    -0.203 F 
ATOM     92  C   UNL A   1      47.215  34.007  30.650  1.00  0.00     0.198 A 
ATOM     93  C   UNL A   1      46.597  34.769  28.458  1.00  0.00     0.198 A 
ATOM     94  F   UNL A   1      45.508  33.309  26.968  1.00  0.00    -0.203 F 
ATOM     95  F   UNL A   1      47.739  34.253  31.858  1.00  0.00    -0.200 F 
ATOM     96  C   UNL A   1      47.166  35.016  29.698  1.00  0.00     0.200 A 
ATOM     97  F   UNL A   1      46.560  35.738  27.533  1.00  0.00    -0.200 F 
ATOM     98  F   UNL A   1      47.662  36.228  29.979  1.00  0.00    -0.200 F 
ENDBRANCH  65  88
ENDBRANCH  39  40
ENDBRANCH  31  34
ENDBRANCH  29  30
ENDBRANCH   1  29
TORSDOF 15
ENDMDL
