MODEL 1
REMARK VINA RESULT:     -11.8      0.000      0.000
REMARK SMILES C[C@H]1OCC[C@H]1c1nnnn1CCC(=O)NCCCNC(=O)c1ccc(-c2c3nc(c(-c4c(F)c(F)c(F)c(F)c4F)c4ccc([nH]4)c(-c4c(F)c(F)c(F)c(F)c4F)c4nc(c(-c5c(F)c(F)c(F)c(F)c5F)c5ccc2[nH]5)C=C4)C=C3)cc1
REMARK SMILES IDX 17 1 16 2 14 3 15 4 13 6 12 7 11 8 7 9 8 10 9 11 10 12 6 13
REMARK SMILES IDX 1 14 2 15 3 16 4 17 5 18 18 19 19 20 20 21 21 22 22 24 23 25
REMARK SMILES IDX 24 26 85 27 25 28 84 29 26 30 27 31 28 32 78 33 29 34 83 35
REMARK SMILES IDX 77 36 79 37 30 38 82 39 76 40 75 41 31 43 63 44 43 45 62 46
REMARK SMILES IDX 44 47 47 48 61 49 80 50 45 51 46 52 60 54 81 55 48 56 32 57
REMARK SMILES IDX 33 58 41 59 34 60 35 61 39 62 42 63 36 64 37 65 40 66 38 67
REMARK SMILES IDX 64 68 65 69 73 70 66 71 67 72 71 73 74 74 68 75 69 76 72 77
REMARK SMILES IDX 70 78 49 79 50 80 58 81 51 82 52 83 56 84 59 85 53 86 54 87
REMARK SMILES IDX 57 88 55 89
REMARK H PARENT 16 5 20 23 79 42 47 53
REMARK Flexibility Score: inf
ROOT
ATOM      1  C   UNL A   1      33.285  35.514  29.418  1.00  0.00     0.117 C 
ENDROOT
BRANCH   1   2
ATOM      2  N   UNL A   1      33.279  36.818  30.082  1.00  0.00    -0.356 N 
ATOM      3  C   UNL A   1      32.990  37.141  31.375  1.00  0.00     0.221 C 
ATOM      4  O   UNL A   1      32.903  38.328  31.691  1.00  0.00    -0.275 OA
ATOM      5  H   UNL A   1      33.521  37.579  29.507  1.00  0.00     0.163 HD
BRANCH   3   6
ATOM      6  C   UNL A   1      32.832  36.055  32.412  1.00  0.00     0.124 C 
BRANCH   6   7
ATOM      7  C   UNL A   1      34.159  35.584  32.991  1.00  0.00     0.158 C 
BRANCH   7   8
ATOM      8  N   UNL A   1      34.645  34.329  32.467  1.00  0.00    -0.229 N 
ATOM      9  C   UNL A   1      35.929  33.892  32.226  1.00  0.00     0.157 A 
ATOM     10  N   UNL A   1      35.843  32.689  31.694  1.00  0.00    -0.113 NA
ATOM     11  N   UNL A   1      34.526  32.323  31.776  1.00  0.00    -0.024 NA
ATOM     12  N   UNL A   1      33.794  33.303  32.288  1.00  0.00    -0.045 NA
BRANCH   9  13
ATOM     13  C   UNL A   1      37.178  34.580  32.676  1.00  0.00     0.090 C 
ATOM     14  C   UNL A   1      36.575  33.476  34.987  1.00  0.00     0.039 C 
ATOM     15  C   UNL A   1      37.620  34.134  34.089  1.00  0.00     0.126 C 
ATOM     16  O   UNL A   1      38.707  33.198  33.937  1.00  0.00    -0.378 OA
ATOM     17  C   UNL A   1      38.897  32.948  32.542  1.00  0.00     0.161 C 
ATOM     18  C   UNL A   1      38.396  34.194  31.844  1.00  0.00     0.043 C 
ENDBRANCH   9  13
ENDBRANCH   7   8
ENDBRANCH   6   7
ENDBRANCH   3   6
ENDBRANCH   1   2
BRANCH   1  19
ATOM     19  C   UNL A   1      34.457  35.379  28.451  1.00  0.00     0.042 C 
BRANCH  19  20
ATOM     20  C   UNL A   1      35.159  34.048  28.542  1.00  0.00     0.118 C 
BRANCH  20  21
ATOM     21  N   UNL A   1      34.311  32.878  28.304  1.00  0.00    -0.352 N 
ATOM     22  C   UNL A   1      34.724  31.578  28.055  1.00  0.00     0.251 C 
ATOM     23  H   UNL A   1      33.338  33.032  28.323  1.00  0.00     0.163 HD
ATOM     24  O   UNL A   1      33.932  30.740  27.602  1.00  0.00    -0.269 OA
BRANCH  22  25
ATOM     25  C   UNL A   1      36.128  31.205  28.320  1.00  0.00     0.039 A 
ATOM     26  C   UNL A   1      37.090  32.071  28.843  1.00  0.00     0.014 A 
ATOM     27  C   UNL A   1      36.464  29.885  28.085  1.00  0.00     0.014 A 
ATOM     28  C   UNL A   1      38.356  31.551  29.128  1.00  0.00     0.010 A 
ATOM     29  C   UNL A   1      37.494  29.328  28.765  1.00  0.00     0.010 A 
ATOM     30  C   UNL A   1      38.541  30.161  29.069  1.00  0.00    -0.014 A 
BRANCH  30  31
ATOM     31  C   UNL A   1      39.808  29.487  29.294  1.00  0.00     0.031 A 
ATOM     32  C   UNL A   1      40.192  29.381  30.713  1.00  0.00     0.074 A 
ATOM     33  C   UNL A   1      40.449  28.796  28.319  1.00  0.00     0.049 A 
ATOM     34  N   UNL A   1      41.164  29.986  31.306  1.00  0.00    -0.248 NA
ATOM     35  C   UNL A   1      39.307  28.628  31.613  1.00  0.00     0.031 C 
ATOM     36  C   UNL A   1      40.014  28.499  26.943  1.00  0.00     0.029 A 
ATOM     37  N   UNL A   1      41.620  28.112  28.399  1.00  0.00    -0.354 N 
ATOM     38  C   UNL A   1      41.136  29.540  32.622  1.00  0.00     0.074 A 
ATOM     39  C   UNL A   1      39.876  28.866  32.796  1.00  0.00     0.031 C 
ATOM     40  C   UNL A   1      40.785  27.522  26.416  1.00  0.00     0.029 A 
ATOM     41  C   UNL A   1      41.873  27.256  27.334  1.00  0.00     0.049 A 
ATOM     42  H   UNL A   1      42.243  28.215  29.155  1.00  0.00     0.167 HD
ATOM     43  C   UNL A   1      42.266  29.554  33.380  1.00  0.00     0.037 A 
ATOM     44  C   UNL A   1      42.897  26.373  27.237  1.00  0.00     0.037 A 
ATOM     45  C   UNL A   1      43.288  30.373  32.776  1.00  0.00     0.049 A 
ATOM     46  C   UNL A   1      43.932  26.803  28.213  1.00  0.00     0.074 A 
ATOM     47  C   UNL A   1      43.372  31.706  32.425  1.00  0.00     0.029 A 
ATOM     48  N   UNL A   1      44.282  29.740  32.069  1.00  0.00    -0.354 N 
ATOM     49  N   UNL A   1      44.612  27.913  28.105  1.00  0.00    -0.248 NA
ATOM     50  C   UNL A   1      43.857  26.244  29.555  1.00  0.00     0.031 C 
ATOM     51  C   UNL A   1      44.060  31.715  31.175  1.00  0.00     0.029 A 
ATOM     52  C   UNL A   1      44.422  30.400  30.875  1.00  0.00     0.049 A 
ATOM     53  H   UNL A   1      44.799  28.957  32.365  1.00  0.00     0.167 HD
ATOM     54  C   UNL A   1      44.682  28.411  29.398  1.00  0.00     0.074 A 
ATOM     55  C   UNL A   1      44.267  27.304  30.257  1.00  0.00     0.031 C 
ATOM     56  C   UNL A   1      44.784  29.753  29.634  1.00  0.00     0.037 A 
BRANCH  43  57
ATOM     57  C   UNL A   1      42.582  28.547  34.454  1.00  0.00     0.064 A 
ATOM     58  C   UNL A   1      43.014  29.011  35.713  1.00  0.00     0.173 A 
ATOM     59  C   UNL A   1      42.767  27.169  34.214  1.00  0.00     0.173 A 
ATOM     60  F   UNL A   1      42.899  30.307  36.040  1.00  0.00    -0.203 F 
ATOM     61  C   UNL A   1      43.659  28.172  36.623  1.00  0.00     0.198 A 
ATOM     62  C   UNL A   1      43.360  26.324  35.149  1.00  0.00     0.198 A 
ATOM     63  F   UNL A   1      42.496  26.606  33.031  1.00  0.00    -0.203 F 
ATOM     64  F   UNL A   1      44.172  28.684  37.750  1.00  0.00    -0.200 F 
ATOM     65  C   UNL A   1      43.837  26.831  36.338  1.00  0.00     0.200 A 
ATOM     66  F   UNL A   1      43.541  25.031  34.845  1.00  0.00    -0.200 F 
ATOM     67  F   UNL A   1      44.514  26.039  37.181  1.00  0.00    -0.200 F 
ENDBRANCH  43  57
BRANCH  44  68
ATOM     68  C   UNL A   1      42.883  25.025  26.621  1.00  0.00     0.064 A 
ATOM     69  C   UNL A   1      43.617  24.742  25.457  1.00  0.00     0.173 A 
ATOM     70  C   UNL A   1      42.368  23.914  27.320  1.00  0.00     0.173 A 
ATOM     71  F   UNL A   1      44.180  25.739  24.760  1.00  0.00    -0.203 F 
ATOM     72  C   UNL A   1      43.840  23.427  25.031  1.00  0.00     0.198 A 
ATOM     73  C   UNL A   1      42.588  22.603  26.892  1.00  0.00     0.198 A 
ATOM     74  F   UNL A   1      41.722  24.077  28.483  1.00  0.00    -0.203 F 
ATOM     75  F   UNL A   1      44.592  23.193  23.947  1.00  0.00    -0.200 F 
ATOM     76  C   UNL A   1      43.335  22.359  25.755  1.00  0.00     0.200 A 
ATOM     77  F   UNL A   1      42.127  21.578  27.623  1.00  0.00    -0.200 F 
ATOM     78  F   UNL A   1      43.599  21.100  25.381  1.00  0.00    -0.200 F 
ENDBRANCH  44  68
BRANCH  56  79
ATOM     79  C   UNL A   1      45.065  30.658  28.466  1.00  0.00     0.064 A 
ATOM     80  C   UNL A   1      44.085  31.112  27.566  1.00  0.00     0.173 A 
ATOM     81  C   UNL A   1      46.342  31.225  28.364  1.00  0.00     0.173 A 
ATOM     82  F   UNL A   1      42.819  30.690  27.654  1.00  0.00    -0.203 F 
ATOM     83  C   UNL A   1      44.380  32.068  26.594  1.00  0.00     0.198 A 
ATOM     84  C   UNL A   1      46.626  32.203  27.416  1.00  0.00     0.198 A 
ATOM     85  F   UNL A   1      47.304  30.869  29.230  1.00  0.00    -0.203 F 
ATOM     86  F   UNL A   1      43.426  32.485  25.749  1.00  0.00    -0.200 F 
ATOM     87  C   UNL A   1      45.648  32.620  26.528  1.00  0.00     0.200 A 
ATOM     88  F   UNL A   1      47.840  32.769  27.387  1.00  0.00    -0.200 F 
ATOM     89  F   UNL A   1      45.920  33.574  25.626  1.00  0.00    -0.200 F 
ENDBRANCH  56  79
ENDBRANCH  30  31
ENDBRANCH  22  25
ENDBRANCH  20  21
ENDBRANCH  19  20
ENDBRANCH   1  19
TORSDOF 13
ENDMDL
MODEL 2
REMARK VINA RESULT:     -11.7      4.614     10.287
REMARK SMILES C[C@H]1OCC[C@H]1c1nnnn1CCC(=O)NCCCNC(=O)c1ccc(-c2c3nc(c(-c4c(F)c(F)c(F)c(F)c4F)c4ccc([nH]4)c(-c4c(F)c(F)c(F)c(F)c4F)c4nc(c(-c5c(F)c(F)c(F)c(F)c5F)c5ccc2[nH]5)C=C4)C=C3)cc1
REMARK SMILES IDX 17 1 16 2 14 3 15 4 13 6 12 7 11 8 7 9 8 10 9 11 10 12 6 13
REMARK SMILES IDX 1 14 2 15 3 16 4 17 5 18 18 19 19 20 20 21 21 22 22 24 23 25
REMARK SMILES IDX 24 26 85 27 25 28 84 29 26 30 27 31 28 32 78 33 29 34 83 35
REMARK SMILES IDX 77 36 79 37 30 38 82 39 76 40 75 41 31 43 63 44 43 45 62 46
REMARK SMILES IDX 44 47 47 48 61 49 80 50 45 51 46 52 60 54 81 55 48 56 32 57
REMARK SMILES IDX 33 58 41 59 34 60 35 61 39 62 42 63 36 64 37 65 40 66 38 67
REMARK SMILES IDX 64 68 65 69 73 70 66 71 67 72 71 73 74 74 68 75 69 76 72 77
REMARK SMILES IDX 70 78 49 79 50 80 58 81 51 82 52 83 56 84 59 85 53 86 54 87
REMARK SMILES IDX 57 88 55 89
REMARK H PARENT 16 5 20 23 79 42 47 53
REMARK Flexibility Score: inf
ROOT
ATOM      1  C   UNL A   1      36.689  22.800  25.724  1.00  0.00     0.117 C 
ENDROOT
BRANCH   1   2
ATOM      2  N   UNL A   1      35.821  22.021  26.607  1.00  0.00    -0.356 N 
ATOM      3  C   UNL A   1      34.467  22.063  26.764  1.00  0.00     0.221 C 
ATOM      4  O   UNL A   1      33.950  21.418  27.676  1.00  0.00    -0.275 OA
ATOM      5  H   UNL A   1      36.286  21.366  27.176  1.00  0.00     0.163 HD
BRANCH   3   6
ATOM      6  C   UNL A   1      33.614  22.849  25.798  1.00  0.00     0.124 C 
BRANCH   6   7
ATOM      7  C   UNL A   1      33.347  24.275  26.261  1.00  0.00     0.158 C 
BRANCH   7   8
ATOM      8  N   UNL A   1      31.951  24.639  26.349  1.00  0.00    -0.229 N 
ATOM      9  C   UNL A   1      31.258  25.686  25.783  1.00  0.00     0.157 A 
ATOM     10  N   UNL A   1      30.013  25.611  26.211  1.00  0.00    -0.113 NA
ATOM     11  N   UNL A   1      29.908  24.425  26.887  1.00  0.00    -0.024 NA
ATOM     12  N   UNL A   1      31.078  23.804  26.938  1.00  0.00    -0.045 NA
BRANCH   9  13
ATOM     13  C   UNL A   1      31.784  26.604  24.727  1.00  0.00     0.090 C 
ATOM     14  C   UNL A   1      31.173  24.605  23.131  1.00  0.00     0.039 C 
ATOM     15  C   UNL A   1      31.494  26.088  23.299  1.00  0.00     0.126 C 
ATOM     16  O   UNL A   1      30.375  26.833  22.778  1.00  0.00    -0.378 OA
ATOM     17  C   UNL A   1      29.882  27.690  23.811  1.00  0.00     0.161 C 
ATOM     18  C   UNL A   1      31.071  27.952  24.710  1.00  0.00     0.043 C 
ENDBRANCH   9  13
ENDBRANCH   7   8
ENDBRANCH   6   7
ENDBRANCH   3   6
ENDBRANCH   1   2
BRANCH   1  19
ATOM     19  C   UNL A   1      37.964  22.039  25.372  1.00  0.00     0.042 C 
BRANCH  19  20
ATOM     20  C   UNL A   1      39.069  22.220  26.381  1.00  0.00     0.118 C 
BRANCH  20  21
ATOM     21  N   UNL A   1      40.406  21.847  25.914  1.00  0.00    -0.352 N 
ATOM     22  C   UNL A   1      41.565  22.605  25.993  1.00  0.00     0.251 C 
ATOM     23  H   UNL A   1      40.493  20.958  25.498  1.00  0.00     0.163 HD
ATOM     24  O   UNL A   1      42.564  22.302  25.325  1.00  0.00    -0.269 OA
BRANCH  22  25
ATOM     25  C   UNL A   1      41.591  23.792  26.870  1.00  0.00     0.039 A 
ATOM     26  C   UNL A   1      42.320  23.882  28.057  1.00  0.00     0.014 A 
ATOM     27  C   UNL A   1      40.887  24.896  26.425  1.00  0.00     0.014 A 
ATOM     28  C   UNL A   1      42.323  25.103  28.736  1.00  0.00     0.010 A 
ATOM     29  C   UNL A   1      41.260  26.132  26.830  1.00  0.00     0.010 A 
ATOM     30  C   UNL A   1      41.768  26.226  28.102  1.00  0.00    -0.014 A 
BRANCH  30  31
ATOM     31  C   UNL A   1      41.660  27.544  28.703  1.00  0.00     0.031 A 
ATOM     32  C   UNL A   1      42.726  28.481  28.301  1.00  0.00     0.074 A 
ATOM     33  C   UNL A   1      40.551  27.954  29.365  1.00  0.00     0.049 A 
ATOM     34  N   UNL A   1      43.674  28.948  29.038  1.00  0.00    -0.248 NA
ATOM     35  C   UNL A   1      42.837  28.828  26.877  1.00  0.00     0.031 C 
ATOM     36  C   UNL A   1      39.258  27.268  29.539  1.00  0.00     0.029 A 
ATOM     37  N   UNL A   1      40.314  29.156  29.955  1.00  0.00    -0.354 N 
ATOM     38  C   UNL A   1      44.397  29.807  28.220  1.00  0.00     0.074 A 
ATOM     39  C   UNL A   1      43.960  29.549  26.872  1.00  0.00     0.031 C 
ATOM     40  C   UNL A   1      38.325  28.144  29.975  1.00  0.00     0.029 A 
ATOM     41  C   UNL A   1      38.986  29.395  30.287  1.00  0.00     0.049 A 
ATOM     42  H   UNL A   1      41.030  29.808  30.134  1.00  0.00     0.167 HD
ATOM     43  C   UNL A   1      45.117  30.830  28.756  1.00  0.00     0.037 A 
ATOM     44  C   UNL A   1      38.472  30.556  30.761  1.00  0.00     0.037 A 
ATOM     45  C   UNL A   1      45.290  30.655  30.177  1.00  0.00     0.049 A 
ATOM     46  C   UNL A   1      39.611  31.346  31.297  1.00  0.00     0.074 A 
ATOM     47  C   UNL A   1      45.873  29.682  30.965  1.00  0.00     0.029 A 
ATOM     48  N   UNL A   1      44.462  31.364  31.015  1.00  0.00    -0.354 N 
ATOM     49  N   UNL A   1      40.307  30.992  32.342  1.00  0.00    -0.248 NA
ATOM     50  C   UNL A   1      40.277  32.261  30.381  1.00  0.00     0.031 C 
ATOM     51  C   UNL A   1      45.000  29.543  32.085  1.00  0.00     0.029 A 
ATOM     52  C   UNL A   1      43.980  30.488  31.955  1.00  0.00     0.049 A 
ATOM     53  H   UNL A   1      44.253  32.323  30.952  1.00  0.00     0.167 HD
ATOM     54  C   UNL A   1      41.622  31.287  32.007  1.00  0.00     0.074 A 
ATOM     55  C   UNL A   1      41.532  32.136  30.821  1.00  0.00     0.031 C 
ATOM     56  C   UNL A   1      42.662  30.580  32.540  1.00  0.00     0.037 A 
BRANCH  43  57
ATOM     57  C   UNL A   1      45.340  32.157  28.082  1.00  0.00     0.064 A 
ATOM     58  C   UNL A   1      44.229  32.983  27.824  1.00  0.00     0.173 A 
ATOM     59  C   UNL A   1      46.533  32.514  27.417  1.00  0.00     0.173 A 
ATOM     60  F   UNL A   1      43.040  32.726  28.392  1.00  0.00    -0.203 F 
ATOM     61  C   UNL A   1      44.289  34.033  26.906  1.00  0.00     0.198 A 
ATOM     62  C   UNL A   1      46.603  33.597  26.545  1.00  0.00     0.198 A 
ATOM     63  F   UNL A   1      47.642  31.768  27.488  1.00  0.00    -0.203 F 
ATOM     64  F   UNL A   1      43.174  34.707  26.593  1.00  0.00    -0.200 F 
ATOM     65  C   UNL A   1      45.475  34.334  26.262  1.00  0.00     0.200 A 
ATOM     66  F   UNL A   1      47.758  33.861  25.916  1.00  0.00    -0.200 F 
ATOM     67  F   UNL A   1      45.519  35.298  25.332  1.00  0.00    -0.200 F 
ENDBRANCH  43  57
BRANCH  44  68
ATOM     68  C   UNL A   1      37.146  31.151  30.469  1.00  0.00     0.064 A 
ATOM     69  C   UNL A   1      36.235  31.451  31.495  1.00  0.00     0.173 A 
ATOM     70  C   UNL A   1      36.858  31.693  29.200  1.00  0.00     0.173 A 
ATOM     71  F   UNL A   1      36.460  31.014  32.742  1.00  0.00    -0.203 F 
ATOM     72  C   UNL A   1      35.116  32.262  31.269  1.00  0.00     0.198 A 
ATOM     73  C   UNL A   1      35.740  32.498  28.975  1.00  0.00     0.198 A 
ATOM     74  F   UNL A   1      37.708  31.528  28.177  1.00  0.00    -0.203 F 
ATOM     75  F   UNL A   1      34.298  32.574  32.285  1.00  0.00    -0.200 F 
ATOM     76  C   UNL A   1      34.875  32.793  30.013  1.00  0.00     0.200 A 
ATOM     77  F   UNL A   1      35.540  33.038  27.764  1.00  0.00    -0.200 F 
ATOM     78  F   UNL A   1      33.838  33.618  29.811  1.00  0.00    -0.200 F 
ENDBRANCH  44  68
BRANCH  56  79
ATOM     79  C   UNL A   1      42.372  29.644  33.681  1.00  0.00     0.064 A 
ATOM     80  C   UNL A   1      42.039  28.287  33.523  1.00  0.00     0.173 A 
ATOM     81  C   UNL A   1      42.615  30.098  34.984  1.00  0.00     0.173 A 
ATOM     82  F   UNL A   1      41.881  27.753  32.308  1.00  0.00    -0.203 F 
ATOM     83  C   UNL A   1      41.929  27.435  34.621  1.00  0.00     0.198 A 
ATOM     84  C   UNL A   1      42.537  29.238  36.075  1.00  0.00     0.198 A 
ATOM     85  F   UNL A   1      42.987  31.370  35.192  1.00  0.00    -0.203 F 
ATOM     86  F   UNL A   1      41.611  26.144  34.442  1.00  0.00    -0.200 F 
ATOM     87  C   UNL A   1      42.189  27.909  35.895  1.00  0.00     0.200 A 
ATOM     88  F   UNL A   1      42.837  29.690  37.301  1.00  0.00    -0.200 F 
ATOM     89  F   UNL A   1      42.131  27.080  36.947  1.00  0.00    -0.200 F 
ENDBRANCH  56  79
ENDBRANCH  30  31
ENDBRANCH  22  25
ENDBRANCH  20  21
ENDBRANCH  19  20
ENDBRANCH   1  19
TORSDOF 13
ENDMDL
MODEL 3
REMARK VINA RESULT:     -11.6      4.683      9.509
REMARK SMILES C[C@H]1OCC[C@H]1c1nnnn1CCC(=O)NCCCNC(=O)c1ccc(-c2c3nc(c(-c4c(F)c(F)c(F)c(F)c4F)c4ccc([nH]4)c(-c4c(F)c(F)c(F)c(F)c4F)c4nc(c(-c5c(F)c(F)c(F)c(F)c5F)c5ccc2[nH]5)C=C4)C=C3)cc1
REMARK SMILES IDX 17 1 16 2 14 3 15 4 13 6 12 7 11 8 7 9 8 10 9 11 10 12 6 13
REMARK SMILES IDX 1 14 2 15 3 16 4 17 5 18 18 19 19 20 20 21 21 22 22 24 23 25
REMARK SMILES IDX 24 26 85 27 25 28 84 29 26 30 27 31 28 32 78 33 29 34 83 35
REMARK SMILES IDX 77 36 79 37 30 38 82 39 76 40 75 41 31 43 63 44 43 45 62 46
REMARK SMILES IDX 44 47 47 48 61 49 80 50 45 51 46 52 60 54 81 55 48 56 32 57
REMARK SMILES IDX 33 58 41 59 34 60 35 61 39 62 42 63 36 64 37 65 40 66 38 67
REMARK SMILES IDX 64 68 65 69 73 70 66 71 67 72 71 73 74 74 68 75 69 76 72 77
REMARK SMILES IDX 70 78 49 79 50 80 58 81 51 82 52 83 56 84 59 85 53 86 54 87
REMARK SMILES IDX 57 88 55 89
REMARK H PARENT 16 5 20 23 79 42 47 53
REMARK Flexibility Score: inf
ROOT
ATOM      1  C   UNL A   1      36.670  20.796  24.697  1.00  0.00     0.117 C 
ENDROOT
BRANCH   1   2
ATOM      2  N   UNL A   1      35.686  20.720  25.776  1.00  0.00    -0.356 N 
ATOM      3  C   UNL A   1      34.851  21.679  26.269  1.00  0.00     0.221 C 
ATOM      4  O   UNL A   1      34.200  21.441  27.287  1.00  0.00    -0.275 OA
ATOM      5  H   UNL A   1      35.615  19.842  26.215  1.00  0.00     0.163 HD
BRANCH   3   6
ATOM      6  C   UNL A   1      34.690  22.993  25.543  1.00  0.00     0.124 C 
BRANCH   6   7
ATOM      7  C   UNL A   1      33.305  23.176  24.939  1.00  0.00     0.158 C 
BRANCH   7   8
ATOM      8  N   UNL A   1      32.356  23.869  25.781  1.00  0.00    -0.229 N 
ATOM      9  C   UNL A   1      32.252  25.202  26.111  1.00  0.00     0.157 A 
ATOM     10  N   UNL A   1      31.247  25.321  26.956  1.00  0.00    -0.113 NA
ATOM     11  N   UNL A   1      30.631  24.098  27.000  1.00  0.00    -0.024 NA
ATOM     12  N   UNL A   1      31.278  23.216  26.250  1.00  0.00    -0.045 NA
BRANCH   9  13
ATOM     13  C   UNL A   1      33.012  26.316  25.467  1.00  0.00     0.090 C 
ATOM     14  C   UNL A   1      31.128  26.125  23.642  1.00  0.00     0.039 C 
ATOM     15  C   UNL A   1      32.246  26.945  24.280  1.00  0.00     0.126 C 
ATOM     16  O   UNL A   1      31.665  28.184  24.737  1.00  0.00    -0.378 OA
ATOM     17  C   UNL A   1      31.920  28.314  26.138  1.00  0.00     0.161 C 
ATOM     18  C   UNL A   1      33.184  27.520  26.386  1.00  0.00     0.043 C 
ENDBRANCH   9  13
ENDBRANCH   7   8
ENDBRANCH   6   7
ENDBRANCH   3   6
ENDBRANCH   1   2
BRANCH   1  19
ATOM     19  C   UNL A   1      37.726  19.700  24.819  1.00  0.00     0.042 C 
BRANCH  19  20
ATOM     20  C   UNL A   1      38.895  20.088  25.688  1.00  0.00     0.118 C 
BRANCH  20  21
ATOM     21  N   UNL A   1      39.971  19.098  25.764  1.00  0.00    -0.352 N 
ATOM     22  C   UNL A   1      41.317  19.336  25.998  1.00  0.00     0.251 C 
ATOM     23  H   UNL A   1      39.710  18.157  25.633  1.00  0.00     0.163 HD
ATOM     24  O   UNL A   1      42.163  18.460  25.769  1.00  0.00    -0.269 OA
BRANCH  22  25
ATOM     25  C   UNL A   1      41.737  20.656  26.510  1.00  0.00     0.039 A 
ATOM     26  C   UNL A   1      42.351  21.643  25.739  1.00  0.00     0.014 A 
ATOM     27  C   UNL A   1      41.427  20.925  27.831  1.00  0.00     0.014 A 
ATOM     28  C   UNL A   1      42.607  22.880  26.337  1.00  0.00     0.010 A 
ATOM     29  C   UNL A   1      41.270  22.209  28.230  1.00  0.00     0.010 A 
ATOM     30  C   UNL A   1      42.062  23.140  27.605  1.00  0.00    -0.014 A 
BRANCH  30  31
ATOM     31  C   UNL A   1      42.283  24.358  28.364  1.00  0.00     0.031 A 
ATOM     32  C   UNL A   1      41.200  25.350  28.242  1.00  0.00     0.074 A 
ATOM     33  C   UNL A   1      43.262  24.469  29.295  1.00  0.00     0.049 A 
ATOM     34  N   UNL A   1      41.251  26.495  27.652  1.00  0.00    -0.248 NA
ATOM     35  C   UNL A   1      39.858  24.967  28.706  1.00  0.00     0.031 C 
ATOM     36  C   UNL A   1      44.197  23.446  29.796  1.00  0.00     0.029 A 
ATOM     37  N   UNL A   1      43.564  25.536  30.082  1.00  0.00    -0.354 N 
ATOM     38  C   UNL A   1      39.999  27.068  27.834  1.00  0.00     0.074 A 
ATOM     39  C   UNL A   1      39.137  26.020  28.315  1.00  0.00     0.031 C 
ATOM     40  C   UNL A   1      44.782  23.873  30.937  1.00  0.00     0.029 A 
ATOM     41  C   UNL A   1      44.412  25.258  31.147  1.00  0.00     0.049 A 
ATOM     42  H   UNL A   1      43.208  26.437  29.909  1.00  0.00     0.167 HD
ATOM     43  C   UNL A   1      39.848  28.421  27.807  1.00  0.00     0.037 A 
ATOM     44  C   UNL A   1      44.758  26.109  32.143  1.00  0.00     0.037 A 
ATOM     45  C   UNL A   1      41.008  29.062  27.238  1.00  0.00     0.049 A 
ATOM     46  C   UNL A   1      44.467  27.483  31.657  1.00  0.00     0.074 A 
ATOM     47  C   UNL A   1      41.644  28.995  26.014  1.00  0.00     0.029 A 
ATOM     48  N   UNL A   1      41.925  29.610  28.103  1.00  0.00    -0.354 N 
ATOM     49  N   UNL A   1      45.108  28.053  30.673  1.00  0.00    -0.248 NA
ATOM     50  C   UNL A   1      43.146  28.026  31.940  1.00  0.00     0.031 C 
ATOM     51  C   UNL A   1      43.037  29.031  26.321  1.00  0.00     0.029 A 
ATOM     52  C   UNL A   1      43.169  29.195  27.701  1.00  0.00     0.049 A 
ATOM     53  H   UNL A   1      41.725  30.194  28.870  1.00  0.00     0.167 HD
ATOM     54  C   UNL A   1      44.127  28.718  29.950  1.00  0.00     0.074 A 
ATOM     55  C   UNL A   1      42.953  28.728  30.820  1.00  0.00     0.031 C 
ATOM     56  C   UNL A   1      44.263  28.936  28.609  1.00  0.00     0.037 A 
BRANCH  43  57
ATOM     57  C   UNL A   1      38.834  29.180  28.621  1.00  0.00     0.064 A 
ATOM     58  C   UNL A   1      37.934  30.036  27.957  1.00  0.00     0.173 A 
ATOM     59  C   UNL A   1      38.904  29.334  30.022  1.00  0.00     0.173 A 
ATOM     60  F   UNL A   1      37.800  29.985  26.622  1.00  0.00    -0.203 F 
ATOM     61  C   UNL A   1      37.224  31.027  28.637  1.00  0.00     0.198 A 
ATOM     62  C   UNL A   1      38.150  30.286  30.704  1.00  0.00     0.198 A 
ATOM     63  F   UNL A   1      39.782  28.660  30.773  1.00  0.00    -0.203 F 
ATOM     64  F   UNL A   1      36.482  31.905  27.948  1.00  0.00    -0.200 F 
ATOM     65  C   UNL A   1      37.338  31.156  30.009  1.00  0.00     0.200 A 
ATOM     66  F   UNL A   1      38.290  30.408  32.032  1.00  0.00    -0.200 F 
ATOM     67  F   UNL A   1      36.709  32.147  30.655  1.00  0.00    -0.200 F 
ENDBRANCH  43  57
BRANCH  44  68
ATOM     68  C   UNL A   1      44.989  25.793  33.573  1.00  0.00     0.064 A 
ATOM     69  C   UNL A   1      43.920  25.597  34.462  1.00  0.00     0.173 A 
ATOM     70  C   UNL A   1      46.264  25.405  34.033  1.00  0.00     0.173 A 
ATOM     71  F   UNL A   1      42.669  25.896  34.085  1.00  0.00    -0.203 F 
ATOM     72  C   UNL A   1      44.113  25.027  35.726  1.00  0.00     0.198 A 
ATOM     73  C   UNL A   1      46.456  24.840  35.295  1.00  0.00     0.198 A 
ATOM     74  F   UNL A   1      47.333  25.480  33.228  1.00  0.00    -0.203 F 
ATOM     75  F   UNL A   1      43.061  24.802  36.527  1.00  0.00    -0.200 F 
ATOM     76  C   UNL A   1      45.378  24.639  36.137  1.00  0.00     0.200 A 
ATOM     77  F   UNL A   1      47.679  24.434  35.664  1.00  0.00    -0.200 F 
ATOM     78  F   UNL A   1      45.553  24.038  37.322  1.00  0.00    -0.200 F 
ENDBRANCH  44  68
BRANCH  56  79
ATOM     79  C   UNL A   1      45.602  28.663  27.979  1.00  0.00     0.064 A 
ATOM     80  C   UNL A   1      45.963  27.435  27.396  1.00  0.00     0.173 A 
ATOM     81  C   UNL A   1      46.481  29.740  27.804  1.00  0.00     0.173 A 
ATOM     82  F   UNL A   1      45.140  26.383  27.437  1.00  0.00    -0.203 F 
ATOM     83  C   UNL A   1      47.160  27.290  26.695  1.00  0.00     0.198 A 
ATOM     84  C   UNL A   1      47.659  29.601  27.077  1.00  0.00     0.198 A 
ATOM     85  F   UNL A   1      46.165  30.948  28.294  1.00  0.00    -0.203 F 
ATOM     86  F   UNL A   1      47.480  26.108  26.147  1.00  0.00    -0.200 F 
ATOM     87  C   UNL A   1      48.001  28.376  26.527  1.00  0.00     0.200 A 
ATOM     88  F   UNL A   1      48.446  30.667  26.877  1.00  0.00    -0.200 F 
ATOM     89  F   UNL A   1      49.129  28.251  25.813  1.00  0.00    -0.200 F 
ENDBRANCH  56  79
ENDBRANCH  30  31
ENDBRANCH  22  25
ENDBRANCH  20  21
ENDBRANCH  19  20
ENDBRANCH   1  19
TORSDOF 13
ENDMDL
