MODEL 1
REMARK VINA RESULT:     -15.1      0.000      0.000
REMARK SMILES Cc1ccc(NC(=O)c2ccccc2NC(=O)[C@H]2CCCC[C@H]2C(=O)NCCCNC(=O)c2ccc(-c3c4nc(c(-c5c(F)c(F)c(F)c(F)c5F)c5ccc([nH]5)c(-c5c(F)c(F)c(F)c(F)c5F)c5nc(c(-c6c(F)c(F)c(F)c(F)c6F)c6ccc3[nH]6)C=C5)C=C4)cc2)cc1
REMARK SMILES IDX 27 1 26 2 24 3 25 4 23 6 18 7 19 8 20 9 22 10 21 11 16 12
REMARK SMILES IDX 15 13 17 15 14 16 9 17 10 18 11 19 13 20 12 21 7 22 6 23
REMARK SMILES IDX 8 25 5 26 1 27 2 28 3 29 97 30 4 31 96 32 28 33 29 34 30 35
REMARK SMILES IDX 31 36 32 38 33 39 34 40 95 41 35 42 94 43 36 44 37 45 38 46
REMARK SMILES IDX 88 47 39 48 93 49 87 50 89 51 40 52 92 53 86 54 85 55 41 57
REMARK SMILES IDX 73 58 53 59 72 60 54 61 57 62 71 63 90 64 55 65 56 66 70 68
REMARK SMILES IDX 91 69 58 70 42 71 43 72 51 73 44 74 45 75 49 76 52 77 46 78
REMARK SMILES IDX 47 79 50 80 48 81 74 82 75 83 83 84 76 85 77 86 81 87 84 88
REMARK SMILES IDX 78 89 79 90 82 91 80 92 59 93 60 94 68 95 61 96 62 97 66 98
REMARK SMILES IDX 69 99 63 100 64 101 67 102 65 103
REMARK H PARENT 26 5 15 14 6 24 30 37 89 56 57 67
REMARK Flexibility Score: inf
ROOT
ATOM      1  C   UNL A   1      37.913  23.289  25.945  1.00  0.00     0.117 C 
ENDROOT
BRANCH   1   2
ATOM      2  N   UNL A   1      37.337  23.277  24.604  1.00  0.00    -0.356 N 
ATOM      3  C   UNL A   1      36.162  22.867  24.070  1.00  0.00     0.223 C 
ATOM      4  O   UNL A   1      36.100  22.908  22.834  1.00  0.00    -0.275 OA
ATOM      5  H   UNL A   1      37.946  23.655  23.929  1.00  0.00     0.163 HD
BRANCH   3   6
ATOM      6  C   UNL A   1      34.954  22.322  24.837  1.00  0.00     0.091 C 
ATOM      7  C   UNL A   1      34.059  23.443  25.414  1.00  0.00     0.091 C 
ATOM      8  C   UNL A   1      32.894  22.875  26.250  1.00  0.00     0.014 C 
ATOM      9  C   UNL A   1      32.179  21.686  25.597  1.00  0.00     0.001 C 
ATOM     10  C   UNL A   1      34.219  21.123  24.240  1.00  0.00     0.014 C 
ATOM     11  C   UNL A   1      33.157  20.588  25.196  1.00  0.00     0.001 C 
BRANCH   7  12
ATOM     12  C   UNL A   1      33.482  24.317  24.328  1.00  0.00     0.228 C 
ATOM     13  N   UNL A   1      33.146  25.625  24.473  1.00  0.00    -0.325 N 
ATOM     14  H   UNL A   1      33.052  26.063  23.595  1.00  0.00     0.169 HD
ATOM     15  O   UNL A   1      33.332  23.834  23.200  1.00  0.00    -0.274 OA
BRANCH  13  16
ATOM     16  C   UNL A   1      32.894  26.537  25.518  1.00  0.00     0.054 A 
ATOM     17  C   UNL A   1      31.614  26.582  26.135  1.00  0.00     0.063 A 
ATOM     18  C   UNL A   1      31.348  27.560  27.120  1.00  0.00     0.016 A 
ATOM     19  C   UNL A   1      32.326  28.455  27.534  1.00  0.00     0.001 A 
ATOM     20  C   UNL A   1      33.882  27.396  26.015  1.00  0.00     0.027 A 
ATOM     21  C   UNL A   1      33.598  28.359  26.994  1.00  0.00     0.002 A 
BRANCH  17  22
ATOM     22  C   UNL A   1      30.399  25.793  25.778  1.00  0.00     0.257 C 
ATOM     23  N   UNL A   1      29.512  26.062  24.766  1.00  0.00    -0.322 N 
ATOM     24  H   UNL A   1      28.780  25.405  24.731  1.00  0.00     0.170 HD
ATOM     25  O   UNL A   1      30.132  24.812  26.483  1.00  0.00    -0.269 OA
BRANCH  23  26
ATOM     26  C   UNL A   1      29.395  27.037  23.776  1.00  0.00     0.041 A 
ATOM     27  C   UNL A   1      28.810  30.746  21.715  1.00  0.00     0.044 C 
ATOM     28  C   UNL A   1      28.986  29.383  22.314  1.00  0.00    -0.051 A 
ATOM     29  C   UNL A   1      30.261  28.805  22.394  1.00  0.00     0.005 A 
ATOM     30  C   UNL A   1      27.897  28.704  22.861  1.00  0.00     0.005 A 
ATOM     31  C   UNL A   1      30.467  27.628  23.120  1.00  0.00     0.026 A 
ATOM     32  C   UNL A   1      28.098  27.520  23.563  1.00  0.00     0.026 A 
ENDBRANCH  23  26
ENDBRANCH  17  22
ENDBRANCH  13  16
ENDBRANCH   7  12
ENDBRANCH   3   6
ENDBRANCH   1   2
BRANCH   1  33
ATOM     33  C   UNL A   1      39.146  22.394  26.041  1.00  0.00     0.042 C 
BRANCH  33  34
ATOM     34  C   UNL A   1      40.018  22.613  27.266  1.00  0.00     0.118 C 
BRANCH  34  35
ATOM     35  N   UNL A   1      41.325  23.189  26.929  1.00  0.00    -0.352 N 
ATOM     36  C   UNL A   1      41.681  24.522  26.833  1.00  0.00     0.251 C 
ATOM     37  H   UNL A   1      42.043  22.540  26.749  1.00  0.00     0.163 HD
ATOM     38  O   UNL A   1      42.829  24.876  26.605  1.00  0.00    -0.269 OA
BRANCH  36  39
ATOM     39  C   UNL A   1      40.613  25.510  27.060  1.00  0.00     0.039 A 
ATOM     40  C   UNL A   1      40.730  26.739  26.412  1.00  0.00     0.014 A 
ATOM     41  C   UNL A   1      39.839  25.360  28.207  1.00  0.00     0.014 A 
ATOM     42  C   UNL A   1      40.301  27.880  27.078  1.00  0.00     0.010 A 
ATOM     43  C   UNL A   1      39.482  26.499  28.903  1.00  0.00     0.010 A 
ATOM     44  C   UNL A   1      39.801  27.757  28.377  1.00  0.00    -0.014 A 
BRANCH  44  45
ATOM     45  C   UNL A   1      39.741  28.891  29.294  1.00  0.00     0.031 A 
ATOM     46  C   UNL A   1      38.699  29.920  29.126  1.00  0.00     0.074 A 
ATOM     47  C   UNL A   1      40.636  29.021  30.302  1.00  0.00     0.049 A 
ATOM     48  N   UNL A   1      38.887  31.175  29.375  1.00  0.00    -0.248 NA
ATOM     49  C   UNL A   1      37.368  29.618  28.621  1.00  0.00     0.031 C 
ATOM     50  C   UNL A   1      40.580  29.985  31.398  1.00  0.00     0.029 A 
ATOM     51  N   UNL A   1      41.894  28.407  30.444  1.00  0.00    -0.354 N 
ATOM     52  C   UNL A   1      37.661  31.794  29.315  1.00  0.00     0.074 A 
ATOM     53  C   UNL A   1      36.761  30.799  28.777  1.00  0.00     0.031 C 
ATOM     54  C   UNL A   1      41.810  30.131  31.914  1.00  0.00     0.029 A 
ATOM     55  C   UNL A   1      42.721  29.352  31.097  1.00  0.00     0.049 A 
ATOM     56  H   UNL A   1      42.147  27.502  30.148  1.00  0.00     0.167 HD
ATOM     57  C   UNL A   1      37.503  33.037  29.854  1.00  0.00     0.037 A 
ATOM     58  C   UNL A   1      43.883  29.811  30.550  1.00  0.00     0.037 A 
ATOM     59  C   UNL A   1      38.736  33.516  30.469  1.00  0.00     0.049 A 
ATOM     60  C   UNL A   1      43.924  31.305  30.354  1.00  0.00     0.074 A 
ATOM     61  C   UNL A   1      39.183  33.484  31.781  1.00  0.00     0.029 A 
ATOM     62  N   UNL A   1      39.837  33.838  29.685  1.00  0.00    -0.354 N 
ATOM     63  N   UNL A   1      42.867  32.065  30.403  1.00  0.00    -0.248 NA
ATOM     64  C   UNL A   1      45.132  32.052  30.011  1.00  0.00     0.031 C 
ATOM     65  C   UNL A   1      40.567  33.769  31.784  1.00  0.00     0.029 A 
ATOM     66  C   UNL A   1      40.963  33.983  30.474  1.00  0.00     0.049 A 
ATOM     67  H   UNL A   1      39.818  33.948  28.707  1.00  0.00     0.167 HD
ATOM     68  C   UNL A   1      43.205  33.341  30.039  1.00  0.00     0.074 A 
ATOM     69  C   UNL A   1      44.640  33.292  29.842  1.00  0.00     0.031 C 
ATOM     70  C   UNL A   1      42.257  34.312  29.898  1.00  0.00     0.037 A 
BRANCH  57  71
ATOM     71  C   UNL A   1      36.150  33.660  30.107  1.00  0.00     0.064 A 
ATOM     72  C   UNL A   1      35.360  34.148  29.043  1.00  0.00     0.173 A 
ATOM     73  C   UNL A   1      35.598  33.851  31.386  1.00  0.00     0.173 A 
ATOM     74  F   UNL A   1      35.685  33.922  27.764  1.00  0.00    -0.203 F 
ATOM     75  C   UNL A   1      34.197  34.893  29.254  1.00  0.00     0.198 A 
ATOM     76  C   UNL A   1      34.468  34.646  31.602  1.00  0.00     0.198 A 
ATOM     77  F   UNL A   1      36.114  33.235  32.460  1.00  0.00    -0.203 F 
ATOM     78  F   UNL A   1      33.497  35.343  28.203  1.00  0.00    -0.200 F 
ATOM     79  C   UNL A   1      33.777  35.182  30.535  1.00  0.00     0.200 A 
ATOM     80  F   UNL A   1      34.056  34.890  32.855  1.00  0.00    -0.200 F 
ATOM     81  F   UNL A   1      32.695  35.946  30.739  1.00  0.00    -0.200 F 
ENDBRANCH  57  71
BRANCH  58  82
ATOM     82  C   UNL A   1      44.524  28.824  29.645  1.00  0.00     0.064 A 
ATOM     83  C   UNL A   1      44.278  28.944  28.265  1.00  0.00     0.173 A 
ATOM     84  C   UNL A   1      45.653  28.103  30.050  1.00  0.00     0.173 A 
ATOM     85  F   UNL A   1      43.202  29.621  27.831  1.00  0.00    -0.203 F 
ATOM     86  C   UNL A   1      45.211  28.507  27.330  1.00  0.00     0.198 A 
ATOM     87  C   UNL A   1      46.572  27.645  29.108  1.00  0.00     0.198 A 
ATOM     88  F   UNL A   1      45.936  27.960  31.352  1.00  0.00    -0.203 F 
ATOM     89  F   UNL A   1      45.030  28.780  26.029  1.00  0.00    -0.200 F 
ATOM     90  C   UNL A   1      46.375  27.891  27.755  1.00  0.00     0.200 A 
ATOM     91  F   UNL A   1      47.709  27.063  29.516  1.00  0.00    -0.200 F 
ATOM     92  F   UNL A   1      47.332  27.585  26.869  1.00  0.00    -0.200 F 
ENDBRANCH  58  82
BRANCH  70  93
ATOM     93  C   UNL A   1      42.474  35.682  29.308  1.00  0.00     0.064 A 
ATOM     94  C   UNL A   1      41.875  36.129  28.120  1.00  0.00     0.173 A 
ATOM     95  C   UNL A   1      43.221  36.653  30.018  1.00  0.00     0.173 A 
ATOM     96  F   UNL A   1      41.039  35.346  27.424  1.00  0.00    -0.203 F 
ATOM     97  C   UNL A   1      42.070  37.426  27.637  1.00  0.00     0.198 A 
ATOM     98  C   UNL A   1      43.367  37.962  29.563  1.00  0.00     0.198 A 
ATOM     99  F   UNL A   1      43.813  36.365  31.187  1.00  0.00    -0.203 F 
ATOM    100  F   UNL A   1      41.516  37.790  26.472  1.00  0.00    -0.200 F 
ATOM    101  C   UNL A   1      42.808  38.344  28.361  1.00  0.00     0.200 A 
ATOM    102  F   UNL A   1      44.039  38.855  30.303  1.00  0.00    -0.200 F 
ATOM    103  F   UNL A   1      42.962  39.596  27.912  1.00  0.00    -0.200 F 
ENDBRANCH  70  93
ENDBRANCH  44  45
ENDBRANCH  36  39
ENDBRANCH  34  35
ENDBRANCH  33  34
ENDBRANCH   1  33
TORSDOF 14
ENDMDL
MODEL 2
REMARK VINA RESULT:     -14.9      1.678      3.074
REMARK SMILES Cc1ccc(NC(=O)c2ccccc2NC(=O)[C@H]2CCCC[C@H]2C(=O)NCCCNC(=O)c2ccc(-c3c4nc(c(-c5c(F)c(F)c(F)c(F)c5F)c5ccc([nH]5)c(-c5c(F)c(F)c(F)c(F)c5F)c5nc(c(-c6c(F)c(F)c(F)c(F)c6F)c6ccc3[nH]6)C=C5)C=C4)cc2)cc1
REMARK SMILES IDX 27 1 26 2 24 3 25 4 23 6 18 7 19 8 20 9 22 10 21 11 16 12
REMARK SMILES IDX 15 13 17 15 14 16 9 17 10 18 11 19 13 20 12 21 7 22 6 23
REMARK SMILES IDX 8 25 5 26 1 27 2 28 3 29 97 30 4 31 96 32 28 33 29 34 30 35
REMARK SMILES IDX 31 36 32 38 33 39 34 40 95 41 35 42 94 43 36 44 37 45 38 46
REMARK SMILES IDX 88 47 39 48 93 49 87 50 89 51 40 52 92 53 86 54 85 55 41 57
REMARK SMILES IDX 73 58 53 59 72 60 54 61 57 62 71 63 90 64 55 65 56 66 70 68
REMARK SMILES IDX 91 69 58 70 42 71 43 72 51 73 44 74 45 75 49 76 52 77 46 78
REMARK SMILES IDX 47 79 50 80 48 81 74 82 75 83 83 84 76 85 77 86 81 87 84 88
REMARK SMILES IDX 78 89 79 90 82 91 80 92 59 93 60 94 68 95 61 96 62 97 66 98
REMARK SMILES IDX 69 99 63 100 64 101 67 102 65 103
REMARK H PARENT 26 5 15 14 6 24 30 37 89 56 57 67
REMARK Flexibility Score: inf
ROOT
ATOM      1  C   UNL A   1      36.512  21.537  25.353  1.00  0.00     0.117 C 
ENDROOT
BRANCH   1   2
ATOM      2  N   UNL A   1      35.667  21.812  26.511  1.00  0.00    -0.356 N 
ATOM      3  C   UNL A   1      34.356  22.096  26.693  1.00  0.00     0.223 C 
ATOM      4  O   UNL A   1      34.038  22.402  27.850  1.00  0.00    -0.275 OA
ATOM      5  H   UNL A   1      36.169  21.785  27.358  1.00  0.00     0.163 HD
BRANCH   3   6
ATOM      6  C   UNL A   1      33.271  22.123  25.613  1.00  0.00     0.091 C 
ATOM      7  C   UNL A   1      32.656  23.528  25.422  1.00  0.00     0.091 C 
ATOM      8  C   UNL A   1      31.511  23.519  24.389  1.00  0.00     0.014 C 
ATOM      9  C   UNL A   1      31.826  22.724  23.116  1.00  0.00     0.001 C 
ATOM     10  C   UNL A   1      33.526  21.328  24.334  1.00  0.00     0.014 C 
ATOM     11  C   UNL A   1      32.293  21.308  23.435  1.00  0.00     0.001 C 
BRANCH   7  12
ATOM     12  C   UNL A   1      33.686  24.539  24.981  1.00  0.00     0.228 C 
ATOM     13  N   UNL A   1      33.411  25.779  24.500  1.00  0.00    -0.325 N 
ATOM     14  H   UNL A   1      34.210  26.354  24.532  1.00  0.00     0.169 HD
ATOM     15  O   UNL A   1      34.883  24.248  25.095  1.00  0.00    -0.274 OA
BRANCH  13  16
ATOM     16  C   UNL A   1      32.310  26.479  23.967  1.00  0.00     0.054 A 
ATOM     17  C   UNL A   1      31.346  27.063  24.833  1.00  0.00     0.063 A 
ATOM     18  C   UNL A   1      30.201  27.687  24.285  1.00  0.00     0.016 A 
ATOM     19  C   UNL A   1      30.017  27.783  22.912  1.00  0.00     0.001 A 
ATOM     20  C   UNL A   1      32.138  26.665  22.589  1.00  0.00     0.027 A 
ATOM     21  C   UNL A   1      30.996  27.288  22.066  1.00  0.00     0.002 A 
BRANCH  17  22
ATOM     22  C   UNL A   1      31.291  26.989  26.322  1.00  0.00     0.257 C 
ATOM     23  N   UNL A   1      32.000  27.758  27.210  1.00  0.00    -0.322 N 
ATOM     24  H   UNL A   1      31.806  27.518  28.146  1.00  0.00     0.170 HD
ATOM     25  O   UNL A   1      30.561  26.124  26.821  1.00  0.00    -0.269 OA
BRANCH  23  26
ATOM     26  C   UNL A   1      32.928  28.795  27.113  1.00  0.00     0.041 A 
ATOM     27  C   UNL A   1      35.413  32.175  27.978  1.00  0.00     0.044 C 
ATOM     28  C   UNL A   1      34.561  31.022  27.539  1.00  0.00    -0.051 A 
ATOM     29  C   UNL A   1      35.120  29.743  27.395  1.00  0.00     0.005 A 
ATOM     30  C   UNL A   1      33.191  31.191  27.335  1.00  0.00     0.005 A 
ATOM     31  C   UNL A   1      34.306  28.629  27.177  1.00  0.00     0.026 A 
ATOM     32  C   UNL A   1      32.383  30.084  27.093  1.00  0.00     0.026 A 
ENDBRANCH  23  26
ENDBRANCH  17  22
ENDBRANCH  13  16
ENDBRANCH   7  12
ENDBRANCH   3   6
ENDBRANCH   1   2
BRANCH   1  33
ATOM     33  C   UNL A   1      37.996  21.645  25.694  1.00  0.00     0.042 C 
BRANCH  33  34
ATOM     34  C   UNL A   1      38.494  23.045  26.010  1.00  0.00     0.118 C 
BRANCH  34  35
ATOM     35  N   UNL A   1      39.947  23.092  26.212  1.00  0.00    -0.352 N 
ATOM     36  C   UNL A   1      40.712  24.120  26.734  1.00  0.00     0.251 C 
ATOM     37  H   UNL A   1      40.442  22.286  25.940  1.00  0.00     0.163 HD
ATOM     38  O   UNL A   1      41.917  24.011  26.911  1.00  0.00    -0.269 OA
BRANCH  36  39
ATOM     39  C   UNL A   1      39.997  25.351  27.110  1.00  0.00     0.039 A 
ATOM     40  C   UNL A   1      40.411  26.539  26.508  1.00  0.00     0.014 A 
ATOM     41  C   UNL A   1      39.311  25.346  28.321  1.00  0.00     0.014 A 
ATOM     42  C   UNL A   1      40.386  27.705  27.264  1.00  0.00     0.010 A 
ATOM     43  C   UNL A   1      39.357  26.486  29.098  1.00  0.00     0.010 A 
ATOM     44  C   UNL A   1      39.981  27.637  28.599  1.00  0.00    -0.014 A 
BRANCH  44  45
ATOM     45  C   UNL A   1      40.328  28.673  29.567  1.00  0.00     0.031 A 
ATOM     46  C   UNL A   1      39.328  29.683  29.955  1.00  0.00     0.074 A 
ATOM     47  C   UNL A   1      41.564  28.729  30.116  1.00  0.00     0.049 A 
ATOM     48  N   UNL A   1      39.620  30.912  30.228  1.00  0.00    -0.248 NA
ATOM     49  C   UNL A   1      37.902  29.394  30.025  1.00  0.00     0.031 C 
ATOM     50  C   UNL A   1      41.988  29.579  31.227  1.00  0.00     0.029 A 
ATOM     51  N   UNL A   1      42.757  28.141  29.656  1.00  0.00    -0.354 N 
ATOM     52  C   UNL A   1      38.492  31.499  30.749  1.00  0.00     0.074 A 
ATOM     53  C   UNL A   1      37.434  30.535  30.539  1.00  0.00     0.031 C 
ATOM     54  C   UNL A   1      43.323  29.709  31.193  1.00  0.00     0.029 A 
ATOM     55  C   UNL A   1      43.796  29.041  29.995  1.00  0.00     0.049 A 
ATOM     56  H   UNL A   1      42.849  27.277  29.192  1.00  0.00     0.167 HD
ATOM     57  C   UNL A   1      38.592  32.678  31.428  1.00  0.00     0.037 A 
ATOM     58  C   UNL A   1      44.629  29.584  29.063  1.00  0.00     0.037 A 
ATOM     59  C   UNL A   1      39.977  33.129  31.516  1.00  0.00     0.049 A 
ATOM     60  C   UNL A   1      44.606  31.092  29.020  1.00  0.00     0.074 A 
ATOM     61  C   UNL A   1      40.932  32.981  32.510  1.00  0.00     0.029 A 
ATOM     62  N   UNL A   1      40.653  33.559  30.381  1.00  0.00    -0.354 N 
ATOM     63  N   UNL A   1      43.678  31.811  29.583  1.00  0.00    -0.248 NA
ATOM     64  C   UNL A   1      45.570  31.903  28.281  1.00  0.00     0.031 C 
ATOM     65  C   UNL A   1      42.194  33.305  31.963  1.00  0.00     0.029 A 
ATOM     66  C   UNL A   1      42.008  33.657  30.637  1.00  0.00     0.049 A 
ATOM     67  H   UNL A   1      40.228  33.763  29.517  1.00  0.00     0.167 HD
ATOM     68  C   UNL A   1      43.852  33.126  29.242  1.00  0.00     0.074 A 
ATOM     69  C   UNL A   1      45.072  33.138  28.459  1.00  0.00     0.031 C 
ATOM     70  C   UNL A   1      42.946  34.079  29.610  1.00  0.00     0.037 A 
BRANCH  57  71
ATOM     71  C   UNL A   1      37.479  33.234  32.285  1.00  0.00     0.064 A 
ATOM     72  C   UNL A   1      36.454  34.028  31.726  1.00  0.00     0.173 A 
ATOM     73  C   UNL A   1      37.396  33.058  33.677  1.00  0.00     0.173 A 
ATOM     74  F   UNL A   1      36.321  34.175  30.402  1.00  0.00    -0.203 F 
ATOM     75  C   UNL A   1      35.521  34.708  32.512  1.00  0.00     0.198 A 
ATOM     76  C   UNL A   1      36.501  33.784  34.470  1.00  0.00     0.198 A 
ATOM     77  F   UNL A   1      38.150  32.144  34.305  1.00  0.00    -0.203 F 
ATOM     78  F   UNL A   1      34.580  35.461  31.924  1.00  0.00    -0.200 F 
ATOM     79  C   UNL A   1      35.574  34.623  33.888  1.00  0.00     0.200 A 
ATOM     80  F   UNL A   1      36.546  33.664  35.806  1.00  0.00    -0.200 F 
ATOM     81  F   UNL A   1      34.717  35.321  34.645  1.00  0.00    -0.200 F 
ENDBRANCH  57  71
BRANCH  58  82
ATOM     82  C   UNL A   1      44.817  28.710  27.878  1.00  0.00     0.064 A 
ATOM     83  C   UNL A   1      45.503  27.495  28.062  1.00  0.00     0.173 A 
ATOM     84  C   UNL A   1      43.993  28.835  26.754  1.00  0.00     0.173 A 
ATOM     85  F   UNL A   1      46.311  27.334  29.122  1.00  0.00    -0.203 F 
ATOM     86  C   UNL A   1      45.244  26.396  27.249  1.00  0.00     0.198 A 
ATOM     87  C   UNL A   1      43.756  27.737  25.928  1.00  0.00     0.198 A 
ATOM     88  F   UNL A   1      43.314  29.969  26.532  1.00  0.00    -0.203 F 
ATOM     89  F   UNL A   1      45.786  25.206  27.545  1.00  0.00    -0.200 F 
ATOM     90  C   UNL A   1      44.343  26.509  26.205  1.00  0.00     0.200 A 
ATOM     91  F   UNL A   1      42.871  27.837  24.926  1.00  0.00    -0.200 F 
ATOM     92  F   UNL A   1      43.994  25.423  25.502  1.00  0.00    -0.200 F 
ENDBRANCH  58  82
BRANCH  70  93
ATOM     93  C   UNL A   1      42.918  35.506  29.125  1.00  0.00     0.064 A 
ATOM     94  C   UNL A   1      42.230  35.931  27.977  1.00  0.00     0.173 A 
ATOM     95  C   UNL A   1      43.500  36.535  29.903  1.00  0.00     0.173 A 
ATOM     96  F   UNL A   1      41.528  35.070  27.227  1.00  0.00    -0.203 F 
ATOM     97  C   UNL A   1      42.193  37.274  27.592  1.00  0.00     0.198 A 
ATOM     98  C   UNL A   1      43.413  37.880  29.548  1.00  0.00     0.198 A 
ATOM     99  F   UNL A   1      44.152  36.266  31.045  1.00  0.00    -0.203 F 
ATOM    100  F   UNL A   1      41.565  37.623  26.461  1.00  0.00    -0.200 F 
ATOM    101  C   UNL A   1      42.777  38.248  28.381  1.00  0.00     0.200 A 
ATOM    102  F   UNL A   1      43.936  38.817  30.352  1.00  0.00    -0.200 F 
ATOM    103  F   UNL A   1      42.707  39.538  28.028  1.00  0.00    -0.200 F 
ENDBRANCH  70  93
ENDBRANCH  44  45
ENDBRANCH  36  39
ENDBRANCH  34  35
ENDBRANCH  33  34
ENDBRANCH   1  33
TORSDOF 14
ENDMDL
MODEL 3
REMARK VINA RESULT:     -14.7      2.195      3.338
REMARK SMILES Cc1ccc(NC(=O)c2ccccc2NC(=O)[C@H]2CCCC[C@H]2C(=O)NCCCNC(=O)c2ccc(-c3c4nc(c(-c5c(F)c(F)c(F)c(F)c5F)c5ccc([nH]5)c(-c5c(F)c(F)c(F)c(F)c5F)c5nc(c(-c6c(F)c(F)c(F)c(F)c6F)c6ccc3[nH]6)C=C5)C=C4)cc2)cc1
REMARK SMILES IDX 27 1 26 2 24 3 25 4 23 6 18 7 19 8 20 9 22 10 21 11 16 12
REMARK SMILES IDX 15 13 17 15 14 16 9 17 10 18 11 19 13 20 12 21 7 22 6 23
REMARK SMILES IDX 8 25 5 26 1 27 2 28 3 29 97 30 4 31 96 32 28 33 29 34 30 35
REMARK SMILES IDX 31 36 32 38 33 39 34 40 95 41 35 42 94 43 36 44 37 45 38 46
REMARK SMILES IDX 88 47 39 48 93 49 87 50 89 51 40 52 92 53 86 54 85 55 41 57
REMARK SMILES IDX 73 58 53 59 72 60 54 61 57 62 71 63 90 64 55 65 56 66 70 68
REMARK SMILES IDX 91 69 58 70 42 71 43 72 51 73 44 74 45 75 49 76 52 77 46 78
REMARK SMILES IDX 47 79 50 80 48 81 74 82 75 83 83 84 76 85 77 86 81 87 84 88
REMARK SMILES IDX 78 89 79 90 82 91 80 92 59 93 60 94 68 95 61 96 62 97 66 98
REMARK SMILES IDX 69 99 63 100 64 101 67 102 65 103
REMARK H PARENT 26 5 15 14 6 24 30 37 89 56 57 67
REMARK Flexibility Score: inf
ROOT
ATOM      1  C   UNL A   1      37.414  23.699  25.999  1.00  0.00     0.117 C 
ENDROOT
BRANCH   1   2
ATOM      2  N   UNL A   1      36.998  23.514  24.613  1.00  0.00    -0.356 N 
ATOM      3  C   UNL A   1      35.943  22.927  24.001  1.00  0.00     0.223 C 
ATOM      4  O   UNL A   1      36.016  22.864  22.766  1.00  0.00    -0.275 OA
ATOM      5  H   UNL A   1      37.633  23.909  23.973  1.00  0.00     0.163 HD
BRANCH   3   6
ATOM      6  C   UNL A   1      34.724  22.302  24.686  1.00  0.00     0.091 C 
ATOM      7  C   UNL A   1      33.757  23.361  25.264  1.00  0.00     0.091 C 
ATOM      8  C   UNL A   1      32.579  22.712  26.019  1.00  0.00     0.014 C 
ATOM      9  C   UNL A   1      31.945  21.525  25.284  1.00  0.00     0.001 C 
ATOM     10  C   UNL A   1      34.068  21.102  24.006  1.00  0.00     0.014 C 
ATOM     11  C   UNL A   1      32.986  20.484  24.887  1.00  0.00     0.001 C 
BRANCH   7  12
ATOM     12  C   UNL A   1      33.196  24.257  24.188  1.00  0.00     0.228 C 
ATOM     13  N   UNL A   1      32.924  25.580  24.334  1.00  0.00    -0.325 N 
ATOM     14  H   UNL A   1      32.830  26.018  23.457  1.00  0.00     0.169 HD
ATOM     15  O   UNL A   1      32.997  23.777  23.065  1.00  0.00    -0.274 OA
BRANCH  13  16
ATOM     16  C   UNL A   1      32.739  26.506  25.380  1.00  0.00     0.054 A 
ATOM     17  C   UNL A   1      31.496  26.570  26.067  1.00  0.00     0.063 A 
ATOM     18  C   UNL A   1      31.294  27.563  27.054  1.00  0.00     0.016 A 
ATOM     19  C   UNL A   1      32.301  28.452  27.403  1.00  0.00     0.001 A 
ATOM     20  C   UNL A   1      33.761  27.361  25.812  1.00  0.00     0.027 A 
ATOM     21  C   UNL A   1      33.540  28.337  26.794  1.00  0.00     0.002 A 
BRANCH  17  22
ATOM     22  C   UNL A   1      30.256  25.790  25.787  1.00  0.00     0.257 C 
ATOM     23  N   UNL A   1      29.319  26.053  24.820  1.00  0.00    -0.322 N 
ATOM     24  H   UNL A   1      28.579  25.404  24.834  1.00  0.00     0.170 HD
ATOM     25  O   UNL A   1      30.016  24.822  26.520  1.00  0.00    -0.269 OA
BRANCH  23  26
ATOM     26  C   UNL A   1      29.159  27.015  23.822  1.00  0.00     0.041 A 
ATOM     27  C   UNL A   1      28.481  30.694  21.738  1.00  0.00     0.044 C 
ATOM     28  C   UNL A   1      28.685  29.340  22.347  1.00  0.00    -0.051 A 
ATOM     29  C   UNL A   1      29.964  28.765  22.383  1.00  0.00     0.005 A 
ATOM     30  C   UNL A   1      27.620  28.666  22.947  1.00  0.00     0.005 A 
ATOM     31  C   UNL A   1      30.202  27.599  23.115  1.00  0.00     0.026 A 
ATOM     32  C   UNL A   1      27.853  27.492  23.656  1.00  0.00     0.026 A 
ENDBRANCH  23  26
ENDBRANCH  17  22
ENDBRANCH  13  16
ENDBRANCH   7  12
ENDBRANCH   3   6
ENDBRANCH   1   2
BRANCH   1  33
ATOM     33  C   UNL A   1      38.901  24.029  26.107  1.00  0.00     0.042 C 
BRANCH  33  34
ATOM     34  C   UNL A   1      39.725  23.066  26.944  1.00  0.00     0.118 C 
BRANCH  34  35
ATOM     35  N   UNL A   1      40.354  22.015  26.137  1.00  0.00    -0.352 N 
ATOM     36  C   UNL A   1      41.687  21.650  26.082  1.00  0.00     0.251 C 
ATOM     37  H   UNL A   1      39.745  21.500  25.558  1.00  0.00     0.163 HD
ATOM     38  O   UNL A   1      42.079  20.706  25.409  1.00  0.00    -0.269 OA
BRANCH  36  39
ATOM     39  C   UNL A   1      42.621  22.433  26.908  1.00  0.00     0.039 A 
ATOM     40  C   UNL A   1      42.588  22.220  28.286  1.00  0.00     0.014 A 
ATOM     41  C   UNL A   1      43.121  23.612  26.363  1.00  0.00     0.014 A 
ATOM     42  C   UNL A   1      42.793  23.307  29.127  1.00  0.00     0.010 A 
ATOM     43  C   UNL A   1      43.249  24.708  27.194  1.00  0.00     0.010 A 
ATOM     44  C   UNL A   1      42.991  24.570  28.563  1.00  0.00    -0.014 A 
BRANCH  44  45
ATOM     45  C   UNL A   1      42.780  25.798  29.323  1.00  0.00     0.031 A 
ATOM     46  C   UNL A   1      41.602  26.641  29.049  1.00  0.00     0.074 A 
ATOM     47  C   UNL A   1      43.656  26.187  30.279  1.00  0.00     0.049 A 
ATOM     48  N   UNL A   1      41.612  27.931  29.123  1.00  0.00    -0.248 NA
ATOM     49  C   UNL A   1      40.322  26.091  28.626  1.00  0.00     0.031 C 
ATOM     50  C   UNL A   1      43.475  27.274  31.238  1.00  0.00     0.029 A 
ATOM     51  N   UNL A   1      44.990  25.778  30.465  1.00  0.00    -0.354 N 
ATOM     52  C   UNL A   1      40.311  28.360  29.015  1.00  0.00     0.074 A 
ATOM     53  C   UNL A   1      39.556  27.186  28.640  1.00  0.00     0.031 C 
ATOM     54  C   UNL A   1      44.677  27.658  31.695  1.00  0.00     0.029 A 
ATOM     55  C   UNL A   1      45.681  26.910  30.963  1.00  0.00     0.049 A 
ATOM     56  H   UNL A   1      45.365  24.886  30.286  1.00  0.00     0.167 HD
ATOM     57  C   UNL A   1      39.983  29.631  29.388  1.00  0.00     0.037 A 
ATOM     58  C   UNL A   1      46.762  27.447  30.328  1.00  0.00     0.037 A 
ATOM     59  C   UNL A   1      41.142  30.356  29.900  1.00  0.00     0.049 A 
ATOM     60  C   UNL A   1      46.589  28.892  29.934  1.00  0.00     0.074 A 
ATOM     61  C   UNL A   1      41.601  30.564  31.191  1.00  0.00     0.029 A 
ATOM     62  N   UNL A   1      42.179  30.718  29.049  1.00  0.00    -0.354 N 
ATOM     63  N   UNL A   1      45.436  29.496  29.911  1.00  0.00    -0.248 NA
ATOM     64  C   UNL A   1      47.676  29.745  29.460  1.00  0.00     0.031 C 
ATOM     65  C   UNL A   1      42.931  31.037  31.116  1.00  0.00     0.029 A 
ATOM     66  C   UNL A   1      43.281  31.123  29.780  1.00  0.00     0.049 A 
ATOM     67  H   UNL A   1      42.136  30.690  28.066  1.00  0.00     0.167 HD
ATOM     68  C   UNL A   1      45.587  30.745  29.370  1.00  0.00     0.074 A 
ATOM     69  C   UNL A   1      47.012  30.870  29.141  1.00  0.00     0.031 C 
ATOM     70  C   UNL A   1      44.509  31.548  29.129  1.00  0.00     0.037 A 
BRANCH  57  71
ATOM     71  C   UNL A   1      38.558  30.089  29.594  1.00  0.00     0.064 A 
ATOM     72  C   UNL A   1      37.714  30.365  28.496  1.00  0.00     0.173 A 
ATOM     73  C   UNL A   1      37.981  30.322  30.855  1.00  0.00     0.173 A 
ATOM     74  F   UNL A   1      38.071  30.066  27.241  1.00  0.00    -0.203 F 
ATOM     75  C   UNL A   1      36.461  30.964  28.648  1.00  0.00     0.198 A 
ATOM     76  C   UNL A   1      36.754  30.976  31.006  1.00  0.00     0.198 A 
ATOM     77  F   UNL A   1      38.570  29.883  31.977  1.00  0.00    -0.203 F 
ATOM     78  F   UNL A   1      35.711  31.217  27.565  1.00  0.00    -0.200 F 
ATOM     79  C   UNL A   1      36.001  31.313  29.900  1.00  0.00     0.200 A 
ATOM     80  F   UNL A   1      36.308  31.279  32.234  1.00  0.00    -0.200 F 
ATOM     81  F   UNL A   1      34.826  31.941  30.042  1.00  0.00    -0.200 F 
ENDBRANCH  57  71
BRANCH  58  82
ATOM     82  C   UNL A   1      47.527  26.445  29.545  1.00  0.00     0.064 A 
ATOM     83  C   UNL A   1      47.274  26.360  28.163  1.00  0.00     0.173 A 
ATOM     84  C   UNL A   1      48.737  25.929  30.023  1.00  0.00     0.173 A 
ATOM     85  F   UNL A   1      46.123  26.836  27.661  1.00  0.00    -0.203 F 
ATOM     86  C   UNL A   1      48.259  25.933  27.279  1.00  0.00     0.198 A 
ATOM     87  C   UNL A   1      49.712  25.478  29.134  1.00  0.00     0.198 A 
ATOM     88  F   UNL A   1      49.031  25.986  31.329  1.00  0.00    -0.203 F 
ATOM     89  F   UNL A   1      48.051  26.017  25.957  1.00  0.00    -0.200 F 
ATOM     90  C   UNL A   1      49.490  25.527  27.764  1.00  0.00     0.200 A 
ATOM     91  F   UNL A   1      50.911  25.101  29.598  1.00  0.00    -0.200 F 
ATOM     92  F   UNL A   1      50.483  25.239  26.910  1.00  0.00    -0.200 F 
ENDBRANCH  58  82
BRANCH  70  93
ATOM     93  C   UNL A   1      44.525  32.841  28.356  1.00  0.00     0.064 A 
ATOM     94  C   UNL A   1      44.210  32.945  26.992  1.00  0.00     0.173 A 
ATOM     95  C   UNL A   1      44.746  34.069  29.025  1.00  0.00     0.173 A 
ATOM     96  F   UNL A   1      43.855  31.870  26.276  1.00  0.00    -0.203 F 
ATOM     97  C   UNL A   1      44.194  34.175  26.328  1.00  0.00     0.198 A 
ATOM     98  C   UNL A   1      44.673  35.299  28.374  1.00  0.00     0.198 A 
ATOM     99  F   UNL A   1      45.018  34.112  30.339  1.00  0.00    -0.203 F 
ATOM    100  F   UNL A   1      43.935  34.216  25.013  1.00  0.00    -0.200 F 
ATOM    101  C   UNL A   1      44.416  35.351  27.020  1.00  0.00     0.200 A 
ATOM    102  F   UNL A   1      44.836  36.434  29.070  1.00  0.00    -0.200 F 
ATOM    103  F   UNL A   1      44.363  36.531  26.388  1.00  0.00    -0.200 F 
ENDBRANCH  70  93
ENDBRANCH  44  45
ENDBRANCH  36  39
ENDBRANCH  34  35
ENDBRANCH  33  34
ENDBRANCH   1  33
TORSDOF 14
ENDMDL
