MODEL 1
REMARK VINA RESULT:     -11.8      0.000      0.000
REMARK SMILES CC(C)[C@@H](C)C(=O)N[C@@](C)(C(=O)NCCCNC(=O)c1ccc(-c2c3nc(c(-c4c(F)c(F)c(F)c(F)c4F)c4ccc([nH]4)c(-c4c(F)c(F)c(F)c(F)c4F)c4nc(c(-c5c(F)c(F)c(F)c(F)c5F)c5ccc2[nH]5)C=C4)C=C3)cc1)C(F)(F)F
REMARK SMILES IDX 14 1 13 2 11 3 12 4 9 6 10 7 8 8 6 9 7 10 4 12 5 13 2 14
REMARK SMILES IDX 1 15 3 16 83 17 84 18 85 19 86 20 15 21 16 22 17 23 18 24
REMARK SMILES IDX 19 26 20 27 21 28 82 29 22 30 81 31 23 32 24 33 25 34 75 35
REMARK SMILES IDX 26 36 80 37 74 38 76 39 27 40 79 41 73 42 72 43 28 45 60 46
REMARK SMILES IDX 40 47 59 48 41 49 44 50 58 51 77 52 42 53 43 54 57 56 78 57
REMARK SMILES IDX 45 58 29 59 30 60 38 61 31 62 32 63 36 64 39 65 33 66 34 67
REMARK SMILES IDX 37 68 35 69 61 70 62 71 70 72 63 73 64 74 68 75 71 76 65 77
REMARK SMILES IDX 66 78 69 79 67 80 46 81 47 82 55 83 48 84 49 85 53 86 56 87
REMARK SMILES IDX 50 88 51 89 54 90 52 91
REMARK H PARENT 13 5 8 11 17 25 76 44 44 55
REMARK Flexibility Score: inf
ROOT
ATOM      1  C   UNL A   1      31.705  30.646  26.121  1.00  0.00     0.117 C 
ENDROOT
BRANCH   1   2
ATOM      2  N   UNL A   1      31.615  29.673  27.197  1.00  0.00    -0.354 N 
ATOM      3  C   UNL A   1      31.669  28.313  27.261  1.00  0.00     0.254 C 
ATOM      4  O   UNL A   1      31.411  27.849  28.376  1.00  0.00    -0.272 OA
ATOM      5  H   UNL A   1      31.487  30.091  28.079  1.00  0.00     0.163 HD
BRANCH   3   6
ATOM      6  C   UNL A   1      31.928  27.418  26.028  1.00  0.00     0.212 C 
ATOM      7  C   UNL A   1      31.269  27.977  24.751  1.00  0.00     0.056 C 
BRANCH   6   8
ATOM      8  N   UNL A   1      31.248  26.126  26.421  1.00  0.00    -0.334 N 
ATOM      9  C   UNL A   1      31.064  24.850  26.028  1.00  0.00     0.224 C 
ATOM     10  O   UNL A   1      30.355  24.173  26.782  1.00  0.00    -0.275 OA
ATOM     11  H   UNL A   1      30.766  26.267  27.269  1.00  0.00     0.164 HD
BRANCH   9  12
ATOM     12  C   UNL A   1      31.674  24.207  24.801  1.00  0.00     0.078 C 
ATOM     13  C   UNL A   1      30.655  24.283  23.663  1.00  0.00     0.018 C 
BRANCH  12  14
ATOM     14  C   UNL A   1      32.349  22.869  25.174  1.00  0.00    -0.005 C 
ATOM     15  C   UNL A   1      32.619  21.941  23.995  1.00  0.00     0.008 C 
ATOM     16  C   UNL A   1      33.654  23.125  25.944  1.00  0.00     0.008 C 
ENDBRANCH  12  14
ENDBRANCH   9  12
ENDBRANCH   6   8
BRANCH   6  17
ATOM     17  C   UNL A   1      33.462  27.550  25.790  1.00  0.00     0.420 C 
ATOM     18  F   UNL A   1      34.090  26.402  25.491  1.00  0.00    -0.168 F 
ATOM     19  F   UNL A   1      33.744  28.427  24.795  1.00  0.00    -0.168 F 
ATOM     20  F   UNL A   1      34.079  28.079  26.882  1.00  0.00    -0.168 F 
ENDBRANCH   6  17
ENDBRANCH   3   6
ENDBRANCH   1   2
BRANCH   1  21
ATOM     21  C   UNL A   1      31.449  32.062  26.620  1.00  0.00     0.042 C 
BRANCH  21  22
ATOM     22  C   UNL A   1      32.663  32.726  27.252  1.00  0.00     0.118 C 
BRANCH  22  23
ATOM     23  N   UNL A   1      32.431  34.126  27.582  1.00  0.00    -0.352 N 
ATOM     24  C   UNL A   1      32.996  34.902  28.562  1.00  0.00     0.251 C 
ATOM     25  H   UNL A   1      31.768  34.583  27.016  1.00  0.00     0.163 HD
ATOM     26  O   UNL A   1      32.525  36.009  28.814  1.00  0.00    -0.269 OA
BRANCH  24  27
ATOM     27  C   UNL A   1      34.155  34.400  29.327  1.00  0.00     0.039 A 
ATOM     28  C   UNL A   1      33.938  33.785  30.561  1.00  0.00     0.014 A 
ATOM     29  C   UNL A   1      35.452  34.531  28.826  1.00  0.00     0.014 A 
ATOM     30  C   UNL A   1      35.017  33.236  31.257  1.00  0.00     0.010 A 
ATOM     31  C   UNL A   1      36.508  33.898  29.468  1.00  0.00     0.010 A 
ATOM     32  C   UNL A   1      36.304  33.251  30.696  1.00  0.00    -0.014 A 
BRANCH  32  33
ATOM     33  C   UNL A   1      37.453  32.605  31.376  1.00  0.00     0.031 A 
ATOM     34  C   UNL A   1      38.172  31.461  30.714  1.00  0.00     0.074 A 
ATOM     35  C   UNL A   1      37.805  33.000  32.614  1.00  0.00     0.049 A 
ATOM     36  N   UNL A   1      39.145  30.716  31.174  1.00  0.00    -0.248 NA
ATOM     37  C   UNL A   1      37.718  31.086  29.366  1.00  0.00     0.031 C 
ATOM     38  C   UNL A   1      37.157  34.066  33.379  1.00  0.00     0.029 A 
ATOM     39  N   UNL A   1      38.791  32.543  33.454  1.00  0.00    -0.354 N 
ATOM     40  C   UNL A   1      39.406  29.781  30.181  1.00  0.00     0.074 A 
ATOM     41  C   UNL A   1      38.448  30.009  29.123  1.00  0.00     0.031 C 
ATOM     42  C   UNL A   1      37.780  34.203  34.560  1.00  0.00     0.029 A 
ATOM     43  C   UNL A   1      38.839  33.204  34.657  1.00  0.00     0.049 A 
ATOM     44  H   UNL A   1      39.405  31.811  33.216  1.00  0.00     0.167 HD
ATOM     45  C   UNL A   1      40.376  28.837  30.142  1.00  0.00     0.037 A 
ATOM     46  C   UNL A   1      39.644  33.018  35.721  1.00  0.00     0.037 A 
ATOM     47  C   UNL A   1      41.337  28.625  31.193  1.00  0.00     0.049 A 
ATOM     48  C   UNL A   1      40.693  31.940  35.665  1.00  0.00     0.074 A 
ATOM     49  C   UNL A   1      42.390  27.728  31.231  1.00  0.00     0.029 A 
ATOM     50  N   UNL A   1      41.358  29.317  32.395  1.00  0.00    -0.354 N 
ATOM     51  N   UNL A   1      40.975  31.107  34.692  1.00  0.00    -0.248 NA
ATOM     52  C   UNL A   1      41.538  31.779  36.857  1.00  0.00     0.031 C 
ATOM     53  C   UNL A   1      43.012  27.838  32.479  1.00  0.00     0.029 A 
ATOM     54  C   UNL A   1      42.389  28.848  33.193  1.00  0.00     0.049 A 
ATOM     55  H   UNL A   1      40.731  30.035  32.645  1.00  0.00     0.167 HD
ATOM     56  C   UNL A   1      42.051  30.350  35.139  1.00  0.00     0.074 A 
ATOM     57  C   UNL A   1      42.378  30.832  36.465  1.00  0.00     0.031 C 
ATOM     58  C   UNL A   1      42.710  29.347  34.507  1.00  0.00     0.037 A 
BRANCH  45  59
ATOM     59  C   UNL A   1      40.443  27.961  28.923  1.00  0.00     0.064 A 
ATOM     60  C   UNL A   1      39.734  26.751  28.842  1.00  0.00     0.173 A 
ATOM     61  C   UNL A   1      41.207  28.346  27.810  1.00  0.00     0.173 A 
ATOM     62  F   UNL A   1      38.998  26.331  29.881  1.00  0.00    -0.203 F 
ATOM     63  C   UNL A   1      39.817  25.944  27.711  1.00  0.00     0.198 A 
ATOM     64  C   UNL A   1      41.258  27.553  26.666  1.00  0.00     0.198 A 
ATOM     65  F   UNL A   1      41.900  29.494  27.828  1.00  0.00    -0.203 F 
ATOM     66  F   UNL A   1      39.180  24.766  27.684  1.00  0.00    -0.200 F 
ATOM     67  C   UNL A   1      40.573  26.349  26.621  1.00  0.00     0.200 A 
ATOM     68  F   UNL A   1      41.977  27.953  25.608  1.00  0.00    -0.200 F 
ATOM     69  F   UNL A   1      40.647  25.574  25.531  1.00  0.00    -0.200 F 
ENDBRANCH  45  59
BRANCH  46  70
ATOM     70  C   UNL A   1      39.509  33.888  36.919  1.00  0.00     0.064 A 
ATOM     71  C   UNL A   1      38.743  33.481  38.020  1.00  0.00     0.173 A 
ATOM     72  C   UNL A   1      40.131  35.144  36.986  1.00  0.00     0.173 A 
ATOM     73  F   UNL A   1      38.114  32.297  37.995  1.00  0.00    -0.203 F 
ATOM     74  C   UNL A   1      38.582  34.306  39.131  1.00  0.00     0.198 A 
ATOM     75  C   UNL A   1      39.995  35.955  38.112  1.00  0.00     0.198 A 
ATOM     76  F   UNL A   1      40.880  35.581  35.964  1.00  0.00    -0.203 F 
ATOM     77  F   UNL A   1      37.801  33.912  40.147  1.00  0.00    -0.200 F 
ATOM     78  C   UNL A   1      39.213  35.539  39.179  1.00  0.00     0.200 A 
ATOM     79  F   UNL A   1      40.620  37.139  38.162  1.00  0.00    -0.200 F 
ATOM     80  F   UNL A   1      39.061  36.331  40.249  1.00  0.00    -0.200 F 
ENDBRANCH  46  70
BRANCH  58  81
ATOM     81  C   UNL A   1      43.882  28.734  35.219  1.00  0.00     0.064 A 
ATOM     82  C   UNL A   1      45.184  29.234  35.068  1.00  0.00     0.173 A 
ATOM     83  C   UNL A   1      43.691  27.656  36.097  1.00  0.00     0.173 A 
ATOM     84  F   UNL A   1      45.423  30.253  34.228  1.00  0.00    -0.203 F 
ATOM     85  C   UNL A   1      46.255  28.659  35.747  1.00  0.00     0.198 A 
ATOM     86  C   UNL A   1      44.758  27.107  36.801  1.00  0.00     0.198 A 
ATOM     87  F   UNL A   1      42.465  27.144  36.283  1.00  0.00    -0.203 F 
ATOM     88  F   UNL A   1      47.498  29.119  35.547  1.00  0.00    -0.200 F 
ATOM     89  C   UNL A   1      46.039  27.602  36.620  1.00  0.00     0.200 A 
ATOM     90  F   UNL A   1      44.545  26.097  37.657  1.00  0.00    -0.200 F 
ATOM     91  F   UNL A   1      47.070  27.058  37.281  1.00  0.00    -0.200 F 
ENDBRANCH  58  81
ENDBRANCH  32  33
ENDBRANCH  24  27
ENDBRANCH  22  23
ENDBRANCH  21  22
ENDBRANCH   1  21
TORSDOF 14
ENDMDL
MODEL 2
REMARK VINA RESULT:     -11.7      1.384      1.975
REMARK SMILES CC(C)[C@@H](C)C(=O)N[C@@](C)(C(=O)NCCCNC(=O)c1ccc(-c2c3nc(c(-c4c(F)c(F)c(F)c(F)c4F)c4ccc([nH]4)c(-c4c(F)c(F)c(F)c(F)c4F)c4nc(c(-c5c(F)c(F)c(F)c(F)c5F)c5ccc2[nH]5)C=C4)C=C3)cc1)C(F)(F)F
REMARK SMILES IDX 14 1 13 2 11 3 12 4 9 6 10 7 8 8 6 9 7 10 4 12 5 13 2 14
REMARK SMILES IDX 1 15 3 16 83 17 84 18 85 19 86 20 15 21 16 22 17 23 18 24
REMARK SMILES IDX 19 26 20 27 21 28 82 29 22 30 81 31 23 32 24 33 25 34 75 35
REMARK SMILES IDX 26 36 80 37 74 38 76 39 27 40 79 41 73 42 72 43 28 45 60 46
REMARK SMILES IDX 40 47 59 48 41 49 44 50 58 51 77 52 42 53 43 54 57 56 78 57
REMARK SMILES IDX 45 58 29 59 30 60 38 61 31 62 32 63 36 64 39 65 33 66 34 67
REMARK SMILES IDX 37 68 35 69 61 70 62 71 70 72 63 73 64 74 68 75 71 76 65 77
REMARK SMILES IDX 66 78 69 79 67 80 46 81 47 82 55 83 48 84 49 85 53 86 56 87
REMARK SMILES IDX 50 88 51 89 54 90 52 91
REMARK H PARENT 13 5 8 11 17 25 76 44 44 55
REMARK Flexibility Score: inf
ROOT
ATOM      1  C   UNL A   1      31.612  30.545  26.345  1.00  0.00     0.117 C 
ENDROOT
BRANCH   1   2
ATOM      2  N   UNL A   1      31.309  30.143  24.981  1.00  0.00    -0.354 N 
ATOM      3  C   UNL A   1      31.551  29.026  24.238  1.00  0.00     0.254 C 
ATOM      4  O   UNL A   1      31.240  29.133  23.049  1.00  0.00    -0.272 OA
ATOM      5  H   UNL A   1      30.818  30.834  24.480  1.00  0.00     0.163 HD
BRANCH   3   6
ATOM      6  C   UNL A   1      32.248  27.768  24.806  1.00  0.00     0.212 C 
ATOM      7  C   UNL A   1      33.305  28.116  25.873  1.00  0.00     0.056 C 
BRANCH   6   8
ATOM      8  N   UNL A   1      32.934  27.203  23.582  1.00  0.00    -0.334 N 
ATOM      9  C   UNL A   1      33.559  26.104  23.118  1.00  0.00     0.224 C 
ATOM     10  O   UNL A   1      33.965  26.191  21.953  1.00  0.00    -0.275 OA
ATOM     11  H   UNL A   1      32.919  27.882  22.869  1.00  0.00     0.164 HD
BRANCH   9  12
ATOM     12  C   UNL A   1      33.754  24.810  23.879  1.00  0.00     0.078 C 
ATOM     13  C   UNL A   1      34.631  25.099  25.099  1.00  0.00     0.018 C 
BRANCH  12  14
ATOM     14  C   UNL A   1      34.098  23.660  22.908  1.00  0.00    -0.005 C 
ATOM     15  C   UNL A   1      35.211  22.733  23.385  1.00  0.00     0.008 C 
ATOM     16  C   UNL A   1      32.841  22.839  22.584  1.00  0.00     0.008 C 
ENDBRANCH  12  14
ENDBRANCH   9  12
ENDBRANCH   6   8
BRANCH   6  17
ATOM     17  C   UNL A   1      31.112  27.032  25.578  1.00  0.00     0.420 C 
ATOM     18  F   UNL A   1      29.900  27.101  25.005  1.00  0.00    -0.168 F 
ATOM     19  F   UNL A   1      31.393  25.717  25.755  1.00  0.00    -0.168 F 
ATOM     20  F   UNL A   1      30.992  27.517  26.844  1.00  0.00    -0.168 F 
ENDBRANCH   6  17
ENDBRANCH   3   6
ENDBRANCH   1   2
BRANCH   1  21
ATOM     21  C   UNL A   1      31.458  32.047  26.536  1.00  0.00     0.042 C 
BRANCH  21  22
ATOM     22  C   UNL A   1      32.651  32.713  27.206  1.00  0.00     0.118 C 
BRANCH  22  23
ATOM     23  N   UNL A   1      32.400  34.107  27.545  1.00  0.00    -0.352 N 
ATOM     24  C   UNL A   1      32.957  34.886  28.528  1.00  0.00     0.251 C 
ATOM     25  H   UNL A   1      31.730  34.559  26.983  1.00  0.00     0.163 HD
ATOM     26  O   UNL A   1      32.471  35.985  28.787  1.00  0.00    -0.269 OA
BRANCH  24  27
ATOM     27  C   UNL A   1      34.124  34.395  29.288  1.00  0.00     0.039 A 
ATOM     28  C   UNL A   1      33.915  33.724  30.494  1.00  0.00     0.014 A 
ATOM     29  C   UNL A   1      35.422  34.593  28.809  1.00  0.00     0.014 A 
ATOM     30  C   UNL A   1      35.005  33.186  31.182  1.00  0.00     0.010 A 
ATOM     31  C   UNL A   1      36.492  33.972  29.440  1.00  0.00     0.010 A 
ATOM     32  C   UNL A   1      36.297  33.269  30.638  1.00  0.00    -0.014 A 
BRANCH  32  33
ATOM     33  C   UNL A   1      37.461  32.638  31.307  1.00  0.00     0.031 A 
ATOM     34  C   UNL A   1      38.192  31.508  30.636  1.00  0.00     0.074 A 
ATOM     35  C   UNL A   1      37.817  33.035  32.544  1.00  0.00     0.049 A 
ATOM     36  N   UNL A   1      39.179  30.775  31.086  1.00  0.00    -0.248 NA
ATOM     37  C   UNL A   1      37.732  31.130  29.291  1.00  0.00     0.031 C 
ATOM     38  C   UNL A   1      37.158  34.088  33.317  1.00  0.00     0.029 A 
ATOM     39  N   UNL A   1      38.815  32.589  33.375  1.00  0.00    -0.354 N 
ATOM     40  C   UNL A   1      39.446  29.847  30.088  1.00  0.00     0.074 A 
ATOM     41  C   UNL A   1      38.477  30.065  29.038  1.00  0.00     0.031 C 
ATOM     42  C   UNL A   1      37.789  34.230  34.494  1.00  0.00     0.029 A 
ATOM     43  C   UNL A   1      38.863  33.247  34.579  1.00  0.00     0.049 A 
ATOM     44  H   UNL A   1      39.438  31.867  33.130  1.00  0.00     0.167 HD
ATOM     45  C   UNL A   1      40.429  28.918  30.039  1.00  0.00     0.037 A 
ATOM     46  C   UNL A   1      39.678  33.069  35.637  1.00  0.00     0.037 A 
ATOM     47  C   UNL A   1      41.402  28.716  31.081  1.00  0.00     0.049 A 
ATOM     48  C   UNL A   1      40.743  32.007  35.569  1.00  0.00     0.074 A 
ATOM     49  C   UNL A   1      42.468  27.835  31.108  1.00  0.00     0.029 A 
ATOM     50  N   UNL A   1      41.421  29.405  32.286  1.00  0.00    -0.354 N 
ATOM     51  N   UNL A   1      41.030  31.182  34.592  1.00  0.00    -0.248 NA
ATOM     52  C   UNL A   1      41.599  31.854  36.754  1.00  0.00     0.031 C 
ATOM     53  C   UNL A   1      43.098  27.950  32.351  1.00  0.00     0.029 A 
ATOM     54  C   UNL A   1      42.465  28.949  33.074  1.00  0.00     0.049 A 
ATOM     55  H   UNL A   1      40.786  30.113  32.542  1.00  0.00     0.167 HD
ATOM     56  C   UNL A   1      42.120  30.439  35.028  1.00  0.00     0.074 A 
ATOM     57  C   UNL A   1      42.451  30.921  36.353  1.00  0.00     0.031 C 
ATOM     58  C   UNL A   1      42.789  29.448  34.387  1.00  0.00     0.037 A 
BRANCH  45  59
ATOM     59  C   UNL A   1      40.500  28.048  28.815  1.00  0.00     0.064 A 
ATOM     60  C   UNL A   1      39.818  26.822  28.741  1.00  0.00     0.173 A 
ATOM     61  C   UNL A   1      41.241  28.453  27.693  1.00  0.00     0.173 A 
ATOM     62  F   UNL A   1      39.105  26.382  29.788  1.00  0.00    -0.203 F 
ATOM     63  C   UNL A   1      39.904  26.021  27.605  1.00  0.00     0.198 A 
ATOM     64  C   UNL A   1      41.294  27.664  26.546  1.00  0.00     0.198 A 
ATOM     65  F   UNL A   1      41.907  29.616  27.707  1.00  0.00    -0.203 F 
ATOM     66  F   UNL A   1      39.293  24.828  27.583  1.00  0.00    -0.200 F 
ATOM     67  C   UNL A   1      40.636  26.446  26.507  1.00  0.00     0.200 A 
ATOM     68  F   UNL A   1      41.989  28.084  25.480  1.00  0.00    -0.200 F 
ATOM     69  F   UNL A   1      40.713  25.675  25.414  1.00  0.00    -0.200 F 
ENDBRANCH  45  59
BRANCH  46  70
ATOM     70  C   UNL A   1      39.541  33.933  36.839  1.00  0.00     0.064 A 
ATOM     71  C   UNL A   1      40.199  35.169  36.914  1.00  0.00     0.173 A 
ATOM     72  C   UNL A   1      38.761  33.542  37.938  1.00  0.00     0.173 A 
ATOM     73  F   UNL A   1      40.971  35.579  35.897  1.00  0.00    -0.203 F 
ATOM     74  C   UNL A   1      40.104  35.968  38.052  1.00  0.00     0.198 A 
ATOM     75  C   UNL A   1      38.642  34.357  39.063  1.00  0.00     0.198 A 
ATOM     76  F   UNL A   1      38.106  32.373  37.916  1.00  0.00    -0.203 F 
ATOM     77  F   UNL A   1      40.787  37.120  38.117  1.00  0.00    -0.200 F 
ATOM     78  C   UNL A   1      39.321  35.564  39.122  1.00  0.00     0.200 A 
ATOM     79  F   UNL A   1      37.871  33.971  40.088  1.00  0.00    -0.200 F 
ATOM     80  F   UNL A   1      39.228  36.334  40.215  1.00  0.00    -0.200 F 
ENDBRANCH  46  70
BRANCH  58  81
ATOM     81  C   UNL A   1      43.976  28.850  35.087  1.00  0.00     0.064 A 
ATOM     82  C   UNL A   1      45.268  29.371  34.931  1.00  0.00     0.173 A 
ATOM     83  C   UNL A   1      43.807  27.764  35.961  1.00  0.00     0.173 A 
ATOM     84  F   UNL A   1      45.486  30.399  34.095  1.00  0.00    -0.203 F 
ATOM     85  C   UNL A   1      46.353  28.810  35.600  1.00  0.00     0.198 A 
ATOM     86  C   UNL A   1      44.888  27.228  36.655  1.00  0.00     0.198 A 
ATOM     87  F   UNL A   1      42.591  27.231  36.152  1.00  0.00    -0.203 F 
ATOM     88  F   UNL A   1      47.587  29.291  35.394  1.00  0.00    -0.200 F 
ATOM     89  C   UNL A   1      46.160  27.745  36.468  1.00  0.00     0.200 A 
ATOM     90  F   UNL A   1      44.697  26.211  37.506  1.00  0.00    -0.200 F 
ATOM     91  F   UNL A   1      47.203  27.214  37.120  1.00  0.00    -0.200 F 
ENDBRANCH  58  81
ENDBRANCH  32  33
ENDBRANCH  24  27
ENDBRANCH  22  23
ENDBRANCH  21  22
ENDBRANCH   1  21
TORSDOF 14
ENDMDL
MODEL 3
REMARK VINA RESULT:     -11.6      0.608      7.552
REMARK SMILES CC(C)[C@@H](C)C(=O)N[C@@](C)(C(=O)NCCCNC(=O)c1ccc(-c2c3nc(c(-c4c(F)c(F)c(F)c(F)c4F)c4ccc([nH]4)c(-c4c(F)c(F)c(F)c(F)c4F)c4nc(c(-c5c(F)c(F)c(F)c(F)c5F)c5ccc2[nH]5)C=C4)C=C3)cc1)C(F)(F)F
REMARK SMILES IDX 14 1 13 2 11 3 12 4 9 6 10 7 8 8 6 9 7 10 4 12 5 13 2 14
REMARK SMILES IDX 1 15 3 16 83 17 84 18 85 19 86 20 15 21 16 22 17 23 18 24
REMARK SMILES IDX 19 26 20 27 21 28 82 29 22 30 81 31 23 32 24 33 25 34 75 35
REMARK SMILES IDX 26 36 80 37 74 38 76 39 27 40 79 41 73 42 72 43 28 45 60 46
REMARK SMILES IDX 40 47 59 48 41 49 44 50 58 51 77 52 42 53 43 54 57 56 78 57
REMARK SMILES IDX 45 58 29 59 30 60 38 61 31 62 32 63 36 64 39 65 33 66 34 67
REMARK SMILES IDX 37 68 35 69 61 70 62 71 70 72 63 73 64 74 68 75 71 76 65 77
REMARK SMILES IDX 66 78 69 79 67 80 46 81 47 82 55 83 48 84 49 85 53 86 56 87
REMARK SMILES IDX 50 88 51 89 54 90 52 91
REMARK H PARENT 13 5 8 11 17 25 76 44 44 55
REMARK Flexibility Score: inf
ROOT
ATOM      1  C   UNL A   1      31.615  30.494  26.015  1.00  0.00     0.117 C 
ENDROOT
BRANCH   1   2
ATOM      2  N   UNL A   1      31.590  29.585  27.149  1.00  0.00    -0.354 N 
ATOM      3  C   UNL A   1      31.717  28.235  27.295  1.00  0.00     0.254 C 
ATOM      4  O   UNL A   1      31.497  27.827  28.439  1.00  0.00    -0.272 OA
ATOM      5  H   UNL A   1      31.449  30.048  28.006  1.00  0.00     0.163 HD
BRANCH   3   6
ATOM      6  C   UNL A   1      32.011  27.282  26.114  1.00  0.00     0.212 C 
ATOM      7  C   UNL A   1      31.301  27.721  24.817  1.00  0.00     0.056 C 
BRANCH   6   8
ATOM      8  N   UNL A   1      31.414  25.979  26.598  1.00  0.00    -0.334 N 
ATOM      9  C   UNL A   1      31.295  24.675  26.284  1.00  0.00     0.224 C 
ATOM     10  O   UNL A   1      30.643  24.004  27.093  1.00  0.00    -0.275 OA
ATOM     11  H   UNL A   1      30.944  26.143  27.448  1.00  0.00     0.164 HD
BRANCH   9  12
ATOM     12  C   UNL A   1      31.913  23.995  25.081  1.00  0.00     0.078 C 
ATOM     13  C   UNL A   1      30.856  23.918  23.978  1.00  0.00     0.018 C 
BRANCH  12  14
ATOM     14  C   UNL A   1      32.699  22.740  25.517  1.00  0.00    -0.005 C 
ATOM     15  C   UNL A   1      33.048  21.780  24.384  1.00  0.00     0.008 C 
ATOM     16  C   UNL A   1      33.977  23.143  26.269  1.00  0.00     0.008 C 
ENDBRANCH  12  14
ENDBRANCH   9  12
ENDBRANCH   6   8
BRANCH   6  17
ATOM     17  C   UNL A   1      33.530  27.488  25.840  1.00  0.00     0.420 C 
ATOM     18  F   UNL A   1      34.211  26.368  25.549  1.00  0.00    -0.168 F 
ATOM     19  F   UNL A   1      33.745  28.358  24.823  1.00  0.00    -0.168 F 
ATOM     20  F   UNL A   1      34.142  28.070  26.907  1.00  0.00    -0.168 F 
ENDBRANCH   6  17
ENDBRANCH   3   6
ENDBRANCH   1   2
BRANCH   1  21
ATOM     21  C   UNL A   1      31.450  31.943  26.452  1.00  0.00     0.042 C 
BRANCH  21  22
ATOM     22  C   UNL A   1      32.675  32.528  27.139  1.00  0.00     0.118 C 
BRANCH  22  23
ATOM     23  N   UNL A   1      32.491  33.919  27.530  1.00  0.00    -0.352 N 
ATOM     24  C   UNL A   1      33.099  34.638  28.527  1.00  0.00     0.251 C 
ATOM     25  H   UNL A   1      31.829  34.417  26.999  1.00  0.00     0.163 HD
ATOM     26  O   UNL A   1      32.665  35.747  28.835  1.00  0.00    -0.269 OA
BRANCH  24  27
ATOM     27  C   UNL A   1      34.259  34.073  29.245  1.00  0.00     0.039 A 
ATOM     28  C   UNL A   1      34.038  33.266  30.363  1.00  0.00     0.014 A 
ATOM     29  C   UNL A   1      35.562  34.334  28.814  1.00  0.00     0.014 A 
ATOM     30  C   UNL A   1      35.122  32.662  31.003  1.00  0.00     0.010 A 
ATOM     31  C   UNL A   1      36.628  33.654  29.387  1.00  0.00     0.010 A 
ATOM     32  C   UNL A   1      36.422  32.817  30.494  1.00  0.00    -0.014 A 
BRANCH  32  33
ATOM     33  C   UNL A   1      37.581  32.122  31.105  1.00  0.00     0.031 A 
ATOM     34  C   UNL A   1      38.063  32.525  32.472  1.00  0.00     0.074 A 
ATOM     35  C   UNL A   1      38.240  31.179  30.405  1.00  0.00     0.049 A 
ATOM     36  N   UNL A   1      39.102  32.097  33.145  1.00  0.00    -0.248 NA
ATOM     37  C   UNL A   1      37.293  33.570  33.163  1.00  0.00     0.031 C 
ATOM     38  C   UNL A   1      37.898  30.734  29.054  1.00  0.00     0.029 A 
ATOM     39  N   UNL A   1      39.346  30.432  30.730  1.00  0.00    -0.354 N 
ATOM     40  C   UNL A   1      39.114  32.828  34.325  1.00  0.00     0.074 A 
ATOM     41  C   UNL A   1      38.021  33.771  34.250  1.00  0.00     0.031 C 
ATOM     42  C   UNL A   1      38.752  29.769  28.678  1.00  0.00     0.029 A 
ATOM     43  C   UNL A   1      39.732  29.563  29.740  1.00  0.00     0.049 A 
ATOM     44  H   UNL A   1      39.815  30.510  31.592  1.00  0.00     0.167 HD
ATOM     45  C   UNL A   1      39.943  32.703  35.388  1.00  0.00     0.037 A 
ATOM     46  C   UNL A   1      40.767  28.702  29.692  1.00  0.00     0.037 A 
ATOM     47  C   UNL A   1      41.019  31.751  35.464  1.00  0.00     0.049 A 
ATOM     48  C   UNL A   1      41.694  28.606  30.874  1.00  0.00     0.074 A 
ATOM     49  C   UNL A   1      41.887  31.510  36.515  1.00  0.00     0.029 A 
ATOM     50  N   UNL A   1      41.379  30.883  34.442  1.00  0.00    -0.354 N 
ATOM     51  N   UNL A   1      41.655  29.254  32.014  1.00  0.00    -0.248 NA
ATOM     52  C   UNL A   1      42.810  27.655  30.763  1.00  0.00     0.031 C 
ATOM     53  C   UNL A   1      42.807  30.538  36.107  1.00  0.00     0.029 A 
ATOM     54  C   UNL A   1      42.473  30.126  34.827  1.00  0.00     0.049 A 
ATOM     55  H   UNL A   1      40.925  30.817  33.570  1.00  0.00     0.167 HD
ATOM     56  C   UNL A   1      42.713  28.763  32.768  1.00  0.00     0.074 A 
ATOM     57  C   UNL A   1      43.369  27.755  31.961  1.00  0.00     0.031 C 
ATOM     58  C   UNL A   1      43.107  29.116  34.017  1.00  0.00     0.037 A 
BRANCH  45  59
ATOM     59  C   UNL A   1      39.716  33.622  36.556  1.00  0.00     0.064 A 
ATOM     60  C   UNL A   1      40.326  34.884  36.631  1.00  0.00     0.173 A 
ATOM     61  C   UNL A   1      38.860  33.246  37.604  1.00  0.00     0.173 A 
ATOM     62  F   UNL A   1      41.161  35.289  35.663  1.00  0.00    -0.203 F 
ATOM     63  C   UNL A   1      40.117  35.719  37.726  1.00  0.00     0.198 A 
ATOM     64  C   UNL A   1      38.626  34.099  38.679  1.00  0.00     0.198 A 
ATOM     65  F   UNL A   1      38.247  32.054  37.582  1.00  0.00    -0.203 F 
ATOM     66  F   UNL A   1      40.759  36.893  37.802  1.00  0.00    -0.200 F 
ATOM     67  C   UNL A   1      39.262  35.329  38.745  1.00  0.00     0.200 A 
ATOM     68  F   UNL A   1      37.787  33.727  39.656  1.00  0.00    -0.200 F 
ATOM     69  F   UNL A   1      39.058  36.136  39.795  1.00  0.00    -0.200 F 
ENDBRANCH  45  59
BRANCH  46  70
ATOM     70  C   UNL A   1      40.969  27.843  28.495  1.00  0.00     0.064 A 
ATOM     71  C   UNL A   1      41.765  28.277  27.425  1.00  0.00     0.173 A 
ATOM     72  C   UNL A   1      40.365  26.581  28.388  1.00  0.00     0.173 A 
ATOM     73  F   UNL A   1      42.348  29.483  27.472  1.00  0.00    -0.203 F 
ATOM     74  C   UNL A   1      41.929  27.493  26.285  1.00  0.00     0.198 A 
ATOM     75  C   UNL A   1      40.556  25.785  27.260  1.00  0.00     0.198 A 
ATOM     76  F   UNL A   1      39.598  26.115  29.384  1.00  0.00    -0.203 F 
ATOM     77  F   UNL A   1      42.653  27.955  25.257  1.00  0.00    -0.200 F 
ATOM     78  C   UNL A   1      41.329  26.246  26.206  1.00  0.00     0.200 A 
ATOM     79  F   UNL A   1      39.988  24.573  27.194  1.00  0.00    -0.200 F 
ATOM     80  F   UNL A   1      41.490  25.491  25.110  1.00  0.00    -0.200 F 
ENDBRANCH  46  70
BRANCH  58  81
ATOM     81  C   UNL A   1      44.270  28.373  34.611  1.00  0.00     0.064 A 
ATOM     82  C   UNL A   1      45.585  28.847  34.499  1.00  0.00     0.173 A 
ATOM     83  C   UNL A   1      44.057  27.191  35.337  1.00  0.00     0.173 A 
ATOM     84  F   UNL A   1      45.845  29.964  33.802  1.00  0.00    -0.203 F 
ATOM     85  C   UNL A   1      46.648  28.149  35.069  1.00  0.00     0.198 A 
ATOM     86  C   UNL A   1      45.117  26.516  35.935  1.00  0.00     0.198 A 
ATOM     87  F   UNL A   1      42.818  26.698  35.479  1.00  0.00    -0.203 F 
ATOM     88  F   UNL A   1      47.902  28.592  34.905  1.00  0.00    -0.200 F 
ATOM     89  C   UNL A   1      46.411  26.990  35.793  1.00  0.00     0.200 A 
ATOM     90  F   UNL A   1      44.884  25.406  36.648  1.00  0.00    -0.200 F 
ATOM     91  F   UNL A   1      47.434  26.327  36.350  1.00  0.00    -0.200 F 
ENDBRANCH  58  81
ENDBRANCH  32  33
ENDBRANCH  24  27
ENDBRANCH  22  23
ENDBRANCH  21  22
ENDBRANCH   1  21
TORSDOF 14
ENDMDL
