MODEL 1
REMARK VINA RESULT:     -11.7      0.000      0.000
REMARK SMILES [NH3+][C@]1(C(=O)NCCCNC(=O)c2ccc(-c3c4nc(c(-c5c(F)c(F)c(F)c(F)c5F)c5ccc([nH]5)c(-c5c(F)c(F)c(F)c(F)c5F)c5nc(c(-c6c(F)c(F)c(F)c(F)c6F)c6ccc3[nH]6)C=C5)C=C4)cc2)CCC[C@@H](Oc2ccc3c(c2)CCC3)C1
REMARK SMILES IDX 7 1 6 2 5 3 3 4 4 5 2 7 75 8 89 9 76 10 78 11 77 12 1 13
REMARK SMILES IDX 79 17 80 18 81 19 85 20 82 21 84 22 83 23 86 24 88 25 87 26
REMARK SMILES IDX 8 27 9 28 10 29 11 31 12 32 13 33 74 34 14 35 73 36 15 37
REMARK SMILES IDX 16 38 17 39 67 40 18 41 72 42 66 43 68 44 19 45 71 46 65 47
REMARK SMILES IDX 64 48 20 50 52 51 32 52 51 53 33 54 36 55 50 56 69 57 34 58
REMARK SMILES IDX 35 59 49 61 70 62 37 63 21 64 22 65 30 66 23 67 24 68 28 69
REMARK SMILES IDX 31 70 25 71 26 72 29 73 27 74 53 75 54 76 62 77 55 78 56 79
REMARK SMILES IDX 60 80 63 81 57 82 58 83 61 84 59 85 38 86 39 87 47 88 40 89
REMARK SMILES IDX 41 90 45 91 48 92 42 93 43 94 46 95 44 96
REMARK H PARENT 5 6 1 14 1 15 1 16 9 30 68 49 36 60
REMARK Flexibility Score: inf
ROOT
ATOM      1  C   UNL A   1      41.962  20.508  27.210  1.00  0.00     0.042 C 
ENDROOT
BRANCH   1   2
ATOM      2  C   UNL A   1      42.645  20.531  25.831  1.00  0.00     0.118 C 
BRANCH   2   3
ATOM      3  N   UNL A   1      44.100  20.409  25.768  1.00  0.00    -0.351 N 
ATOM      4  C   UNL A   1      45.126  21.139  25.210  1.00  0.00     0.281 C 
ATOM      5  O   UNL A   1      46.264  20.823  25.577  1.00  0.00    -0.268 OA
ATOM      6  H   UNL A   1      44.425  19.610  26.240  1.00  0.00     0.163 HD
BRANCH   4   7
ATOM      7  C   UNL A   1      44.897  22.359  24.252  1.00  0.00     0.177 C 
ATOM      8  C   UNL A   1      43.626  23.171  24.634  1.00  0.00     0.079 C 
ATOM      9  C   UNL A   1      46.106  23.307  24.114  1.00  0.00     0.124 C 
ATOM     10  C   UNL A   1      43.815  24.219  25.732  1.00  0.00     0.011 C 
ATOM     11  C   UNL A   1      46.273  24.433  25.167  1.00  0.00     0.180 C 
ATOM     12  C   UNL A   1      44.966  25.168  25.435  1.00  0.00     0.046 C 
BRANCH   7  13
ATOM     13  N   UNL A   1      44.544  21.744  22.938  1.00  0.00    -0.345 N 
ATOM     14  H   UNL A   1      43.815  21.044  23.075  1.00  0.00     0.345 HD
ATOM     15  H   UNL A   1      45.370  21.301  22.537  1.00  0.00     0.345 HD
ATOM     16  H   UNL A   1      44.205  22.469  22.305  1.00  0.00     0.345 HD
ENDBRANCH   7  13
BRANCH  11  17
ATOM     17  O   UNL A   1      47.114  24.173  26.312  1.00  0.00    -0.490 OA
BRANCH  17  18
ATOM     18  C   UNL A   1      46.617  24.370  27.564  1.00  0.00     0.120 A 
ATOM     19  C   UNL A   1      47.121  25.323  28.451  1.00  0.00     0.047 A 
ATOM     20  C   UNL A   1      45.648  23.488  28.006  1.00  0.00     0.050 A 
ATOM     21  C   UNL A   1      46.537  25.489  29.721  1.00  0.00     0.008 A 
ATOM     22  C   UNL A   1      45.042  23.667  29.235  1.00  0.00    -0.041 A 
ATOM     23  C   UNL A   1      45.474  24.676  30.086  1.00  0.00    -0.045 A 
ATOM     24  C   UNL A   1      43.818  22.986  29.762  1.00  0.00     0.036 C 
ATOM     25  C   UNL A   1      44.583  24.760  31.286  1.00  0.00     0.036 C 
ATOM     26  C   UNL A   1      43.842  23.411  31.232  1.00  0.00     0.010 C 
ENDBRANCH  17  18
ENDBRANCH  11  17
ENDBRANCH   4   7
ENDBRANCH   2   3
ENDBRANCH   1   2
BRANCH   1  27
ATOM     27  C   UNL A   1      41.018  21.632  27.635  1.00  0.00     0.118 C 
BRANCH  27  28
ATOM     28  N   UNL A   1      39.813  21.768  26.852  1.00  0.00    -0.352 N 
ATOM     29  C   UNL A   1      39.114  22.887  26.470  1.00  0.00     0.251 C 
ATOM     30  H   UNL A   1      39.428  20.917  26.539  1.00  0.00     0.163 HD
ATOM     31  O   UNL A   1      38.114  22.751  25.773  1.00  0.00    -0.269 OA
BRANCH  29  32
ATOM     32  C   UNL A   1      39.494  24.249  26.927  1.00  0.00     0.039 A 
ATOM     33  C   UNL A   1      39.155  24.602  28.238  1.00  0.00     0.014 A 
ATOM     34  C   UNL A   1      40.114  25.195  26.104  1.00  0.00     0.014 A 
ATOM     35  C   UNL A   1      39.495  25.861  28.743  1.00  0.00     0.010 A 
ATOM     36  C   UNL A   1      40.513  26.430  26.631  1.00  0.00     0.010 A 
ATOM     37  C   UNL A   1      40.213  26.776  27.959  1.00  0.00    -0.014 A 
BRANCH  37  38
ATOM     38  C   UNL A   1      40.659  28.081  28.528  1.00  0.00     0.031 A 
ATOM     39  C   UNL A   1      42.105  28.321  28.869  1.00  0.00     0.074 A 
ATOM     40  C   UNL A   1      39.751  29.049  28.770  1.00  0.00     0.049 A 
ATOM     41  N   UNL A   1      42.664  29.373  29.418  1.00  0.00    -0.248 NA
ATOM     42  C   UNL A   1      43.045  27.232  28.568  1.00  0.00     0.031 C 
ATOM     43  C   UNL A   1      38.314  28.943  28.512  1.00  0.00     0.029 A 
ATOM     44  N   UNL A   1      39.899  30.310  29.296  1.00  0.00    -0.354 N 
ATOM     45  C   UNL A   1      44.015  29.070  29.533  1.00  0.00     0.074 A 
ATOM     46  C   UNL A   1      44.184  27.718  29.043  1.00  0.00     0.031 C 
ATOM     47  C   UNL A   1      37.717  30.090  28.866  1.00  0.00     0.029 A 
ATOM     48  C   UNL A   1      38.716  31.000  29.420  1.00  0.00     0.049 A 
ATOM     49  H   UNL A   1      40.770  30.685  29.561  1.00  0.00     0.167 HD
ATOM     50  C   UNL A   1      45.026  29.853  29.984  1.00  0.00     0.037 A 
ATOM     51  C   UNL A   1      38.459  32.218  29.935  1.00  0.00     0.037 A 
ATOM     52  C   UNL A   1      44.862  31.202  30.463  1.00  0.00     0.049 A 
ATOM     53  C   UNL A   1      39.594  33.052  30.467  1.00  0.00     0.074 A 
ATOM     54  C   UNL A   1      45.834  32.083  30.907  1.00  0.00     0.029 A 
ATOM     55  N   UNL A   1      43.649  31.864  30.569  1.00  0.00    -0.354 N 
ATOM     56  N   UNL A   1      40.874  32.773  30.517  1.00  0.00    -0.248 NA
ATOM     57  C   UNL A   1      39.251  34.374  31.008  1.00  0.00     0.031 C 
ATOM     58  C   UNL A   1      45.203  33.256  31.332  1.00  0.00     0.029 A 
ATOM     59  C   UNL A   1      43.845  33.133  31.092  1.00  0.00     0.049 A 
ATOM     60  H   UNL A   1      42.775  31.488  30.310  1.00  0.00     0.167 HD
ATOM     61  C   UNL A   1      41.489  33.894  31.059  1.00  0.00     0.074 A 
ATOM     62  C   UNL A   1      40.445  34.864  31.309  1.00  0.00     0.031 C 
ATOM     63  C   UNL A   1      42.803  34.101  31.324  1.00  0.00     0.037 A 
BRANCH  50  64
ATOM     64  C   UNL A   1      46.412  29.271  29.983  1.00  0.00     0.064 A 
ATOM     65  C   UNL A   1      47.220  29.295  28.837  1.00  0.00     0.173 A 
ATOM     66  C   UNL A   1      46.962  28.737  31.160  1.00  0.00     0.173 A 
ATOM     67  F   UNL A   1      46.742  29.791  27.685  1.00  0.00    -0.203 F 
ATOM     68  C   UNL A   1      48.513  28.780  28.858  1.00  0.00     0.198 A 
ATOM     69  C   UNL A   1      48.268  28.253  31.186  1.00  0.00     0.198 A 
ATOM     70  F   UNL A   1      46.240  28.700  32.289  1.00  0.00    -0.203 F 
ATOM     71  F   UNL A   1      49.248  28.772  27.738  1.00  0.00    -0.200 F 
ATOM     72  C   UNL A   1      49.039  28.267  30.034  1.00  0.00     0.200 A 
ATOM     73  F   UNL A   1      48.780  27.775  32.328  1.00  0.00    -0.200 F 
ATOM     74  F   UNL A   1      50.288  27.783  30.057  1.00  0.00    -0.200 F 
ENDBRANCH  50  64
BRANCH  51  75
ATOM     75  C   UNL A   1      37.062  32.730  29.980  1.00  0.00     0.064 A 
ATOM     76  C   UNL A   1      36.539  33.504  28.934  1.00  0.00     0.173 A 
ATOM     77  C   UNL A   1      36.230  32.481  31.083  1.00  0.00     0.173 A 
ATOM     78  F   UNL A   1      37.301  33.790  27.869  1.00  0.00    -0.203 F 
ATOM     79  C   UNL A   1      35.251  34.033  29.003  1.00  0.00     0.198 A 
ATOM     80  C   UNL A   1      34.931  32.980  31.134  1.00  0.00     0.198 A 
ATOM     81  F   UNL A   1      36.678  31.742  32.109  1.00  0.00    -0.203 F 
ATOM     82  F   UNL A   1      34.800  34.820  28.016  1.00  0.00    -0.200 F 
ATOM     83  C   UNL A   1      34.447  33.766  30.100  1.00  0.00     0.200 A 
ATOM     84  F   UNL A   1      34.151  32.707  32.188  1.00  0.00    -0.200 F 
ATOM     85  F   UNL A   1      33.210  34.276  30.166  1.00  0.00    -0.200 F 
ENDBRANCH  51  75
BRANCH  63  86
ATOM     86  C   UNL A   1      43.199  35.445  31.868  1.00  0.00     0.064 A 
ATOM     87  C   UNL A   1      43.160  35.732  33.240  1.00  0.00     0.173 A 
ATOM     88  C   UNL A   1      43.664  36.447  31.002  1.00  0.00     0.173 A 
ATOM     89  F   UNL A   1      42.710  34.814  34.109  1.00  0.00    -0.203 F 
ATOM     90  C   UNL A   1      43.547  36.980  33.722  1.00  0.00     0.198 A 
ATOM     91  C   UNL A   1      44.082  37.682  31.491  1.00  0.00     0.198 A 
ATOM     92  F   UNL A   1      43.729  36.225  29.680  1.00  0.00    -0.203 F 
ATOM     93  F   UNL A   1      43.452  37.249  35.032  1.00  0.00    -0.200 F 
ATOM     94  C   UNL A   1      44.016  37.950  32.849  1.00  0.00     0.200 A 
ATOM     95  F   UNL A   1      44.549  38.613  30.646  1.00  0.00    -0.200 F 
ATOM     96  F   UNL A   1      44.395  39.148  33.316  1.00  0.00    -0.200 F 
ENDBRANCH  63  86
ENDBRANCH  37  38
ENDBRANCH  29  32
ENDBRANCH  27  28
ENDBRANCH   1  27
TORSDOF 13
ENDMDL
MODEL 2
REMARK VINA RESULT:     -11.6      4.352     11.514
REMARK SMILES [NH3+][C@]1(C(=O)NCCCNC(=O)c2ccc(-c3c4nc(c(-c5c(F)c(F)c(F)c(F)c5F)c5ccc([nH]5)c(-c5c(F)c(F)c(F)c(F)c5F)c5nc(c(-c6c(F)c(F)c(F)c(F)c6F)c6ccc3[nH]6)C=C5)C=C4)cc2)CCC[C@@H](Oc2ccc3c(c2)CCC3)C1
REMARK SMILES IDX 7 1 6 2 5 3 3 4 4 5 2 7 75 8 89 9 76 10 78 11 77 12 1 13
REMARK SMILES IDX 79 17 80 18 81 19 85 20 82 21 84 22 83 23 86 24 88 25 87 26
REMARK SMILES IDX 8 27 9 28 10 29 11 31 12 32 13 33 74 34 14 35 73 36 15 37
REMARK SMILES IDX 16 38 17 39 67 40 18 41 72 42 66 43 68 44 19 45 71 46 65 47
REMARK SMILES IDX 64 48 20 50 52 51 32 52 51 53 33 54 36 55 50 56 69 57 34 58
REMARK SMILES IDX 35 59 49 61 70 62 37 63 21 64 22 65 30 66 23 67 24 68 28 69
REMARK SMILES IDX 31 70 25 71 26 72 29 73 27 74 53 75 54 76 62 77 55 78 56 79
REMARK SMILES IDX 60 80 63 81 57 82 58 83 61 84 59 85 38 86 39 87 47 88 40 89
REMARK SMILES IDX 41 90 45 91 48 92 42 93 43 94 46 95 44 96
REMARK H PARENT 5 6 1 14 1 15 1 16 9 30 68 49 36 60
REMARK Flexibility Score: inf
ROOT
ATOM      1  C   UNL A   1      34.504  34.646  28.626  1.00  0.00     0.042 C 
ENDROOT
BRANCH   1   2
ATOM      2  C   UNL A   1      33.644  34.690  29.901  1.00  0.00     0.118 C 
BRANCH   2   3
ATOM      3  N   UNL A   1      34.080  35.533  31.012  1.00  0.00    -0.351 N 
ATOM      4  C   UNL A   1      34.470  35.320  32.317  1.00  0.00     0.281 C 
ATOM      5  O   UNL A   1      34.993  36.289  32.880  1.00  0.00    -0.268 OA
ATOM      6  H   UNL A   1      34.100  36.485  30.769  1.00  0.00     0.163 HD
BRANCH   4   7
ATOM      7  C   UNL A   1      34.366  33.929  33.034  1.00  0.00     0.177 C 
ATOM      8  C   UNL A   1      34.766  32.756  32.093  1.00  0.00     0.079 C 
ATOM      9  C   UNL A   1      35.144  33.828  34.361  1.00  0.00     0.124 C 
ATOM     10  C   UNL A   1      36.264  32.464  31.999  1.00  0.00     0.011 C 
ATOM     11  C   UNL A   1      36.646  33.449  34.300  1.00  0.00     0.180 C 
ATOM     12  C   UNL A   1      36.904  32.273  33.367  1.00  0.00     0.046 C 
BRANCH   7  13
ATOM     13  N   UNL A   1      32.903  33.727  33.251  1.00  0.00    -0.345 N 
ATOM     14  H   UNL A   1      32.446  33.557  32.355  1.00  0.00     0.345 HD
ATOM     15  H   UNL A   1      32.505  34.560  33.683  1.00  0.00     0.345 HD
ATOM     16  H   UNL A   1      32.759  32.924  33.863  1.00  0.00     0.345 HD
ENDBRANCH   7  13
BRANCH  11  17
ATOM     17  O   UNL A   1      37.616  34.518  34.274  1.00  0.00    -0.490 OA
BRANCH  17  18
ATOM     18  C   UNL A   1      38.581  34.521  33.314  1.00  0.00     0.120 A 
ATOM     19  C   UNL A   1      39.947  34.469  33.596  1.00  0.00     0.047 A 
ATOM     20  C   UNL A   1      38.173  34.713  32.006  1.00  0.00     0.050 A 
ATOM     21  C   UNL A   1      40.887  34.448  32.549  1.00  0.00     0.008 A 
ATOM     22  C   UNL A   1      39.083  34.655  30.969  1.00  0.00    -0.041 A 
ATOM     23  C   UNL A   1      40.438  34.506  31.237  1.00  0.00    -0.045 A 
ATOM     24  C   UNL A   1      38.799  34.578  29.502  1.00  0.00     0.036 C 
ATOM     25  C   UNL A   1      41.203  34.331  29.962  1.00  0.00     0.036 C 
ATOM     26  C   UNL A   1      40.189  34.815  28.909  1.00  0.00     0.010 C 
ENDBRANCH  17  18
ENDBRANCH  11  17
ENDBRANCH   4   7
ENDBRANCH   2   3
ENDBRANCH   1   2
BRANCH   1  27
ATOM     27  C   UNL A   1      35.270  33.382  28.241  1.00  0.00     0.118 C 
BRANCH  27  28
ATOM     28  N   UNL A   1      34.479  32.322  27.662  1.00  0.00    -0.352 N 
ATOM     29  C   UNL A   1      34.669  30.961  27.660  1.00  0.00     0.251 C 
ATOM     30  H   UNL A   1      33.669  32.623  27.190  1.00  0.00     0.163 HD
ATOM     31  O   UNL A   1      33.834  30.248  27.113  1.00  0.00    -0.269 OA
BRANCH  29  32
ATOM     32  C   UNL A   1      35.883  30.333  28.242  1.00  0.00     0.039 A 
ATOM     33  C   UNL A   1      37.045  30.341  27.461  1.00  0.00     0.014 A 
ATOM     34  C   UNL A   1      35.903  29.699  29.488  1.00  0.00     0.014 A 
ATOM     35  C   UNL A   1      38.230  29.782  27.950  1.00  0.00     0.010 A 
ATOM     36  C   UNL A   1      37.106  29.199  30.004  1.00  0.00     0.010 A 
ATOM     37  C   UNL A   1      38.286  29.240  29.242  1.00  0.00    -0.014 A 
BRANCH  37  38
ATOM     38  C   UNL A   1      39.572  28.731  29.800  1.00  0.00     0.031 A 
ATOM     39  C   UNL A   1      40.251  29.435  30.943  1.00  0.00     0.074 A 
ATOM     40  C   UNL A   1      40.153  27.643  29.253  1.00  0.00     0.049 A 
ATOM     41  N   UNL A   1      41.397  29.166  31.521  1.00  0.00    -0.248 NA
ATOM     42  C   UNL A   1      39.561  30.606  31.503  1.00  0.00     0.031 C 
ATOM     43  C   UNL A   1      39.619  26.877  28.126  1.00  0.00     0.029 A 
ATOM     44  N   UNL A   1      41.325  26.996  29.565  1.00  0.00    -0.354 N 
ATOM     45  C   UNL A   1      41.566  30.133  32.503  1.00  0.00     0.074 A 
ATOM     46  C   UNL A   1      40.430  31.026  32.411  1.00  0.00     0.031 C 
ATOM     47  C   UNL A   1      40.450  25.861  27.850  1.00  0.00     0.029 A 
ATOM     48  C   UNL A   1      41.600  25.925  28.748  1.00  0.00     0.049 A 
ATOM     49  H   UNL A   1      41.914  27.273  30.304  1.00  0.00     0.167 HD
ATOM     50  C   UNL A   1      42.565  30.255  33.414  1.00  0.00     0.037 A 
ATOM     51  C   UNL A   1      42.663  25.098  28.710  1.00  0.00     0.037 A 
ATOM     52  C   UNL A   1      43.692  29.363  33.513  1.00  0.00     0.049 A 
ATOM     53  C   UNL A   1      43.777  25.280  29.707  1.00  0.00     0.074 A 
ATOM     54  C   UNL A   1      44.733  29.388  34.426  1.00  0.00     0.029 A 
ATOM     55  N   UNL A   1      43.931  28.290  32.669  1.00  0.00    -0.354 N 
ATOM     56  N   UNL A   1      43.895  26.165  30.666  1.00  0.00    -0.248 NA
ATOM     57  C   UNL A   1      44.905  24.341  29.620  1.00  0.00     0.031 C 
ATOM     58  C   UNL A   1      45.629  28.365  34.100  1.00  0.00     0.029 A 
ATOM     59  C   UNL A   1      45.114  27.660  33.025  1.00  0.00     0.049 A 
ATOM     60  H   UNL A   1      43.346  28.015  31.925  1.00  0.00     0.167 HD
ATOM     61  C   UNL A   1      45.087  25.869  31.316  1.00  0.00     0.074 A 
ATOM     62  C   UNL A   1      45.649  24.713  30.652  1.00  0.00     0.031 C 
ATOM     63  C   UNL A   1      45.661  26.500  32.370  1.00  0.00     0.037 A 
BRANCH  50  64
ATOM     64  C   UNL A   1      42.488  31.401  34.384  1.00  0.00     0.064 A 
ATOM     65  C   UNL A   1      41.691  31.337  35.536  1.00  0.00     0.173 A 
ATOM     66  C   UNL A   1      43.266  32.553  34.189  1.00  0.00     0.173 A 
ATOM     67  F   UNL A   1      40.925  30.260  35.768  1.00  0.00    -0.203 F 
ATOM     68  C   UNL A   1      41.652  32.394  36.442  1.00  0.00     0.198 A 
ATOM     69  C   UNL A   1      43.250  33.594  35.115  1.00  0.00     0.198 A 
ATOM     70  F   UNL A   1      44.055  32.664  33.111  1.00  0.00    -0.203 F 
ATOM     71  F   UNL A   1      40.847  32.328  37.512  1.00  0.00    -0.200 F 
ATOM     72  C   UNL A   1      42.437  33.517  36.235  1.00  0.00     0.200 A 
ATOM     73  F   UNL A   1      44.023  34.672  34.922  1.00  0.00    -0.200 F 
ATOM     74  F   UNL A   1      42.409  34.528  37.115  1.00  0.00    -0.200 F 
ENDBRANCH  50  64
BRANCH  51  75
ATOM     75  C   UNL A   1      42.733  24.018  27.689  1.00  0.00     0.064 A 
ATOM     76  C   UNL A   1      42.290  22.719  27.976  1.00  0.00     0.173 A 
ATOM     77  C   UNL A   1      43.272  24.255  26.415  1.00  0.00     0.173 A 
ATOM     78  F   UNL A   1      41.789  22.435  29.186  1.00  0.00    -0.203 F 
ATOM     79  C   UNL A   1      42.411  21.693  27.040  1.00  0.00     0.198 A 
ATOM     80  C   UNL A   1      43.358  23.236  25.467  1.00  0.00     0.198 A 
ATOM     81  F   UNL A   1      43.706  25.480  26.085  1.00  0.00    -0.203 F 
ATOM     82  F   UNL A   1      42.035  20.447  27.363  1.00  0.00    -0.200 F 
ATOM     83  C   UNL A   1      42.939  21.954  25.785  1.00  0.00     0.200 A 
ATOM     84  F   UNL A   1      43.855  23.497  24.251  1.00  0.00    -0.200 F 
ATOM     85  F   UNL A   1      43.056  20.968  24.886  1.00  0.00    -0.200 F 
ENDBRANCH  51  75
BRANCH  63  86
ATOM     86  C   UNL A   1      46.941  25.925  32.910  1.00  0.00     0.064 A 
ATOM     87  C   UNL A   1      48.198  26.371  32.474  1.00  0.00     0.173 A 
ATOM     88  C   UNL A   1      46.906  24.941  33.910  1.00  0.00     0.173 A 
ATOM     89  F   UNL A   1      48.287  27.299  31.508  1.00  0.00    -0.203 F 
ATOM     90  C   UNL A   1      49.370  25.834  32.999  1.00  0.00     0.198 A 
ATOM     91  C   UNL A   1      48.081  24.432  34.458  1.00  0.00     0.198 A 
ATOM     92  F   UNL A   1      45.732  24.483  34.370  1.00  0.00    -0.203 F 
ATOM     93  F   UNL A   1      50.559  26.238  32.531  1.00  0.00    -0.200 F 
ATOM     94  C   UNL A   1      49.311  24.873  33.997  1.00  0.00     0.200 A 
ATOM     95  F   UNL A   1      48.021  23.513  35.433  1.00  0.00    -0.200 F 
ATOM     96  F   UNL A   1      50.441  24.364  34.507  1.00  0.00    -0.200 F 
ENDBRANCH  63  86
ENDBRANCH  37  38
ENDBRANCH  29  32
ENDBRANCH  27  28
ENDBRANCH   1  27
TORSDOF 13
ENDMDL
MODEL 3
REMARK VINA RESULT:     -11.5      5.871     10.986
REMARK SMILES [NH3+][C@]1(C(=O)NCCCNC(=O)c2ccc(-c3c4nc(c(-c5c(F)c(F)c(F)c(F)c5F)c5ccc([nH]5)c(-c5c(F)c(F)c(F)c(F)c5F)c5nc(c(-c6c(F)c(F)c(F)c(F)c6F)c6ccc3[nH]6)C=C5)C=C4)cc2)CCC[C@@H](Oc2ccc3c(c2)CCC3)C1
REMARK SMILES IDX 7 1 6 2 5 3 3 4 4 5 2 7 75 8 89 9 76 10 78 11 77 12 1 13
REMARK SMILES IDX 79 17 80 18 81 19 85 20 82 21 84 22 83 23 86 24 88 25 87 26
REMARK SMILES IDX 8 27 9 28 10 29 11 31 12 32 13 33 74 34 14 35 73 36 15 37
REMARK SMILES IDX 16 38 17 39 67 40 18 41 72 42 66 43 68 44 19 45 71 46 65 47
REMARK SMILES IDX 64 48 20 50 52 51 32 52 51 53 33 54 36 55 50 56 69 57 34 58
REMARK SMILES IDX 35 59 49 61 70 62 37 63 21 64 22 65 30 66 23 67 24 68 28 69
REMARK SMILES IDX 31 70 25 71 26 72 29 73 27 74 53 75 54 76 62 77 55 78 56 79
REMARK SMILES IDX 60 80 63 81 57 82 58 83 61 84 59 85 38 86 39 87 47 88 40 89
REMARK SMILES IDX 41 90 45 91 48 92 42 93 43 94 46 95 44 96
REMARK H PARENT 5 6 1 14 1 15 1 16 9 30 68 49 36 60
REMARK Flexibility Score: inf
ROOT
ATOM      1  C   UNL A   1      31.339  32.297  26.561  1.00  0.00     0.042 C 
ENDROOT
BRANCH   1   2
ATOM      2  C   UNL A   1      31.409  30.794  26.242  1.00  0.00     0.118 C 
BRANCH   2   3
ATOM      3  N   UNL A   1      32.270  30.349  25.148  1.00  0.00    -0.351 N 
ATOM      4  C   UNL A   1      33.106  29.277  24.925  1.00  0.00     0.281 C 
ATOM      5  O   UNL A   1      33.493  29.137  23.759  1.00  0.00    -0.268 OA
ATOM      6  H   UNL A   1      32.247  30.968  24.383  1.00  0.00     0.163 HD
BRANCH   4   7
ATOM      7  C   UNL A   1      33.479  28.229  26.029  1.00  0.00     0.177 C 
ATOM      8  C   UNL A   1      32.410  28.164  27.158  1.00  0.00     0.079 C 
ATOM      9  C   UNL A   1      33.773  26.810  25.500  1.00  0.00     0.124 C 
ATOM     10  C   UNL A   1      31.205  27.264  26.878  1.00  0.00     0.011 C 
ATOM     11  C   UNL A   1      32.575  25.848  25.288  1.00  0.00     0.180 C 
ATOM     12  C   UNL A   1      31.615  25.856  26.470  1.00  0.00     0.046 C 
BRANCH   7  13
ATOM     13  N   UNL A   1      34.676  28.807  26.708  1.00  0.00    -0.345 N 
ATOM     14  H   UNL A   1      35.382  28.081  26.830  1.00  0.00     0.345 HD
ATOM     15  H   UNL A   1      34.405  29.175  27.619  1.00  0.00     0.345 HD
ATOM     16  H   UNL A   1      35.059  29.560  26.137  1.00  0.00     0.345 HD
ENDBRANCH   7  13
BRANCH  11  17
ATOM     17  O   UNL A   1      31.980  25.785  23.973  1.00  0.00    -0.490 OA
BRANCH  17  18
ATOM     18  C   UNL A   1      30.797  26.419  23.745  1.00  0.00     0.120 A 
ATOM     19  C   UNL A   1      29.555  25.871  24.070  1.00  0.00     0.047 A 
ATOM     20  C   UNL A   1      30.842  27.608  23.040  1.00  0.00     0.050 A 
ATOM     21  C   UNL A   1      28.374  26.598  23.829  1.00  0.00     0.008 A 
ATOM     22  C   UNL A   1      29.694  28.348  22.832  1.00  0.00    -0.041 A 
ATOM     23  C   UNL A   1      28.462  27.852  23.240  1.00  0.00    -0.045 A 
ATOM     24  C   UNL A   1      29.585  29.754  22.333  1.00  0.00     0.036 C 
ATOM     25  C   UNL A   1      27.394  28.882  23.036  1.00  0.00     0.036 C 
ATOM     26  C   UNL A   1      28.081  29.871  22.076  1.00  0.00     0.010 C 
ENDBRANCH  17  18
ENDBRANCH  11  17
ENDBRANCH   4   7
ENDBRANCH   2   3
ENDBRANCH   1   2
BRANCH   1  27
ATOM     27  C   UNL A   1      32.552  33.035  27.125  1.00  0.00     0.118 C 
BRANCH  27  28
ATOM     28  N   UNL A   1      32.280  34.317  27.730  1.00  0.00    -0.352 N 
ATOM     29  C   UNL A   1      32.980  35.028  28.675  1.00  0.00     0.251 C 
ATOM     30  H   UNL A   1      31.457  34.755  27.415  1.00  0.00     0.163 HD
ATOM     31  O   UNL A   1      32.558  36.126  29.023  1.00  0.00    -0.269 OA
BRANCH  29  32
ATOM     32  C   UNL A   1      34.196  34.482  29.333  1.00  0.00     0.039 A 
ATOM     33  C   UNL A   1      34.025  33.850  30.570  1.00  0.00     0.014 A 
ATOM     34  C   UNL A   1      35.485  34.617  28.809  1.00  0.00     0.014 A 
ATOM     35  C   UNL A   1      35.121  33.298  31.241  1.00  0.00     0.010 A 
ATOM     36  C   UNL A   1      36.572  34.006  29.448  1.00  0.00     0.010 A 
ATOM     37  C   UNL A   1      36.401  33.334  30.670  1.00  0.00    -0.014 A 
BRANCH  37  38
ATOM     38  C   UNL A   1      37.553  32.662  31.338  1.00  0.00     0.031 A 
ATOM     39  C   UNL A   1      38.270  31.517  30.676  1.00  0.00     0.074 A 
ATOM     40  C   UNL A   1      37.938  33.064  32.567  1.00  0.00     0.049 A 
ATOM     41  N   UNL A   1      39.256  30.782  31.130  1.00  0.00    -0.248 NA
ATOM     42  C   UNL A   1      37.811  31.137  29.333  1.00  0.00     0.031 C 
ATOM     43  C   UNL A   1      37.317  34.144  33.336  1.00  0.00     0.029 A 
ATOM     44  N   UNL A   1      38.939  32.607  33.391  1.00  0.00    -0.354 N 
ATOM     45  C   UNL A   1      39.529  29.853  30.135  1.00  0.00     0.074 A 
ATOM     46  C   UNL A   1      38.573  30.084  29.073  1.00  0.00     0.031 C 
ATOM     47  C   UNL A   1      37.956  34.274  34.508  1.00  0.00     0.029 A 
ATOM     48  C   UNL A   1      39.003  33.260  34.599  1.00  0.00     0.049 A 
ATOM     49  H   UNL A   1      39.553  31.879  33.140  1.00  0.00     0.167 HD
ATOM     50  C   UNL A   1      40.502  28.907  30.098  1.00  0.00     0.037 A 
ATOM     51  C   UNL A   1      39.800  33.058  35.666  1.00  0.00     0.037 A 
ATOM     52  C   UNL A   1      41.460  28.681  31.149  1.00  0.00     0.049 A 
ATOM     53  C   UNL A   1      40.845  31.975  35.615  1.00  0.00     0.074 A 
ATOM     54  C   UNL A   1      42.502  27.770  31.184  1.00  0.00     0.029 A 
ATOM     55  N   UNL A   1      41.493  29.366  32.354  1.00  0.00    -0.354 N 
ATOM     56  N   UNL A   1      41.127  31.141  34.644  1.00  0.00    -0.248 NA
ATOM     57  C   UNL A   1      41.689  31.809  36.807  1.00  0.00     0.031 C 
ATOM     58  C   UNL A   1      43.130  27.865  32.430  1.00  0.00     0.029 A 
ATOM     59  C   UNL A   1      42.522  28.882  33.148  1.00  0.00     0.049 A 
ATOM     60  H   UNL A   1      40.876  30.091  32.609  1.00  0.00     0.167 HD
ATOM     61  C   UNL A   1      42.199  30.380  35.093  1.00  0.00     0.074 A 
ATOM     62  C   UNL A   1      42.527  30.859  36.418  1.00  0.00     0.031 C 
ATOM     63  C   UNL A   1      42.853  29.374  34.460  1.00  0.00     0.037 A 
BRANCH  50  64
ATOM     64  C   UNL A   1      40.581  28.036  28.875  1.00  0.00     0.064 A 
ATOM     65  C   UNL A   1      39.852  26.843  28.774  1.00  0.00     0.173 A 
ATOM     66  C   UNL A   1      41.349  28.430  27.768  1.00  0.00     0.173 A 
ATOM     67  F   UNL A   1      39.106  26.418  29.805  1.00  0.00    -0.203 F 
ATOM     68  C   UNL A   1      39.912  26.060  27.623  1.00  0.00     0.198 A 
ATOM     69  C   UNL A   1      41.379  27.662  26.606  1.00  0.00     0.198 A 
ATOM     70  F   UNL A   1      42.057  29.569  27.804  1.00  0.00    -0.203 F 
ATOM     71  F   UNL A   1      39.243  24.900  27.569  1.00  0.00    -0.200 F 
ATOM     72  C   UNL A   1      40.668  26.475  26.538  1.00  0.00     0.200 A 
ATOM     73  F   UNL A   1      42.096  28.074  25.551  1.00  0.00    -0.200 F 
ATOM     74  F   UNL A   1      40.714  25.727  25.426  1.00  0.00    -0.200 F 
ENDBRANCH  50  64
BRANCH  51  75
ATOM     75  C   UNL A   1      39.643  33.897  36.885  1.00  0.00     0.064 A 
ATOM     76  C   UNL A   1      38.845  33.475  37.958  1.00  0.00     0.173 A 
ATOM     77  C   UNL A   1      40.264  35.152  36.990  1.00  0.00     0.173 A 
ATOM     78  F   UNL A   1      38.212  32.295  37.898  1.00  0.00    -0.203 F 
ATOM     79  C   UNL A   1      38.650  34.288  39.075  1.00  0.00     0.198 A 
ATOM     80  C   UNL A   1      40.097  35.947  38.122  1.00  0.00     0.198 A 
ATOM     81  F   UNL A   1      41.042  35.602  35.995  1.00  0.00    -0.203 F 
ATOM     82  F   UNL A   1      37.833  33.884  40.058  1.00  0.00    -0.200 F 
ATOM     83  C   UNL A   1      39.280  35.519  39.157  1.00  0.00     0.200 A 
ATOM     84  F   UNL A   1      40.720  37.130  38.205  1.00  0.00    -0.200 F 
ATOM     85  F   UNL A   1      39.092  36.300  40.230  1.00  0.00    -0.200 F 
ENDBRANCH  51  75
BRANCH  63  86
ATOM     86  C   UNL A   1      44.025  28.754  35.169  1.00  0.00     0.064 A 
ATOM     87  C   UNL A   1      45.333  29.233  35.002  1.00  0.00     0.173 A 
ATOM     88  C   UNL A   1      43.828  27.687  36.059  1.00  0.00     0.173 A 
ATOM     89  F   UNL A   1      45.578  30.241  34.151  1.00  0.00    -0.203 F 
ATOM     90  C   UNL A   1      46.401  28.652  35.680  1.00  0.00     0.198 A 
ATOM     91  C   UNL A   1      44.894  27.130  36.762  1.00  0.00     0.198 A 
ATOM     92  F   UNL A   1      42.597  27.191  36.262  1.00  0.00    -0.203 F 
ATOM     93  F   UNL A   1      47.648  29.094  35.466  1.00  0.00    -0.200 F 
ATOM     94  C   UNL A   1      46.180  27.608  36.566  1.00  0.00     0.200 A 
ATOM     95  F   UNL A   1      44.675  26.131  37.628  1.00  0.00    -0.200 F 
ATOM     96  F   UNL A   1      47.208  27.056  37.224  1.00  0.00    -0.200 F 
ENDBRANCH  63  86
ENDBRANCH  37  38
ENDBRANCH  29  32
ENDBRANCH  27  28
ENDBRANCH   1  27
TORSDOF 13
ENDMDL
