MODEL 1
REMARK VINA RESULT:     -13.3      0.000      0.000
REMARK SMILES O=C(NCCCNC(=O)[C@@H]1CN(C(=O)CCC(F)(F)F)C[C@H]1c1ccc2c(c1)OCO2)c1ccc(-c2c3nc(c(-c4c(F)c(F)c(F)c(F)c4F)c4ccc([nH]4)c(-c4c(F)c(F)c(F)c(F)c4F)c4nc(c(-c5c(F)c(F)c(F)c(F)c5F)c5ccc2[nH]5)C=C4)C=C3)cc1
REMARK SMILES IDX 6 1 5 2 4 3 3 4 1 5 2 6 32 8 33 9 94 10 34 11 93 12 35 13
REMARK SMILES IDX 36 14 37 15 87 16 38 17 92 18 86 19 88 20 39 21 91 22 85 23
REMARK SMILES IDX 84 24 40 26 72 27 52 28 71 29 53 30 56 31 70 32 89 33 54 34
REMARK SMILES IDX 55 35 69 37 90 38 57 39 41 40 42 41 50 42 43 43 44 44 48 45
REMARK SMILES IDX 51 46 45 47 46 48 49 49 47 50 73 51 74 52 82 53 75 54 76 55
REMARK SMILES IDX 80 56 83 57 77 58 78 59 81 60 79 61 58 62 59 63 67 64 60 65
REMARK SMILES IDX 61 66 65 67 68 68 62 69 63 70 66 71 64 72 7 73 8 74 9 76
REMARK SMILES IDX 10 77 11 78 22 79 12 80 21 81 23 82 24 83 28 84 25 85 27 86
REMARK SMILES IDX 26 87 29 88 31 89 30 90 13 91 14 92 15 93 16 94 17 95 18 96
REMARK SMILES IDX 19 97 20 98
REMARK H PARENT 3 7 88 25 56 36 7 75
REMARK Flexibility Score: inf
ROOT
ATOM      1  C   UNL A   1      37.979  22.211  26.082  1.00  0.00     0.117 C 
ENDROOT
BRANCH   1   2
ATOM      2  C   UNL A   1      39.250  21.383  26.254  1.00  0.00     0.042 C 
BRANCH   2   3
ATOM      3  C   UNL A   1      39.301  20.185  25.311  1.00  0.00     0.118 C 
BRANCH   3   4
ATOM      4  N   UNL A   1      40.277  19.199  25.756  1.00  0.00    -0.352 N 
ATOM      5  O   UNL A   1      42.318  18.353  26.159  1.00  0.00    -0.269 OA
ATOM      6  C   UNL A   1      41.595  19.344  26.102  1.00  0.00     0.251 C 
ATOM      7  H   UNL A   1      39.935  18.277  25.817  1.00  0.00     0.163 HD
BRANCH   6   8
ATOM      8  C   UNL A   1      42.148  20.675  26.428  1.00  0.00     0.039 A 
ATOM      9  C   UNL A   1      42.516  21.566  25.417  1.00  0.00     0.014 A 
ATOM     10  C   UNL A   1      42.210  21.073  27.767  1.00  0.00     0.014 A 
ATOM     11  C   UNL A   1      43.045  22.808  25.743  1.00  0.00     0.010 A 
ATOM     12  C   UNL A   1      42.659  22.355  28.091  1.00  0.00     0.010 A 
ATOM     13  C   UNL A   1      43.092  23.226  27.080  1.00  0.00    -0.014 A 
BRANCH  13  14
ATOM     14  C   UNL A   1      43.514  24.609  27.402  1.00  0.00     0.031 A 
ATOM     15  C   UNL A   1      42.532  25.608  27.934  1.00  0.00     0.074 A 
ATOM     16  C   UNL A   1      44.795  24.960  27.182  1.00  0.00     0.049 A 
ATOM     17  N   UNL A   1      42.709  26.875  28.208  1.00  0.00    -0.248 NA
ATOM     18  C   UNL A   1      41.166  25.124  28.180  1.00  0.00     0.031 C 
ATOM     19  C   UNL A   1      45.829  24.070  26.650  1.00  0.00     0.029 A 
ATOM     20  N   UNL A   1      45.445  26.152  27.366  1.00  0.00    -0.354 N 
ATOM     21  C   UNL A   1      41.476  27.347  28.634  1.00  0.00     0.074 A 
ATOM     22  C   UNL A   1      40.551  26.236  28.559  1.00  0.00     0.031 C 
ATOM     23  C   UNL A   1      46.986  24.740  26.565  1.00  0.00     0.029 A 
ATOM     24  C   UNL A   1      46.759  26.122  26.972  1.00  0.00     0.049 A 
ATOM     25  H   UNL A   1      45.014  26.951  27.746  1.00  0.00     0.167 HD
ATOM     26  C   UNL A   1      41.152  28.594  29.050  1.00  0.00     0.037 A 
ATOM     27  C   UNL A   1      47.674  27.107  26.905  1.00  0.00     0.037 A 
ATOM     28  C   UNL A   1      42.090  29.686  29.126  1.00  0.00     0.049 A 
ATOM     29  C   UNL A   1      47.286  28.487  27.348  1.00  0.00     0.074 A 
ATOM     30  C   UNL A   1      41.880  30.974  29.585  1.00  0.00     0.029 A 
ATOM     31  N   UNL A   1      43.415  29.618  28.717  1.00  0.00    -0.354 N 
ATOM     32  N   UNL A   1      46.130  28.913  27.795  1.00  0.00    -0.248 NA
ATOM     33  C   UNL A   1      48.324  29.523  27.278  1.00  0.00     0.031 C 
ATOM     34  C   UNL A   1      43.060  31.701  29.400  1.00  0.00     0.029 A 
ATOM     35  C   UNL A   1      44.025  30.852  28.881  1.00  0.00     0.049 A 
ATOM     36  H   UNL A   1      43.857  28.813  28.362  1.00  0.00     0.167 HD
ATOM     37  C   UNL A   1      46.302  30.259  28.077  1.00  0.00     0.074 A 
ATOM     38  C   UNL A   1      47.681  30.578  27.759  1.00  0.00     0.031 C 
ATOM     39  C   UNL A   1      45.400  31.149  28.558  1.00  0.00     0.037 A 
BRANCH  26  40
ATOM     40  C   UNL A   1      39.719  28.852  29.421  1.00  0.00     0.064 A 
ATOM     41  C   UNL A   1      39.245  28.675  30.729  1.00  0.00     0.173 A 
ATOM     42  C   UNL A   1      38.807  29.294  28.449  1.00  0.00     0.173 A 
ATOM     43  F   UNL A   1      40.072  28.245  31.694  1.00  0.00    -0.203 F 
ATOM     44  C   UNL A   1      37.905  28.892  31.043  1.00  0.00     0.198 A 
ATOM     45  C   UNL A   1      37.475  29.541  28.774  1.00  0.00     0.198 A 
ATOM     46  F   UNL A   1      39.206  29.489  27.184  1.00  0.00    -0.203 F 
ATOM     47  F   UNL A   1      37.464  28.658  32.287  1.00  0.00    -0.200 F 
ATOM     48  C   UNL A   1      37.023  29.329  30.066  1.00  0.00     0.200 A 
ATOM     49  F   UNL A   1      36.628  29.977  27.831  1.00  0.00    -0.200 F 
ATOM     50  F   UNL A   1      35.734  29.535  30.370  1.00  0.00    -0.200 F 
ENDBRANCH  26  40
BRANCH  27  51
ATOM     51  C   UNL A   1      49.028  26.802  26.378  1.00  0.00     0.064 A 
ATOM     52  C   UNL A   1      50.028  26.279  27.207  1.00  0.00     0.173 A 
ATOM     53  C   UNL A   1      49.324  26.962  25.015  1.00  0.00     0.173 A 
ATOM     54  F   UNL A   1      49.796  26.120  28.518  1.00  0.00    -0.203 F 
ATOM     55  C   UNL A   1      51.275  25.927  26.693  1.00  0.00     0.198 A 
ATOM     56  C   UNL A   1      50.560  26.584  24.498  1.00  0.00     0.198 A 
ATOM     57  F   UNL A   1      48.395  27.448  24.178  1.00  0.00    -0.203 F 
ATOM     58  F   UNL A   1      52.222  25.448  27.510  1.00  0.00    -0.200 F 
ATOM     59  C   UNL A   1      51.536  26.069  25.338  1.00  0.00     0.200 A 
ATOM     60  F   UNL A   1      50.800  26.703  23.185  1.00  0.00    -0.200 F 
ATOM     61  F   UNL A   1      52.726  25.709  24.841  1.00  0.00    -0.200 F 
ENDBRANCH  27  51
BRANCH  39  62
ATOM     62  C   UNL A   1      45.878  32.550  28.799  1.00  0.00     0.064 A 
ATOM     63  C   UNL A   1      46.553  32.905  29.975  1.00  0.00     0.173 A 
ATOM     64  C   UNL A   1      45.716  33.532  27.809  1.00  0.00     0.173 A 
ATOM     65  F   UNL A   1      46.715  32.006  30.957  1.00  0.00    -0.203 F 
ATOM     66  C   UNL A   1      47.042  34.196  30.156  1.00  0.00     0.198 A 
ATOM     67  C   UNL A   1      46.231  34.813  27.981  1.00  0.00     0.198 A 
ATOM     68  F   UNL A   1      45.079  33.240  26.666  1.00  0.00    -0.203 F 
ATOM     69  F   UNL A   1      47.658  34.523  31.301  1.00  0.00    -0.200 F 
ATOM     70  C   UNL A   1      46.891  35.145  29.156  1.00  0.00     0.200 A 
ATOM     71  F   UNL A   1      46.095  35.724  27.009  1.00  0.00    -0.200 F 
ATOM     72  F   UNL A   1      47.378  36.382  29.323  1.00  0.00    -0.200 F 
ENDBRANCH  39  62
ENDBRANCH  13  14
ENDBRANCH   6   8
ENDBRANCH   3   4
ENDBRANCH   2   3
ENDBRANCH   1   2
BRANCH   1  73
ATOM     73  N   UNL A   1      37.775  22.612  24.701  1.00  0.00    -0.356 N 
ATOM     74  C   UNL A   1      36.700  22.881  23.925  1.00  0.00     0.225 C 
ATOM     75  H   UNL A   1      38.624  22.712  24.211  1.00  0.00     0.163 HD
ATOM     76  O   UNL A   1      37.003  23.385  22.837  1.00  0.00    -0.275 OA
BRANCH  74  77
ATOM     77  C   UNL A   1      35.225  22.655  24.289  1.00  0.00     0.107 C 
ATOM     78  C   UNL A   1      34.782  21.212  24.360  1.00  0.00     0.133 C 
ATOM     79  C   UNL A   1      34.209  23.296  23.286  1.00  0.00     0.053 C 
ATOM     80  N   UNL A   1      33.364  21.200  24.133  1.00  0.00    -0.341 N 
ATOM     81  C   UNL A   1      32.981  22.342  23.321  1.00  0.00     0.128 C 
BRANCH  79  82
ATOM     82  C   UNL A   1      33.924  24.774  23.561  1.00  0.00    -0.038 A 
ATOM     83  C   UNL A   1      33.605  25.619  22.465  1.00  0.00     0.008 A 
ATOM     84  C   UNL A   1      33.994  25.364  24.836  1.00  0.00     0.054 A 
ATOM     85  C   UNL A   1      33.447  27.003  22.604  1.00  0.00     0.051 A 
ATOM     86  C   UNL A   1      33.790  26.728  24.954  1.00  0.00     0.166 A 
ATOM     87  C   UNL A   1      33.545  27.529  23.866  1.00  0.00     0.165 A 
ATOM     88  O   UNL A   1      33.823  27.436  26.116  1.00  0.00    -0.454 OA
ATOM     89  O   UNL A   1      33.420  28.840  24.197  1.00  0.00    -0.454 OA
ATOM     90  C   UNL A   1      33.602  28.774  25.625  1.00  0.00     0.468 C 
ENDBRANCH  79  82
BRANCH  80  91
ATOM     91  C   UNL A   1      32.486  20.175  24.400  1.00  0.00     0.222 C 
ATOM     92  O   UNL A   1      31.737  20.199  25.377  1.00  0.00    -0.275 OA
BRANCH  91  93
ATOM     93  C   UNL A   1      32.460  18.973  23.466  1.00  0.00     0.109 C 
BRANCH  93  94
ATOM     94  C   UNL A   1      32.794  17.657  24.160  1.00  0.00     0.125 C 
BRANCH  94  95
ATOM     95  C   UNL A   1      34.161  17.131  23.803  1.00  0.00     0.389 C 
ATOM     96  F   UNL A   1      34.365  15.905  24.338  1.00  0.00    -0.171 F 
ATOM     97  F   UNL A   1      34.302  17.014  22.465  1.00  0.00    -0.171 F 
ATOM     98  F   UNL A   1      35.146  17.937  24.243  1.00  0.00    -0.171 F 
ENDBRANCH  94  95
ENDBRANCH  93  94
ENDBRANCH  91  93
ENDBRANCH  80  91
ENDBRANCH  74  77
ENDBRANCH   1  73
TORSDOF 15
ENDMDL
MODEL 2
REMARK VINA RESULT:     -13.3      5.519     10.658
REMARK SMILES O=C(NCCCNC(=O)[C@@H]1CN(C(=O)CCC(F)(F)F)C[C@H]1c1ccc2c(c1)OCO2)c1ccc(-c2c3nc(c(-c4c(F)c(F)c(F)c(F)c4F)c4ccc([nH]4)c(-c4c(F)c(F)c(F)c(F)c4F)c4nc(c(-c5c(F)c(F)c(F)c(F)c5F)c5ccc2[nH]5)C=C4)C=C3)cc1
REMARK SMILES IDX 6 1 5 2 4 3 3 4 1 5 2 6 32 8 33 9 94 10 34 11 93 12 35 13
REMARK SMILES IDX 36 14 37 15 87 16 38 17 92 18 86 19 88 20 39 21 91 22 85 23
REMARK SMILES IDX 84 24 40 26 72 27 52 28 71 29 53 30 56 31 70 32 89 33 54 34
REMARK SMILES IDX 55 35 69 37 90 38 57 39 41 40 42 41 50 42 43 43 44 44 48 45
REMARK SMILES IDX 51 46 45 47 46 48 49 49 47 50 73 51 74 52 82 53 75 54 76 55
REMARK SMILES IDX 80 56 83 57 77 58 78 59 81 60 79 61 58 62 59 63 67 64 60 65
REMARK SMILES IDX 61 66 65 67 68 68 62 69 63 70 66 71 64 72 7 73 8 74 9 76
REMARK SMILES IDX 10 77 11 78 22 79 12 80 21 81 23 82 24 83 28 84 25 85 27 86
REMARK SMILES IDX 26 87 29 88 31 89 30 90 13 91 14 92 15 93 16 94 17 95 18 96
REMARK SMILES IDX 19 97 20 98
REMARK H PARENT 3 7 88 25 56 36 7 75
REMARK Flexibility Score: inf
ROOT
ATOM      1  C   UNL A   1      31.438  30.727  26.135  1.00  0.00     0.117 C 
ENDROOT
BRANCH   1   2
ATOM      2  C   UNL A   1      31.331  32.200  26.524  1.00  0.00     0.042 C 
BRANCH   2   3
ATOM      3  C   UNL A   1      32.608  32.728  27.169  1.00  0.00     0.118 C 
BRANCH   3   4
ATOM      4  N   UNL A   1      32.463  34.122  27.569  1.00  0.00    -0.352 N 
ATOM      5  O   UNL A   1      32.551  35.891  28.948  1.00  0.00    -0.269 OA
ATOM      6  C   UNL A   1      33.030  34.813  28.608  1.00  0.00     0.251 C 
ATOM      7  H   UNL A   1      31.860  34.654  27.001  1.00  0.00     0.163 HD
BRANCH   6   8
ATOM      8  C   UNL A   1      34.219  34.286  29.307  1.00  0.00     0.039 A 
ATOM      9  C   UNL A   1      34.087  33.461  30.427  1.00  0.00     0.014 A 
ATOM     10  C   UNL A   1      35.487  34.543  28.774  1.00  0.00     0.014 A 
ATOM     11  C   UNL A   1      35.218  32.984  31.078  1.00  0.00     0.010 A 
ATOM     12  C   UNL A   1      36.619  33.992  29.377  1.00  0.00     0.010 A 
ATOM     13  C   UNL A   1      36.492  33.218  30.541  1.00  0.00    -0.014 A 
BRANCH  13  14
ATOM     14  C   UNL A   1      37.676  32.577  31.157  1.00  0.00     0.031 A 
ATOM     15  C   UNL A   1      38.396  31.463  30.460  1.00  0.00     0.074 A 
ATOM     16  C   UNL A   1      38.079  32.998  32.371  1.00  0.00     0.049 A 
ATOM     17  N   UNL A   1      39.407  30.745  30.877  1.00  0.00    -0.248 NA
ATOM     18  C   UNL A   1      37.910  31.099  29.121  1.00  0.00     0.031 C 
ATOM     19  C   UNL A   1      37.438  34.062  33.145  1.00  0.00     0.029 A 
ATOM     20  N   UNL A   1      39.110  32.579  33.171  1.00  0.00    -0.354 N 
ATOM     21  C   UNL A   1      39.663  29.828  29.867  1.00  0.00     0.074 A 
ATOM     22  C   UNL A   1      38.685  30.065  28.825  1.00  0.00     0.031 C 
ATOM     23  C   UNL A   1      38.098  34.225  34.300  1.00  0.00     0.029 A 
ATOM     24  C   UNL A   1      39.163  33.233  34.377  1.00  0.00     0.049 A 
ATOM     25  H   UNL A   1      39.751  31.880  32.907  1.00  0.00     0.167 HD
ATOM     26  C   UNL A   1      40.628  28.880  29.819  1.00  0.00     0.037 A 
ATOM     27  C   UNL A   1      39.956  33.032  35.445  1.00  0.00     0.037 A 
ATOM     28  C   UNL A   1      41.599  28.665  30.862  1.00  0.00     0.049 A 
ATOM     29  C   UNL A   1      41.003  31.959  35.379  1.00  0.00     0.074 A 
ATOM     30  C   UNL A   1      42.652  27.770  30.890  1.00  0.00     0.029 A 
ATOM     31  N   UNL A   1      41.622  29.349  32.071  1.00  0.00    -0.354 N 
ATOM     32  N   UNL A   1      41.270  31.129  34.400  1.00  0.00    -0.248 NA
ATOM     33  C   UNL A   1      41.859  31.793  36.560  1.00  0.00     0.031 C 
ATOM     34  C   UNL A   1      43.278  27.870  32.138  1.00  0.00     0.029 A 
ATOM     35  C   UNL A   1      42.652  28.869  32.866  1.00  0.00     0.049 A 
ATOM     36  H   UNL A   1      40.999  30.066  32.327  1.00  0.00     0.167 HD
ATOM     37  C   UNL A   1      42.332  30.353  34.836  1.00  0.00     0.074 A 
ATOM     38  C   UNL A   1      42.669  30.819  36.167  1.00  0.00     0.031 C 
ATOM     39  C   UNL A   1      42.971  29.347  34.190  1.00  0.00     0.037 A 
BRANCH  26  40
ATOM     40  C   UNL A   1      40.659  27.982  28.614  1.00  0.00     0.064 A 
ATOM     41  C   UNL A   1      39.957  26.769  28.572  1.00  0.00     0.173 A 
ATOM     42  C   UNL A   1      41.396  28.351  27.478  1.00  0.00     0.173 A 
ATOM     43  F   UNL A   1      39.244  26.364  29.634  1.00  0.00    -0.203 F 
ATOM     44  C   UNL A   1      40.024  25.939  27.455  1.00  0.00     0.198 A 
ATOM     45  C   UNL A   1      41.435  27.534  26.350  1.00  0.00     0.198 A 
ATOM     46  F   UNL A   1      42.080  29.505  27.458  1.00  0.00    -0.203 F 
ATOM     47  F   UNL A   1      39.393  24.756  27.462  1.00  0.00    -0.200 F 
ATOM     48  C   UNL A   1      40.759  26.325  26.344  1.00  0.00     0.200 A 
ATOM     49  F   UNL A   1      42.134  27.916  25.272  1.00  0.00    -0.200 F 
ATOM     50  F   UNL A   1      40.823  25.524  25.271  1.00  0.00    -0.200 F 
ENDBRANCH  26  40
BRANCH  27  51
ATOM     51  C   UNL A   1      39.757  33.862  36.659  1.00  0.00     0.064 A 
ATOM     52  C   UNL A   1      40.341  35.129  36.775  1.00  0.00     0.173 A 
ATOM     53  C   UNL A   1      38.919  33.430  37.699  1.00  0.00     0.173 A 
ATOM     54  F   UNL A   1      41.161  35.580  35.814  1.00  0.00    -0.203 F 
ATOM     55  C   UNL A   1      40.094  35.935  37.885  1.00  0.00     0.198 A 
ATOM     56  C   UNL A   1      38.650  34.247  38.793  1.00  0.00     0.198 A 
ATOM     57  F   UNL A   1      38.326  32.228  37.628  1.00  0.00    -0.203 F 
ATOM     58  F   UNL A   1      40.681  37.135  37.983  1.00  0.00    -0.200 F 
ATOM     59  C   UNL A   1      39.240  35.498  38.888  1.00  0.00     0.200 A 
ATOM     60  F   UNL A   1      37.807  33.830  39.748  1.00  0.00    -0.200 F 
ATOM     61  F   UNL A   1      38.985  36.282  39.943  1.00  0.00    -0.200 F 
ENDBRANCH  27  51
BRANCH  39  62
ATOM     62  C   UNL A   1      44.122  28.696  34.899  1.00  0.00     0.064 A 
ATOM     63  C   UNL A   1      43.946  27.555  35.694  1.00  0.00     0.173 A 
ATOM     64  C   UNL A   1      45.426  29.183  34.722  1.00  0.00     0.173 A 
ATOM     65  F   UNL A   1      42.716  27.064  35.906  1.00  0.00    -0.203 F 
ATOM     66  C   UNL A   1      45.035  26.930  36.296  1.00  0.00     0.198 A 
ATOM     67  C   UNL A   1      46.515  28.540  35.302  1.00  0.00     0.198 A 
ATOM     68  F   UNL A   1      45.645  30.270  33.968  1.00  0.00    -0.203 F 
ATOM     69  F   UNL A   1      44.842  25.859  37.078  1.00  0.00    -0.200 F 
ATOM     70  C   UNL A   1      46.318  27.415  36.091  1.00  0.00     0.200 A 
ATOM     71  F   UNL A   1      47.754  29.002  35.093  1.00  0.00    -0.200 F 
ATOM     72  F   UNL A   1      47.367  26.801  36.655  1.00  0.00    -0.200 F 
ENDBRANCH  39  62
ENDBRANCH  13  14
ENDBRANCH   6   8
ENDBRANCH   3   4
ENDBRANCH   2   3
ENDBRANCH   1   2
BRANCH   1  73
ATOM     73  N   UNL A   1      32.813  30.260  26.144  1.00  0.00    -0.356 N 
ATOM     74  C   UNL A   1      33.434  29.087  25.882  1.00  0.00     0.225 C 
ATOM     75  H   UNL A   1      33.446  30.968  26.404  1.00  0.00     0.163 HD
ATOM     76  O   UNL A   1      34.664  29.194  25.826  1.00  0.00    -0.275 OA
BRANCH  74  77
ATOM     77  C   UNL A   1      32.763  27.730  25.629  1.00  0.00     0.107 C 
ATOM     78  C   UNL A   1      33.542  26.519  26.087  1.00  0.00     0.133 C 
ATOM     79  C   UNL A   1      32.476  27.424  24.121  1.00  0.00     0.053 C 
ATOM     80  N   UNL A   1      33.091  25.408  25.296  1.00  0.00    -0.341 N 
ATOM     81  C   UNL A   1      32.608  25.879  24.009  1.00  0.00     0.128 C 
BRANCH  79  82
ATOM     82  C   UNL A   1      31.166  28.030  23.611  1.00  0.00    -0.038 A 
ATOM     83  C   UNL A   1      29.946  27.380  23.937  1.00  0.00     0.008 A 
ATOM     84  C   UNL A   1      31.093  29.178  22.803  1.00  0.00     0.054 A 
ATOM     85  C   UNL A   1      28.713  27.792  23.418  1.00  0.00     0.051 A 
ATOM     86  C   UNL A   1      29.856  29.592  22.337  1.00  0.00     0.166 A 
ATOM     87  C   UNL A   1      28.701  28.905  22.619  1.00  0.00     0.165 A 
ATOM     88  O   UNL A   1      29.629  30.680  21.552  1.00  0.00    -0.454 OA
ATOM     89  O   UNL A   1      27.608  29.454  22.029  1.00  0.00    -0.454 OA
ATOM     90  C   UNL A   1      28.205  30.577  21.351  1.00  0.00     0.468 C 
ENDBRANCH  79  82
BRANCH  80  91
ATOM     91  C   UNL A   1      33.283  24.070  25.552  1.00  0.00     0.222 C 
ATOM     92  O   UNL A   1      32.346  23.272  25.578  1.00  0.00    -0.275 OA
BRANCH  91  93
ATOM     93  C   UNL A   1      34.695  23.574  25.827  1.00  0.00     0.109 C 
BRANCH  93  94
ATOM     94  C   UNL A   1      35.668  23.842  24.683  1.00  0.00     0.125 C 
BRANCH  94  95
ATOM     95  C   UNL A   1      35.629  22.781  23.613  1.00  0.00     0.389 C 
ATOM     96  F   UNL A   1      34.657  23.039  22.708  1.00  0.00    -0.171 F 
ATOM     97  F   UNL A   1      36.799  22.726  22.941  1.00  0.00    -0.171 F 
ATOM     98  F   UNL A   1      35.399  21.555  24.121  1.00  0.00    -0.171 F 
ENDBRANCH  94  95
ENDBRANCH  93  94
ENDBRANCH  91  93
ENDBRANCH  80  91
ENDBRANCH  74  77
ENDBRANCH   1  73
TORSDOF 15
ENDMDL
MODEL 3
REMARK VINA RESULT:     -13.2      5.845     11.364
REMARK SMILES O=C(NCCCNC(=O)[C@@H]1CN(C(=O)CCC(F)(F)F)C[C@H]1c1ccc2c(c1)OCO2)c1ccc(-c2c3nc(c(-c4c(F)c(F)c(F)c(F)c4F)c4ccc([nH]4)c(-c4c(F)c(F)c(F)c(F)c4F)c4nc(c(-c5c(F)c(F)c(F)c(F)c5F)c5ccc2[nH]5)C=C4)C=C3)cc1
REMARK SMILES IDX 6 1 5 2 4 3 3 4 1 5 2 6 32 8 33 9 94 10 34 11 93 12 35 13
REMARK SMILES IDX 36 14 37 15 87 16 38 17 92 18 86 19 88 20 39 21 91 22 85 23
REMARK SMILES IDX 84 24 40 26 72 27 52 28 71 29 53 30 56 31 70 32 89 33 54 34
REMARK SMILES IDX 55 35 69 37 90 38 57 39 41 40 42 41 50 42 43 43 44 44 48 45
REMARK SMILES IDX 51 46 45 47 46 48 49 49 47 50 73 51 74 52 82 53 75 54 76 55
REMARK SMILES IDX 80 56 83 57 77 58 78 59 81 60 79 61 58 62 59 63 67 64 60 65
REMARK SMILES IDX 61 66 65 67 68 68 62 69 63 70 66 71 64 72 7 73 8 74 9 76
REMARK SMILES IDX 10 77 11 78 22 79 12 80 21 81 23 82 24 83 28 84 25 85 27 86
REMARK SMILES IDX 26 87 29 88 31 89 30 90 13 91 14 92 15 93 16 94 17 95 18 96
REMARK SMILES IDX 19 97 20 98
REMARK H PARENT 3 7 88 25 56 36 7 75
REMARK Flexibility Score: inf
ROOT
ATOM      1  C   UNL A   1      31.412  30.777  27.256  1.00  0.00     0.117 C 
ENDROOT
BRANCH   1   2
ATOM      2  C   UNL A   1      31.485  32.211  26.736  1.00  0.00     0.042 C 
BRANCH   2   3
ATOM      3  C   UNL A   1      32.803  32.894  27.086  1.00  0.00     0.118 C 
BRANCH   3   4
ATOM      4  N   UNL A   1      32.584  34.241  27.598  1.00  0.00    -0.352 N 
ATOM      5  O   UNL A   1      32.533  35.882  29.129  1.00  0.00    -0.269 OA
ATOM      6  C   UNL A   1      33.070  34.857  28.722  1.00  0.00     0.251 C 
ATOM      7  H   UNL A   1      31.988  34.800  27.048  1.00  0.00     0.163 HD
BRANCH   6   8
ATOM      8  C   UNL A   1      34.244  34.311  29.434  1.00  0.00     0.039 A 
ATOM      9  C   UNL A   1      34.088  33.449  30.522  1.00  0.00     0.014 A 
ATOM     10  C   UNL A   1      35.524  34.591  28.942  1.00  0.00     0.014 A 
ATOM     11  C   UNL A   1      35.203  32.956  31.186  1.00  0.00     0.010 A 
ATOM     12  C   UNL A   1      36.643  34.024  29.556  1.00  0.00     0.010 A 
ATOM     13  C   UNL A   1      36.490  33.213  30.690  1.00  0.00    -0.014 A 
BRANCH  13  14
ATOM     14  C   UNL A   1      37.661  32.556  31.315  1.00  0.00     0.031 A 
ATOM     15  C   UNL A   1      38.370  31.432  30.625  1.00  0.00     0.074 A 
ATOM     16  C   UNL A   1      38.061  32.974  32.531  1.00  0.00     0.049 A 
ATOM     17  N   UNL A   1      39.368  30.700  31.050  1.00  0.00    -0.248 NA
ATOM     18  C   UNL A   1      37.888  31.071  29.284  1.00  0.00     0.031 C 
ATOM     19  C   UNL A   1      37.430  34.049  33.299  1.00  0.00     0.029 A 
ATOM     20  N   UNL A   1      39.081  32.543  33.339  1.00  0.00    -0.354 N 
ATOM     21  C   UNL A   1      39.618  29.778  30.044  1.00  0.00     0.074 A 
ATOM     22  C   UNL A   1      38.651  30.026  28.995  1.00  0.00     0.031 C 
ATOM     23  C   UNL A   1      38.085  34.205  34.457  1.00  0.00     0.029 A 
ATOM     24  C   UNL A   1      39.136  33.198  34.543  1.00  0.00     0.049 A 
ATOM     25  H   UNL A   1      39.714  31.834  33.080  1.00  0.00     0.167 HD
ATOM     26  C   UNL A   1      40.571  28.816  30.003  1.00  0.00     0.037 A 
ATOM     27  C   UNL A   1      39.919  32.989  35.617  1.00  0.00     0.037 A 
ATOM     28  C   UNL A   1      41.532  28.590  31.053  1.00  0.00     0.049 A 
ATOM     29  C   UNL A   1      40.952  31.901  35.560  1.00  0.00     0.074 A 
ATOM     30  C   UNL A   1      42.572  27.681  31.090  1.00  0.00     0.029 A 
ATOM     31  N   UNL A   1      41.556  29.276  32.262  1.00  0.00    -0.354 N 
ATOM     32  N   UNL A   1      41.213  31.065  34.584  1.00  0.00    -0.248 NA
ATOM     33  C   UNL A   1      41.797  31.726  36.747  1.00  0.00     0.031 C 
ATOM     34  C   UNL A   1      43.191  27.775  32.342  1.00  0.00     0.029 A 
ATOM     35  C   UNL A   1      42.574  28.784  33.064  1.00  0.00     0.049 A 
ATOM     36  H   UNL A   1      40.941  30.003  32.512  1.00  0.00     0.167 HD
ATOM     37  C   UNL A   1      42.261  30.276  35.029  1.00  0.00     0.074 A 
ATOM     38  C   UNL A   1      42.596  30.739  36.362  1.00  0.00     0.031 C 
ATOM     39  C   UNL A   1      42.890  29.260  34.389  1.00  0.00     0.037 A 
BRANCH  26  40
ATOM     40  C   UNL A   1      40.597  27.916  28.801  1.00  0.00     0.064 A 
ATOM     41  C   UNL A   1      39.847  26.732  28.740  1.00  0.00     0.173 A 
ATOM     42  C   UNL A   1      41.379  28.252  27.684  1.00  0.00     0.173 A 
ATOM     43  F   UNL A   1      39.089  26.359  29.783  1.00  0.00    -0.203 F 
ATOM     44  C   UNL A   1      39.910  25.899  27.626  1.00  0.00     0.198 A 
ATOM     45  C   UNL A   1      41.414  27.432  26.559  1.00  0.00     0.198 A 
ATOM     46  F   UNL A   1      42.110  29.376  27.683  1.00  0.00    -0.203 F 
ATOM     47  F   UNL A   1      39.231  24.743  27.617  1.00  0.00    -0.200 F 
ATOM     48  C   UNL A   1      40.689  26.251  26.535  1.00  0.00     0.200 A 
ATOM     49  F   UNL A   1      42.158  27.782  25.500  1.00  0.00    -0.200 F 
ATOM     50  F   UNL A   1      40.750  25.447  25.465  1.00  0.00    -0.200 F 
ENDBRANCH  26  40
BRANCH  27  51
ATOM     51  C   UNL A   1      39.724  33.824  36.828  1.00  0.00     0.064 A 
ATOM     52  C   UNL A   1      40.296  35.097  36.931  1.00  0.00     0.173 A 
ATOM     53  C   UNL A   1      38.900  33.390  37.879  1.00  0.00     0.173 A 
ATOM     54  F   UNL A   1      41.101  35.551  35.959  1.00  0.00    -0.203 F 
ATOM     55  C   UNL A   1      40.051  35.907  38.039  1.00  0.00     0.198 A 
ATOM     56  C   UNL A   1      38.633  34.210  38.971  1.00  0.00     0.198 A 
ATOM     57  F   UNL A   1      38.319  32.182  37.821  1.00  0.00    -0.203 F 
ATOM     58  F   UNL A   1      40.627  37.114  38.124  1.00  0.00    -0.200 F 
ATOM     59  C   UNL A   1      39.212  35.468  39.052  1.00  0.00     0.200 A 
ATOM     60  F   UNL A   1      37.804  33.790  39.937  1.00  0.00    -0.200 F 
ATOM     61  F   UNL A   1      38.959  36.255  40.106  1.00  0.00    -0.200 F 
ENDBRANCH  27  51
BRANCH  39  62
ATOM     62  C   UNL A   1      44.028  28.595  35.107  1.00  0.00     0.064 A 
ATOM     63  C   UNL A   1      45.349  29.038  34.962  1.00  0.00     0.173 A 
ATOM     64  C   UNL A   1      43.778  27.544  36.003  1.00  0.00     0.173 A 
ATOM     65  F   UNL A   1      45.638  30.028  34.104  1.00  0.00    -0.203 F 
ATOM     66  C   UNL A   1      46.383  28.447  35.683  1.00  0.00     0.198 A 
ATOM     67  C   UNL A   1      44.810  26.974  36.743  1.00  0.00     0.198 A 
ATOM     68  F   UNL A   1      42.529  27.086  36.178  1.00  0.00    -0.203 F 
ATOM     69  F   UNL A   1      47.645  28.865  35.507  1.00  0.00    -0.200 F 
ATOM     70  C   UNL A   1      46.112  27.424  36.580  1.00  0.00     0.200 A 
ATOM     71  F   UNL A   1      44.544  25.995  37.617  1.00  0.00    -0.200 F 
ATOM     72  F   UNL A   1      47.106  26.869  37.286  1.00  0.00    -0.200 F 
ENDBRANCH  39  62
ENDBRANCH  13  14
ENDBRANCH   6   8
ENDBRANCH   3   4
ENDBRANCH   2   3
ENDBRANCH   1   2
BRANCH   1  73
ATOM     73  N   UNL A   1      32.705  30.116  27.211  1.00  0.00    -0.356 N 
ATOM     74  C   UNL A   1      33.289  29.199  26.406  1.00  0.00     0.225 C 
ATOM     75  H   UNL A   1      33.298  30.404  27.942  1.00  0.00     0.163 HD
ATOM     76  O   UNL A   1      34.498  29.063  26.628  1.00  0.00    -0.275 OA
BRANCH  74  77
ATOM     77  C   UNL A   1      32.613  28.396  25.285  1.00  0.00     0.107 C 
ATOM     78  C   UNL A   1      31.616  29.159  24.444  1.00  0.00     0.133 C 
ATOM     79  C   UNL A   1      31.793  27.160  25.784  1.00  0.00     0.053 C 
ATOM     80  N   UNL A   1      30.712  28.191  23.888  1.00  0.00    -0.341 N 
ATOM     81  C   UNL A   1      30.630  27.031  24.759  1.00  0.00     0.128 C 
BRANCH  79  82
ATOM     82  C   UNL A   1      32.645  25.906  26.001  1.00  0.00    -0.038 A 
ATOM     83  C   UNL A   1      33.964  25.883  25.476  1.00  0.00     0.008 A 
ATOM     84  C   UNL A   1      32.189  24.752  26.662  1.00  0.00     0.054 A 
ATOM     85  C   UNL A   1      34.772  24.741  25.523  1.00  0.00     0.051 A 
ATOM     86  C   UNL A   1      33.023  23.649  26.734  1.00  0.00     0.166 A 
ATOM     87  C   UNL A   1      34.270  23.636  26.161  1.00  0.00     0.165 A 
ATOM     88  O   UNL A   1      32.723  22.468  27.340  1.00  0.00    -0.454 OA
ATOM     89  O   UNL A   1      34.903  22.443  26.309  1.00  0.00    -0.454 OA
ATOM     90  C   UNL A   1      33.914  21.706  27.053  1.00  0.00     0.468 C 
ENDBRANCH  79  82
BRANCH  80  91
ATOM     91  C   UNL A   1      29.843  28.369  22.837  1.00  0.00     0.222 C 
ATOM     92  O   UNL A   1      30.212  28.278  21.666  1.00  0.00    -0.275 OA
BRANCH  91  93
ATOM     93  C   UNL A   1      28.390  28.706  23.139  1.00  0.00     0.109 C 
BRANCH  93  94
ATOM     94  C   UNL A   1      27.887  29.944  22.405  1.00  0.00     0.125 C 
BRANCH  94  95
ATOM     95  C   UNL A   1      27.949  31.195  23.245  1.00  0.00     0.389 C 
ATOM     96  F   UNL A   1      27.759  32.299  22.487  1.00  0.00    -0.171 F 
ATOM     97  F   UNL A   1      26.990  31.190  24.196  1.00  0.00    -0.171 F 
ATOM     98  F   UNL A   1      29.135  31.329  23.871  1.00  0.00    -0.171 F 
ENDBRANCH  94  95
ENDBRANCH  93  94
ENDBRANCH  91  93
ENDBRANCH  80  91
ENDBRANCH  74  77
ENDBRANCH   1  73
TORSDOF 15
ENDMDL
