MODEL 1
REMARK VINA RESULT:     -12.3      0.000      0.000
REMARK SMILES Cc1ccc([C@H](C)NC(=O)CC2(C(=O)NCCCNC(=O)c3ccc(-c4c5nc(c(-c6c(F)c(F)c(F)c(F)c6F)c6ccc([nH]6)c(-c6c(F)c(F)c(F)c(F)c6F)c6nc(c(-c7c(F)c(F)c(F)c(F)c7F)c7ccc4[nH]7)C=C6)C=C5)cc3)CCCC2)o1
REMARK SMILES IDX 16 1 15 2 13 3 14 4 12 6 85 7 88 8 86 9 87 10 11 11 9 12
REMARK SMILES IDX 8 13 10 15 6 16 7 17 5 18 1 19 2 20 3 21 89 22 4 23 17 24
REMARK SMILES IDX 18 25 19 26 20 27 21 29 22 30 23 31 84 32 24 33 83 34 25 35
REMARK SMILES IDX 26 36 27 37 77 38 28 39 82 40 76 41 78 42 29 43 81 44 75 45
REMARK SMILES IDX 74 46 30 48 62 49 42 50 61 51 43 52 46 53 60 54 79 55 44 56
REMARK SMILES IDX 45 57 59 59 80 60 47 61 31 62 32 63 40 64 33 65 34 66 38 67
REMARK SMILES IDX 41 68 35 69 36 70 39 71 37 72 63 73 64 74 72 75 65 76 66 77
REMARK SMILES IDX 70 78 73 79 67 80 68 81 71 82 69 83 48 84 49 85 57 86 50 87
REMARK SMILES IDX 51 88 55 89 58 90 52 91 53 92 56 93 54 94
REMARK H PARENT 15 5 8 14 19 28 78 47 46 58
REMARK Flexibility Score: inf
ROOT
ATOM      1  C   UNL A   1      36.794  20.626  24.873  1.00  0.00     0.117 C 
ENDROOT
BRANCH   1   2
ATOM      2  N   UNL A   1      35.537  20.127  25.383  1.00  0.00    -0.356 N 
ATOM      3  C   UNL A   1      34.264  20.542  25.192  1.00  0.00     0.226 C 
ATOM      4  O   UNL A   1      33.436  19.621  25.189  1.00  0.00    -0.274 OA
ATOM      5  H   UNL A   1      35.623  19.345  25.975  1.00  0.00     0.163 HD
BRANCH   3   6
ATOM      6  C   UNL A   1      33.793  22.009  25.052  1.00  0.00     0.058 C 
ATOM      7  C   UNL A   1      34.779  22.865  25.891  1.00  0.00     0.017 C 
ATOM      8  C   UNL A   1      32.427  22.433  25.610  1.00  0.00     0.017 C 
ATOM      9  C   UNL A   1      34.151  22.951  27.273  1.00  0.00     0.001 C 
ATOM     10  C   UNL A   1      32.656  23.027  27.006  1.00  0.00     0.001 C 
BRANCH   6  11
ATOM     11  C   UNL A   1      33.941  22.374  23.537  1.00  0.00     0.117 C 
BRANCH  11  12
ATOM     12  C   UNL A   1      32.693  22.513  22.667  1.00  0.00     0.221 C 
ATOM     13  N   UNL A   1      32.143  23.718  22.363  1.00  0.00    -0.346 N 
ATOM     14  H   UNL A   1      31.189  23.688  22.125  1.00  0.00     0.164 HD
ATOM     15  O   UNL A   1      32.101  21.503  22.274  1.00  0.00    -0.275 OA
BRANCH  13  16
ATOM     16  C   UNL A   1      32.734  25.038  22.335  1.00  0.00     0.145 C 
ATOM     17  C   UNL A   1      31.950  25.951  21.389  1.00  0.00     0.039 C 
BRANCH  16  18
ATOM     18  C   UNL A   1      32.887  25.648  23.687  1.00  0.00     0.126 A 
ATOM     19  C   UNL A   1      31.163  26.810  26.593  1.00  0.00     0.087 C 
ATOM     20  C   UNL A   1      32.200  26.471  25.600  1.00  0.00     0.101 A 
ATOM     21  C   UNL A   1      33.573  26.576  25.607  1.00  0.00     0.045 A 
ATOM     22  O   UNL A   1      31.771  25.926  24.423  1.00  0.00    -0.464 OA
ATOM     23  C   UNL A   1      34.016  26.042  24.378  1.00  0.00     0.048 A 
ENDBRANCH  16  18
ENDBRANCH  13  16
ENDBRANCH  11  12
ENDBRANCH   6  11
ENDBRANCH   3   6
ENDBRANCH   1   2
BRANCH   1  24
ATOM     24  C   UNL A   1      37.942  19.638  24.973  1.00  0.00     0.042 C 
BRANCH  24  25
ATOM     25  C   UNL A   1      39.119  20.131  25.802  1.00  0.00     0.118 C 
BRANCH  25  26
ATOM     26  N   UNL A   1      40.195  19.156  25.915  1.00  0.00    -0.352 N 
ATOM     27  C   UNL A   1      41.549  19.304  26.084  1.00  0.00     0.251 C 
ATOM     28  H   UNL A   1      39.896  18.220  25.860  1.00  0.00     0.163 HD
ATOM     29  O   UNL A   1      42.282  18.335  25.936  1.00  0.00    -0.269 OA
BRANCH  27  30
ATOM     30  C   UNL A   1      42.130  20.622  26.416  1.00  0.00     0.039 A 
ATOM     31  C   UNL A   1      42.567  21.448  25.377  1.00  0.00     0.014 A 
ATOM     32  C   UNL A   1      42.282  21.032  27.740  1.00  0.00     0.014 A 
ATOM     33  C   UNL A   1      43.080  22.714  25.666  1.00  0.00     0.010 A 
ATOM     34  C   UNL A   1      42.682  22.332  28.021  1.00  0.00     0.010 A 
ATOM     35  C   UNL A   1      43.098  23.184  26.988  1.00  0.00    -0.014 A 
BRANCH  35  36
ATOM     36  C   UNL A   1      43.561  24.555  27.321  1.00  0.00     0.031 A 
ATOM     37  C   UNL A   1      42.590  25.566  27.867  1.00  0.00     0.074 A 
ATOM     38  C   UNL A   1      44.832  24.912  27.051  1.00  0.00     0.049 A 
ATOM     39  N   UNL A   1      42.774  26.835  28.129  1.00  0.00    -0.248 NA
ATOM     40  C   UNL A   1      41.218  25.097  28.118  1.00  0.00     0.031 C 
ATOM     41  C   UNL A   1      45.849  24.038  26.465  1.00  0.00     0.029 A 
ATOM     42  N   UNL A   1      45.481  26.108  27.223  1.00  0.00    -0.354 N 
ATOM     43  C   UNL A   1      41.540  27.315  28.549  1.00  0.00     0.074 A 
ATOM     44  C   UNL A   1      40.602  26.221  28.445  1.00  0.00     0.031 C 
ATOM     45  C   UNL A   1      47.000  24.718  26.351  1.00  0.00     0.029 A 
ATOM     46  C   UNL A   1      46.792  26.086  26.814  1.00  0.00     0.049 A 
ATOM     47  H   UNL A   1      45.047  26.907  27.603  1.00  0.00     0.167 HD
ATOM     48  C   UNL A   1      41.226  28.551  29.006  1.00  0.00     0.037 A 
ATOM     49  C   UNL A   1      47.718  27.062  26.806  1.00  0.00     0.037 A 
ATOM     50  C   UNL A   1      42.174  29.625  29.136  1.00  0.00     0.049 A 
ATOM     51  C   UNL A   1      47.347  28.425  27.323  1.00  0.00     0.074 A 
ATOM     52  C   UNL A   1      41.979  30.891  29.659  1.00  0.00     0.029 A 
ATOM     53  N   UNL A   1      43.502  29.557  28.737  1.00  0.00    -0.354 N 
ATOM     54  N   UNL A   1      46.197  28.848  27.791  1.00  0.00    -0.248 NA
ATOM     55  C   UNL A   1      48.404  29.445  27.319  1.00  0.00     0.031 C 
ATOM     56  C   UNL A   1      43.172  31.608  29.522  1.00  0.00     0.029 A 
ATOM     57  C   UNL A   1      44.130  30.770  28.973  1.00  0.00     0.049 A 
ATOM     58  H   UNL A   1      43.934  28.765  28.342  1.00  0.00     0.167 HD
ATOM     59  C   UNL A   1      46.398  30.171  28.160  1.00  0.00     0.074 A 
ATOM     60  C   UNL A   1      47.786  30.476  27.877  1.00  0.00     0.031 C 
ATOM     61  C   UNL A   1      45.514  31.053  28.686  1.00  0.00     0.037 A 
BRANCH  48  62
ATOM     62  C   UNL A   1      39.797  28.803  29.397  1.00  0.00     0.064 A 
ATOM     63  C   UNL A   1      38.857  29.306  28.483  1.00  0.00     0.173 A 
ATOM     64  C   UNL A   1      39.354  28.523  30.699  1.00  0.00     0.173 A 
ATOM     65  F   UNL A   1      39.229  29.604  27.228  1.00  0.00    -0.203 F 
ATOM     66  C   UNL A   1      37.543  29.557  28.868  1.00  0.00     0.198 A 
ATOM     67  C   UNL A   1      38.030  28.741  31.071  1.00  0.00     0.198 A 
ATOM     68  F   UNL A   1      40.207  28.035  31.613  1.00  0.00    -0.203 F 
ATOM     69  F   UNL A   1      36.683  30.099  27.994  1.00  0.00    -0.200 F 
ATOM     70  C   UNL A   1      37.129  29.268  30.159  1.00  0.00     0.200 A 
ATOM     71  F   UNL A   1      37.628  28.447  32.315  1.00  0.00    -0.200 F 
ATOM     72  F   UNL A   1      35.862  29.507  30.527  1.00  0.00    -0.200 F 
ENDBRANCH  48  62
BRANCH  49  73
ATOM     73  C   UNL A   1      49.091  26.774  26.315  1.00  0.00     0.064 A 
ATOM     74  C   UNL A   1      50.068  26.253  27.174  1.00  0.00     0.173 A 
ATOM     75  C   UNL A   1      49.452  26.998  24.978  1.00  0.00     0.173 A 
ATOM     76  F   UNL A   1      49.776  26.038  28.466  1.00  0.00    -0.203 F 
ATOM     77  C   UNL A   1      51.357  25.982  26.722  1.00  0.00     0.198 A 
ATOM     78  C   UNL A   1      50.733  26.699  24.518  1.00  0.00     0.198 A 
ATOM     79  F   UNL A   1      48.553  27.488  24.112  1.00  0.00    -0.203 F 
ATOM     80  F   UNL A   1      52.283  25.523  27.574  1.00  0.00    -0.200 F 
ATOM     81  C   UNL A   1      51.687  26.199  25.392  1.00  0.00     0.200 A 
ATOM     82  F   UNL A   1      51.042  26.892  23.229  1.00  0.00    -0.200 F 
ATOM     83  F   UNL A   1      52.924  25.929  24.954  1.00  0.00    -0.200 F 
ENDBRANCH  49  73
BRANCH  61  84
ATOM     84  C   UNL A   1      46.026  32.425  29.020  1.00  0.00     0.064 A 
ATOM     85  C   UNL A   1      45.958  33.483  28.101  1.00  0.00     0.173 A 
ATOM     86  C   UNL A   1      46.551  32.694  30.294  1.00  0.00     0.173 A 
ATOM     87  F   UNL A   1      45.479  33.272  26.865  1.00  0.00    -0.203 F 
ATOM     88  C   UNL A   1      46.421  34.752  28.436  1.00  0.00     0.198 A 
ATOM     89  C   UNL A   1      46.980  33.973  30.637  1.00  0.00     0.198 A 
ATOM     90  F   UNL A   1      46.631  31.720  31.212  1.00  0.00    -0.203 F 
ATOM     91  F   UNL A   1      46.392  35.735  27.524  1.00  0.00    -0.200 F 
ATOM     92  C   UNL A   1      46.923  34.999  29.705  1.00  0.00     0.200 A 
ATOM     93  F   UNL A   1      47.450  34.213  31.869  1.00  0.00    -0.200 F 
ATOM     94  F   UNL A   1      47.358  36.224  30.029  1.00  0.00    -0.200 F 
ENDBRANCH  61  84
ENDBRANCH  35  36
ENDBRANCH  27  30
ENDBRANCH  25  26
ENDBRANCH  24  25
ENDBRANCH   1  24
TORSDOF 14
ENDMDL
MODEL 2
REMARK VINA RESULT:     -12.2      5.649     11.070
REMARK SMILES Cc1ccc([C@H](C)NC(=O)CC2(C(=O)NCCCNC(=O)c3ccc(-c4c5nc(c(-c6c(F)c(F)c(F)c(F)c6F)c6ccc([nH]6)c(-c6c(F)c(F)c(F)c(F)c6F)c6nc(c(-c7c(F)c(F)c(F)c(F)c7F)c7ccc4[nH]7)C=C6)C=C5)cc3)CCCC2)o1
REMARK SMILES IDX 16 1 15 2 13 3 14 4 12 6 85 7 88 8 86 9 87 10 11 11 9 12
REMARK SMILES IDX 8 13 10 15 6 16 7 17 5 18 1 19 2 20 3 21 89 22 4 23 17 24
REMARK SMILES IDX 18 25 19 26 20 27 21 29 22 30 23 31 84 32 24 33 83 34 25 35
REMARK SMILES IDX 26 36 27 37 77 38 28 39 82 40 76 41 78 42 29 43 81 44 75 45
REMARK SMILES IDX 74 46 30 48 62 49 42 50 61 51 43 52 46 53 60 54 79 55 44 56
REMARK SMILES IDX 45 57 59 59 80 60 47 61 31 62 32 63 40 64 33 65 34 66 38 67
REMARK SMILES IDX 41 68 35 69 36 70 39 71 37 72 63 73 64 74 72 75 65 76 66 77
REMARK SMILES IDX 70 78 73 79 67 80 68 81 71 82 69 83 48 84 49 85 57 86 50 87
REMARK SMILES IDX 51 88 55 89 58 90 52 91 53 92 56 93 54 94
REMARK H PARENT 15 5 8 14 19 28 78 47 46 58
REMARK Flexibility Score: inf
ROOT
ATOM      1  C   UNL A   1      31.527  30.792  26.120  1.00  0.00     0.117 C 
ENDROOT
BRANCH   1   2
ATOM      2  N   UNL A   1      31.032  30.481  24.799  1.00  0.00    -0.356 N 
ATOM      3  C   UNL A   1      30.871  29.301  24.157  1.00  0.00     0.226 C 
ATOM      4  O   UNL A   1      29.896  29.279  23.393  1.00  0.00    -0.274 OA
ATOM      5  H   UNL A   1      30.762  31.268  24.272  1.00  0.00     0.163 HD
BRANCH   3   6
ATOM      6  C   UNL A   1      31.806  28.073  24.255  1.00  0.00     0.058 C 
ATOM      7  C   UNL A   1      31.073  27.037  25.148  1.00  0.00     0.017 C 
ATOM      8  C   UNL A   1      33.171  28.202  24.947  1.00  0.00     0.017 C 
ATOM      9  C   UNL A   1      31.548  27.326  26.563  1.00  0.00     0.001 C 
ATOM     10  C   UNL A   1      33.006  27.729  26.399  1.00  0.00     0.001 C 
BRANCH   6  11
ATOM     11  C   UNL A   1      31.944  27.509  22.801  1.00  0.00     0.117 C 
BRANCH  11  12
ATOM     12  C   UNL A   1      33.292  26.978  22.320  1.00  0.00     0.221 C 
ATOM     13  N   UNL A   1      33.769  25.757  22.680  1.00  0.00    -0.346 N 
ATOM     14  H   UNL A   1      34.747  25.665  22.628  1.00  0.00     0.164 HD
ATOM     15  O   UNL A   1      34.028  27.696  21.636  1.00  0.00    -0.275 OA
BRANCH  13  16
ATOM     16  C   UNL A   1      33.070  24.573  23.129  1.00  0.00     0.145 C 
ATOM     17  C   UNL A   1      33.083  23.502  22.035  1.00  0.00     0.039 C 
BRANCH  16  18
ATOM     18  C   UNL A   1      33.579  24.040  24.425  1.00  0.00     0.126 A 
ATOM     19  C   UNL A   1      33.584  21.243  26.649  1.00  0.00     0.087 C 
ATOM     20  C   UNL A   1      33.805  22.565  26.031  1.00  0.00     0.101 A 
ATOM     21  C   UNL A   1      34.536  23.667  26.416  1.00  0.00     0.045 A 
ATOM     22  O   UNL A   1      33.200  22.791  24.828  1.00  0.00    -0.464 OA
ATOM     23  C   UNL A   1      34.395  24.615  25.380  1.00  0.00     0.048 A 
ENDBRANCH  16  18
ENDBRANCH  13  16
ENDBRANCH  11  12
ENDBRANCH   6  11
ENDBRANCH   3   6
ENDBRANCH   1   2
BRANCH   1  24
ATOM     24  C   UNL A   1      31.402  32.256  26.503  1.00  0.00     0.042 C 
BRANCH  24  25
ATOM     25  C   UNL A   1      32.613  32.813  27.238  1.00  0.00     0.118 C 
BRANCH  25  26
ATOM     26  N   UNL A   1      32.455  34.206  27.635  1.00  0.00    -0.352 N 
ATOM     27  C   UNL A   1      33.045  34.944  28.631  1.00  0.00     0.251 C 
ATOM     28  H   UNL A   1      31.808  34.709  27.090  1.00  0.00     0.163 HD
ATOM     29  O   UNL A   1      32.592  36.047  28.909  1.00  0.00    -0.269 OA
BRANCH  27  30
ATOM     30  C   UNL A   1      34.199  34.412  29.385  1.00  0.00     0.039 A 
ATOM     31  C   UNL A   1      33.968  33.747  30.593  1.00  0.00     0.014 A 
ATOM     32  C   UNL A   1      35.505  34.595  28.932  1.00  0.00     0.014 A 
ATOM     33  C   UNL A   1      35.041  33.199  31.299  1.00  0.00     0.010 A 
ATOM     34  C   UNL A   1      36.557  33.953  29.572  1.00  0.00     0.010 A 
ATOM     35  C   UNL A   1      36.339  33.259  30.770  1.00  0.00    -0.014 A 
BRANCH  35  36
ATOM     36  C   UNL A   1      37.489  32.616  31.455  1.00  0.00     0.031 A 
ATOM     37  C   UNL A   1      38.204  31.463  30.806  1.00  0.00     0.074 A 
ATOM     38  C   UNL A   1      37.832  33.016  32.696  1.00  0.00     0.049 A 
ATOM     39  N   UNL A   1      39.163  30.709  31.281  1.00  0.00    -0.248 NA
ATOM     40  C   UNL A   1      37.755  31.080  29.458  1.00  0.00     0.031 C 
ATOM     41  C   UNL A   1      37.175  34.082  33.452  1.00  0.00     0.029 A 
ATOM     42  N   UNL A   1      38.811  32.563  33.543  1.00  0.00    -0.354 N 
ATOM     43  C   UNL A   1      39.412  29.755  30.302  1.00  0.00     0.074 A 
ATOM     44  C   UNL A   1      38.461  29.983  29.238  1.00  0.00     0.031 C 
ATOM     45  C   UNL A   1      37.785  34.220  34.639  1.00  0.00     0.029 A 
ATOM     46  C   UNL A   1      38.847  33.224  34.746  1.00  0.00     0.049 A 
ATOM     47  H   UNL A   1      39.429  31.832  33.310  1.00  0.00     0.167 HD
ATOM     48  C   UNL A   1      40.366  28.795  30.282  1.00  0.00     0.037 A 
ATOM     49  C   UNL A   1      39.641  33.042  35.817  1.00  0.00     0.037 A 
ATOM     50  C   UNL A   1      41.329  28.596  31.332  1.00  0.00     0.049 A 
ATOM     51  C   UNL A   1      40.697  31.972  35.769  1.00  0.00     0.074 A 
ATOM     52  C   UNL A   1      42.385  27.703  31.379  1.00  0.00     0.029 A 
ATOM     53  N   UNL A   1      41.351  29.304  32.526  1.00  0.00    -0.354 N 
ATOM     54  N   UNL A   1      40.974  31.126  34.807  1.00  0.00    -0.248 NA
ATOM     55  C   UNL A   1      41.555  31.836  36.953  1.00  0.00     0.031 C 
ATOM     56  C   UNL A   1      43.010  27.830  32.623  1.00  0.00     0.029 A 
ATOM     57  C   UNL A   1      42.384  28.847  33.329  1.00  0.00     0.049 A 
ATOM     58  H   UNL A   1      40.725  30.025  32.767  1.00  0.00     0.167 HD
ATOM     59  C   UNL A   1      42.052  30.376  35.256  1.00  0.00     0.074 A 
ATOM     60  C   UNL A   1      42.389  30.879  36.573  1.00  0.00     0.031 C 
ATOM     61  C   UNL A   1      42.705  29.363  34.636  1.00  0.00     0.037 A 
BRANCH  48  62
ATOM     62  C   UNL A   1      40.411  27.886  29.086  1.00  0.00     0.064 A 
ATOM     63  C   UNL A   1      39.668  26.696  29.032  1.00  0.00     0.173 A 
ATOM     64  C   UNL A   1      41.193  28.217  27.969  1.00  0.00     0.173 A 
ATOM     65  F   UNL A   1      38.912  26.324  30.077  1.00  0.00    -0.203 F 
ATOM     66  C   UNL A   1      39.739  25.854  27.926  1.00  0.00     0.198 A 
ATOM     67  C   UNL A   1      41.235  27.390  26.849  1.00  0.00     0.198 A 
ATOM     68  F   UNL A   1      41.919  29.345  27.962  1.00  0.00    -0.203 F 
ATOM     69  F   UNL A   1      39.072  24.691  27.927  1.00  0.00    -0.200 F 
ATOM     70  C   UNL A   1      40.517  26.204  26.832  1.00  0.00     0.200 A 
ATOM     71  F   UNL A   1      41.975  27.738  25.788  1.00  0.00    -0.200 F 
ATOM     72  F   UNL A   1      40.582  25.394  25.767  1.00  0.00    -0.200 F 
ENDBRANCH  48  62
BRANCH  49  73
ATOM     73  C   UNL A   1      39.483  33.913  37.011  1.00  0.00     0.064 A 
ATOM     74  C   UNL A   1      38.755  33.478  38.127  1.00  0.00     0.173 A 
ATOM     75  C   UNL A   1      40.065  35.188  37.069  1.00  0.00     0.173 A 
ATOM     76  F   UNL A   1      38.165  32.274  38.113  1.00  0.00    -0.203 F 
ATOM     77  C   UNL A   1      38.601  34.290  39.249  1.00  0.00     0.198 A 
ATOM     78  C   UNL A   1      39.937  35.988  38.203  1.00  0.00     0.198 A 
ATOM     79  F   UNL A   1      40.778  35.648  36.031  1.00  0.00    -0.203 F 
ATOM     80  F   UNL A   1      37.867  33.866  40.286  1.00  0.00    -0.200 F 
ATOM     81  C   UNL A   1      39.199  35.541  39.289  1.00  0.00     0.200 A 
ATOM     82  F   UNL A   1      40.530  37.188  38.244  1.00  0.00    -0.200 F 
ATOM     83  F   UNL A   1      39.059  36.319  40.371  1.00  0.00    -0.200 F 
ENDBRANCH  49  73
BRANCH  61  84
ATOM     84  C   UNL A   1      43.870  28.750  35.358  1.00  0.00     0.064 A 
ATOM     85  C   UNL A   1      45.178  29.229  35.191  1.00  0.00     0.173 A 
ATOM     86  C   UNL A   1      43.667  27.697  36.264  1.00  0.00     0.173 A 
ATOM     87  F   UNL A   1      45.426  30.223  34.325  1.00  0.00    -0.203 F 
ATOM     88  C   UNL A   1      46.243  28.660  35.884  1.00  0.00     0.198 A 
ATOM     89  C   UNL A   1      44.729  27.154  36.982  1.00  0.00     0.198 A 
ATOM     90  F   UNL A   1      42.435  27.207  36.466  1.00  0.00    -0.203 F 
ATOM     91  F   UNL A   1      47.490  29.101  35.672  1.00  0.00    -0.200 F 
ATOM     92  C   UNL A   1      46.017  27.629  36.785  1.00  0.00     0.200 A 
ATOM     93  F   UNL A   1      44.506  26.169  37.863  1.00  0.00    -0.200 F 
ATOM     94  F   UNL A   1      47.041  27.090  37.460  1.00  0.00    -0.200 F 
ENDBRANCH  61  84
ENDBRANCH  35  36
ENDBRANCH  27  30
ENDBRANCH  25  26
ENDBRANCH  24  25
ENDBRANCH   1  24
TORSDOF 14
ENDMDL
MODEL 3
REMARK VINA RESULT:     -12.1      5.550     11.063
REMARK SMILES Cc1ccc([C@H](C)NC(=O)CC2(C(=O)NCCCNC(=O)c3ccc(-c4c5nc(c(-c6c(F)c(F)c(F)c(F)c6F)c6ccc([nH]6)c(-c6c(F)c(F)c(F)c(F)c6F)c6nc(c(-c7c(F)c(F)c(F)c(F)c7F)c7ccc4[nH]7)C=C6)C=C5)cc3)CCCC2)o1
REMARK SMILES IDX 16 1 15 2 13 3 14 4 12 6 85 7 88 8 86 9 87 10 11 11 9 12
REMARK SMILES IDX 8 13 10 15 6 16 7 17 5 18 1 19 2 20 3 21 89 22 4 23 17 24
REMARK SMILES IDX 18 25 19 26 20 27 21 29 22 30 23 31 84 32 24 33 83 34 25 35
REMARK SMILES IDX 26 36 27 37 77 38 28 39 82 40 76 41 78 42 29 43 81 44 75 45
REMARK SMILES IDX 74 46 30 48 62 49 42 50 61 51 43 52 46 53 60 54 79 55 44 56
REMARK SMILES IDX 45 57 59 59 80 60 47 61 31 62 32 63 40 64 33 65 34 66 38 67
REMARK SMILES IDX 41 68 35 69 36 70 39 71 37 72 63 73 64 74 72 75 65 76 66 77
REMARK SMILES IDX 70 78 73 79 67 80 68 81 71 82 69 83 48 84 49 85 57 86 50 87
REMARK SMILES IDX 51 88 55 89 58 90 52 91 53 92 56 93 54 94
REMARK H PARENT 15 5 8 14 19 28 78 47 46 58
REMARK Flexibility Score: inf
ROOT
ATOM      1  C   UNL A   1      31.448  30.673  26.024  1.00  0.00     0.117 C 
ENDROOT
BRANCH   1   2
ATOM      2  N   UNL A   1      31.034  30.453  24.658  1.00  0.00    -0.356 N 
ATOM      3  C   UNL A   1      30.816  29.316  23.958  1.00  0.00     0.226 C 
ATOM      4  O   UNL A   1      29.909  29.413  23.121  1.00  0.00    -0.274 OA
ATOM      5  H   UNL A   1      30.884  31.279  24.143  1.00  0.00     0.163 HD
BRANCH   3   6
ATOM      6  C   UNL A   1      31.621  28.001  24.081  1.00  0.00     0.058 C 
ATOM      7  C   UNL A   1      33.035  28.400  24.578  1.00  0.00     0.017 C 
ATOM      8  C   UNL A   1      31.931  27.171  22.827  1.00  0.00     0.017 C 
ATOM      9  C   UNL A   1      33.855  28.609  23.315  1.00  0.00     0.001 C 
ATOM     10  C   UNL A   1      33.338  27.555  22.348  1.00  0.00     0.001 C 
BRANCH   6  11
ATOM     11  C   UNL A   1      30.901  27.147  25.179  1.00  0.00     0.117 C 
BRANCH  11  12
ATOM     12  C   UNL A   1      29.947  26.029  24.763  1.00  0.00     0.221 C 
ATOM     13  N   UNL A   1      30.278  24.714  24.855  1.00  0.00    -0.346 N 
ATOM     14  H   UNL A   1      29.776  24.119  24.252  1.00  0.00     0.164 HD
ATOM     15  O   UNL A   1      28.858  26.307  24.252  1.00  0.00    -0.275 OA
BRANCH  13  16
ATOM     16  C   UNL A   1      31.248  24.048  25.696  1.00  0.00     0.145 C 
ATOM     17  C   UNL A   1      30.734  22.665  26.107  1.00  0.00     0.039 C 
BRANCH  16  18
ATOM     18  C   UNL A   1      32.606  23.969  25.085  1.00  0.00     0.126 A 
ATOM     19  C   UNL A   1      36.112  23.762  25.744  1.00  0.00     0.087 C 
ATOM     20  C   UNL A   1      34.796  23.864  25.084  1.00  0.00     0.101 A 
ATOM     21  C   UNL A   1      34.412  23.891  23.762  1.00  0.00     0.045 A 
ATOM     22  O   UNL A   1      33.702  23.933  25.899  1.00  0.00    -0.464 OA
ATOM     23  C   UNL A   1      33.002  23.954  23.762  1.00  0.00     0.048 A 
ENDBRANCH  16  18
ENDBRANCH  13  16
ENDBRANCH  11  12
ENDBRANCH   6  11
ENDBRANCH   3   6
ENDBRANCH   1   2
BRANCH   1  24
ATOM     24  C   UNL A   1      31.289  32.106  26.500  1.00  0.00     0.042 C 
BRANCH  24  25
ATOM     25  C   UNL A   1      32.507  32.661  27.224  1.00  0.00     0.118 C 
BRANCH  25  26
ATOM     26  N   UNL A   1      32.362  34.058  27.610  1.00  0.00    -0.352 N 
ATOM     27  C   UNL A   1      32.971  34.803  28.588  1.00  0.00     0.251 C 
ATOM     28  H   UNL A   1      31.708  34.558  27.070  1.00  0.00     0.163 HD
ATOM     29  O   UNL A   1      32.527  35.912  28.862  1.00  0.00    -0.269 OA
BRANCH  27  30
ATOM     30  C   UNL A   1      34.135  34.274  29.328  1.00  0.00     0.039 A 
ATOM     31  C   UNL A   1      33.915  33.508  30.476  1.00  0.00     0.014 A 
ATOM     32  C   UNL A   1      35.439  34.557  28.923  1.00  0.00     0.014 A 
ATOM     33  C   UNL A   1      34.999  32.963  31.166  1.00  0.00     0.010 A 
ATOM     34  C   UNL A   1      36.510  33.922  29.538  1.00  0.00     0.010 A 
ATOM     35  C   UNL A   1      36.304  33.128  30.675  1.00  0.00    -0.014 A 
BRANCH  35  36
ATOM     36  C   UNL A   1      37.470  32.493  31.338  1.00  0.00     0.031 A 
ATOM     37  C   UNL A   1      38.185  31.349  30.673  1.00  0.00     0.074 A 
ATOM     38  C   UNL A   1      37.831  32.892  32.574  1.00  0.00     0.049 A 
ATOM     39  N   UNL A   1      39.159  30.602  31.128  1.00  0.00    -0.248 NA
ATOM     40  C   UNL A   1      37.716  30.966  29.332  1.00  0.00     0.031 C 
ATOM     41  C   UNL A   1      37.178  33.950  33.345  1.00  0.00     0.029 A 
ATOM     42  N   UNL A   1      38.829  32.446  33.402  1.00  0.00    -0.354 N 
ATOM     43  C   UNL A   1      39.399  29.654  30.142  1.00  0.00     0.074 A 
ATOM     44  C   UNL A   1      38.428  29.876  29.096  1.00  0.00     0.031 C 
ATOM     45  C   UNL A   1      37.808  34.090  34.522  1.00  0.00     0.029 A 
ATOM     46  C   UNL A   1      38.880  33.104  34.607  1.00  0.00     0.049 A 
ATOM     47  H   UNL A   1      39.450  31.721  33.157  1.00  0.00     0.167 HD
ATOM     48  C   UNL A   1      40.361  28.702  30.102  1.00  0.00     0.037 A 
ATOM     49  C   UNL A   1      39.694  32.925  35.663  1.00  0.00     0.037 A 
ATOM     50  C   UNL A   1      41.344  28.508  31.136  1.00  0.00     0.049 A 
ATOM     51  C   UNL A   1      40.758  31.865  35.594  1.00  0.00     0.074 A 
ATOM     52  C   UNL A   1      42.408  27.625  31.161  1.00  0.00     0.029 A 
ATOM     53  N   UNL A   1      41.381  29.213  32.331  1.00  0.00    -0.354 N 
ATOM     54  N   UNL A   1      41.027  31.024  34.624  1.00  0.00    -0.248 NA
ATOM     55  C   UNL A   1      41.638  31.732  36.763  1.00  0.00     0.031 C 
ATOM     56  C   UNL A   1      43.054  27.754  32.395  1.00  0.00     0.029 A 
ATOM     57  C   UNL A   1      42.431  28.763  33.114  1.00  0.00     0.049 A 
ATOM     58  H   UNL A   1      40.752  29.927  32.586  1.00  0.00     0.167 HD
ATOM     59  C   UNL A   1      42.119  30.283  35.052  1.00  0.00     0.074 A 
ATOM     60  C   UNL A   1      42.474  30.785  36.364  1.00  0.00     0.031 C 
ATOM     61  C   UNL A   1      42.770  29.277  34.417  1.00  0.00     0.037 A 
BRANCH  48  62
ATOM     62  C   UNL A   1      40.394  27.798  28.903  1.00  0.00     0.064 A 
ATOM     63  C   UNL A   1      39.652  26.605  28.854  1.00  0.00     0.173 A 
ATOM     64  C   UNL A   1      41.161  28.134  27.777  1.00  0.00     0.173 A 
ATOM     65  F   UNL A   1      38.910  26.228  29.907  1.00  0.00    -0.203 F 
ATOM     66  C   UNL A   1      39.712  25.767  27.744  1.00  0.00     0.198 A 
ATOM     67  C   UNL A   1      41.191  27.311  26.655  1.00  0.00     0.198 A 
ATOM     68  F   UNL A   1      41.884  29.264  27.765  1.00  0.00    -0.203 F 
ATOM     69  F   UNL A   1      39.048  24.603  27.750  1.00  0.00    -0.200 F 
ATOM     70  C   UNL A   1      40.475  26.124  26.643  1.00  0.00     0.200 A 
ATOM     71  F   UNL A   1      41.917  27.665  25.586  1.00  0.00    -0.200 F 
ATOM     72  F   UNL A   1      40.529  25.317  25.574  1.00  0.00    -0.200 F 
ENDBRANCH  48  62
BRANCH  49  73
ATOM     73  C   UNL A   1      39.549  33.791  36.863  1.00  0.00     0.064 A 
ATOM     74  C   UNL A   1      40.173  35.044  36.926  1.00  0.00     0.173 A 
ATOM     75  C   UNL A   1      38.773  33.393  37.962  1.00  0.00     0.173 A 
ATOM     76  F   UNL A   1      40.939  35.461  35.908  1.00  0.00    -0.203 F 
ATOM     77  C   UNL A   1      40.042  35.859  38.048  1.00  0.00     0.198 A 
ATOM     78  C   UNL A   1      38.617  34.222  39.072  1.00  0.00     0.198 A 
ATOM     79  F   UNL A   1      38.147  32.207  37.949  1.00  0.00    -0.203 F 
ATOM     80  F   UNL A   1      40.683  37.035  38.099  1.00  0.00    -0.200 F 
ATOM     81  C   UNL A   1      39.258  35.451  39.117  1.00  0.00     0.200 A 
ATOM     82  F   UNL A   1      37.845  33.831  40.094  1.00  0.00    -0.200 F 
ATOM     83  F   UNL A   1      39.125  36.239  40.193  1.00  0.00    -0.200 F 
ENDBRANCH  49  73
BRANCH  61  84
ATOM     84  C   UNL A   1      43.953  28.672  35.117  1.00  0.00     0.064 A 
ATOM     85  C   UNL A   1      43.819  27.570  35.975  1.00  0.00     0.173 A 
ATOM     86  C   UNL A   1      45.243  29.176  34.892  1.00  0.00     0.173 A 
ATOM     87  F   UNL A   1      42.605  27.061  36.235  1.00  0.00    -0.203 F 
ATOM     88  C   UNL A   1      44.930  27.011  36.600  1.00  0.00     0.198 A 
ATOM     89  C   UNL A   1      46.356  28.592  35.491  1.00  0.00     0.198 A 
ATOM     90  F   UNL A   1      45.427  30.224  34.075  1.00  0.00    -0.203 F 
ATOM     91  F   UNL A   1      44.772  25.989  37.454  1.00  0.00    -0.200 F 
ATOM     92  C   UNL A   1      46.198  27.516  36.351  1.00  0.00     0.200 A 
ATOM     93  F   UNL A   1      47.581  29.072  35.237  1.00  0.00    -0.200 F 
ATOM     94  F   UNL A   1      47.267  26.970  36.945  1.00  0.00    -0.200 F 
ENDBRANCH  61  84
ENDBRANCH  35  36
ENDBRANCH  27  30
ENDBRANCH  25  26
ENDBRANCH  24  25
ENDBRANCH   1  24
TORSDOF 14
ENDMDL
