MODEL 1
REMARK VINA RESULT:     -11.9      0.000      0.000
REMARK SMILES CC(C)C[NH+]1CC[NH+]([C@H](C)[C@@H](C)C(=O)NCCCNC(=O)c2ccc(-c3c4nc(c(-c5c(F)c(F)c(F)c(F)c5F)c5ccc([nH]5)c(-c5c(F)c(F)c(F)c(F)c5F)c5nc(c(-c6c(F)c(F)c(F)c(F)c6F)c6ccc3[nH]6)C=C5)C=C4)cc2)CC1
REMARK SMILES IDX 16 1 15 2 13 3 14 4 11 6 12 7 9 8 10 9 8 10 5 11 6 12 86 13
REMARK SMILES IDX 7 15 85 16 4 18 2 19 1 20 3 21 17 22 18 23 19 24 20 25 21 27
REMARK SMILES IDX 22 28 23 29 84 30 24 31 83 32 25 33 26 34 27 35 77 36 28 37
REMARK SMILES IDX 82 38 76 39 78 40 29 41 81 42 75 43 74 44 30 46 62 47 42 48
REMARK SMILES IDX 61 49 43 50 46 51 60 52 79 53 44 54 45 55 59 57 80 58 47 59
REMARK SMILES IDX 31 60 32 61 40 62 33 63 34 64 38 65 41 66 35 67 36 68 39 69
REMARK SMILES IDX 37 70 63 71 64 72 72 73 65 74 66 75 70 76 73 77 67 78 68 79
REMARK SMILES IDX 71 80 69 81 48 82 49 83 57 84 50 85 51 86 55 87 58 88 52 89
REMARK SMILES IDX 53 90 56 91 54 92
REMARK H PARENT 15 5 5 14 8 17 19 26 78 45 46 56
REMARK Flexibility Score: inf
ROOT
ATOM      1  C   UNL A   1      31.805  30.454  26.297  1.00  0.00     0.117 C 
ENDROOT
BRANCH   1   2
ATOM      2  N   UNL A   1      31.302  30.035  25.002  1.00  0.00    -0.356 N 
ATOM      3  C   UNL A   1      31.863  29.290  24.011  1.00  0.00     0.228 C 
ATOM      4  O   UNL A   1      31.164  29.062  23.018  1.00  0.00    -0.275 OA
ATOM      5  H   UNL A   1      30.390  30.347  24.804  1.00  0.00     0.163 HD
BRANCH   3   6
ATOM      6  C   UNL A   1      33.267  28.700  24.122  1.00  0.00     0.133 C 
ATOM      7  C   UNL A   1      33.956  28.729  22.753  1.00  0.00     0.024 C 
BRANCH   6   8
ATOM      8  C   UNL A   1      33.285  27.339  24.874  1.00  0.00     0.193 C 
ATOM      9  C   UNL A   1      33.653  27.502  26.366  1.00  0.00     0.076 C 
BRANCH   8  10
ATOM     10  N   UNL A   1      32.026  26.581  24.655  1.00  0.00    -0.323 N 
ATOM     11  N   UNL A   1      30.658  23.911  24.794  1.00  0.00    -0.325 N 
ATOM     12  C   UNL A   1      30.313  25.009  25.712  1.00  0.00     0.324 C 
ATOM     13  C   UNL A   1      30.986  24.546  23.495  1.00  0.00     0.324 C 
ATOM     14  H   UNL A   1      29.858  23.278  24.755  1.00  0.00     0.348 HD
ATOM     15  C   UNL A   1      31.415  26.071  25.897  1.00  0.00     0.324 C 
ATOM     16  C   UNL A   1      32.138  25.584  23.574  1.00  0.00     0.324 C 
ATOM     17  H   UNL A   1      31.347  27.261  24.313  1.00  0.00     0.348 HD
BRANCH  11  18
ATOM     18  C   UNL A   1      31.778  23.052  25.222  1.00  0.00     0.265 C 
BRANCH  18  19
ATOM     19  C   UNL A   1      32.326  21.987  24.250  1.00  0.00     0.038 C 
ATOM     20  C   UNL A   1      33.787  22.213  23.876  1.00  0.00     0.013 C 
ATOM     21  C   UNL A   1      32.153  20.603  24.891  1.00  0.00     0.013 C 
ENDBRANCH  18  19
ENDBRANCH  11  18
ENDBRANCH   8  10
ENDBRANCH   6   8
ENDBRANCH   3   6
ENDBRANCH   1   2
BRANCH   1  22
ATOM     22  C   UNL A   1      31.612  31.944  26.545  1.00  0.00     0.042 C 
BRANCH  22  23
ATOM     23  C   UNL A   1      32.728  32.584  27.361  1.00  0.00     0.118 C 
BRANCH  23  24
ATOM     24  N   UNL A   1      32.486  33.997  27.619  1.00  0.00    -0.352 N 
ATOM     25  C   UNL A   1      33.039  34.841  28.549  1.00  0.00     0.251 C 
ATOM     26  H   UNL A   1      31.816  34.415  27.031  1.00  0.00     0.163 HD
ATOM     27  O   UNL A   1      32.529  35.941  28.752  1.00  0.00    -0.269 OA
BRANCH  25  28
ATOM     28  C   UNL A   1      34.226  34.429  29.326  1.00  0.00     0.039 A 
ATOM     29  C   UNL A   1      34.044  33.890  30.602  1.00  0.00     0.014 A 
ATOM     30  C   UNL A   1      35.514  34.579  28.808  1.00  0.00     0.014 A 
ATOM     31  C   UNL A   1      35.144  33.414  31.318  1.00  0.00     0.010 A 
ATOM     32  C   UNL A   1      36.601  34.034  29.486  1.00  0.00     0.010 A 
ATOM     33  C   UNL A   1      36.424  33.429  30.740  1.00  0.00    -0.014 A 
BRANCH  33  34
ATOM     34  C   UNL A   1      37.578  32.767  31.399  1.00  0.00     0.031 A 
ATOM     35  C   UNL A   1      38.248  31.586  30.758  1.00  0.00     0.074 A 
ATOM     36  C   UNL A   1      37.956  33.178  32.626  1.00  0.00     0.049 A 
ATOM     37  N   UNL A   1      39.194  30.814  31.233  1.00  0.00    -0.248 NA
ATOM     38  C   UNL A   1      37.779  31.207  29.416  1.00  0.00     0.031 C 
ATOM     39  C   UNL A   1      37.351  34.285  33.369  1.00  0.00     0.029 A 
ATOM     40  N   UNL A   1      38.924  32.700  33.474  1.00  0.00    -0.354 N 
ATOM     41  C   UNL A   1      39.423  29.854  30.256  1.00  0.00     0.074 A 
ATOM     42  C   UNL A   1      38.487  30.111  29.182  1.00  0.00     0.031 C 
ATOM     43  C   UNL A   1      37.968  34.409  34.554  1.00  0.00     0.029 A 
ATOM     44  C   UNL A   1      38.974  33.359  34.679  1.00  0.00     0.049 A 
ATOM     45  H   UNL A   1      39.525  31.955  33.242  1.00  0.00     0.167 HD
ATOM     46  C   UNL A   1      40.343  28.860  30.254  1.00  0.00     0.037 A 
ATOM     47  C   UNL A   1      39.727  33.129  35.772  1.00  0.00     0.037 A 
ATOM     48  C   UNL A   1      41.280  28.621  31.320  1.00  0.00     0.049 A 
ATOM     49  C   UNL A   1      40.712  31.993  35.756  1.00  0.00     0.074 A 
ATOM     50  C   UNL A   1      42.303  27.691  31.377  1.00  0.00     0.029 A 
ATOM     51  N   UNL A   1      41.299  29.309  32.525  1.00  0.00    -0.354 N 
ATOM     52  N   UNL A   1      40.981  31.146  34.793  1.00  0.00    -0.248 NA
ATOM     53  C   UNL A   1      41.496  31.776  36.981  1.00  0.00     0.031 C 
ATOM     54  C   UNL A   1      42.898  27.771  32.639  1.00  0.00     0.029 A 
ATOM     55  C   UNL A   1      42.286  28.791  33.349  1.00  0.00     0.049 A 
ATOM     56  H   UNL A   1      40.700  30.055  32.760  1.00  0.00     0.167 HD
ATOM     57  C   UNL A   1      41.971  30.309  35.286  1.00  0.00     0.074 A 
ATOM     58  C   UNL A   1      42.275  30.765  36.626  1.00  0.00     0.031 C 
ATOM     59  C   UNL A   1      42.572  29.253  34.685  1.00  0.00     0.037 A 
BRANCH  46  60
ATOM     60  C   UNL A   1      40.383  27.946  29.062  1.00  0.00     0.064 A 
ATOM     61  C   UNL A   1      39.635  26.760  29.016  1.00  0.00     0.173 A 
ATOM     62  C   UNL A   1      41.136  28.290  27.929  1.00  0.00     0.173 A 
ATOM     63  F   UNL A   1      38.904  26.381  30.074  1.00  0.00    -0.203 F 
ATOM     64  C   UNL A   1      39.659  25.940  27.890  1.00  0.00     0.198 A 
ATOM     65  C   UNL A   1      41.134  27.483  26.794  1.00  0.00     0.198 A 
ATOM     66  F   UNL A   1      41.865  29.417  27.916  1.00  0.00    -0.203 F 
ATOM     67  F   UNL A   1      38.971  24.790  27.886  1.00  0.00    -0.200 F 
ATOM     68  C   UNL A   1      40.402  26.307  26.778  1.00  0.00     0.200 A 
ATOM     69  F   UNL A   1      41.839  27.849  25.713  1.00  0.00    -0.200 F 
ATOM     70  F   UNL A   1      40.414  25.523  25.691  1.00  0.00    -0.200 F 
ENDBRANCH  46  60
BRANCH  47  71
ATOM     71  C   UNL A   1      39.568  33.986  36.977  1.00  0.00     0.064 A 
ATOM     72  C   UNL A   1      38.770  33.575  38.054  1.00  0.00     0.173 A 
ATOM     73  C   UNL A   1      40.204  35.233  37.076  1.00  0.00     0.173 A 
ATOM     74  F   UNL A   1      38.125  32.401  37.999  1.00  0.00    -0.203 F 
ATOM     75  C   UNL A   1      38.598  34.387  39.174  1.00  0.00     0.198 A 
ATOM     76  C   UNL A   1      40.058  36.028  38.210  1.00  0.00     0.198 A 
ATOM     77  F   UNL A   1      40.983  35.672  36.077  1.00  0.00    -0.203 F 
ATOM     78  F   UNL A   1      37.792  33.991  40.168  1.00  0.00    -0.200 F 
ATOM     79  C   UNL A   1      39.247  35.609  39.254  1.00  0.00     0.200 A 
ATOM     80  F   UNL A   1      40.703  37.201  38.291  1.00  0.00    -0.200 F 
ATOM     81  F   UNL A   1      39.088  36.386  40.334  1.00  0.00    -0.200 F 
ENDBRANCH  47  71
BRANCH  59  82
ATOM     82  C   UNL A   1      43.622  28.517  35.466  1.00  0.00     0.064 A 
ATOM     83  C   UNL A   1      44.980  28.855  35.365  1.00  0.00     0.173 A 
ATOM     84  C   UNL A   1      43.262  27.505  36.369  1.00  0.00     0.173 A 
ATOM     85  F   UNL A   1      45.377  29.804  34.502  1.00  0.00    -0.203 F 
ATOM     86  C   UNL A   1      45.940  28.195  36.126  1.00  0.00     0.198 A 
ATOM     87  C   UNL A   1      44.222  26.871  37.153  1.00  0.00     0.198 A 
ATOM     88  F   UNL A   1      41.977  27.147  36.506  1.00  0.00    -0.203 F 
ATOM     89  F   UNL A   1      47.236  28.507  35.984  1.00  0.00    -0.200 F 
ATOM     90  C   UNL A   1      45.559  27.212  37.027  1.00  0.00     0.200 A 
ATOM     91  F   UNL A   1      43.850  25.930  38.033  1.00  0.00    -0.200 F 
ATOM     92  F   UNL A   1      46.483  26.590  37.772  1.00  0.00    -0.200 F 
ENDBRANCH  59  82
ENDBRANCH  33  34
ENDBRANCH  25  28
ENDBRANCH  23  24
ENDBRANCH  22  23
ENDBRANCH   1  22
TORSDOF 14
ENDMDL
MODEL 2
REMARK VINA RESULT:     -11.9      0.138      1.625
REMARK SMILES CC(C)C[NH+]1CC[NH+]([C@H](C)[C@@H](C)C(=O)NCCCNC(=O)c2ccc(-c3c4nc(c(-c5c(F)c(F)c(F)c(F)c5F)c5ccc([nH]5)c(-c5c(F)c(F)c(F)c(F)c5F)c5nc(c(-c6c(F)c(F)c(F)c(F)c6F)c6ccc3[nH]6)C=C5)C=C4)cc2)CC1
REMARK SMILES IDX 16 1 15 2 13 3 14 4 11 6 12 7 9 8 10 9 8 10 5 11 6 12 86 13
REMARK SMILES IDX 7 15 85 16 4 18 2 19 1 20 3 21 17 22 18 23 19 24 20 25 21 27
REMARK SMILES IDX 22 28 23 29 84 30 24 31 83 32 25 33 26 34 27 35 77 36 28 37
REMARK SMILES IDX 82 38 76 39 78 40 29 41 81 42 75 43 74 44 30 46 62 47 42 48
REMARK SMILES IDX 61 49 43 50 46 51 60 52 79 53 44 54 45 55 59 57 80 58 47 59
REMARK SMILES IDX 31 60 32 61 40 62 33 63 34 64 38 65 41 66 35 67 36 68 39 69
REMARK SMILES IDX 37 70 63 71 64 72 72 73 65 74 66 75 70 76 73 77 67 78 68 79
REMARK SMILES IDX 71 80 69 81 48 82 49 83 57 84 50 85 51 86 55 87 58 88 52 89
REMARK SMILES IDX 53 90 56 91 54 92
REMARK H PARENT 15 5 5 14 8 17 19 26 78 45 46 56
REMARK Flexibility Score: inf
ROOT
ATOM      1  C   UNL A   1      31.789  30.466  26.340  1.00  0.00     0.117 C 
ENDROOT
BRANCH   1   2
ATOM      2  N   UNL A   1      31.234  30.030  25.072  1.00  0.00    -0.356 N 
ATOM      3  C   UNL A   1      31.763  29.288  24.061  1.00  0.00     0.228 C 
ATOM      4  O   UNL A   1      31.023  29.041  23.103  1.00  0.00    -0.275 OA
ATOM      5  H   UNL A   1      30.309  30.325  24.914  1.00  0.00     0.163 HD
BRANCH   3   6
ATOM      6  C   UNL A   1      33.180  28.723  24.111  1.00  0.00     0.133 C 
ATOM      7  C   UNL A   1      33.832  28.821  22.727  1.00  0.00     0.024 C 
BRANCH   6   8
ATOM      8  C   UNL A   1      33.245  27.333  24.806  1.00  0.00     0.193 C 
ATOM      9  C   UNL A   1      33.695  27.439  26.281  1.00  0.00     0.076 C 
BRANCH   8  10
ATOM     10  N   UNL A   1      31.978  26.577  24.628  1.00  0.00    -0.323 N 
ATOM     11  N   UNL A   1      30.613  23.908  24.803  1.00  0.00    -0.325 N 
ATOM     12  C   UNL A   1      30.301  25.003  25.737  1.00  0.00     0.324 C 
ATOM     13  C   UNL A   1      30.896  24.548  23.496  1.00  0.00     0.324 C 
ATOM     14  H   UNL A   1      29.812  23.276  24.789  1.00  0.00     0.348 HD
ATOM     15  C   UNL A   1      31.410  26.063  25.888  1.00  0.00     0.324 C 
ATOM     16  C   UNL A   1      32.052  25.585  23.540  1.00  0.00     0.324 C 
ATOM     17  H   UNL A   1      31.289  27.260  24.313  1.00  0.00     0.348 HD
BRANCH  11  18
ATOM     18  C   UNL A   1      31.746  23.046  25.188  1.00  0.00     0.265 C 
BRANCH  18  19
ATOM     19  C   UNL A   1      32.270  21.997  24.186  1.00  0.00     0.038 C 
ATOM     20  C   UNL A   1      33.720  22.235  23.775  1.00  0.00     0.013 C 
ATOM     21  C   UNL A   1      32.122  20.604  24.813  1.00  0.00     0.013 C 
ENDBRANCH  18  19
ENDBRANCH  11  18
ENDBRANCH   8  10
ENDBRANCH   6   8
ENDBRANCH   3   6
ENDBRANCH   1   2
BRANCH   1  22
ATOM     22  C   UNL A   1      31.573  31.953  26.591  1.00  0.00     0.042 C 
BRANCH  22  23
ATOM     23  C   UNL A   1      32.731  32.632  27.311  1.00  0.00     0.118 C 
BRANCH  23  24
ATOM     24  N   UNL A   1      32.456  34.032  27.608  1.00  0.00    -0.352 N 
ATOM     25  C   UNL A   1      32.987  34.861  28.562  1.00  0.00     0.251 C 
ATOM     26  H   UNL A   1      31.778  34.450  27.030  1.00  0.00     0.163 HD
ATOM     27  O   UNL A   1      32.451  35.944  28.795  1.00  0.00    -0.269 OA
BRANCH  25  28
ATOM     28  C   UNL A   1      34.181  34.456  29.332  1.00  0.00     0.039 A 
ATOM     29  C   UNL A   1      34.009  33.902  30.603  1.00  0.00     0.014 A 
ATOM     30  C   UNL A   1      35.466  34.626  28.811  1.00  0.00     0.014 A 
ATOM     31  C   UNL A   1      35.117  33.431  31.310  1.00  0.00     0.010 A 
ATOM     32  C   UNL A   1      36.561  34.086  29.480  1.00  0.00     0.010 A 
ATOM     33  C   UNL A   1      36.396  33.467  30.729  1.00  0.00    -0.014 A 
BRANCH  33  34
ATOM     34  C   UNL A   1      37.558  32.812  31.377  1.00  0.00     0.031 A 
ATOM     35  C   UNL A   1      38.217  31.622  30.740  1.00  0.00     0.074 A 
ATOM     36  C   UNL A   1      37.957  33.237  32.592  1.00  0.00     0.049 A 
ATOM     37  N   UNL A   1      39.170  30.854  31.209  1.00  0.00    -0.248 NA
ATOM     38  C   UNL A   1      37.727  31.226  29.411  1.00  0.00     0.031 C 
ATOM     39  C   UNL A   1      37.365  34.354  33.332  1.00  0.00     0.029 A 
ATOM     40  N   UNL A   1      38.938  32.768  33.431  1.00  0.00    -0.354 N 
ATOM     41  C   UNL A   1      39.382  29.882  30.241  1.00  0.00     0.074 A 
ATOM     42  C   UNL A   1      38.430  30.127  29.179  1.00  0.00     0.031 C 
ATOM     43  C   UNL A   1      38.001  34.492  34.505  1.00  0.00     0.029 A 
ATOM     44  C   UNL A   1      39.008  33.443  34.627  1.00  0.00     0.049 A 
ATOM     45  H   UNL A   1      39.534  32.020  33.199  1.00  0.00     0.167 HD
ATOM     46  C   UNL A   1      40.301  28.887  30.236  1.00  0.00     0.037 A 
ATOM     47  C   UNL A   1      39.778  33.225  35.710  1.00  0.00     0.037 A 
ATOM     48  C   UNL A   1      41.255  28.660  31.290  1.00  0.00     0.049 A 
ATOM     49  C   UNL A   1      40.761  32.087  35.693  1.00  0.00     0.074 A 
ATOM     50  C   UNL A   1      42.277  27.730  31.342  1.00  0.00     0.029 A 
ATOM     51  N   UNL A   1      41.294  29.363  32.486  1.00  0.00    -0.354 N 
ATOM     52  N   UNL A   1      41.014  31.228  34.736  1.00  0.00    -0.248 NA
ATOM     53  C   UNL A   1      41.564  31.885  36.907  1.00  0.00     0.031 C 
ATOM     54  C   UNL A   1      42.892  27.824  32.594  1.00  0.00     0.029 A 
ATOM     55  C   UNL A   1      42.294  28.854  33.301  1.00  0.00     0.049 A 
ATOM     56  H   UNL A   1      40.699  30.112  32.722  1.00  0.00     0.167 HD
ATOM     57  C   UNL A   1      42.011  30.396  35.223  1.00  0.00     0.074 A 
ATOM     58  C   UNL A   1      42.337  30.868  36.553  1.00  0.00     0.031 C 
ATOM     59  C   UNL A   1      42.601  29.332  34.626  1.00  0.00     0.037 A 
BRANCH  46  60
ATOM     60  C   UNL A   1      40.321  27.958  29.056  1.00  0.00     0.064 A 
ATOM     61  C   UNL A   1      39.574  26.770  29.038  1.00  0.00     0.173 A 
ATOM     62  C   UNL A   1      41.052  28.289  27.904  1.00  0.00     0.173 A 
ATOM     63  F   UNL A   1      38.864  26.403  30.115  1.00  0.00    -0.203 F 
ATOM     64  C   UNL A   1      39.580  25.937  27.923  1.00  0.00     0.198 A 
ATOM     65  C   UNL A   1      41.031  27.469  26.780  1.00  0.00     0.198 A 
ATOM     66  F   UNL A   1      41.778  29.417  27.864  1.00  0.00    -0.203 F 
ATOM     67  F   UNL A   1      38.894  24.785  27.945  1.00  0.00    -0.200 F 
ATOM     68  C   UNL A   1      40.301  26.291  26.792  1.00  0.00     0.200 A 
ATOM     69  F   UNL A   1      41.714  27.822  25.682  1.00  0.00    -0.200 F 
ATOM     70  F   UNL A   1      40.294  25.493  25.715  1.00  0.00    -0.200 F 
ENDBRANCH  46  60
BRANCH  47  71
ATOM     71  C   UNL A   1      39.639  34.097  36.907  1.00  0.00     0.064 A 
ATOM     72  C   UNL A   1      40.315  35.322  36.989  1.00  0.00     0.173 A 
ATOM     73  C   UNL A   1      38.832  33.724  37.993  1.00  0.00     0.173 A 
ATOM     74  F   UNL A   1      41.114  35.714  35.986  1.00  0.00    -0.203 F 
ATOM     75  C   UNL A   1      40.207  36.130  38.120  1.00  0.00     0.198 A 
ATOM     76  C   UNL A   1      38.700  34.548  39.108  1.00  0.00     0.198 A 
ATOM     77  F   UNL A   1      38.159  32.565  37.964  1.00  0.00    -0.203 F 
ATOM     78  F   UNL A   1      40.903  37.273  38.192  1.00  0.00    -0.200 F 
ATOM     79  C   UNL A   1      39.394  35.746  39.174  1.00  0.00     0.200 A 
ATOM     80  F   UNL A   1      37.897  34.181  40.118  1.00  0.00    -0.200 F 
ATOM     81  F   UNL A   1      39.285  36.526  40.258  1.00  0.00    -0.200 F 
ENDBRANCH  47  71
BRANCH  59  82
ATOM     82  C   UNL A   1      43.663  28.604  35.400  1.00  0.00     0.064 A 
ATOM     83  C   UNL A   1      43.338  27.580  36.301  1.00  0.00     0.173 A 
ATOM     84  C   UNL A   1      45.020  28.894  35.193  1.00  0.00     0.173 A 
ATOM     85  F   UNL A   1      42.054  27.278  36.546  1.00  0.00    -0.203 F 
ATOM     86  C   UNL A   1      44.333  26.883  36.980  1.00  0.00     0.198 A 
ATOM     87  C   UNL A   1      46.013  28.172  35.850  1.00  0.00     0.198 A 
ATOM     88  F   UNL A   1      45.384  29.861  34.339  1.00  0.00    -0.203 F 
ATOM     89  F   UNL A   1      43.999  25.935  37.866  1.00  0.00    -0.200 F 
ATOM     90  C   UNL A   1      45.669  27.172  36.746  1.00  0.00     0.200 A 
ATOM     91  F   UNL A   1      47.305  28.443  35.611  1.00  0.00    -0.200 F 
ATOM     92  F   UNL A   1      46.627  26.488  37.388  1.00  0.00    -0.200 F 
ENDBRANCH  59  82
ENDBRANCH  33  34
ENDBRANCH  25  28
ENDBRANCH  23  24
ENDBRANCH  22  23
ENDBRANCH   1  22
TORSDOF 14
ENDMDL
MODEL 3
REMARK VINA RESULT:     -11.7      1.341      2.629
REMARK SMILES CC(C)C[NH+]1CC[NH+]([C@H](C)[C@@H](C)C(=O)NCCCNC(=O)c2ccc(-c3c4nc(c(-c5c(F)c(F)c(F)c(F)c5F)c5ccc([nH]5)c(-c5c(F)c(F)c(F)c(F)c5F)c5nc(c(-c6c(F)c(F)c(F)c(F)c6F)c6ccc3[nH]6)C=C5)C=C4)cc2)CC1
REMARK SMILES IDX 16 1 15 2 13 3 14 4 11 6 12 7 9 8 10 9 8 10 5 11 6 12 86 13
REMARK SMILES IDX 7 15 85 16 4 18 2 19 1 20 3 21 17 22 18 23 19 24 20 25 21 27
REMARK SMILES IDX 22 28 23 29 84 30 24 31 83 32 25 33 26 34 27 35 77 36 28 37
REMARK SMILES IDX 82 38 76 39 78 40 29 41 81 42 75 43 74 44 30 46 62 47 42 48
REMARK SMILES IDX 61 49 43 50 46 51 60 52 79 53 44 54 45 55 59 57 80 58 47 59
REMARK SMILES IDX 31 60 32 61 40 62 33 63 34 64 38 65 41 66 35 67 36 68 39 69
REMARK SMILES IDX 37 70 63 71 64 72 72 73 65 74 66 75 70 76 73 77 67 78 68 79
REMARK SMILES IDX 71 80 69 81 48 82 49 83 57 84 50 85 51 86 55 87 58 88 52 89
REMARK SMILES IDX 53 90 56 91 54 92
REMARK H PARENT 15 5 5 14 8 17 19 26 78 45 46 56
REMARK Flexibility Score: inf
ROOT
ATOM      1  C   UNL A   1      31.645  30.679  26.377  1.00  0.00     0.117 C 
ENDROOT
BRANCH   1   2
ATOM      2  N   UNL A   1      32.894  30.157  26.897  1.00  0.00    -0.356 N 
ATOM      3  C   UNL A   1      33.454  28.918  26.831  1.00  0.00     0.228 C 
ATOM      4  O   UNL A   1      34.569  28.779  27.346  1.00  0.00    -0.275 OA
ATOM      5  H   UNL A   1      33.434  30.817  27.389  1.00  0.00     0.163 HD
BRANCH   3   6
ATOM      6  C   UNL A   1      32.786  27.753  26.105  1.00  0.00     0.133 C 
ATOM      7  C   UNL A   1      32.159  26.793  27.124  1.00  0.00     0.024 C 
BRANCH   6   8
ATOM      8  C   UNL A   1      33.709  27.110  25.031  1.00  0.00     0.193 C 
ATOM      9  C   UNL A   1      34.046  25.638  25.358  1.00  0.00     0.076 C 
BRANCH   8  10
ATOM     10  N   UNL A   1      33.165  27.302  23.662  1.00  0.00    -0.323 N 
ATOM     11  N   UNL A   1      30.824  28.191  22.004  1.00  0.00    -0.325 N 
ATOM     12  C   UNL A   1      32.080  28.959  22.050  1.00  0.00     0.324 C 
ATOM     13  C   UNL A   1      31.210  26.763  22.095  1.00  0.00     0.324 C 
ATOM     14  H   UNL A   1      30.344  28.435  21.137  1.00  0.00     0.348 HD
ATOM     15  C   UNL A   1      32.944  28.716  23.303  1.00  0.00     0.324 C 
ATOM     16  C   UNL A   1      32.028  26.411  23.367  1.00  0.00     0.324 C 
ATOM     17  H   UNL A   1      33.903  27.003  23.024  1.00  0.00     0.348 HD
BRANCH  11  18
ATOM     18  C   UNL A   1      29.845  28.508  23.061  1.00  0.00     0.265 C 
BRANCH  18  19
ATOM     19  C   UNL A   1      28.662  29.442  22.737  1.00  0.00     0.038 C 
ATOM     20  C   UNL A   1      27.306  28.828  23.071  1.00  0.00     0.013 C 
ATOM     21  C   UNL A   1      28.850  30.756  23.509  1.00  0.00     0.013 C 
ENDBRANCH  18  19
ENDBRANCH  11  18
ENDBRANCH   8  10
ENDBRANCH   6   8
ENDBRANCH   3   6
ENDBRANCH   1   2
BRANCH   1  22
ATOM     22  C   UNL A   1      31.507  32.181  26.587  1.00  0.00     0.042 C 
BRANCH  22  23
ATOM     23  C   UNL A   1      32.615  32.790  27.438  1.00  0.00     0.118 C 
BRANCH  23  24
ATOM     24  N   UNL A   1      32.390  34.203  27.714  1.00  0.00    -0.352 N 
ATOM     25  C   UNL A   1      32.971  35.034  28.637  1.00  0.00     0.251 C 
ATOM     26  H   UNL A   1      31.710  34.630  27.145  1.00  0.00     0.163 HD
ATOM     27  O   UNL A   1      32.474  36.137  28.862  1.00  0.00    -0.269 OA
BRANCH  25  28
ATOM     28  C   UNL A   1      34.172  34.607  29.383  1.00  0.00     0.039 A 
ATOM     29  C   UNL A   1      34.025  34.143  30.693  1.00  0.00     0.014 A 
ATOM     30  C   UNL A   1      35.441  34.668  28.802  1.00  0.00     0.014 A 
ATOM     31  C   UNL A   1      35.135  33.653  31.384  1.00  0.00     0.010 A 
ATOM     32  C   UNL A   1      36.532  34.106  29.460  1.00  0.00     0.010 A 
ATOM     33  C   UNL A   1      36.386  33.577  30.751  1.00  0.00    -0.014 A 
BRANCH  33  34
ATOM     34  C   UNL A   1      37.537  32.896  31.394  1.00  0.00     0.031 A 
ATOM     35  C   UNL A   1      38.175  31.700  30.746  1.00  0.00     0.074 A 
ATOM     36  C   UNL A   1      37.943  33.303  32.613  1.00  0.00     0.049 A 
ATOM     37  N   UNL A   1      39.114  30.911  31.208  1.00  0.00    -0.248 NA
ATOM     38  C   UNL A   1      37.677  31.325  29.413  1.00  0.00     0.031 C 
ATOM     39  C   UNL A   1      37.371  34.423  33.362  1.00  0.00     0.029 A 
ATOM     40  N   UNL A   1      38.916  32.809  33.447  1.00  0.00    -0.354 N 
ATOM     41  C   UNL A   1      39.309  29.944  30.231  1.00  0.00     0.074 A 
ATOM     42  C   UNL A   1      38.361  30.215  29.171  1.00  0.00     0.031 C 
ATOM     43  C   UNL A   1      38.010  34.540  34.536  1.00  0.00     0.029 A 
ATOM     44  C   UNL A   1      38.997  33.471  34.648  1.00  0.00     0.049 A 
ATOM     45  H   UNL A   1      39.498  32.052  33.208  1.00  0.00     0.167 HD
ATOM     46  C   UNL A   1      40.209  28.933  30.218  1.00  0.00     0.037 A 
ATOM     47  C   UNL A   1      39.764  33.231  35.730  1.00  0.00     0.037 A 
ATOM     48  C   UNL A   1      41.159  28.680  31.269  1.00  0.00     0.049 A 
ATOM     49  C   UNL A   1      40.727  32.076  35.702  1.00  0.00     0.074 A 
ATOM     50  C   UNL A   1      42.165  27.731  31.313  1.00  0.00     0.029 A 
ATOM     51  N   UNL A   1      41.211  29.372  32.472  1.00  0.00    -0.354 N 
ATOM     52  N   UNL A   1      40.964  31.221  34.738  1.00  0.00    -0.248 NA
ATOM     53  C   UNL A   1      41.526  31.849  36.915  1.00  0.00     0.031 C 
ATOM     54  C   UNL A   1      42.782  27.803  32.565  1.00  0.00     0.029 A 
ATOM     55  C   UNL A   1      42.201  28.838  33.281  1.00  0.00     0.049 A 
ATOM     56  H   UNL A   1      40.630  30.129  32.714  1.00  0.00     0.167 HD
ATOM     57  C   UNL A   1      41.946  30.367  35.217  1.00  0.00     0.074 A 
ATOM     58  C   UNL A   1      42.280  30.821  36.551  1.00  0.00     0.031 C 
ATOM     59  C   UNL A   1      42.517  29.298  34.611  1.00  0.00     0.037 A 
BRANCH  46  60
ATOM     60  C   UNL A   1      40.213  28.014  29.029  1.00  0.00     0.064 A 
ATOM     61  C   UNL A   1      40.947  28.310  27.870  1.00  0.00     0.173 A 
ATOM     62  C   UNL A   1      39.521  26.794  29.072  1.00  0.00     0.173 A 
ATOM     63  F   UNL A   1      41.621  29.465  27.774  1.00  0.00    -0.203 F 
ATOM     64  C   UNL A   1      40.965  27.432  26.789  1.00  0.00     0.198 A 
ATOM     65  C   UNL A   1      39.566  25.905  28.001  1.00  0.00     0.198 A 
ATOM     66  F   UNL A   1      38.809  26.458  30.159  1.00  0.00    -0.203 F 
ATOM     67  F   UNL A   1      41.636  27.756  25.675  1.00  0.00    -0.200 F 
ATOM     68  C   UNL A   1      40.282  26.227  26.859  1.00  0.00     0.200 A 
ATOM     69  F   UNL A   1      38.919  24.733  28.078  1.00  0.00    -0.200 F 
ATOM     70  F   UNL A   1      40.311  25.377  25.823  1.00  0.00    -0.200 F 
ENDBRANCH  46  60
BRANCH  47  71
ATOM     71  C   UNL A   1      39.640  34.095  36.935  1.00  0.00     0.064 A 
ATOM     72  C   UNL A   1      38.845  33.707  38.022  1.00  0.00     0.173 A 
ATOM     73  C   UNL A   1      40.309  35.325  37.023  1.00  0.00     0.173 A 
ATOM     74  F   UNL A   1      38.170  32.549  37.977  1.00  0.00    -0.203 F 
ATOM     75  C   UNL A   1      38.707  34.525  39.141  1.00  0.00     0.198 A 
ATOM     76  C   UNL A   1      40.196  36.127  38.156  1.00  0.00     0.198 A 
ATOM     77  F   UNL A   1      41.087  35.742  36.013  1.00  0.00    -0.203 F 
ATOM     78  F   UNL A   1      37.902  34.152  40.146  1.00  0.00    -0.200 F 
ATOM     79  C   UNL A   1      39.388  35.731  39.210  1.00  0.00     0.200 A 
ATOM     80  F   UNL A   1      40.871  37.283  38.226  1.00  0.00    -0.200 F 
ATOM     81  F   UNL A   1      39.261  36.514  40.290  1.00  0.00    -0.200 F 
ENDBRANCH  47  71
BRANCH  59  82
ATOM     82  C   UNL A   1      43.566  28.545  35.378  1.00  0.00     0.064 A 
ATOM     83  C   UNL A   1      44.924  28.882  35.282  1.00  0.00     0.173 A 
ATOM     84  C   UNL A   1      43.204  27.517  36.261  1.00  0.00     0.173 A 
ATOM     85  F   UNL A   1      45.323  29.845  34.437  1.00  0.00    -0.203 F 
ATOM     86  C   UNL A   1      45.883  28.205  36.030  1.00  0.00     0.198 A 
ATOM     87  C   UNL A   1      44.162  26.865  37.032  1.00  0.00     0.198 A 
ATOM     88  F   UNL A   1      41.918  27.159  36.392  1.00  0.00    -0.203 F 
ATOM     89  F   UNL A   1      47.179  28.517  35.894  1.00  0.00    -0.200 F 
ATOM     90  C   UNL A   1      45.500  27.206  36.913  1.00  0.00     0.200 A 
ATOM     91  F   UNL A   1      43.788  25.909  37.895  1.00  0.00    -0.200 F 
ATOM     92  F   UNL A   1      46.423  26.567  37.646  1.00  0.00    -0.200 F 
ENDBRANCH  59  82
ENDBRANCH  33  34
ENDBRANCH  25  28
ENDBRANCH  23  24
ENDBRANCH  22  23
ENDBRANCH   1  22
TORSDOF 14
ENDMDL
