MODEL 1
REMARK VINA RESULT:     -12.0      0.000      0.000
REMARK SMILES C[C@H](O)[C@H](C)[N@H+]1Cc2ccccc2C[C@@H]1C(=O)NCCCNC(=O)c1ccc(-c2c3nc(c(-c4c(F)c(F)c(F)c(F)c4F)c4ccc([nH]4)c(-c4c(F)c(F)c(F)c(F)c4F)c4nc(c(-c5c(F)c(F)c(F)c(F)c5F)c5ccc2[nH]5)C=C4)C=C3)cc1
REMARK SMILES IDX 19 1 18 2 16 3 17 4 15 6 6 7 7 8 8 10 14 11 9 12 13 13 10 14
REMARK SMILES IDX 12 15 11 16 4 17 5 18 2 19 1 20 3 21 20 23 21 24 22 25 23 26
REMARK SMILES IDX 24 28 25 29 26 30 87 31 27 32 86 33 28 34 29 35 30 36 80 37
REMARK SMILES IDX 31 38 85 39 79 40 81 41 32 42 84 43 78 44 77 45 33 47 65 48
REMARK SMILES IDX 45 49 64 50 46 51 49 52 63 53 82 54 47 55 48 56 62 58 83 59
REMARK SMILES IDX 50 60 34 61 35 62 43 63 36 64 37 65 41 66 44 67 38 68 39 69
REMARK SMILES IDX 42 70 40 71 66 72 67 73 75 74 68 75 69 76 73 77 76 78 70 79
REMARK SMILES IDX 71 80 74 81 72 82 51 83 52 84 60 85 53 86 54 87 58 88 61 89
REMARK SMILES IDX 55 90 56 91 59 92 57 93
REMARK H PARENT 18 5 6 9 3 22 22 27 81 46 49 57
REMARK Flexibility Score: inf
ROOT
ATOM      1  C   UNL A   1      33.086  27.956  24.871  1.00  0.00     0.118 C 
ENDROOT
BRANCH   1   2
ATOM      2  N   UNL A   1      33.582  27.437  23.623  1.00  0.00    -0.351 N 
ATOM      3  C   UNL A   1      33.446  26.195  23.083  1.00  0.00     0.278 C 
ATOM      4  O   UNL A   1      33.908  26.075  21.940  1.00  0.00    -0.268 OA
ATOM      5  H   UNL A   1      34.098  28.076  23.079  1.00  0.00     0.163 HD
BRANCH   3   6
ATOM      6  C   UNL A   1      32.631  25.041  23.764  1.00  0.00     0.279 C 
ATOM      7  N   UNL A   1      32.512  25.195  25.246  1.00  0.00    -0.316 N 
ATOM      8  C   UNL A   1      33.539  24.478  26.037  1.00  0.00     0.300 C 
ATOM      9  H   UNL A   1      32.739  26.176  25.408  1.00  0.00     0.349 HD
ATOM     10  C   UNL A   1      34.768  24.026  25.273  1.00  0.00     0.010 A 
ATOM     11  C   UNL A   1      33.261  23.700  23.327  1.00  0.00     0.111 C 
ATOM     12  C   UNL A   1      36.023  23.947  25.888  1.00  0.00     0.010 A 
ATOM     13  C   UNL A   1      34.626  23.579  23.951  1.00  0.00    -0.033 A 
ATOM     14  C   UNL A   1      37.126  23.469  25.177  1.00  0.00     0.001 A 
ATOM     15  C   UNL A   1      35.730  23.098  23.241  1.00  0.00     0.004 A 
ATOM     16  C   UNL A   1      36.981  23.051  23.855  1.00  0.00     0.000 A 
BRANCH   7  17
ATOM     17  C   UNL A   1      31.118  25.034  25.760  1.00  0.00     0.210 C 
ATOM     18  C   UNL A   1      30.011  25.265  24.713  1.00  0.00     0.078 C 
BRANCH  17  19
ATOM     19  C   UNL A   1      30.795  23.691  26.529  1.00  0.00     0.169 C 
ATOM     20  C   UNL A   1      30.799  22.446  25.633  1.00  0.00     0.045 C 
BRANCH  19  21
ATOM     21  O   UNL A   1      29.561  23.759  27.245  1.00  0.00    -0.387 OA
ATOM     22  H   UNL A   1      28.844  23.421  26.687  1.00  0.00     0.211 HD
ENDBRANCH  19  21
ENDBRANCH  17  19
ENDBRANCH   7  17
ENDBRANCH   3   6
ENDBRANCH   1   2
BRANCH   1  23
ATOM     23  C   UNL A   1      34.210  28.224  25.865  1.00  0.00     0.042 C 
BRANCH  23  24
ATOM     24  C   UNL A   1      33.684  28.538  27.259  1.00  0.00     0.118 C 
BRANCH  24  25
ATOM     25  N   UNL A   1      33.708  29.975  27.536  1.00  0.00    -0.352 N 
ATOM     26  C   UNL A   1      34.643  30.731  28.192  1.00  0.00     0.251 C 
ATOM     27  H   UNL A   1      32.931  30.476  27.198  1.00  0.00     0.163 HD
ATOM     28  O   UNL A   1      34.368  31.874  28.556  1.00  0.00    -0.269 OA
BRANCH  26  29
ATOM     29  C   UNL A   1      35.979  30.171  28.471  1.00  0.00     0.039 A 
ATOM     30  C   UNL A   1      36.977  30.252  27.495  1.00  0.00     0.014 A 
ATOM     31  C   UNL A   1      36.242  29.557  29.696  1.00  0.00     0.014 A 
ATOM     32  C   UNL A   1      38.261  29.786  27.783  1.00  0.00     0.010 A 
ATOM     33  C   UNL A   1      37.539  29.184  30.015  1.00  0.00     0.010 A 
ATOM     34  C   UNL A   1      38.562  29.290  29.061  1.00  0.00    -0.014 A 
BRANCH  34  35
ATOM     35  C   UNL A   1      39.931  28.863  29.440  1.00  0.00     0.031 A 
ATOM     36  C   UNL A   1      40.807  29.792  30.230  1.00  0.00     0.074 A 
ATOM     37  C   UNL A   1      40.417  27.695  28.980  1.00  0.00     0.049 A 
ATOM     38  N   UNL A   1      42.079  29.691  30.519  1.00  0.00    -0.248 NA
ATOM     39  C   UNL A   1      40.175  31.024  30.730  1.00  0.00     0.031 C 
ATOM     40  C   UNL A   1      39.676  26.729  28.166  1.00  0.00     0.029 A 
ATOM     41  N   UNL A   1      41.663  27.133  29.109  1.00  0.00    -0.354 N 
ATOM     42  C   UNL A   1      42.401  30.850  31.211  1.00  0.00     0.074 A 
ATOM     43  C   UNL A   1      41.210  31.669  31.245  1.00  0.00     0.031 C 
ATOM     44  C   UNL A   1      40.476  25.691  27.878  1.00  0.00     0.029 A 
ATOM     45  C   UNL A   1      41.798  25.940  28.441  1.00  0.00     0.049 A 
ATOM     46  H   UNL A   1      42.388  27.544  29.630  1.00  0.00     0.167 HD
ATOM     47  C   UNL A   1      43.578  31.189  31.788  1.00  0.00     0.037 A 
ATOM     48  C   UNL A   1      42.877  25.150  28.281  1.00  0.00     0.037 A 
ATOM     49  C   UNL A   1      44.753  30.359  31.764  1.00  0.00     0.049 A 
ATOM     50  C   UNL A   1      44.180  25.557  28.915  1.00  0.00     0.074 A 
ATOM     51  C   UNL A   1      45.984  30.584  32.355  1.00  0.00     0.029 A 
ATOM     52  N   UNL A   1      44.843  29.139  31.105  1.00  0.00    -0.354 N 
ATOM     53  N   UNL A   1      44.462  26.628  29.616  1.00  0.00    -0.248 NA
ATOM     54  C   UNL A   1      45.315  24.641  28.740  1.00  0.00     0.031 C 
ATOM     55  C   UNL A   1      46.833  29.528  32.010  1.00  0.00     0.029 A 
ATOM     56  C   UNL A   1      46.115  28.611  31.260  1.00  0.00     0.049 A 
ATOM     57  H   UNL A   1      44.111  28.714  30.603  1.00  0.00     0.167 HD
ATOM     58  C   UNL A   1      45.791  26.500  29.996  1.00  0.00     0.074 A 
ATOM     59  C   UNL A   1      46.257  25.240  29.455  1.00  0.00     0.031 C 
ATOM     60  C   UNL A   1      46.556  27.347  30.726  1.00  0.00     0.037 A 
BRANCH  47  61
ATOM     61  C   UNL A   1      43.649  32.514  32.494  1.00  0.00     0.064 A 
ATOM     62  C   UNL A   1      44.037  33.686  31.825  1.00  0.00     0.173 A 
ATOM     63  C   UNL A   1      43.307  32.620  33.850  1.00  0.00     0.173 A 
ATOM     64  F   UNL A   1      44.386  33.641  30.530  1.00  0.00    -0.203 F 
ATOM     65  C   UNL A   1      44.115  34.904  32.496  1.00  0.00     0.198 A 
ATOM     66  C   UNL A   1      43.352  33.846  34.509  1.00  0.00     0.198 A 
ATOM     67  F   UNL A   1      42.924  31.535  34.539  1.00  0.00    -0.203 F 
ATOM     68  F   UNL A   1      44.548  35.995  31.850  1.00  0.00    -0.200 F 
ATOM     69  C   UNL A   1      43.766  34.985  33.835  1.00  0.00     0.200 A 
ATOM     70  F   UNL A   1      42.998  33.925  35.799  1.00  0.00    -0.200 F 
ATOM     71  F   UNL A   1      43.837  36.158  34.478  1.00  0.00    -0.200 F 
ENDBRANCH  47  61
BRANCH  48  72
ATOM     72  C   UNL A   1      42.765  23.890  27.499  1.00  0.00     0.064 A 
ATOM     73  C   UNL A   1      42.379  22.692  28.116  1.00  0.00     0.173 A 
ATOM     74  C   UNL A   1      43.042  23.854  26.125  1.00  0.00     0.173 A 
ATOM     75  F   UNL A   1      42.121  22.670  29.432  1.00  0.00    -0.203 F 
ATOM     76  C   UNL A   1      42.297  21.503  27.395  1.00  0.00     0.198 A 
ATOM     77  C   UNL A   1      42.929  22.671  25.396  1.00  0.00     0.198 A 
ATOM     78  F   UNL A   1      43.408  24.974  25.483  1.00  0.00    -0.203 F 
ATOM     79  F   UNL A   1      41.974  20.363  28.020  1.00  0.00    -0.200 F 
ATOM     80  C   UNL A   1      42.565  21.494  26.034  1.00  0.00     0.200 A 
ATOM     81  F   UNL A   1      43.171  22.672  24.079  1.00  0.00    -0.200 F 
ATOM     82  F   UNL A   1      42.481  20.352  25.339  1.00  0.00    -0.200 F 
ENDBRANCH  48  72
BRANCH  60  83
ATOM     83  C   UNL A   1      47.963  26.918  31.033  1.00  0.00     0.064 A 
ATOM     84  C   UNL A   1      48.265  26.094  32.127  1.00  0.00     0.173 A 
ATOM     85  C   UNL A   1      49.017  27.303  30.190  1.00  0.00     0.173 A 
ATOM     86  F   UNL A   1      47.296  25.710  32.972  1.00  0.00    -0.203 F 
ATOM     87  C   UNL A   1      49.575  25.692  32.378  1.00  0.00     0.198 A 
ATOM     88  C   UNL A   1      50.318  26.870  30.425  1.00  0.00     0.198 A 
ATOM     89  F   UNL A   1      48.781  28.084  29.125  1.00  0.00    -0.203 F 
ATOM     90  F   UNL A   1      49.849  24.947  33.459  1.00  0.00    -0.200 F 
ATOM     91  C   UNL A   1      50.598  26.072  31.523  1.00  0.00     0.200 A 
ATOM     92  F   UNL A   1      51.302  27.225  29.586  1.00  0.00    -0.200 F 
ATOM     93  F   UNL A   1      51.855  25.675  31.761  1.00  0.00    -0.200 F 
ENDBRANCH  60  83
ENDBRANCH  34  35
ENDBRANCH  26  29
ENDBRANCH  24  25
ENDBRANCH  23  24
ENDBRANCH   1  23
TORSDOF 13
ENDMDL
MODEL 2
REMARK VINA RESULT:     -12.0      3.846      9.003
REMARK SMILES C[C@H](O)[C@H](C)[N@H+]1Cc2ccccc2C[C@@H]1C(=O)NCCCNC(=O)c1ccc(-c2c3nc(c(-c4c(F)c(F)c(F)c(F)c4F)c4ccc([nH]4)c(-c4c(F)c(F)c(F)c(F)c4F)c4nc(c(-c5c(F)c(F)c(F)c(F)c5F)c5ccc2[nH]5)C=C4)C=C3)cc1
REMARK SMILES IDX 19 1 18 2 16 3 17 4 15 6 6 7 7 8 8 10 14 11 9 12 13 13 10 14
REMARK SMILES IDX 12 15 11 16 4 17 5 18 2 19 1 20 3 21 20 23 21 24 22 25 23 26
REMARK SMILES IDX 24 28 25 29 26 30 87 31 27 32 86 33 28 34 29 35 30 36 80 37
REMARK SMILES IDX 31 38 85 39 79 40 81 41 32 42 84 43 78 44 77 45 33 47 65 48
REMARK SMILES IDX 45 49 64 50 46 51 49 52 63 53 82 54 47 55 48 56 62 58 83 59
REMARK SMILES IDX 50 60 34 61 35 62 43 63 36 64 37 65 41 66 44 67 38 68 39 69
REMARK SMILES IDX 42 70 40 71 66 72 67 73 75 74 68 75 69 76 73 77 76 78 70 79
REMARK SMILES IDX 71 80 74 81 72 82 51 83 52 84 60 85 53 86 54 87 58 88 61 89
REMARK SMILES IDX 55 90 56 91 59 92 57 93
REMARK H PARENT 18 5 6 9 3 22 22 27 81 46 49 57
REMARK Flexibility Score: inf
ROOT
ATOM      1  C   UNL A   1      31.434  30.668  26.674  1.00  0.00     0.118 C 
ENDROOT
BRANCH   1   2
ATOM      2  N   UNL A   1      32.737  30.064  26.767  1.00  0.00    -0.351 N 
ATOM      3  C   UNL A   1      33.394  29.274  25.875  1.00  0.00     0.278 C 
ATOM      4  O   UNL A   1      34.554  28.981  26.199  1.00  0.00    -0.268 OA
ATOM      5  H   UNL A   1      33.227  30.249  27.602  1.00  0.00     0.163 HD
BRANCH   3   6
ATOM      6  C   UNL A   1      32.814  28.889  24.469  1.00  0.00     0.279 C 
ATOM      7  N   UNL A   1      31.326  28.738  24.464  1.00  0.00    -0.316 N 
ATOM      8  C   UNL A   1      30.834  27.356  24.670  1.00  0.00     0.300 C 
ATOM      9  H   UNL A   1      31.030  29.218  25.314  1.00  0.00     0.349 HD
ATOM     10  C   UNL A   1      31.838  26.372  25.237  1.00  0.00     0.010 A 
ATOM     11  C   UNL A   1      33.567  27.633  23.978  1.00  0.00     0.111 C 
ATOM     12  C   UNL A   1      31.439  25.311  26.058  1.00  0.00     0.010 A 
ATOM     13  C   UNL A   1      33.182  26.466  24.847  1.00  0.00    -0.033 A 
ATOM     14  C   UNL A   1      32.377  24.383  26.515  1.00  0.00     0.001 A 
ATOM     15  C   UNL A   1      34.121  25.535  25.303  1.00  0.00     0.004 A 
ATOM     16  C   UNL A   1      33.716  24.499  26.144  1.00  0.00     0.000 A 
BRANCH   7  17
ATOM     17  C   UNL A   1      30.649  29.473  23.353  1.00  0.00     0.210 C 
ATOM     18  C   UNL A   1      30.330  28.617  22.111  1.00  0.00     0.078 C 
BRANCH  17  19
ATOM     19  C   UNL A   1      29.352  30.293  23.731  1.00  0.00     0.169 C 
ATOM     20  C   UNL A   1      28.110  29.898  22.922  1.00  0.00     0.045 C 
BRANCH  19  21
ATOM     21  O   UNL A   1      29.555  31.704  23.633  1.00  0.00    -0.387 OA
ATOM     22  H   UNL A   1      29.787  32.059  24.505  1.00  0.00     0.211 HD
ENDBRANCH  19  21
ENDBRANCH  17  19
ENDBRANCH   7  17
ENDBRANCH   3   6
ENDBRANCH   1   2
BRANCH   1  23
ATOM     23  C   UNL A   1      31.515  32.184  26.547  1.00  0.00     0.042 C 
BRANCH  23  24
ATOM     24  C   UNL A   1      32.676  32.768  27.339  1.00  0.00     0.118 C 
BRANCH  24  25
ATOM     25  N   UNL A   1      32.468  34.185  27.642  1.00  0.00    -0.352 N 
ATOM     26  C   UNL A   1      33.018  34.968  28.622  1.00  0.00     0.251 C 
ATOM     27  H   UNL A   1      31.832  34.647  27.048  1.00  0.00     0.163 HD
ATOM     28  O   UNL A   1      32.527  36.065  28.884  1.00  0.00    -0.269 OA
BRANCH  26  29
ATOM     29  C   UNL A   1      34.196  34.491  29.370  1.00  0.00     0.039 A 
ATOM     30  C   UNL A   1      34.021  33.896  30.623  1.00  0.00     0.014 A 
ATOM     31  C   UNL A   1      35.477  34.640  28.836  1.00  0.00     0.014 A 
ATOM     32  C   UNL A   1      35.127  33.381  31.303  1.00  0.00     0.010 A 
ATOM     33  C   UNL A   1      36.559  34.043  29.464  1.00  0.00     0.010 A 
ATOM     34  C   UNL A   1      36.397  33.411  30.707  1.00  0.00    -0.014 A 
BRANCH  34  35
ATOM     35  C   UNL A   1      37.586  32.800  31.351  1.00  0.00     0.031 A 
ATOM     36  C   UNL A   1      38.282  31.647  30.686  1.00  0.00     0.074 A 
ATOM     37  C   UNL A   1      37.964  33.209  32.577  1.00  0.00     0.049 A 
ATOM     38  N   UNL A   1      39.223  30.865  31.149  1.00  0.00    -0.248 NA
ATOM     39  C   UNL A   1      37.828  31.302  29.328  1.00  0.00     0.031 C 
ATOM     40  C   UNL A   1      37.338  34.289  33.341  1.00  0.00     0.029 A 
ATOM     41  N   UNL A   1      38.953  32.745  33.407  1.00  0.00    -0.354 N 
ATOM     42  C   UNL A   1      39.457  29.928  30.153  1.00  0.00     0.074 A 
ATOM     43  C   UNL A   1      38.517  30.197  29.087  1.00  0.00     0.031 C 
ATOM     44  C   UNL A   1      37.963  34.411  34.523  1.00  0.00     0.029 A 
ATOM     45  C   UNL A   1      38.997  33.388  34.621  1.00  0.00     0.049 A 
ATOM     46  H   UNL A   1      39.571  32.021  33.158  1.00  0.00     0.167 HD
ATOM     47  C   UNL A   1      40.388  28.945  30.120  1.00  0.00     0.037 A 
ATOM     48  C   UNL A   1      39.771  33.159  35.699  1.00  0.00     0.037 A 
ATOM     49  C   UNL A   1      41.330  28.696  31.179  1.00  0.00     0.049 A 
ATOM     50  C   UNL A   1      40.785  32.049  35.647  1.00  0.00     0.074 A 
ATOM     51  C   UNL A   1      42.345  27.757  31.230  1.00  0.00     0.029 A 
ATOM     52  N   UNL A   1      41.366  29.391  32.381  1.00  0.00    -0.354 N 
ATOM     53  N   UNL A   1      41.039  31.202  34.679  1.00  0.00    -0.248 NA
ATOM     54  C   UNL A   1      41.628  31.866  36.837  1.00  0.00     0.031 C 
ATOM     55  C   UNL A   1      42.962  27.849  32.482  1.00  0.00     0.029 A 
ATOM     56  C   UNL A   1      42.376  28.889  33.187  1.00  0.00     0.049 A 
ATOM     57  H   UNL A   1      40.765  30.131  32.624  1.00  0.00     0.167 HD
ATOM     58  C   UNL A   1      42.089  30.411  35.126  1.00  0.00     0.074 A 
ATOM     59  C   UNL A   1      42.433  30.888  36.449  1.00  0.00     0.031 C 
ATOM     60  C   UNL A   1      42.713  29.386  34.497  1.00  0.00     0.037 A 
BRANCH  47  61
ATOM     61  C   UNL A   1      40.431  28.070  28.899  1.00  0.00     0.064 A 
ATOM     62  C   UNL A   1      41.186  28.419  27.768  1.00  0.00     0.173 A 
ATOM     63  C   UNL A   1      39.726  26.858  28.864  1.00  0.00     0.173 A 
ATOM     64  F   UNL A   1      41.871  29.572  27.742  1.00  0.00    -0.203 F 
ATOM     65  C   UNL A   1      41.202  27.607  26.636  1.00  0.00     0.198 A 
ATOM     66  C   UNL A   1      39.773  26.031  27.744  1.00  0.00     0.198 A 
ATOM     67  F   UNL A   1      38.992  26.470  29.918  1.00  0.00    -0.203 F 
ATOM     68  F   UNL A   1      41.881  27.994  25.547  1.00  0.00    -0.200 F 
ATOM     69  C   UNL A   1      40.503  26.411  26.628  1.00  0.00     0.200 A 
ATOM     70  F   UNL A   1      39.109  24.867  27.744  1.00  0.00    -0.200 F 
ATOM     71  F   UNL A   1      40.524  25.628  25.541  1.00  0.00    -0.200 F 
ENDBRANCH  47  61
BRANCH  48  72
ATOM     72  C   UNL A   1      39.623  34.007  36.912  1.00  0.00     0.064 A 
ATOM     73  C   UNL A   1      38.831  33.587  37.990  1.00  0.00     0.173 A 
ATOM     74  C   UNL A   1      40.264  35.249  37.020  1.00  0.00     0.173 A 
ATOM     75  F   UNL A   1      38.182  32.415  37.928  1.00  0.00    -0.203 F 
ATOM     76  C   UNL A   1      38.668  34.387  39.119  1.00  0.00     0.198 A 
ATOM     77  C   UNL A   1      40.127  36.035  38.163  1.00  0.00     0.198 A 
ATOM     78  F   UNL A   1      41.040  35.694  36.021  1.00  0.00    -0.203 F 
ATOM     79  F   UNL A   1      37.865  33.984  40.113  1.00  0.00    -0.200 F 
ATOM     80  C   UNL A   1      39.321  35.608  39.208  1.00  0.00     0.200 A 
ATOM     81  F   UNL A   1      40.773  37.204  38.252  1.00  0.00    -0.200 F 
ATOM     82  F   UNL A   1      39.168  36.375  40.296  1.00  0.00    -0.200 F 
ENDBRANCH  48  72
BRANCH  60  83
ATOM     83  C   UNL A   1      43.869  28.740  35.207  1.00  0.00     0.064 A 
ATOM     84  C   UNL A   1      45.185  29.197  35.048  1.00  0.00     0.173 A 
ATOM     85  C   UNL A   1      43.645  27.677  36.096  1.00  0.00     0.173 A 
ATOM     86  F   UNL A   1      45.455  30.200  34.200  1.00  0.00    -0.203 F 
ATOM     87  C   UNL A   1      46.237  28.595  35.734  1.00  0.00     0.198 A 
ATOM     88  C   UNL A   1      44.694  27.102  36.805  1.00  0.00     0.198 A 
ATOM     89  F   UNL A   1      42.403  27.207  36.289  1.00  0.00    -0.203 F 
ATOM     90  F   UNL A   1      47.494  29.014  35.529  1.00  0.00    -0.200 F 
ATOM     91  C   UNL A   1      45.991  27.556  36.619  1.00  0.00     0.200 A 
ATOM     92  F   UNL A   1      44.450  26.109  37.672  1.00  0.00    -0.200 F 
ATOM     93  F   UNL A   1      47.004  26.987  37.286  1.00  0.00    -0.200 F 
ENDBRANCH  60  83
ENDBRANCH  34  35
ENDBRANCH  26  29
ENDBRANCH  24  25
ENDBRANCH  23  24
ENDBRANCH   1  23
TORSDOF 13
ENDMDL
MODEL 3
REMARK VINA RESULT:     -12.0      2.925      7.743
REMARK SMILES C[C@H](O)[C@H](C)[N@H+]1Cc2ccccc2C[C@@H]1C(=O)NCCCNC(=O)c1ccc(-c2c3nc(c(-c4c(F)c(F)c(F)c(F)c4F)c4ccc([nH]4)c(-c4c(F)c(F)c(F)c(F)c4F)c4nc(c(-c5c(F)c(F)c(F)c(F)c5F)c5ccc2[nH]5)C=C4)C=C3)cc1
REMARK SMILES IDX 19 1 18 2 16 3 17 4 15 6 6 7 7 8 8 10 14 11 9 12 13 13 10 14
REMARK SMILES IDX 12 15 11 16 4 17 5 18 2 19 1 20 3 21 20 23 21 24 22 25 23 26
REMARK SMILES IDX 24 28 25 29 26 30 87 31 27 32 86 33 28 34 29 35 30 36 80 37
REMARK SMILES IDX 31 38 85 39 79 40 81 41 32 42 84 43 78 44 77 45 33 47 65 48
REMARK SMILES IDX 45 49 64 50 46 51 49 52 63 53 82 54 47 55 48 56 62 58 83 59
REMARK SMILES IDX 50 60 34 61 35 62 43 63 36 64 37 65 41 66 44 67 38 68 39 69
REMARK SMILES IDX 42 70 40 71 66 72 67 73 75 74 68 75 69 76 73 77 76 78 70 79
REMARK SMILES IDX 71 80 74 81 72 82 51 83 52 84 60 85 53 86 54 87 58 88 61 89
REMARK SMILES IDX 55 90 56 91 59 92 57 93
REMARK H PARENT 18 5 6 9 3 22 22 27 81 46 49 57
REMARK Flexibility Score: inf
ROOT
ATOM      1  C   UNL A   1      32.548  28.018  23.097  1.00  0.00     0.118 C 
ENDROOT
BRANCH   1   2
ATOM      2  N   UNL A   1      33.022  27.180  22.027  1.00  0.00    -0.351 N 
ATOM      3  C   UNL A   1      32.812  25.854  21.805  1.00  0.00     0.278 C 
ATOM      4  O   UNL A   1      33.276  25.429  20.737  1.00  0.00    -0.268 OA
ATOM      5  H   UNL A   1      33.581  27.634  21.355  1.00  0.00     0.163 HD
BRANCH   3   6
ATOM      6  C   UNL A   1      31.920  24.952  22.728  1.00  0.00     0.279 C 
ATOM      7  N   UNL A   1      31.663  25.554  24.072  1.00  0.00    -0.316 N 
ATOM      8  C   UNL A   1      32.601  25.132  25.139  1.00  0.00     0.300 C 
ATOM      9  H   UNL A   1      31.888  26.541  23.945  1.00  0.00     0.349 HD
ATOM     10  C   UNL A   1      33.890  24.486  24.671  1.00  0.00     0.010 A 
ATOM     11  C   UNL A   1      32.570  23.553  22.787  1.00  0.00     0.111 C 
ATOM     12  C   UNL A   1      35.080  24.620  25.396  1.00  0.00     0.010 A 
ATOM     13  C   UNL A   1      33.867  23.652  23.544  1.00  0.00    -0.033 A 
ATOM     14  C   UNL A   1      36.238  23.964  24.975  1.00  0.00     0.001 A 
ATOM     15  C   UNL A   1      35.027  22.992  23.125  1.00  0.00     0.004 A 
ATOM     16  C   UNL A   1      36.213  23.156  23.839  1.00  0.00     0.000 A 
BRANCH   7  17
ATOM     17  C   UNL A   1      30.225  25.537  24.477  1.00  0.00     0.210 C 
ATOM     18  C   UNL A   1      29.955  25.966  25.933  1.00  0.00     0.078 C 
BRANCH  17  19
ATOM     19  C   UNL A   1      29.215  26.312  23.541  1.00  0.00     0.169 C 
ATOM     20  C   UNL A   1      29.444  27.829  23.502  1.00  0.00     0.045 C 
BRANCH  19  21
ATOM     21  O   UNL A   1      27.851  26.045  23.874  1.00  0.00    -0.387 OA
ATOM     22  H   UNL A   1      27.274  26.650  23.382  1.00  0.00     0.211 HD
ENDBRANCH  19  21
ENDBRANCH  17  19
ENDBRANCH   7  17
ENDBRANCH   3   6
ENDBRANCH   1   2
BRANCH   1  23
ATOM     23  C   UNL A   1      33.669  28.847  23.712  1.00  0.00     0.042 C 
BRANCH  23  24
ATOM     24  C   UNL A   1      33.619  28.846  25.233  1.00  0.00     0.118 C 
BRANCH  24  25
ATOM     25  N   UNL A   1      33.039  30.082  25.758  1.00  0.00    -0.352 N 
ATOM     26  C   UNL A   1      33.396  30.832  26.847  1.00  0.00     0.251 C 
ATOM     27  H   UNL A   1      32.271  30.429  25.248  1.00  0.00     0.163 HD
ATOM     28  O   UNL A   1      32.632  31.692  27.282  1.00  0.00    -0.269 OA
BRANCH  26  29
ATOM     29  C   UNL A   1      34.696  30.601  27.505  1.00  0.00     0.039 A 
ATOM     30  C   UNL A   1      35.604  31.658  27.626  1.00  0.00     0.014 A 
ATOM     31  C   UNL A   1      35.021  29.336  27.996  1.00  0.00     0.014 A 
ATOM     32  C   UNL A   1      36.804  31.460  28.310  1.00  0.00     0.010 A 
ATOM     33  C   UNL A   1      36.167  29.167  28.758  1.00  0.00     0.010 A 
ATOM     34  C   UNL A   1      37.073  30.225  28.920  1.00  0.00    -0.014 A 
BRANCH  34  35
ATOM     35  C   UNL A   1      38.295  29.994  29.729  1.00  0.00     0.031 A 
ATOM     36  C   UNL A   1      39.350  29.049  29.228  1.00  0.00     0.074 A 
ATOM     37  C   UNL A   1      38.399  30.544  30.953  1.00  0.00     0.049 A 
ATOM     38  N   UNL A   1      40.404  28.577  29.844  1.00  0.00    -0.248 NA
ATOM     39  C   UNL A   1      39.174  28.534  27.860  1.00  0.00     0.031 C 
ATOM     40  C   UNL A   1      37.418  31.442  31.565  1.00  0.00     0.029 A 
ATOM     41  N   UNL A   1      39.368  30.406  31.915  1.00  0.00    -0.354 N 
ATOM     42  C   UNL A   1      41.000  27.698  28.951  1.00  0.00     0.074 A 
ATOM     43  C   UNL A   1      40.158  27.652  27.776  1.00  0.00     0.031 C 
ATOM     44  C   UNL A   1      37.839  31.782  32.793  1.00  0.00     0.029 A 
ATOM     45  C   UNL A   1      39.091  31.089  33.075  1.00  0.00     0.049 A 
ATOM     46  H   UNL A   1      40.183  29.871  31.787  1.00  0.00     0.167 HD
ATOM     47  C   UNL A   1      42.157  27.009  29.090  1.00  0.00     0.037 A 
ATOM     48  C   UNL A   1      39.761  31.128  34.242  1.00  0.00     0.037 A 
ATOM     49  C   UNL A   1      42.996  27.075  30.257  1.00  0.00     0.049 A 
ATOM     50  C   UNL A   1      41.035  30.339  34.380  1.00  0.00     0.074 A 
ATOM     51  C   UNL A   1      44.212  26.455  30.484  1.00  0.00     0.029 A 
ATOM     52  N   UNL A   1      42.699  27.805  31.400  1.00  0.00    -0.354 N 
ATOM     53  N   UNL A   1      41.622  29.554  33.510  1.00  0.00    -0.248 NA
ATOM     54  C   UNL A   1      41.745  30.447  35.662  1.00  0.00     0.031 C 
ATOM     55  C   UNL A   1      44.625  26.768  31.783  1.00  0.00     0.029 A 
ATOM     56  C   UNL A   1      43.701  27.635  32.343  1.00  0.00     0.049 A 
ATOM     57  H   UNL A   1      41.896  28.361  31.523  1.00  0.00     0.167 HD
ATOM     58  C   UNL A   1      42.783  29.103  34.122  1.00  0.00     0.074 A 
ATOM     59  C   UNL A   1      42.824  29.712  35.435  1.00  0.00     0.031 C 
ATOM     60  C   UNL A   1      43.731  28.262  33.640  1.00  0.00     0.037 A 
BRANCH  47  61
ATOM     61  C   UNL A   1      42.581  26.128  27.949  1.00  0.00     0.064 A 
ATOM     62  C   UNL A   1      43.492  26.568  26.975  1.00  0.00     0.173 A 
ATOM     63  C   UNL A   1      42.087  24.819  27.835  1.00  0.00     0.173 A 
ATOM     64  F   UNL A   1      43.987  27.814  27.028  1.00  0.00    -0.203 F 
ATOM     65  C   UNL A   1      43.862  25.747  25.913  1.00  0.00     0.198 A 
ATOM     66  C   UNL A   1      42.488  23.988  26.792  1.00  0.00     0.198 A 
ATOM     67  F   UNL A   1      41.219  24.343  28.739  1.00  0.00    -0.203 F 
ATOM     68  F   UNL A   1      44.685  26.214  24.963  1.00  0.00    -0.200 F 
ATOM     69  C   UNL A   1      43.366  24.456  25.826  1.00  0.00     0.200 A 
ATOM     70  F   UNL A   1      42.020  22.735  26.719  1.00  0.00    -0.200 F 
ATOM     71  F   UNL A   1      43.727  23.665  24.807  1.00  0.00    -0.200 F 
ENDBRANCH  47  61
BRANCH  48  72
ATOM     72  C   UNL A   1      39.245  31.955  35.367  1.00  0.00     0.064 A 
ATOM     73  C   UNL A   1      38.458  31.383  36.376  1.00  0.00     0.173 A 
ATOM     74  C   UNL A   1      39.524  33.326  35.456  1.00  0.00     0.173 A 
ATOM     75  F   UNL A   1      38.148  30.080  36.326  1.00  0.00    -0.203 F 
ATOM     76  C   UNL A   1      37.950  32.156  37.418  1.00  0.00     0.198 A 
ATOM     77  C   UNL A   1      39.044  34.092  36.516  1.00  0.00     0.198 A 
ATOM     78  F   UNL A   1      40.280  33.920  34.521  1.00  0.00    -0.203 F 
ATOM     79  F   UNL A   1      37.159  31.594  38.342  1.00  0.00    -0.200 F 
ATOM     80  C   UNL A   1      38.249  33.509  37.492  1.00  0.00     0.200 A 
ATOM     81  F   UNL A   1      39.349  35.394  36.593  1.00  0.00    -0.200 F 
ATOM     82  F   UNL A   1      37.765  34.250  38.497  1.00  0.00    -0.200 F 
ENDBRANCH  48  72
BRANCH  60  83
ATOM     83  C   UNL A   1      44.923  27.991  34.513  1.00  0.00     0.064 A 
ATOM     84  C   UNL A   1      44.959  26.909  35.405  1.00  0.00     0.173 A 
ATOM     85  C   UNL A   1      46.064  28.804  34.421  1.00  0.00     0.173 A 
ATOM     86  F   UNL A   1      43.890  26.111  35.543  1.00  0.00    -0.203 F 
ATOM     87  C   UNL A   1      46.085  26.667  36.188  1.00  0.00     0.198 A 
ATOM     88  C   UNL A   1      47.199  28.537  35.179  1.00  0.00     0.198 A 
ATOM     89  F   UNL A   1      46.084  29.848  33.578  1.00  0.00    -0.203 F 
ATOM     90  F   UNL A   1      46.079  25.658  37.071  1.00  0.00    -0.200 F 
ATOM     91  C   UNL A   1      47.206  27.474  36.068  1.00  0.00     0.200 A 
ATOM     92  F   UNL A   1      48.287  29.309  35.048  1.00  0.00    -0.200 F 
ATOM     93  F   UNL A   1      48.292  27.231  36.815  1.00  0.00    -0.200 F 
ENDBRANCH  60  83
ENDBRANCH  34  35
ENDBRANCH  26  29
ENDBRANCH  24  25
ENDBRANCH  23  24
ENDBRANCH   1  23
TORSDOF 13
ENDMDL
