MODEL 1
REMARK VINA RESULT:     -11.8      0.000      0.000
REMARK SMILES CCC(CC)(NC(=O)N[C@@H](C)[C@@H]1CCCO1)C(=O)NCCCNC(=O)c1ccc(-c2c3nc(c(-c4c(F)c(F)c(F)c(F)c4F)c4ccc([nH]4)c(-c4c(F)c(F)c(F)c(F)c4F)c4nc(c(-c5c(F)c(F)c(F)c(F)c5F)c5ccc2[nH]5)C=C4)C=C3)cc1
REMARK SMILES IDX 20 1 19 2 17 3 18 4 3 6 2 7 1 8 4 9 5 10 6 11 7 12 8 14 9 15
REMARK SMILES IDX 10 17 11 18 12 19 13 20 16 21 14 22 15 23 21 24 22 25 23 26
REMARK SMILES IDX 24 27 25 29 26 30 27 31 88 32 28 33 87 34 29 35 30 36 31 37
REMARK SMILES IDX 81 38 32 39 86 40 80 41 82 42 33 43 85 44 79 45 78 46 34 48
REMARK SMILES IDX 66 49 46 50 65 51 47 52 50 53 64 54 83 55 48 56 49 57 63 59
REMARK SMILES IDX 84 60 51 61 35 62 36 63 44 64 37 65 38 66 42 67 45 68 39 69
REMARK SMILES IDX 40 70 43 71 41 72 67 73 68 74 76 75 69 76 70 77 74 78 77 79
REMARK SMILES IDX 71 80 72 81 75 82 73 83 52 84 53 85 61 86 54 87 55 88 59 89
REMARK SMILES IDX 62 90 56 91 57 92 60 93 58 94
REMARK H PARENT 19 5 6 13 9 16 23 28 82 47 50 58
REMARK Flexibility Score: inf
ROOT
ATOM      1  C   UNL A   1      32.011  29.797  25.576  1.00  0.00     0.117 C 
ENDROOT
BRANCH   1   2
ATOM      2  N   UNL A   1      33.067  29.702  24.573  1.00  0.00    -0.354 N 
ATOM      3  C   UNL A   1      33.382  28.789  23.592  1.00  0.00     0.245 C 
ATOM      4  O   UNL A   1      34.175  29.182  22.728  1.00  0.00    -0.272 OA
ATOM      5  H   UNL A   1      33.694  30.460  24.605  1.00  0.00     0.163 HD
BRANCH   3   6
ATOM      6  C   UNL A   1      32.679  27.406  23.470  1.00  0.00     0.120 C 
BRANCH   6   7
ATOM      7  C   UNL A   1      31.171  27.320  23.854  1.00  0.00     0.035 C 
ATOM      8  C   UNL A   1      30.151  27.936  22.908  1.00  0.00     0.007 C 
ENDBRANCH   6   7
BRANCH   6   9
ATOM      9  C   UNL A   1      33.511  26.493  24.443  1.00  0.00     0.035 C 
ATOM     10  C   UNL A   1      33.003  26.319  25.866  1.00  0.00     0.007 C 
ENDBRANCH   6   9
BRANCH   6  11
ATOM     11  N   UNL A   1      32.784  26.976  22.063  1.00  0.00    -0.324 N 
ATOM     12  C   UNL A   1      32.763  25.792  21.435  1.00  0.00     0.315 C 
ATOM     13  H   UNL A   1      32.895  27.732  21.443  1.00  0.00     0.166 HD
ATOM     14  O   UNL A   1      33.078  25.800  20.240  1.00  0.00    -0.249 OA
ATOM     15  N   UNL A   1      32.366  24.618  21.939  1.00  0.00    -0.333 N 
ATOM     16  H   UNL A   1      32.248  23.958  21.219  1.00  0.00     0.165 HD
BRANCH  15  17
ATOM     17  C   UNL A   1      32.050  24.016  23.249  1.00  0.00     0.109 C 
ATOM     18  C   UNL A   1      30.534  23.912  23.469  1.00  0.00     0.034 C 
BRANCH  17  19
ATOM     19  C   UNL A   1      32.659  22.591  23.421  1.00  0.00     0.140 C 
ATOM     20  C   UNL A   1      32.044  21.453  22.619  1.00  0.00     0.036 C 
ATOM     21  O   UNL A   1      32.603  22.166  24.803  1.00  0.00    -0.376 OA
ATOM     22  C   UNL A   1      32.436  20.250  23.449  1.00  0.00     0.031 C 
ATOM     23  C   UNL A   1      32.293  20.775  24.858  1.00  0.00     0.160 C 
ENDBRANCH  17  19
ENDBRANCH  15  17
ENDBRANCH   6  11
ENDBRANCH   3   6
ENDBRANCH   1   2
BRANCH   1  24
ATOM     24  C   UNL A   1      31.674  31.153  26.202  1.00  0.00     0.042 C 
BRANCH  24  25
ATOM     25  C   UNL A   1      32.734  31.909  26.988  1.00  0.00     0.118 C 
BRANCH  25  26
ATOM     26  N   UNL A   1      32.398  33.290  27.276  1.00  0.00    -0.352 N 
ATOM     27  C   UNL A   1      32.999  34.164  28.154  1.00  0.00     0.251 C 
ATOM     28  H   UNL A   1      31.631  33.652  26.776  1.00  0.00     0.163 HD
ATOM     29  O   UNL A   1      32.539  35.277  28.336  1.00  0.00    -0.269 OA
BRANCH  27  30
ATOM     30  C   UNL A   1      34.198  33.729  28.909  1.00  0.00     0.039 A 
ATOM     31  C   UNL A   1      34.034  32.812  29.951  1.00  0.00     0.014 A 
ATOM     32  C   UNL A   1      35.467  34.217  28.591  1.00  0.00     0.014 A 
ATOM     33  C   UNL A   1      35.156  32.329  30.633  1.00  0.00     0.010 A 
ATOM     34  C   UNL A   1      36.589  33.704  29.245  1.00  0.00     0.010 A 
ATOM     35  C   UNL A   1      36.445  32.746  30.263  1.00  0.00    -0.014 A 
BRANCH  35  36
ATOM     36  C   UNL A   1      37.655  32.171  30.910  1.00  0.00     0.031 A 
ATOM     37  C   UNL A   1      38.451  31.102  30.219  1.00  0.00     0.074 A 
ATOM     38  C   UNL A   1      37.995  32.562  32.154  1.00  0.00     0.049 A 
ATOM     39  N   UNL A   1      39.471  30.409  30.663  1.00  0.00    -0.248 NA
ATOM     40  C   UNL A   1      38.035  30.751  28.852  1.00  0.00     0.031 C 
ATOM     41  C   UNL A   1      37.292  33.573  32.943  1.00  0.00     0.029 A 
ATOM     42  N   UNL A   1      39.008  32.141  32.982  1.00  0.00    -0.354 N 
ATOM     43  C   UNL A   1      39.809  29.535  29.639  1.00  0.00     0.074 A 
ATOM     44  C   UNL A   1      38.863  29.756  28.566  1.00  0.00     0.031 C 
ATOM     45  C   UNL A   1      37.894  33.698  34.137  1.00  0.00     0.029 A 
ATOM     46  C   UNL A   1      39.000  32.748  34.215  1.00  0.00     0.049 A 
ATOM     47  H   UNL A   1      39.676  31.468  32.716  1.00  0.00     0.167 HD
ATOM     48  C   UNL A   1      40.824  28.638  29.594  1.00  0.00     0.037 A 
ATOM     49  C   UNL A   1      39.783  32.548  35.293  1.00  0.00     0.037 A 
ATOM     50  C   UNL A   1      41.773  28.429  30.657  1.00  0.00     0.049 A 
ATOM     51  C   UNL A   1      40.885  31.523  35.228  1.00  0.00     0.074 A 
ATOM     52  C   UNL A   1      42.865  27.578  30.684  1.00  0.00     0.029 A 
ATOM     53  N   UNL A   1      41.741  29.073  31.885  1.00  0.00    -0.354 N 
ATOM     54  N   UNL A   1      41.230  30.742  34.234  1.00  0.00    -0.248 NA
ATOM     55  C   UNL A   1      41.707  31.354  36.435  1.00  0.00     0.031 C 
ATOM     56  C   UNL A   1      43.463  27.670  31.944  1.00  0.00     0.029 A 
ATOM     57  C   UNL A   1      42.779  28.621  32.684  1.00  0.00     0.049 A 
ATOM     58  H   UNL A   1      41.078  29.752  32.150  1.00  0.00     0.167 HD
ATOM     59  C   UNL A   1      42.327  30.018  34.680  1.00  0.00     0.074 A 
ATOM     60  C   UNL A   1      42.595  30.455  36.035  1.00  0.00     0.031 C 
ATOM     61  C   UNL A   1      43.051  29.079  34.023  1.00  0.00     0.037 A 
BRANCH  48  62
ATOM     62  C   UNL A   1      40.963  27.805  28.352  1.00  0.00     0.064 A 
ATOM     63  C   UNL A   1      41.747  28.225  27.267  1.00  0.00     0.173 A 
ATOM     64  C   UNL A   1      40.342  26.549  28.265  1.00  0.00     0.173 A 
ATOM     65  F   UNL A   1      42.356  29.420  27.297  1.00  0.00    -0.203 F 
ATOM     66  C   UNL A   1      41.880  27.433  26.130  1.00  0.00     0.198 A 
ATOM     67  C   UNL A   1      40.503  25.746  27.139  1.00  0.00     0.198 A 
ATOM     68  F   UNL A   1      39.589  26.094  29.278  1.00  0.00    -0.203 F 
ATOM     69  F   UNL A   1      42.597  27.876  25.088  1.00  0.00    -0.200 F 
ATOM     70  C   UNL A   1      41.266  26.192  26.071  1.00  0.00     0.200 A 
ATOM     71  F   UNL A   1      39.921  24.539  27.090  1.00  0.00    -0.200 F 
ATOM     72  F   UNL A   1      41.403  25.426  24.979  1.00  0.00    -0.200 F 
ENDBRANCH  48  62
BRANCH  49  73
ATOM     73  C   UNL A   1      39.560  33.343  36.529  1.00  0.00     0.064 A 
ATOM     74  C   UNL A   1      38.715  32.876  37.544  1.00  0.00     0.173 A 
ATOM     75  C   UNL A   1      40.180  34.587  36.719  1.00  0.00     0.173 A 
ATOM     76  F   UNL A   1      38.080  31.702  37.398  1.00  0.00    -0.203 F 
ATOM     77  C   UNL A   1      38.482  33.629  38.692  1.00  0.00     0.198 A 
ATOM     78  C   UNL A   1      39.969  35.326  37.881  1.00  0.00     0.198 A 
ATOM     79  F   UNL A   1      41.000  35.080  35.779  1.00  0.00    -0.203 F 
ATOM     80  F   UNL A   1      37.631  33.178  39.625  1.00  0.00    -0.200 F 
ATOM     81  C   UNL A   1      39.114  34.851  38.863  1.00  0.00     0.200 A 
ATOM     82  F   UNL A   1      40.592  36.502  38.047  1.00  0.00    -0.200 F 
ATOM     83  F   UNL A   1      38.893  35.574  39.968  1.00  0.00    -0.200 F 
ENDBRANCH  49  73
BRANCH  61  84
ATOM     84  C   UNL A   1      44.238  28.493  34.730  1.00  0.00     0.064 A 
ATOM     85  C   UNL A   1      44.146  27.308  35.471  1.00  0.00     0.173 A 
ATOM     86  C   UNL A   1      45.501  29.094  34.603  1.00  0.00     0.173 A 
ATOM     87  F   UNL A   1      42.960  26.702  35.635  1.00  0.00    -0.203 F 
ATOM     88  C   UNL A   1      45.274  26.753  36.074  1.00  0.00     0.198 A 
ATOM     89  C   UNL A   1      46.628  28.522  35.183  1.00  0.00     0.198 A 
ATOM     90  F   UNL A   1      45.642  30.227  33.899  1.00  0.00    -0.203 F 
ATOM     91  F   UNL A   1      45.157  25.637  36.808  1.00  0.00    -0.200 F 
ATOM     92  C   UNL A   1      46.514  27.353  35.920  1.00  0.00     0.200 A 
ATOM     93  F   UNL A   1      47.829  29.096  35.021  1.00  0.00    -0.200 F 
ATOM     94  F   UNL A   1      47.599  26.809  36.487  1.00  0.00    -0.200 F 
ENDBRANCH  61  84
ENDBRANCH  35  36
ENDBRANCH  27  30
ENDBRANCH  25  26
ENDBRANCH  24  25
ENDBRANCH   1  24
TORSDOF 15
ENDMDL
MODEL 2
REMARK VINA RESULT:     -11.7      1.206      2.308
REMARK SMILES CCC(CC)(NC(=O)N[C@@H](C)[C@@H]1CCCO1)C(=O)NCCCNC(=O)c1ccc(-c2c3nc(c(-c4c(F)c(F)c(F)c(F)c4F)c4ccc([nH]4)c(-c4c(F)c(F)c(F)c(F)c4F)c4nc(c(-c5c(F)c(F)c(F)c(F)c5F)c5ccc2[nH]5)C=C4)C=C3)cc1
REMARK SMILES IDX 20 1 19 2 17 3 18 4 3 6 2 7 1 8 4 9 5 10 6 11 7 12 8 14 9 15
REMARK SMILES IDX 10 17 11 18 12 19 13 20 16 21 14 22 15 23 21 24 22 25 23 26
REMARK SMILES IDX 24 27 25 29 26 30 27 31 88 32 28 33 87 34 29 35 30 36 31 37
REMARK SMILES IDX 81 38 32 39 86 40 80 41 82 42 33 43 85 44 79 45 78 46 34 48
REMARK SMILES IDX 66 49 46 50 65 51 47 52 50 53 64 54 83 55 48 56 49 57 63 59
REMARK SMILES IDX 84 60 51 61 35 62 36 63 44 64 37 65 38 66 42 67 45 68 39 69
REMARK SMILES IDX 40 70 43 71 41 72 67 73 68 74 76 75 69 76 70 77 74 78 77 79
REMARK SMILES IDX 71 80 72 81 75 82 73 83 52 84 53 85 61 86 54 87 55 88 59 89
REMARK SMILES IDX 62 90 56 91 57 92 60 93 58 94
REMARK H PARENT 19 5 6 13 9 16 23 28 82 47 50 58
REMARK Flexibility Score: inf
ROOT
ATOM      1  C   UNL A   1      31.765  30.488  26.072  1.00  0.00     0.117 C 
ENDROOT
BRANCH   1   2
ATOM      2  N   UNL A   1      31.239  30.126  24.759  1.00  0.00    -0.354 N 
ATOM      3  C   UNL A   1      31.303  28.997  23.976  1.00  0.00     0.245 C 
ATOM      4  O   UNL A   1      30.486  28.938  23.050  1.00  0.00    -0.272 OA
ATOM      5  H   UNL A   1      30.724  30.853  24.341  1.00  0.00     0.163 HD
BRANCH   3   6
ATOM      6  C   UNL A   1      32.228  27.790  24.311  1.00  0.00     0.120 C 
BRANCH   6   7
ATOM      7  C   UNL A   1      33.690  28.095  24.754  1.00  0.00     0.035 C 
ATOM      8  C   UNL A   1      33.995  28.149  26.244  1.00  0.00     0.007 C 
ENDBRANCH   6   7
BRANCH   6   9
ATOM      9  C   UNL A   1      32.255  26.976  22.967  1.00  0.00     0.035 C 
ATOM     10  C   UNL A   1      33.495  27.086  22.093  1.00  0.00     0.007 C 
ENDBRANCH   6   9
BRANCH   6  11
ATOM     11  N   UNL A   1      31.598  27.039  25.414  1.00  0.00    -0.324 N 
ATOM     12  C   UNL A   1      31.681  25.780  25.865  1.00  0.00     0.315 C 
ATOM     13  H   UNL A   1      30.972  27.590  25.938  1.00  0.00     0.166 HD
ATOM     14  O   UNL A   1      30.845  25.445  26.712  1.00  0.00    -0.249 OA
ATOM     15  N   UNL A   1      32.615  24.873  25.558  1.00  0.00    -0.333 N 
ATOM     16  H   UNL A   1      32.570  24.110  26.179  1.00  0.00     0.165 HD
BRANCH  15  17
ATOM     17  C   UNL A   1      33.692  24.672  24.569  1.00  0.00     0.109 C 
ATOM     18  C   UNL A   1      35.067  24.587  25.246  1.00  0.00     0.034 C 
BRANCH  17  19
ATOM     19  C   UNL A   1      33.496  23.380  23.718  1.00  0.00     0.140 C 
ATOM     20  C   UNL A   1      32.102  23.082  23.186  1.00  0.00     0.036 C 
ATOM     21  O   UNL A   1      33.885  22.203  24.466  1.00  0.00    -0.376 OA
ATOM     22  C   UNL A   1      32.167  21.584  22.982  1.00  0.00     0.031 C 
ATOM     23  C   UNL A   1      32.984  21.137  24.172  1.00  0.00     0.160 C 
ENDBRANCH  17  19
ENDBRANCH  15  17
ENDBRANCH   6  11
ENDBRANCH   3   6
ENDBRANCH   1   2
BRANCH   1  24
ATOM     24  C   UNL A   1      31.516  31.891  26.633  1.00  0.00     0.042 C 
BRANCH  24  25
ATOM     25  C   UNL A   1      32.656  32.659  27.284  1.00  0.00     0.118 C 
BRANCH  25  26
ATOM     26  N   UNL A   1      32.339  34.032  27.623  1.00  0.00    -0.352 N 
ATOM     27  C   UNL A   1      32.960  34.870  28.525  1.00  0.00     0.251 C 
ATOM     28  H   UNL A   1      31.571  34.421  27.144  1.00  0.00     0.163 HD
ATOM     29  O   UNL A   1      32.514  35.981  28.749  1.00  0.00    -0.269 OA
BRANCH  27  30
ATOM     30  C   UNL A   1      34.160  34.395  29.251  1.00  0.00     0.039 A 
ATOM     31  C   UNL A   1      33.992  33.797  30.502  1.00  0.00     0.014 A 
ATOM     32  C   UNL A   1      35.437  34.536  28.703  1.00  0.00     0.014 A 
ATOM     33  C   UNL A   1      35.100  33.275  31.178  1.00  0.00     0.010 A 
ATOM     34  C   UNL A   1      36.537  33.979  29.359  1.00  0.00     0.010 A 
ATOM     35  C   UNL A   1      36.377  33.332  30.596  1.00  0.00    -0.014 A 
BRANCH  35  36
ATOM     36  C   UNL A   1      37.551  32.697  31.253  1.00  0.00     0.031 A 
ATOM     37  C   UNL A   1      38.263  31.552  30.593  1.00  0.00     0.074 A 
ATOM     38  C   UNL A   1      37.931  33.107  32.479  1.00  0.00     0.049 A 
ATOM     39  N   UNL A   1      39.237  30.805  31.053  1.00  0.00    -0.248 NA
ATOM     40  C   UNL A   1      37.809  31.183  29.244  1.00  0.00     0.031 C 
ATOM     41  C   UNL A   1      37.308  34.192  33.237  1.00  0.00     0.029 A 
ATOM     42  N   UNL A   1      38.921  32.645  33.312  1.00  0.00    -0.354 N 
ATOM     43  C   UNL A   1      39.503  29.874  30.058  1.00  0.00     0.074 A 
ATOM     44  C   UNL A   1      38.562  30.123  28.986  1.00  0.00     0.031 C 
ATOM     45  C   UNL A   1      37.931  34.317  34.420  1.00  0.00     0.029 A 
ATOM     46  C   UNL A   1      38.969  33.295  34.523  1.00  0.00     0.049 A 
ATOM     47  H   UNL A   1      39.538  31.918  33.065  1.00  0.00     0.167 HD
ATOM     48  C   UNL A   1      40.452  28.908  30.037  1.00  0.00     0.037 A 
ATOM     49  C   UNL A   1      39.748  33.078  35.601  1.00  0.00     0.037 A 
ATOM     50  C   UNL A   1      41.396  28.671  31.099  1.00  0.00     0.049 A 
ATOM     51  C   UNL A   1      40.775  31.978  35.563  1.00  0.00     0.074 A 
ATOM     52  C   UNL A   1      42.426  27.746  31.147  1.00  0.00     0.029 A 
ATOM     53  N   UNL A   1      41.422  29.358  32.303  1.00  0.00    -0.354 N 
ATOM     54  N   UNL A   1      41.054  31.140  34.595  1.00  0.00    -0.248 NA
ATOM     55  C   UNL A   1      41.597  31.794  36.769  1.00  0.00     0.031 C 
ATOM     56  C   UNL A   1      43.043  27.841  32.398  1.00  0.00     0.029 A 
ATOM     57  C   UNL A   1      42.435  28.862  33.109  1.00  0.00     0.049 A 
ATOM     58  H   UNL A   1      40.811  30.090  32.549  1.00  0.00     0.167 HD
ATOM     59  C   UNL A   1      42.104  30.358  35.058  1.00  0.00     0.074 A 
ATOM     60  C   UNL A   1      42.416  30.822  36.393  1.00  0.00     0.031 C 
ATOM     61  C   UNL A   1      42.752  29.347  34.428  1.00  0.00     0.037 A 
BRANCH  48  62
ATOM     62  C   UNL A   1      40.519  28.024  28.825  1.00  0.00     0.064 A 
ATOM     63  C   UNL A   1      39.799  26.822  28.750  1.00  0.00     0.173 A 
ATOM     64  C   UNL A   1      41.273  28.407  27.706  1.00  0.00     0.173 A 
ATOM     65  F   UNL A   1      39.067  26.406  29.795  1.00  0.00    -0.203 F 
ATOM     66  C   UNL A   1      39.857  26.022  27.611  1.00  0.00     0.198 A 
ATOM     67  C   UNL A   1      41.304  27.620  26.557  1.00  0.00     0.198 A 
ATOM     68  F   UNL A   1      41.973  29.552  27.720  1.00  0.00    -0.203 F 
ATOM     69  F   UNL A   1      39.197  24.856  27.580  1.00  0.00    -0.200 F 
ATOM     70  C   UNL A   1      40.602  26.426  26.514  1.00  0.00     0.200 A 
ATOM     71  F   UNL A   1      42.012  28.020  25.491  1.00  0.00    -0.200 F 
ATOM     72  F   UNL A   1      40.648  25.660  25.415  1.00  0.00    -0.200 F 
ENDBRANCH  48  62
BRANCH  49  73
ATOM     73  C   UNL A   1      39.595  33.930  36.809  1.00  0.00     0.064 A 
ATOM     74  C   UNL A   1      38.804  33.514  37.889  1.00  0.00     0.173 A 
ATOM     75  C   UNL A   1      40.227  35.179  36.909  1.00  0.00     0.173 A 
ATOM     76  F   UNL A   1      38.160  32.339  37.831  1.00  0.00    -0.203 F 
ATOM     77  C   UNL A   1      38.636  34.320  39.012  1.00  0.00     0.198 A 
ATOM     78  C   UNL A   1      40.082  35.971  38.045  1.00  0.00     0.198 A 
ATOM     79  F   UNL A   1      40.996  35.624  35.904  1.00  0.00    -0.203 F 
ATOM     80  F   UNL A   1      37.836  33.917  40.010  1.00  0.00    -0.200 F 
ATOM     81  C   UNL A   1      39.280  35.545  39.092  1.00  0.00     0.200 A 
ATOM     82  F   UNL A   1      40.716  37.150  38.124  1.00  0.00    -0.200 F 
ATOM     83  F   UNL A   1      39.121  36.319  40.174  1.00  0.00    -0.200 F 
ENDBRANCH  49  73
BRANCH  61  84
ATOM     84  C   UNL A   1      43.904  28.705  35.146  1.00  0.00     0.064 A 
ATOM     85  C   UNL A   1      45.215  29.181  35.014  1.00  0.00     0.173 A 
ATOM     86  C   UNL A   1      43.677  27.638  36.030  1.00  0.00     0.173 A 
ATOM     87  F   UNL A   1      45.488  30.189  34.170  1.00  0.00    -0.203 F 
ATOM     88  C   UNL A   1      46.261  28.603  35.731  1.00  0.00     0.198 A 
ATOM     89  C   UNL A   1      44.719  27.083  36.765  1.00  0.00     0.198 A 
ATOM     90  F   UNL A   1      42.439  27.149  36.195  1.00  0.00    -0.203 F 
ATOM     91  F   UNL A   1      47.513  29.052  35.563  1.00  0.00    -0.200 F 
ATOM     92  C   UNL A   1      46.011  27.563  36.613  1.00  0.00     0.200 A 
ATOM     93  F   UNL A   1      44.473  26.087  37.628  1.00  0.00    -0.200 F 
ATOM     94  F   UNL A   1      47.015  27.020  37.313  1.00  0.00    -0.200 F 
ENDBRANCH  61  84
ENDBRANCH  35  36
ENDBRANCH  27  30
ENDBRANCH  25  26
ENDBRANCH  24  25
ENDBRANCH   1  24
TORSDOF 15
ENDMDL
MODEL 3
REMARK VINA RESULT:     -11.7      5.186     10.654
REMARK SMILES CCC(CC)(NC(=O)N[C@@H](C)[C@@H]1CCCO1)C(=O)NCCCNC(=O)c1ccc(-c2c3nc(c(-c4c(F)c(F)c(F)c(F)c4F)c4ccc([nH]4)c(-c4c(F)c(F)c(F)c(F)c4F)c4nc(c(-c5c(F)c(F)c(F)c(F)c5F)c5ccc2[nH]5)C=C4)C=C3)cc1
REMARK SMILES IDX 20 1 19 2 17 3 18 4 3 6 2 7 1 8 4 9 5 10 6 11 7 12 8 14 9 15
REMARK SMILES IDX 10 17 11 18 12 19 13 20 16 21 14 22 15 23 21 24 22 25 23 26
REMARK SMILES IDX 24 27 25 29 26 30 27 31 88 32 28 33 87 34 29 35 30 36 31 37
REMARK SMILES IDX 81 38 32 39 86 40 80 41 82 42 33 43 85 44 79 45 78 46 34 48
REMARK SMILES IDX 66 49 46 50 65 51 47 52 50 53 64 54 83 55 48 56 49 57 63 59
REMARK SMILES IDX 84 60 51 61 35 62 36 63 44 64 37 65 38 66 42 67 45 68 39 69
REMARK SMILES IDX 40 70 43 71 41 72 67 73 68 74 76 75 69 76 70 77 74 78 77 79
REMARK SMILES IDX 71 80 72 81 75 82 73 83 52 84 53 85 61 86 54 87 55 88 59 89
REMARK SMILES IDX 62 90 56 91 57 92 60 93 58 94
REMARK H PARENT 19 5 6 13 9 16 23 28 82 47 50 58
REMARK Flexibility Score: inf
ROOT
ATOM      1  C   UNL A   1      36.193  21.276  25.006  1.00  0.00     0.117 C 
ENDROOT
BRANCH   1   2
ATOM      2  N   UNL A   1      35.645  21.445  26.348  1.00  0.00    -0.354 N 
ATOM      3  C   UNL A   1      34.436  21.872  26.846  1.00  0.00     0.245 C 
ATOM      4  O   UNL A   1      34.217  21.601  28.032  1.00  0.00    -0.272 OA
ATOM      5  H   UNL A   1      36.284  21.198  27.055  1.00  0.00     0.163 HD
BRANCH   3   6
ATOM      6  C   UNL A   1      33.335  22.515  25.951  1.00  0.00     0.120 C 
BRANCH   6   7
ATOM      7  C   UNL A   1      33.058  21.868  24.561  1.00  0.00     0.035 C 
ATOM      8  C   UNL A   1      32.502  20.452  24.524  1.00  0.00     0.007 C 
ENDBRANCH   6   7
BRANCH   6   9
ATOM      9  C   UNL A   1      33.856  23.983  25.742  1.00  0.00     0.035 C 
ATOM     10  C   UNL A   1      34.539  24.316  24.424  1.00  0.00     0.007 C 
ENDBRANCH   6   9
BRANCH   6  11
ATOM     11  N   UNL A   1      32.067  22.467  26.703  1.00  0.00    -0.324 N 
ATOM     12  C   UNL A   1      30.912  23.144  26.646  1.00  0.00     0.315 C 
ATOM     13  H   UNL A   1      32.070  21.780  27.408  1.00  0.00     0.166 HD
ATOM     14  O   UNL A   1      30.122  22.958  27.579  1.00  0.00    -0.249 OA
ATOM     15  N   UNL A   1      30.489  23.937  25.655  1.00  0.00    -0.333 N 
ATOM     16  H   UNL A   1      29.531  24.139  25.762  1.00  0.00     0.165 HD
BRANCH  15  17
ATOM     17  C   UNL A   1      31.025  24.599  24.451  1.00  0.00     0.109 C 
ATOM     18  C   UNL A   1      30.603  23.864  23.171  1.00  0.00     0.034 C 
BRANCH  17  19
ATOM     19  C   UNL A   1      30.567  26.084  24.324  1.00  0.00     0.140 C 
ATOM     20  C   UNL A   1      29.131  26.353  23.895  1.00  0.00     0.036 C 
ATOM     21  O   UNL A   1      31.394  26.803  23.379  1.00  0.00    -0.376 OA
ATOM     22  C   UNL A   1      29.241  27.748  23.322  1.00  0.00     0.031 C 
ATOM     23  C   UNL A   1      30.582  27.703  22.627  1.00  0.00     0.160 C 
ENDBRANCH  17  19
ENDBRANCH  15  17
ENDBRANCH   6  11
ENDBRANCH   3   6
ENDBRANCH   1   2
BRANCH   1  24
ATOM     24  C   UNL A   1      37.471  20.458  24.801  1.00  0.00     0.042 C 
BRANCH  24  25
ATOM     25  C   UNL A   1      38.650  20.646  25.743  1.00  0.00     0.118 C 
BRANCH  25  26
ATOM     26  N   UNL A   1      39.576  19.531  25.777  1.00  0.00    -0.352 N 
ATOM     27  C   UNL A   1      40.926  19.531  26.053  1.00  0.00     0.251 C 
ATOM     28  H   UNL A   1      39.185  18.649  25.574  1.00  0.00     0.163 HD
ATOM     29  O   UNL A   1      41.579  18.507  25.962  1.00  0.00    -0.269 OA
BRANCH  27  30
ATOM     30  C   UNL A   1      41.592  20.801  26.428  1.00  0.00     0.039 A 
ATOM     31  C   UNL A   1      42.014  21.660  25.410  1.00  0.00     0.014 A 
ATOM     32  C   UNL A   1      41.794  21.140  27.767  1.00  0.00     0.014 A 
ATOM     33  C   UNL A   1      42.580  22.896  25.736  1.00  0.00     0.010 A 
ATOM     34  C   UNL A   1      42.321  22.392  28.091  1.00  0.00     0.010 A 
ATOM     35  C   UNL A   1      42.707  23.287  27.079  1.00  0.00    -0.014 A 
BRANCH  35  36
ATOM     36  C   UNL A   1      43.216  24.636  27.443  1.00  0.00     0.031 A 
ATOM     37  C   UNL A   1      42.286  25.673  28.004  1.00  0.00     0.074 A 
ATOM     38  C   UNL A   1      44.504  24.951  27.201  1.00  0.00     0.049 A 
ATOM     39  N   UNL A   1      42.519  26.932  28.285  1.00  0.00    -0.248 NA
ATOM     40  C   UNL A   1      40.904  25.244  28.268  1.00  0.00     0.031 C 
ATOM     41  C   UNL A   1      45.503  24.043  26.638  1.00  0.00     0.029 A 
ATOM     42  N   UNL A   1      45.189  26.129  27.380  1.00  0.00    -0.354 N 
ATOM     43  C   UNL A   1      41.315  27.447  28.745  1.00  0.00     0.074 A 
ATOM     44  C   UNL A   1      40.343  26.376  28.669  1.00  0.00     0.031 C 
ATOM     45  C   UNL A   1      46.672  24.694  26.521  1.00  0.00     0.029 A 
ATOM     46  C   UNL A   1      46.496  26.075  26.960  1.00  0.00     0.049 A 
ATOM     47  H   UNL A   1      44.781  26.935  27.771  1.00  0.00     0.167 HD
ATOM     48  C   UNL A   1      41.048  28.694  29.200  1.00  0.00     0.037 A 
ATOM     49  C   UNL A   1      47.441  27.034  26.916  1.00  0.00     0.037 A 
ATOM     50  C   UNL A   1      42.020  29.754  29.287  1.00  0.00     0.049 A 
ATOM     51  C   UNL A   1      47.110  28.422  27.399  1.00  0.00     0.074 A 
ATOM     52  C   UNL A   1      41.854  31.038  29.781  1.00  0.00     0.029 A 
ATOM     53  N   UNL A   1      43.337  29.656  28.867  1.00  0.00    -0.354 N 
ATOM     54  N   UNL A   1      45.983  28.882  27.884  1.00  0.00    -0.248 NA
ATOM     55  C   UNL A   1      48.184  29.424  27.330  1.00  0.00     0.031 C 
ATOM     56  C   UNL A   1      43.056  31.731  29.613  1.00  0.00     0.029 A 
ATOM     57  C   UNL A   1      43.988  30.863  29.067  1.00  0.00     0.049 A 
ATOM     58  H   UNL A   1      43.749  28.849  28.481  1.00  0.00     0.167 HD
ATOM     59  C   UNL A   1      46.221  30.210  28.212  1.00  0.00     0.074 A 
ATOM     60  C   UNL A   1      47.602  30.484  27.874  1.00  0.00     0.031 C 
ATOM     61  C   UNL A   1      45.371  31.119  28.748  1.00  0.00     0.037 A 
BRANCH  48  62
ATOM     62  C   UNL A   1      39.642  28.990  29.637  1.00  0.00     0.064 A 
ATOM     63  C   UNL A   1      38.671  29.451  28.735  1.00  0.00     0.173 A 
ATOM     64  C   UNL A   1      39.247  28.764  30.965  1.00  0.00     0.173 A 
ATOM     65  F   UNL A   1      38.998  29.689  27.456  1.00  0.00    -0.203 F 
ATOM     66  C   UNL A   1      37.367  29.702  29.152  1.00  0.00     0.198 A 
ATOM     67  C   UNL A   1      37.934  28.987  31.371  1.00  0.00     0.198 A 
ATOM     68  F   UNL A   1      40.133  28.314  31.867  1.00  0.00    -0.203 F 
ATOM     69  F   UNL A   1      36.470  30.186  28.282  1.00  0.00    -0.200 F 
ATOM     70  C   UNL A   1      36.998  29.463  30.467  1.00  0.00     0.200 A 
ATOM     71  F   UNL A   1      37.575  28.740  32.639  1.00  0.00    -0.200 F 
ATOM     72  F   UNL A   1      35.739  29.696  30.864  1.00  0.00    -0.200 F 
ENDBRANCH  48  62
BRANCH  49  73
ATOM     73  C   UNL A   1      48.799  26.715  26.404  1.00  0.00     0.064 A 
ATOM     74  C   UNL A   1      49.141  26.960  25.067  1.00  0.00     0.173 A 
ATOM     75  C   UNL A   1      49.781  26.153  27.234  1.00  0.00     0.173 A 
ATOM     76  F   UNL A   1      48.229  27.474  24.227  1.00  0.00    -0.203 F 
ATOM     77  C   UNL A   1      50.403  26.638  24.575  1.00  0.00     0.198 A 
ATOM     78  C   UNL A   1      51.053  25.859  26.748  1.00  0.00     0.198 A 
ATOM     79  F   UNL A   1      49.506  25.900  28.522  1.00  0.00    -0.203 F 
ATOM     80  F   UNL A   1      50.687  26.840  23.280  1.00  0.00    -0.200 F 
ATOM     81  C   UNL A   1      51.360  26.094  25.417  1.00  0.00     0.200 A 
ATOM     82  F   UNL A   1      51.979  25.344  27.568  1.00  0.00    -0.200 F 
ATOM     83  F   UNL A   1      52.576  25.787  24.945  1.00  0.00    -0.200 F 
ENDBRANCH  49  73
BRANCH  61  84
ATOM     84  C   UNL A   1      45.914  32.483  29.060  1.00  0.00     0.064 A 
ATOM     85  C   UNL A   1      45.832  33.539  28.143  1.00  0.00     0.173 A 
ATOM     86  C   UNL A   1      46.465  32.750  30.324  1.00  0.00     0.173 A 
ATOM     87  F   UNL A   1      45.328  33.332  26.917  1.00  0.00    -0.203 F 
ATOM     88  C   UNL A   1      46.294  34.811  28.475  1.00  0.00     0.198 A 
ATOM     89  C   UNL A   1      46.899  34.027  30.661  1.00  0.00     0.198 A 
ATOM     90  F   UNL A   1      46.561  31.773  31.239  1.00  0.00    -0.203 F 
ATOM     91  F   UNL A   1      46.237  35.798  27.571  1.00  0.00    -0.200 F 
ATOM     92  C   UNL A   1      46.817  35.056  29.735  1.00  0.00     0.200 A 
ATOM     93  F   UNL A   1      47.391  34.266  31.885  1.00  0.00    -0.200 F 
ATOM     94  F   UNL A   1      47.246  36.284  30.057  1.00  0.00    -0.200 F 
ENDBRANCH  61  84
ENDBRANCH  35  36
ENDBRANCH  27  30
ENDBRANCH  25  26
ENDBRANCH  24  25
ENDBRANCH   1  24
TORSDOF 15
ENDMDL
