MODEL 1
REMARK VINA RESULT:     -11.9      0.000      0.000
REMARK SMILES Cc1cc(Br)cc(C(=O)NCCCNC(=O)c2ccc(-c3c4nc(c(-c5c(F)c(F)c(F)c(F)c5F)c5ccc([nH]5)c(-c5c(F)c(F)c(F)c(F)c5F)c5nc(c(-c6c(F)c(F)c(F)c(F)c6F)c6ccc3[nH]6)C=C5)C=C4)cc2)c1Br
REMARK SMILES IDX 13 1 12 2 11 3 10 4 8 5 9 6 7 8 1 9 2 10 3 11 80 12 4 13
REMARK SMILES IDX 81 14 5 15 6 16 14 17 15 18 16 20 17 21 18 22 79 23 19 24
REMARK SMILES IDX 78 25 20 26 21 27 22 28 72 29 23 30 77 31 71 32 73 33 24 34
REMARK SMILES IDX 76 35 70 36 69 37 25 39 57 40 37 41 56 42 38 43 41 44 55 45
REMARK SMILES IDX 74 46 39 47 40 48 54 50 75 51 42 52 26 53 27 54 35 55 28 56
REMARK SMILES IDX 29 57 33 58 36 59 30 60 31 61 34 62 32 63 58 64 59 65 67 66
REMARK SMILES IDX 60 67 61 68 65 69 68 70 62 71 63 72 66 73 64 74 43 75 44 76
REMARK SMILES IDX 52 77 45 78 46 79 50 80 53 81 47 82 48 83 51 84 49 85
REMARK H PARENT 10 7 14 19 73 38 41 49
REMARK Flexibility Score: inf
ROOT
ATOM      1  C   UNL A   1      32.988  29.075  25.580  1.00  0.00     0.118 C 
ENDROOT
BRANCH   1   2
ATOM      2  C   UNL A   1      33.600  29.039  24.187  1.00  0.00     0.042 C 
BRANCH   2   3
ATOM      3  C   UNL A   1      32.581  28.907  23.050  1.00  0.00     0.118 C 
BRANCH   3   4
ATOM      4  N   UNL A   1      32.931  27.782  22.208  1.00  0.00    -0.352 N 
ATOM      5  C   UNL A   1      33.244  26.465  22.387  1.00  0.00     0.252 C 
ATOM      6  O   UNL A   1      33.612  25.911  21.341  1.00  0.00    -0.269 OA
ATOM      7  H   UNL A   1      32.947  28.034  21.256  1.00  0.00     0.163 HD
BRANCH   5   8
ATOM      8  C   UNL A   1      33.115  25.602  23.613  1.00  0.00     0.055 A 
ATOM      9  C   UNL A   1      31.067  24.129  26.551  1.00  0.00     0.045 C 
ATOM     10  C   UNL A   1      32.205  24.507  25.629  1.00  0.00    -0.035 A 
ATOM     11  C   UNL A   1      33.478  24.030  25.963  1.00  0.00     0.020 A 
ATOM     12  C   UNL A   1      32.032  25.337  24.478  1.00  0.00     0.033 A 
ATOM     13  C   UNL A   1      34.559  24.326  25.154  1.00  0.00     0.019 A 
ATOM     14  Br  UNL A   1      30.332  26.175  24.364  1.00  0.00    -0.050 Br
ATOM     15  Br  UNL A   1      36.290  23.755  25.653  1.00  0.00    -0.051 Br
ATOM     16  C   UNL A   1      34.377  25.068  23.990  1.00  0.00     0.030 A 
ENDBRANCH   5   8
ENDBRANCH   3   4
ENDBRANCH   2   3
ENDBRANCH   1   2
BRANCH   1  17
ATOM     17  N   UNL A   1      32.626  30.430  25.977  1.00  0.00    -0.352 N 
ATOM     18  C   UNL A   1      33.176  31.250  26.933  1.00  0.00     0.251 C 
ATOM     19  H   UNL A   1      31.869  30.819  25.482  1.00  0.00     0.163 HD
ATOM     20  O   UNL A   1      32.568  32.257  27.291  1.00  0.00    -0.269 OA
BRANCH  18  21
ATOM     21  C   UNL A   1      34.482  30.924  27.552  1.00  0.00     0.039 A 
ATOM     22  C   UNL A   1      34.775  29.624  27.962  1.00  0.00     0.014 A 
ATOM     23  C   UNL A   1      35.442  31.930  27.705  1.00  0.00     0.014 A 
ATOM     24  C   UNL A   1      35.932  29.370  28.687  1.00  0.00     0.010 A 
ATOM     25  C   UNL A   1      36.656  31.648  28.340  1.00  0.00     0.010 A 
ATOM     26  C   UNL A   1      36.892  30.376  28.882  1.00  0.00    -0.014 A 
BRANCH  26  27
ATOM     27  C   UNL A   1      38.127  30.064  29.650  1.00  0.00     0.031 A 
ATOM     28  C   UNL A   1      38.305  30.566  31.058  1.00  0.00     0.074 A 
ATOM     29  C   UNL A   1      39.060  29.264  29.096  1.00  0.00     0.049 A 
ATOM     30  N   UNL A   1      39.311  30.387  31.877  1.00  0.00    -0.248 NA
ATOM     31  C   UNL A   1      37.214  31.378  31.624  1.00  0.00     0.031 C 
ATOM     32  C   UNL A   1      38.991  28.703  27.744  1.00  0.00     0.029 A 
ATOM     33  N   UNL A   1      40.229  28.756  29.604  1.00  0.00    -0.354 N 
ATOM     34  C   UNL A   1      38.986  31.075  33.039  1.00  0.00     0.074 A 
ATOM     35  C   UNL A   1      37.701  31.702  32.814  1.00  0.00     0.031 C 
ATOM     36  C   UNL A   1      40.031  27.880  27.555  1.00  0.00     0.029 A 
ATOM     37  C   UNL A   1      40.883  27.913  28.737  1.00  0.00     0.049 A 
ATOM     38  H   UNL A   1      40.567  28.974  30.502  1.00  0.00     0.167 HD
ATOM     39  C   UNL A   1      39.691  31.163  34.192  1.00  0.00     0.037 A 
ATOM     40  C   UNL A   1      42.050  27.254  28.872  1.00  0.00     0.037 A 
ATOM     41  C   UNL A   1      40.952  30.509  34.423  1.00  0.00     0.049 A 
ATOM     42  C   UNL A   1      42.829  27.406  30.147  1.00  0.00     0.074 A 
ATOM     43  C   UNL A   1      41.735  30.525  35.564  1.00  0.00     0.029 A 
ATOM     44  N   UNL A   1      41.610  29.712  33.497  1.00  0.00    -0.354 N 
ATOM     45  N   UNL A   1      42.512  28.068  31.232  1.00  0.00    -0.248 NA
ATOM     46  C   UNL A   1      44.133  26.733  30.211  1.00  0.00     0.031 C 
ATOM     47  C   UNL A   1      42.887  29.774  35.315  1.00  0.00     0.029 A 
ATOM     48  C   UNL A   1      42.800  29.248  34.036  1.00  0.00     0.049 A 
ATOM     49  H   UNL A   1      41.282  29.507  32.592  1.00  0.00     0.167 HD
ATOM     50  C   UNL A   1      43.569  27.885  32.111  1.00  0.00     0.074 A 
ATOM     51  C   UNL A   1      44.526  27.028  31.442  1.00  0.00     0.031 C 
ATOM     52  C   UNL A   1      43.737  28.391  33.356  1.00  0.00     0.037 A 
BRANCH  39  53
ATOM     53  C   UNL A   1      39.124  31.995  35.306  1.00  0.00     0.064 A 
ATOM     54  C   UNL A   1      38.388  31.420  36.352  1.00  0.00     0.173 A 
ATOM     55  C   UNL A   1      39.401  33.370  35.378  1.00  0.00     0.173 A 
ATOM     56  F   UNL A   1      38.087  30.114  36.326  1.00  0.00    -0.203 F 
ATOM     57  C   UNL A   1      37.945  32.190  37.425  1.00  0.00     0.198 A 
ATOM     58  C   UNL A   1      38.980  34.131  36.464  1.00  0.00     0.198 A 
ATOM     59  F   UNL A   1      40.108  33.968  34.407  1.00  0.00    -0.203 F 
ATOM     60  F   UNL A   1      37.222  31.624  38.401  1.00  0.00    -0.200 F 
ATOM     61  C   UNL A   1      38.251  33.542  37.485  1.00  0.00     0.200 A 
ATOM     62  F   UNL A   1      39.289  35.434  36.528  1.00  0.00    -0.200 F 
ATOM     63  F   UNL A   1      37.842  34.277  38.530  1.00  0.00    -0.200 F 
ENDBRANCH  39  53
BRANCH  40  64
ATOM     64  C   UNL A   1      42.548  26.401  27.760  1.00  0.00     0.064 A 
ATOM     65  C   UNL A   1      42.129  25.070  27.627  1.00  0.00     0.173 A 
ATOM     66  C   UNL A   1      43.439  26.903  26.799  1.00  0.00     0.173 A 
ATOM     67  F   UNL A   1      41.296  24.537  28.533  1.00  0.00    -0.203 F 
ATOM     68  C   UNL A   1      42.586  24.274  26.580  1.00  0.00     0.198 A 
ATOM     69  C   UNL A   1      43.870  26.116  25.735  1.00  0.00     0.198 A 
ATOM     70  F   UNL A   1      43.869  28.170  26.879  1.00  0.00    -0.203 F 
ATOM     71  F   UNL A   1      42.199  22.994  26.496  1.00  0.00    -0.200 F 
ATOM     72  C   UNL A   1      43.449  24.799  25.629  1.00  0.00     0.200 A 
ATOM     73  F   UNL A   1      44.688  26.634  24.809  1.00  0.00    -0.200 F 
ATOM     74  F   UNL A   1      43.877  24.036  24.614  1.00  0.00    -0.200 F 
ENDBRANCH  40  64
BRANCH  52  75
ATOM     75  C   UNL A   1      44.994  28.023  34.087  1.00  0.00     0.064 A 
ATOM     76  C   UNL A   1      45.070  26.861  34.868  1.00  0.00     0.173 A 
ATOM     77  C   UNL A   1      46.151  28.803  33.950  1.00  0.00     0.173 A 
ATOM     78  F   UNL A   1      43.985  26.091  35.039  1.00  0.00    -0.203 F 
ATOM     79  C   UNL A   1      46.257  26.501  35.497  1.00  0.00     0.198 A 
ATOM     80  C   UNL A   1      47.344  28.425  34.558  1.00  0.00     0.198 A 
ATOM     81  F   UNL A   1      46.130  29.920  33.206  1.00  0.00    -0.203 F 
ATOM     82  F   UNL A   1      46.299  25.405  36.268  1.00  0.00    -0.200 F 
ATOM     83  C   UNL A   1      47.395  27.277  35.334  1.00  0.00     0.200 A 
ATOM     84  F   UNL A   1      48.447  29.168  34.387  1.00  0.00    -0.200 F 
ATOM     85  F   UNL A   1      48.541  26.920  35.929  1.00  0.00    -0.200 F 
ENDBRANCH  52  75
ENDBRANCH  26  27
ENDBRANCH  18  21
ENDBRANCH   1  17
TORSDOF 10
ENDMDL
MODEL 2
REMARK VINA RESULT:     -11.9      2.080      3.329
REMARK SMILES Cc1cc(Br)cc(C(=O)NCCCNC(=O)c2ccc(-c3c4nc(c(-c5c(F)c(F)c(F)c(F)c5F)c5ccc([nH]5)c(-c5c(F)c(F)c(F)c(F)c5F)c5nc(c(-c6c(F)c(F)c(F)c(F)c6F)c6ccc3[nH]6)C=C5)C=C4)cc2)c1Br
REMARK SMILES IDX 13 1 12 2 11 3 10 4 8 5 9 6 7 8 1 9 2 10 3 11 80 12 4 13
REMARK SMILES IDX 81 14 5 15 6 16 14 17 15 18 16 20 17 21 18 22 79 23 19 24
REMARK SMILES IDX 78 25 20 26 21 27 22 28 72 29 23 30 77 31 71 32 73 33 24 34
REMARK SMILES IDX 76 35 70 36 69 37 25 39 57 40 37 41 56 42 38 43 41 44 55 45
REMARK SMILES IDX 74 46 39 47 40 48 54 50 75 51 42 52 26 53 27 54 35 55 28 56
REMARK SMILES IDX 29 57 33 58 36 59 30 60 31 61 34 62 32 63 58 64 59 65 67 66
REMARK SMILES IDX 60 67 61 68 65 69 68 70 62 71 63 72 66 73 64 74 43 75 44 76
REMARK SMILES IDX 52 77 45 78 46 79 50 80 53 81 47 82 48 83 51 84 49 85
REMARK H PARENT 10 7 14 19 73 38 41 49
REMARK Flexibility Score: inf
ROOT
ATOM      1  C   UNL A   1      32.682  32.821  27.171  1.00  0.00     0.118 C 
ENDROOT
BRANCH   1   2
ATOM      2  C   UNL A   1      31.386  32.184  26.694  1.00  0.00     0.042 C 
BRANCH   2   3
ATOM      3  C   UNL A   1      31.570  30.877  25.917  1.00  0.00     0.118 C 
BRANCH   3   4
ATOM      4  N   UNL A   1      31.597  29.760  26.838  1.00  0.00    -0.352 N 
ATOM      5  C   UNL A   1      31.735  28.404  26.753  1.00  0.00     0.252 C 
ATOM      6  O   UNL A   1      31.554  27.832  27.837  1.00  0.00    -0.269 OA
ATOM      7  H   UNL A   1      31.486  30.056  27.770  1.00  0.00     0.163 HD
BRANCH   5   8
ATOM      8  C   UNL A   1      32.156  27.550  25.588  1.00  0.00     0.055 A 
ATOM      9  C   UNL A   1      31.768  26.333  21.932  1.00  0.00     0.045 C 
ATOM     10  C   UNL A   1      32.217  26.468  23.370  1.00  0.00    -0.035 A 
ATOM     11  C   UNL A   1      33.210  25.584  23.812  1.00  0.00     0.020 A 
ATOM     12  C   UNL A   1      31.653  27.420  24.275  1.00  0.00     0.033 A 
ATOM     13  C   UNL A   1      33.674  25.664  25.111  1.00  0.00     0.019 A 
ATOM     14  Br  UNL A   1      30.097  28.292  23.626  1.00  0.00    -0.050 Br
ATOM     15  Br  UNL A   1      34.950  24.416  25.730  1.00  0.00    -0.051 Br
ATOM     16  C   UNL A   1      33.182  26.643  25.969  1.00  0.00     0.030 A 
ENDBRANCH   5   8
ENDBRANCH   3   4
ENDBRANCH   2   3
ENDBRANCH   1   2
BRANCH   1  17
ATOM     17  N   UNL A   1      32.476  34.187  27.635  1.00  0.00    -0.352 N 
ATOM     18  C   UNL A   1      33.037  34.857  28.696  1.00  0.00     0.251 C 
ATOM     19  H   UNL A   1      31.834  34.713  27.105  1.00  0.00     0.163 HD
ATOM     20  O   UNL A   1      32.544  35.919  29.072  1.00  0.00    -0.269 OA
BRANCH  18  21
ATOM     21  C   UNL A   1      34.216  34.305  29.403  1.00  0.00     0.039 A 
ATOM     22  C   UNL A   1      35.506  34.529  28.925  1.00  0.00     0.014 A 
ATOM     23  C   UNL A   1      34.032  33.570  30.579  1.00  0.00     0.014 A 
ATOM     24  C   UNL A   1      36.584  33.869  29.504  1.00  0.00     0.010 A 
ATOM     25  C   UNL A   1      35.132  32.995  31.224  1.00  0.00     0.010 A 
ATOM     26  C   UNL A   1      36.414  33.098  30.664  1.00  0.00    -0.014 A 
BRANCH  26  27
ATOM     27  C   UNL A   1      37.593  32.419  31.265  1.00  0.00     0.031 A 
ATOM     28  C   UNL A   1      38.057  32.767  32.654  1.00  0.00     0.074 A 
ATOM     29  C   UNL A   1      38.203  31.432  30.576  1.00  0.00     0.049 A 
ATOM     30  N   UNL A   1      39.059  32.272  33.337  1.00  0.00    -0.248 NA
ATOM     31  C   UNL A   1      37.302  33.806  33.373  1.00  0.00     0.031 C 
ATOM     32  C   UNL A   1      37.832  30.995  29.228  1.00  0.00     0.029 A 
ATOM     33  N   UNL A   1      39.235  30.597  30.921  1.00  0.00    -0.354 N 
ATOM     34  C   UNL A   1      39.067  32.950  34.549  1.00  0.00     0.074 A 
ATOM     35  C   UNL A   1      37.988  33.913  34.502  1.00  0.00     0.031 C 
ATOM     36  C   UNL A   1      38.578  29.935  28.888  1.00  0.00     0.029 A 
ATOM     37  C   UNL A   1      39.532  29.664  29.957  1.00  0.00     0.049 A 
ATOM     38  H   UNL A   1      39.718  30.661  31.777  1.00  0.00     0.167 HD
ATOM     39  C   UNL A   1      39.892  32.774  35.609  1.00  0.00     0.037 A 
ATOM     40  C   UNL A   1      40.480  28.708  29.927  1.00  0.00     0.037 A 
ATOM     41  C   UNL A   1      40.942  31.791  35.663  1.00  0.00     0.049 A 
ATOM     42  C   UNL A   1      41.407  28.565  31.100  1.00  0.00     0.074 A 
ATOM     43  C   UNL A   1      41.821  31.525  36.698  1.00  0.00     0.029 A 
ATOM     44  N   UNL A   1      41.249  30.904  34.640  1.00  0.00    -0.354 N 
ATOM     45  N   UNL A   1      41.407  29.220  32.234  1.00  0.00    -0.248 NA
ATOM     46  C   UNL A   1      42.474  27.564  30.983  1.00  0.00     0.031 C 
ATOM     47  C   UNL A   1      42.687  30.507  36.288  1.00  0.00     0.029 A 
ATOM     48  C   UNL A   1      42.317  30.105  35.015  1.00  0.00     0.049 A 
ATOM     49  H   UNL A   1      40.779  30.852  33.777  1.00  0.00     0.167 HD
ATOM     50  C   UNL A   1      42.464  28.706  32.971  1.00  0.00     0.074 A 
ATOM     51  C   UNL A   1      43.067  27.665  32.164  1.00  0.00     0.031 C 
ATOM     52  C   UNL A   1      42.901  29.070  34.200  1.00  0.00     0.037 A 
BRANCH  39  53
ATOM     53  C   UNL A   1      39.704  33.657  36.807  1.00  0.00     0.064 A 
ATOM     54  C   UNL A   1      40.286  34.931  36.880  1.00  0.00     0.173 A 
ATOM     55  C   UNL A   1      38.853  33.264  37.853  1.00  0.00     0.173 A 
ATOM     56  F   UNL A   1      41.115  35.350  35.913  1.00  0.00    -0.203 F 
ATOM     57  C   UNL A   1      40.030  35.776  37.958  1.00  0.00     0.198 A 
ATOM     58  C   UNL A   1      38.579  34.121  38.916  1.00  0.00     0.198 A 
ATOM     59  F   UNL A   1      38.265  32.059  37.828  1.00  0.00    -0.203 F 
ATOM     60  F   UNL A   1      40.617  36.978  38.020  1.00  0.00    -0.200 F 
ATOM     61  C   UNL A   1      39.168  35.374  38.969  1.00  0.00     0.200 A 
ATOM     62  F   UNL A   1      37.734  33.737  39.883  1.00  0.00    -0.200 F 
ATOM     63  F   UNL A   1      38.906  36.197  39.994  1.00  0.00    -0.200 F 
ENDBRANCH  39  53
BRANCH  40  64
ATOM     64  C   UNL A   1      40.598  27.822  28.739  1.00  0.00     0.064 A 
ATOM     65  C   UNL A   1      39.918  26.598  28.680  1.00  0.00     0.173 A 
ATOM     66  C   UNL A   1      41.377  28.189  27.631  1.00  0.00     0.173 A 
ATOM     67  F   UNL A   1      39.178  26.192  29.722  1.00  0.00    -0.203 F 
ATOM     68  C   UNL A   1      40.019  25.773  27.562  1.00  0.00     0.198 A 
ATOM     69  C   UNL A   1      41.451  27.378  26.501  1.00  0.00     0.198 A 
ATOM     70  F   UNL A   1      42.046  29.351  27.636  1.00  0.00    -0.203 F 
ATOM     71  F   UNL A   1      39.388  24.590  27.546  1.00  0.00    -0.200 F 
ATOM     72  C   UNL A   1      40.778  26.167  26.470  1.00  0.00     0.200 A 
ATOM     73  F   UNL A   1      42.171  27.773  25.442  1.00  0.00    -0.200 F 
ATOM     74  F   UNL A   1      40.862  25.379  25.389  1.00  0.00    -0.200 F 
ENDBRANCH  40  64
BRANCH  52  75
ATOM     75  C   UNL A   1      44.081  28.332  34.759  1.00  0.00     0.064 A 
ATOM     76  C   UNL A   1      45.386  28.822  34.608  1.00  0.00     0.173 A 
ATOM     77  C   UNL A   1      43.897  27.162  35.510  1.00  0.00     0.173 A 
ATOM     78  F   UNL A   1      45.611  29.929  33.886  1.00  0.00    -0.203 F 
ATOM     79  C   UNL A   1      46.467  28.157  35.178  1.00  0.00     0.198 A 
ATOM     80  C   UNL A   1      44.978  26.516  36.102  1.00  0.00     0.198 A 
ATOM     81  F   UNL A   1      42.666  26.658  35.689  1.00  0.00    -0.203 F 
ATOM     82  F   UNL A   1      47.711  28.623  34.991  1.00  0.00    -0.200 F 
ATOM     83  C   UNL A   1      46.262  27.011  35.931  1.00  0.00     0.200 A 
ATOM     84  F   UNL A   1      44.777  25.417  36.842  1.00  0.00    -0.200 F 
ATOM     85  F   UNL A   1      47.304  26.381  36.491  1.00  0.00    -0.200 F 
ENDBRANCH  52  75
ENDBRANCH  26  27
ENDBRANCH  18  21
ENDBRANCH   1  17
TORSDOF 10
ENDMDL
MODEL 3
REMARK VINA RESULT:     -11.8      4.858     10.065
REMARK SMILES Cc1cc(Br)cc(C(=O)NCCCNC(=O)c2ccc(-c3c4nc(c(-c5c(F)c(F)c(F)c(F)c5F)c5ccc([nH]5)c(-c5c(F)c(F)c(F)c(F)c5F)c5nc(c(-c6c(F)c(F)c(F)c(F)c6F)c6ccc3[nH]6)C=C5)C=C4)cc2)c1Br
REMARK SMILES IDX 13 1 12 2 11 3 10 4 8 5 9 6 7 8 1 9 2 10 3 11 80 12 4 13
REMARK SMILES IDX 81 14 5 15 6 16 14 17 15 18 16 20 17 21 18 22 79 23 19 24
REMARK SMILES IDX 78 25 20 26 21 27 22 28 72 29 23 30 77 31 71 32 73 33 24 34
REMARK SMILES IDX 76 35 70 36 69 37 25 39 57 40 37 41 56 42 38 43 41 44 55 45
REMARK SMILES IDX 74 46 39 47 40 48 54 50 75 51 42 52 26 53 27 54 35 55 28 56
REMARK SMILES IDX 29 57 33 58 36 59 30 60 31 61 34 62 32 63 58 64 59 65 67 66
REMARK SMILES IDX 60 67 61 68 65 69 68 70 62 71 63 72 66 73 64 74 43 75 44 76
REMARK SMILES IDX 52 77 45 78 46 79 50 80 53 81 47 82 48 83 51 84 49 85
REMARK H PARENT 10 7 14 19 73 38 41 49
REMARK Flexibility Score: inf
ROOT
ATOM      1  C   UNL A   1      39.049  20.187  25.747  1.00  0.00     0.118 C 
ENDROOT
BRANCH   1   2
ATOM      2  C   UNL A   1      37.882  19.638  24.939  1.00  0.00     0.042 C 
BRANCH   2   3
ATOM      3  C   UNL A   1      36.583  20.438  25.075  1.00  0.00     0.118 C 
BRANCH   3   4
ATOM      4  N   UNL A   1      36.643  21.614  24.232  1.00  0.00    -0.352 N 
ATOM      5  C   UNL A   1      35.832  22.676  23.947  1.00  0.00     0.252 C 
ATOM      6  O   UNL A   1      36.271  23.385  23.031  1.00  0.00    -0.269 OA
ATOM      7  H   UNL A   1      37.491  21.660  23.733  1.00  0.00     0.163 HD
BRANCH   5   8
ATOM      8  C   UNL A   1      34.575  23.138  24.632  1.00  0.00     0.055 A 
ATOM      9  C   UNL A   1      30.952  22.559  25.873  1.00  0.00     0.045 C 
ATOM     10  C   UNL A   1      32.271  23.208  25.515  1.00  0.00    -0.035 A 
ATOM     11  C   UNL A   1      32.406  24.572  25.802  1.00  0.00     0.020 A 
ATOM     12  C   UNL A   1      33.340  22.501  24.883  1.00  0.00     0.033 A 
ATOM     13  C   UNL A   1      33.590  25.223  25.512  1.00  0.00     0.019 A 
ATOM     14  Br  UNL A   1      32.873  20.771  24.254  1.00  0.00    -0.050 Br
ATOM     15  Br  UNL A   1      33.740  27.081  25.819  1.00  0.00    -0.051 Br
ATOM     16  C   UNL A   1      34.660  24.516  24.970  1.00  0.00     0.030 A 
ENDBRANCH   5   8
ENDBRANCH   3   4
ENDBRANCH   2   3
ENDBRANCH   1   2
BRANCH   1  17
ATOM     17  N   UNL A   1      40.108  19.200  25.909  1.00  0.00    -0.352 N 
ATOM     18  C   UNL A   1      41.460  19.373  26.082  1.00  0.00     0.251 C 
ATOM     19  H   UNL A   1      39.808  18.263  25.893  1.00  0.00     0.163 HD
ATOM     20  O   UNL A   1      42.217  18.413  25.945  1.00  0.00    -0.269 OA
BRANCH  18  21
ATOM     21  C   UNL A   1      42.019  20.705  26.412  1.00  0.00     0.039 A 
ATOM     22  C   UNL A   1      42.303  21.054  27.731  1.00  0.00     0.014 A 
ATOM     23  C   UNL A   1      42.287  21.613  25.382  1.00  0.00     0.014 A 
ATOM     24  C   UNL A   1      42.668  22.359  28.039  1.00  0.00     0.010 A 
ATOM     25  C   UNL A   1      42.760  22.894  25.686  1.00  0.00     0.010 A 
ATOM     26  C   UNL A   1      42.908  23.296  27.022  1.00  0.00    -0.014 A 
BRANCH  26  27
ATOM     27  C   UNL A   1      43.313  24.680  27.387  1.00  0.00     0.031 A 
ATOM     28  C   UNL A   1      44.705  25.176  27.101  1.00  0.00     0.074 A 
ATOM     29  C   UNL A   1      42.394  25.514  27.917  1.00  0.00     0.049 A 
ATOM     30  N   UNL A   1      45.229  26.351  27.345  1.00  0.00    -0.248 NA
ATOM     31  C   UNL A   1      45.635  24.232  26.460  1.00  0.00     0.031 C 
ATOM     32  C   UNL A   1      41.009  25.151  28.224  1.00  0.00     0.029 A 
ATOM     33  N   UNL A   1      42.472  26.840  28.259  1.00  0.00    -0.354 N 
ATOM     34  C   UNL A   1      46.546  26.282  26.909  1.00  0.00     0.074 A 
ATOM     35  C   UNL A   1      46.755  24.940  26.409  1.00  0.00     0.031 C 
ATOM     36  C   UNL A   1      40.352  26.240  28.646  1.00  0.00     0.029 A 
ATOM     37  C   UNL A   1      41.284  27.359  28.714  1.00  0.00     0.049 A 
ATOM     38  H   UNL A   1      43.299  27.368  28.187  1.00  0.00     0.167 HD
ATOM     39  C   UNL A   1      47.488  27.255  26.913  1.00  0.00     0.037 A 
ATOM     40  C   UNL A   1      40.982  28.595  29.156  1.00  0.00     0.037 A 
ATOM     41  C   UNL A   1      47.263  28.597  27.379  1.00  0.00     0.049 A 
ATOM     42  C   UNL A   1      42.060  29.640  29.188  1.00  0.00     0.074 A 
ATOM     43  C   UNL A   1      48.151  29.659  27.409  1.00  0.00     0.029 A 
ATOM     44  N   UNL A   1      46.061  29.067  27.889  1.00  0.00    -0.354 N 
ATOM     45  N   UNL A   1      43.302  29.556  28.780  1.00  0.00    -0.248 NA
ATOM     46  C   UNL A   1      41.700  30.946  29.755  1.00  0.00     0.031 C 
ATOM     47  C   UNL A   1      47.500  30.759  27.975  1.00  0.00     0.029 A 
ATOM     48  C   UNL A   1      46.192  30.398  28.254  1.00  0.00     0.049 A 
ATOM     49  H   UNL A   1      45.238  28.535  27.978  1.00  0.00     0.167 HD
ATOM     50  C   UNL A   1      43.870  30.796  29.031  1.00  0.00     0.074 A 
ATOM     51  C   UNL A   1      42.829  31.625  29.603  1.00  0.00     0.031 C 
ATOM     52  C   UNL A   1      45.142  31.208  28.816  1.00  0.00     0.037 A 
BRANCH  39  53
ATOM     53  C   UNL A   1      48.856  26.916  26.398  1.00  0.00     0.064 A 
ATOM     54  C   UNL A   1      49.837  26.356  27.230  1.00  0.00     0.173 A 
ATOM     55  C   UNL A   1      49.160  27.065  25.035  1.00  0.00     0.173 A 
ATOM     56  F   UNL A   1      49.602  26.204  28.541  1.00  0.00    -0.203 F 
ATOM     57  C   UNL A   1      51.072  25.965  26.719  1.00  0.00     0.198 A 
ATOM     58  C   UNL A   1      50.385  26.648  24.523  1.00  0.00     0.198 A 
ATOM     59  F   UNL A   1      48.254  27.588  24.194  1.00  0.00    -0.203 F 
ATOM     60  F   UNL A   1      52.003  25.456  27.537  1.00  0.00    -0.200 F 
ATOM     61  C   UNL A   1      51.341  26.100  25.364  1.00  0.00     0.200 A 
ATOM     62  F   UNL A   1      50.637  26.766  23.211  1.00  0.00    -0.200 F 
ATOM     63  F   UNL A   1      52.522  25.702  24.871  1.00  0.00    -0.200 F 
ENDBRANCH  39  53
BRANCH  40  64
ATOM     64  C   UNL A   1      39.599  28.899  29.610  1.00  0.00     0.064 A 
ATOM     65  C   UNL A   1      38.646  29.420  28.725  1.00  0.00     0.173 A 
ATOM     66  C   UNL A   1      39.196  28.659  30.933  1.00  0.00     0.173 A 
ATOM     67  F   UNL A   1      38.987  29.689  27.455  1.00  0.00    -0.203 F 
ATOM     68  C   UNL A   1      37.347  29.695  29.146  1.00  0.00     0.198 A 
ATOM     69  C   UNL A   1      37.889  28.903  31.345  1.00  0.00     0.198 A 
ATOM     70  F   UNL A   1      40.069  28.159  31.820  1.00  0.00    -0.203 F 
ATOM     71  F   UNL A   1      36.465  30.227  28.289  1.00  0.00    -0.200 F 
ATOM     72  C   UNL A   1      36.966  29.428  30.453  1.00  0.00     0.200 A 
ATOM     73  F   UNL A   1      37.523  28.626  32.603  1.00  0.00    -0.200 F 
ATOM     74  F   UNL A   1      35.712  29.679  30.853  1.00  0.00    -0.200 F 
ENDBRANCH  40  64
BRANCH  52  75
ATOM     75  C   UNL A   1      45.482  32.621  29.187  1.00  0.00     0.064 A 
ATOM     76  C   UNL A   1      46.025  32.936  30.441  1.00  0.00     0.173 A 
ATOM     77  C   UNL A   1      45.326  33.658  28.256  1.00  0.00     0.173 A 
ATOM     78  F   UNL A   1      46.179  31.980  31.368  1.00  0.00    -0.203 F 
ATOM     79  C   UNL A   1      46.387  34.242  30.753  1.00  0.00     0.198 A 
ATOM     80  C   UNL A   1      45.715  34.958  28.562  1.00  0.00     0.198 A 
ATOM     81  F   UNL A   1      44.818  33.405  27.040  1.00  0.00    -0.203 F 
ATOM     82  F   UNL A   1      46.871  34.528  31.970  1.00  0.00    -0.200 F 
ATOM     83  C   UNL A   1      46.240  35.250  29.812  1.00  0.00     0.200 A 
ATOM     84  F   UNL A   1      45.587  35.928  27.646  1.00  0.00    -0.200 F 
ATOM     85  F   UNL A   1      46.603  36.505  30.111  1.00  0.00    -0.200 F 
ENDBRANCH  52  75
ENDBRANCH  26  27
ENDBRANCH  18  21
ENDBRANCH   1  17
TORSDOF 10
ENDMDL
