MODEL 1
REMARK VINA RESULT:     -12.1      0.000      0.000
REMARK SMILES O=C(C[C@H]1C[C@H]2CC[C@@H](C1)[N@H+]2[C@@H]1CCCSC1)NCCCNC(=O)c1ccc(-c2c3nc(c(-c4c(F)c(F)c(F)c(F)c4F)c4ccc([nH]4)c(-c4c(F)c(F)c(F)c(F)c4F)c4nc(c(-c5c(F)c(F)c(F)c(F)c5F)c5ccc2[nH]5)C=C4)C=C3)cc1
REMARK SMILES IDX 20 1 19 2 18 3 1 4 2 5 3 7 4 8 5 9 10 10 6 11 9 12 7 13
REMARK SMILES IDX 11 14 8 15 12 17 13 18 17 19 14 20 16 21 15 22 21 23 22 24
REMARK SMILES IDX 23 25 24 27 25 28 26 29 87 30 27 31 86 32 28 33 29 34 30 35
REMARK SMILES IDX 80 36 31 37 85 38 79 39 81 40 32 41 84 42 78 43 77 44 33 46
REMARK SMILES IDX 65 47 45 48 64 49 46 50 49 51 63 52 82 53 47 54 48 55 62 57
REMARK SMILES IDX 83 58 50 59 34 60 35 61 43 62 36 63 37 64 41 65 44 66 38 67
REMARK SMILES IDX 39 68 42 69 40 70 66 71 67 72 75 73 68 74 69 75 73 76 76 77
REMARK SMILES IDX 70 78 71 79 74 80 72 81 51 82 52 83 60 84 53 85 54 86 58 87
REMARK SMILES IDX 61 88 55 89 56 90 59 91 57 92
REMARK H PARENT 18 6 11 16 22 26 81 45 49 56
REMARK Flexibility Score: inf
ROOT
ATOM      1  C   UNL A   1      37.960  19.577  24.957  1.00  0.00     0.042 C 
ENDROOT
BRANCH   1   2
ATOM      2  C   UNL A   1      36.957  20.676  24.610  1.00  0.00     0.117 C 
BRANCH   2   3
ATOM      3  N   UNL A   1      36.022  20.918  25.692  1.00  0.00    -0.356 N 
ATOM      4  O   UNL A   1      34.138  20.652  24.435  1.00  0.00    -0.275 OA
ATOM      5  C   UNL A   1      34.662  20.927  25.513  1.00  0.00     0.220 C 
ATOM      6  H   UNL A   1      36.380  21.082  26.595  1.00  0.00     0.163 HD
BRANCH   5   7
ATOM      7  C   UNL A   1      33.815  21.423  26.685  1.00  0.00     0.104 C 
BRANCH   7   8
ATOM      8  C   UNL A   1      33.670  22.949  26.865  1.00  0.00     0.010 C 
ATOM      9  C   UNL A   1      34.371  23.741  25.725  1.00  0.00     0.069 C 
ATOM     10  C   UNL A   1      32.186  23.344  27.100  1.00  0.00     0.069 C 
ATOM     11  C   UNL A   1      33.468  24.576  24.806  1.00  0.00     0.185 C 
ATOM     12  C   UNL A   1      31.529  24.146  25.973  1.00  0.00     0.185 C 
ATOM     13  C   UNL A   1      32.668  23.641  23.890  1.00  0.00     0.071 C 
ATOM     14  N   UNL A   1      32.376  25.232  25.501  1.00  0.00    -0.327 N 
ATOM     15  C   UNL A   1      31.415  23.299  24.696  1.00  0.00     0.071 C 
ATOM     16  H   UNL A   1      31.841  25.839  24.879  1.00  0.00     0.348 HD
BRANCH  14  17
ATOM     17  C   UNL A   1      32.590  26.467  26.270  1.00  0.00     0.194 C 
ATOM     18  C   UNL A   1      31.331  27.182  26.803  1.00  0.00     0.067 C 
ATOM     19  C   UNL A   1      33.526  27.414  25.479  1.00  0.00     0.134 C 
ATOM     20  C   UNL A   1      31.590  28.483  27.565  1.00  0.00     0.017 C 
ATOM     21  S   UNL A   1      34.000  28.925  26.372  1.00  0.00    -0.156 SA
ATOM     22  C   UNL A   1      32.336  29.522  26.748  1.00  0.00     0.070 C 
ENDBRANCH  14  17
ENDBRANCH   7   8
ENDBRANCH   5   7
ENDBRANCH   2   3
ENDBRANCH   1   2
BRANCH   1  23
ATOM     23  C   UNL A   1      39.085  20.004  25.901  1.00  0.00     0.118 C 
BRANCH  23  24
ATOM     24  N   UNL A   1      40.209  19.080  25.915  1.00  0.00    -0.352 N 
ATOM     25  C   UNL A   1      41.552  19.301  26.077  1.00  0.00     0.251 C 
ATOM     26  H   UNL A   1      39.963  18.135  25.785  1.00  0.00     0.163 HD
ATOM     27  O   UNL A   1      42.333  18.363  25.918  1.00  0.00    -0.269 OA
BRANCH  25  28
ATOM     28  C   UNL A   1      42.088  20.640  26.415  1.00  0.00     0.039 A 
ATOM     29  C   UNL A   1      42.356  21.529  25.367  1.00  0.00     0.014 A 
ATOM     30  C   UNL A   1      42.382  21.014  27.728  1.00  0.00     0.014 A 
ATOM     31  C   UNL A   1      42.857  22.804  25.638  1.00  0.00     0.010 A 
ATOM     32  C   UNL A   1      42.825  22.310  28.005  1.00  0.00     0.010 A 
ATOM     33  C   UNL A   1      43.067  23.219  26.963  1.00  0.00    -0.014 A 
BRANCH  33  34
ATOM     34  C   UNL A   1      43.521  24.603  27.264  1.00  0.00     0.031 A 
ATOM     35  C   UNL A   1      42.569  25.620  27.829  1.00  0.00     0.074 A 
ATOM     36  C   UNL A   1      44.790  24.960  26.985  1.00  0.00     0.049 A 
ATOM     37  N   UNL A   1      42.780  26.880  28.122  1.00  0.00    -0.248 NA
ATOM     38  C   UNL A   1      41.192  25.169  28.080  1.00  0.00     0.031 C 
ATOM     39  C   UNL A   1      45.802  24.085  26.393  1.00  0.00     0.029 A 
ATOM     40  N   UNL A   1      45.443  26.155  27.157  1.00  0.00    -0.354 N 
ATOM     41  C   UNL A   1      41.565  27.373  28.577  1.00  0.00     0.074 A 
ATOM     42  C   UNL A   1      40.608  26.290  28.480  1.00  0.00     0.031 C 
ATOM     43  C   UNL A   1      46.953  24.765  26.270  1.00  0.00     0.029 A 
ATOM     44  C   UNL A   1      46.754  26.131  26.744  1.00  0.00     0.049 A 
ATOM     45  H   UNL A   1      45.014  26.955  27.538  1.00  0.00     0.167 HD
ATOM     46  C   UNL A   1      41.277  28.610  29.051  1.00  0.00     0.037 A 
ATOM     47  C   UNL A   1      47.690  27.099  26.748  1.00  0.00     0.037 A 
ATOM     48  C   UNL A   1      42.231  29.681  29.175  1.00  0.00     0.049 A 
ATOM     49  C   UNL A   1      47.345  28.460  27.287  1.00  0.00     0.074 A 
ATOM     50  C   UNL A   1      42.045  30.948  29.700  1.00  0.00     0.029 A 
ATOM     51  N   UNL A   1      43.554  29.610  28.764  1.00  0.00    -0.354 N 
ATOM     52  N   UNL A   1      46.210  28.893  27.776  1.00  0.00    -0.248 NA
ATOM     53  C   UNL A   1      48.419  29.464  27.283  1.00  0.00     0.031 C 
ATOM     54  C   UNL A   1      43.243  31.658  29.573  1.00  0.00     0.029 A 
ATOM     55  C   UNL A   1      44.191  30.818  29.010  1.00  0.00     0.049 A 
ATOM     56  H   UNL A   1      43.979  28.820  28.360  1.00  0.00     0.167 HD
ATOM     57  C   UNL A   1      46.437  30.207  28.163  1.00  0.00     0.074 A 
ATOM     58  C   UNL A   1      47.823  30.497  27.863  1.00  0.00     0.031 C 
ATOM     59  C   UNL A   1      45.573  31.093  28.714  1.00  0.00     0.037 A 
BRANCH  46  60
ATOM     60  C   UNL A   1      39.863  28.875  29.483  1.00  0.00     0.064 A 
ATOM     61  C   UNL A   1      38.902  29.369  28.588  1.00  0.00     0.173 A 
ATOM     62  C   UNL A   1      39.452  28.589  30.794  1.00  0.00     0.173 A 
ATOM     63  F   UNL A   1      39.247  29.667  27.326  1.00  0.00    -0.203 F 
ATOM     64  C   UNL A   1      37.590  29.593  28.996  1.00  0.00     0.198 A 
ATOM     65  C   UNL A   1      38.132  28.788  31.191  1.00  0.00     0.198 A 
ATOM     66  F   UNL A   1      40.329  28.108  31.688  1.00  0.00    -0.203 F 
ATOM     67  F   UNL A   1      36.701  30.107  28.135  1.00  0.00    -0.200 F 
ATOM     68  C   UNL A   1      37.204  29.296  30.294  1.00  0.00     0.200 A 
ATOM     69  F   UNL A   1      37.758  28.489  32.443  1.00  0.00    -0.200 F 
ATOM     70  F   UNL A   1      35.940  29.506  30.683  1.00  0.00    -0.200 F 
ENDBRANCH  46  60
BRANCH  47  71
ATOM     71  C   UNL A   1      49.058  26.806  26.248  1.00  0.00     0.064 A 
ATOM     72  C   UNL A   1      49.395  27.030  24.906  1.00  0.00     0.173 A 
ATOM     73  C   UNL A   1      50.051  26.296  27.096  1.00  0.00     0.173 A 
ATOM     74  F   UNL A   1      48.471  27.496  24.053  1.00  0.00    -0.203 F 
ATOM     75  C   UNL A   1      50.668  26.736  24.426  1.00  0.00     0.198 A 
ATOM     76  C   UNL A   1      51.332  26.026  26.621  1.00  0.00     0.198 A 
ATOM     77  F   UNL A   1      49.778  26.067  28.389  1.00  0.00    -0.203 F 
ATOM     78  F   UNL A   1      50.952  26.918  23.130  1.00  0.00    -0.200 F 
ATOM     79  C   UNL A   1      51.638  26.239  25.285  1.00  0.00     0.200 A 
ATOM     80  F   UNL A   1      52.270  25.558  27.456  1.00  0.00    -0.200 F 
ATOM     81  F   UNL A   1      52.865  25.959  24.824  1.00  0.00    -0.200 F 
ENDBRANCH  47  71
BRANCH  59  82
ATOM     82  C   UNL A   1      46.109  32.451  29.061  1.00  0.00     0.064 A 
ATOM     83  C   UNL A   1      46.052  33.518  28.153  1.00  0.00     0.173 A 
ATOM     84  C   UNL A   1      46.662  32.694  30.328  1.00  0.00     0.173 A 
ATOM     85  F   UNL A   1      45.548  33.333  26.924  1.00  0.00    -0.203 F 
ATOM     86  C   UNL A   1      46.553  34.773  28.492  1.00  0.00     0.198 A 
ATOM     87  C   UNL A   1      47.136  33.956  30.673  1.00  0.00     0.198 A 
ATOM     88  F   UNL A   1      46.735  31.707  31.234  1.00  0.00    -0.203 F 
ATOM     89  F   UNL A   1      46.531  35.766  27.591  1.00  0.00    -0.200 F 
ATOM     90  C   UNL A   1      47.088  34.993  29.752  1.00  0.00     0.200 A 
ATOM     91  F   UNL A   1      47.644  34.170  31.894  1.00  0.00    -0.200 F 
ATOM     92  F   UNL A   1      47.566  36.202  30.077  1.00  0.00    -0.200 F 
ENDBRANCH  59  82
ENDBRANCH  33  34
ENDBRANCH  25  28
ENDBRANCH  23  24
ENDBRANCH   1  23
TORSDOF 12
ENDMDL
MODEL 2
REMARK VINA RESULT:     -12.1      5.443      9.630
REMARK SMILES O=C(C[C@H]1C[C@H]2CC[C@@H](C1)[N@H+]2[C@@H]1CCCSC1)NCCCNC(=O)c1ccc(-c2c3nc(c(-c4c(F)c(F)c(F)c(F)c4F)c4ccc([nH]4)c(-c4c(F)c(F)c(F)c(F)c4F)c4nc(c(-c5c(F)c(F)c(F)c(F)c5F)c5ccc2[nH]5)C=C4)C=C3)cc1
REMARK SMILES IDX 20 1 19 2 18 3 1 4 2 5 3 7 4 8 5 9 10 10 6 11 9 12 7 13
REMARK SMILES IDX 11 14 8 15 12 17 13 18 17 19 14 20 16 21 15 22 21 23 22 24
REMARK SMILES IDX 23 25 24 27 25 28 26 29 87 30 27 31 86 32 28 33 29 34 30 35
REMARK SMILES IDX 80 36 31 37 85 38 79 39 81 40 32 41 84 42 78 43 77 44 33 46
REMARK SMILES IDX 65 47 45 48 64 49 46 50 49 51 63 52 82 53 47 54 48 55 62 57
REMARK SMILES IDX 83 58 50 59 34 60 35 61 43 62 36 63 37 64 41 65 44 66 38 67
REMARK SMILES IDX 39 68 42 69 40 70 66 71 67 72 75 73 68 74 69 75 73 76 76 77
REMARK SMILES IDX 70 78 71 79 74 80 72 81 51 82 52 83 60 84 53 85 54 86 58 87
REMARK SMILES IDX 61 88 55 89 56 90 59 91 57 92
REMARK H PARENT 18 6 11 16 22 26 81 45 49 56
REMARK Flexibility Score: inf
ROOT
ATOM      1  C   UNL A   1      31.351  31.864  26.482  1.00  0.00     0.042 C 
ENDROOT
BRANCH   1   2
ATOM      2  C   UNL A   1      31.435  30.353  26.270  1.00  0.00     0.117 C 
BRANCH   2   3
ATOM      3  N   UNL A   1      32.124  30.015  25.040  1.00  0.00    -0.356 N 
ATOM      4  O   UNL A   1      30.426  28.779  24.152  1.00  0.00    -0.275 OA
ATOM      5  C   UNL A   1      31.575  29.209  24.075  1.00  0.00     0.220 C 
ATOM      6  H   UNL A   1      33.025  30.383  24.890  1.00  0.00     0.163 HD
BRANCH   5   7
ATOM      7  C   UNL A   1      32.501  28.754  22.948  1.00  0.00     0.104 C 
BRANCH   7   8
ATOM      8  C   UNL A   1      33.527  27.646  23.269  1.00  0.00     0.010 C 
ATOM      9  C   UNL A   1      33.375  27.116  24.724  1.00  0.00     0.069 C 
ATOM     10  C   UNL A   1      33.512  26.539  22.179  1.00  0.00     0.069 C 
ATOM     11  C   UNL A   1      32.951  25.649  24.884  1.00  0.00     0.185 C 
ATOM     12  C   UNL A   1      32.985  25.175  22.631  1.00  0.00     0.185 C 
ATOM     13  C   UNL A   1      31.473  25.501  24.500  1.00  0.00     0.071 C 
ATOM     14  N   UNL A   1      33.549  24.758  23.907  1.00  0.00    -0.327 N 
ATOM     15  C   UNL A   1      31.494  25.258  22.991  1.00  0.00     0.071 C 
ATOM     16  H   UNL A   1      33.308  23.783  24.086  1.00  0.00     0.348 HD
BRANCH  14  17
ATOM     17  C   UNL A   1      34.932  24.283  24.050  1.00  0.00     0.194 C 
ATOM     18  C   UNL A   1      35.351  23.084  23.173  1.00  0.00     0.067 C 
ATOM     19  C   UNL A   1      35.254  24.069  25.550  1.00  0.00     0.134 C 
ATOM     20  C   UNL A   1      36.786  22.594  23.376  1.00  0.00     0.017 C 
ATOM     21  S   UNL A   1      36.982  23.620  25.893  1.00  0.00    -0.156 SA
ATOM     22  C   UNL A   1      37.084  22.180  24.806  1.00  0.00     0.070 C 
ENDBRANCH  14  17
ENDBRANCH   7   8
ENDBRANCH   5   7
ENDBRANCH   2   3
ENDBRANCH   1   2
BRANCH   1  23
ATOM     23  C   UNL A   1      32.659  32.528  26.915  1.00  0.00     0.118 C 
BRANCH  23  24
ATOM     24  N   UNL A   1      32.472  33.858  27.475  1.00  0.00    -0.352 N 
ATOM     25  C   UNL A   1      33.124  34.504  28.494  1.00  0.00     0.251 C 
ATOM     26  H   UNL A   1      31.754  34.383  27.051  1.00  0.00     0.163 HD
ATOM     27  O   UNL A   1      32.696  35.592  28.879  1.00  0.00    -0.269 OA
BRANCH  25  28
ATOM     28  C   UNL A   1      34.313  33.919  29.154  1.00  0.00     0.039 A 
ATOM     29  C   UNL A   1      34.109  32.940  30.135  1.00  0.00     0.014 A 
ATOM     30  C   UNL A   1      35.611  34.351  28.871  1.00  0.00     0.014 A 
ATOM     31  C   UNL A   1      35.201  32.355  30.782  1.00  0.00     0.010 A 
ATOM     32  C   UNL A   1      36.705  33.724  29.473  1.00  0.00     0.010 A 
ATOM     33  C   UNL A   1      36.512  32.719  30.435  1.00  0.00    -0.014 A 
BRANCH  33  34
ATOM     34  C   UNL A   1      37.680  32.043  31.059  1.00  0.00     0.031 A 
ATOM     35  C   UNL A   1      38.137  32.417  32.442  1.00  0.00     0.074 A 
ATOM     36  C   UNL A   1      38.361  31.116  30.359  1.00  0.00     0.049 A 
ATOM     37  N   UNL A   1      39.153  31.958  33.131  1.00  0.00    -0.248 NA
ATOM     38  C   UNL A   1      37.365  33.458  33.135  1.00  0.00     0.031 C 
ATOM     39  C   UNL A   1      38.052  30.693  28.993  1.00  0.00     0.029 A 
ATOM     40  N   UNL A   1      39.460  30.365  30.698  1.00  0.00    -0.354 N 
ATOM     41  C   UNL A   1      39.149  32.661  34.328  1.00  0.00     0.074 A 
ATOM     42  C   UNL A   1      38.057  33.609  34.255  1.00  0.00     0.031 C 
ATOM     43  C   UNL A   1      38.926  29.745  28.617  1.00  0.00     0.029 A 
ATOM     44  C   UNL A   1      39.874  29.514  29.702  1.00  0.00     0.049 A 
ATOM     45  H   UNL A   1      39.909  30.430  31.572  1.00  0.00     0.167 HD
ATOM     46  C   UNL A   1      39.968  32.515  35.399  1.00  0.00     0.037 A 
ATOM     47  C   UNL A   1      40.903  28.645  29.666  1.00  0.00     0.037 A 
ATOM     48  C   UNL A   1      41.037  31.555  35.485  1.00  0.00     0.049 A 
ATOM     49  C   UNL A   1      41.791  28.499  30.870  1.00  0.00     0.074 A 
ATOM     50  C   UNL A   1      41.880  31.294  36.552  1.00  0.00     0.029 A 
ATOM     51  N   UNL A   1      41.412  30.697  34.462  1.00  0.00    -0.354 N 
ATOM     52  N   UNL A   1      41.734  29.122  32.021  1.00  0.00    -0.248 NA
ATOM     53  C   UNL A   1      42.881  27.517  30.773  1.00  0.00     0.031 C 
ATOM     54  C   UNL A   1      42.790  30.306  36.163  1.00  0.00     0.029 A 
ATOM     55  C   UNL A   1      42.486  29.918  34.868  1.00  0.00     0.049 A 
ATOM     56  H   UNL A   1      40.980  30.647  33.579  1.00  0.00     0.167 HD
ATOM     57  C   UNL A   1      42.760  28.592  32.793  1.00  0.00     0.074 A 
ATOM     58  C   UNL A   1      43.414  27.586  31.985  1.00  0.00     0.031 C 
ATOM     59  C   UNL A   1      43.126  28.915  34.058  1.00  0.00     0.037 A 
BRANCH  46  60
ATOM     60  C   UNL A   1      39.735  33.418  36.577  1.00  0.00     0.064 A 
ATOM     61  C   UNL A   1      38.843  33.071  37.602  1.00  0.00     0.173 A 
ATOM     62  C   UNL A   1      40.446  34.621  36.704  1.00  0.00     0.173 A 
ATOM     63  F   UNL A   1      38.133  31.935  37.522  1.00  0.00    -0.203 F 
ATOM     64  C   UNL A   1      38.650  33.908  38.698  1.00  0.00     0.198 A 
ATOM     65  C   UNL A   1      40.270  35.442  37.815  1.00  0.00     0.198 A 
ATOM     66  F   UNL A   1      41.317  34.997  35.755  1.00  0.00    -0.203 F 
ATOM     67  F   UNL A   1      37.760  33.577  39.643  1.00  0.00    -0.200 F 
ATOM     68  C   UNL A   1      39.369  35.088  38.807  1.00  0.00     0.200 A 
ATOM     69  F   UNL A   1      40.975  36.577  37.925  1.00  0.00    -0.200 F 
ATOM     70  F   UNL A   1      39.187  35.890  39.866  1.00  0.00    -0.200 F 
ENDBRANCH  46  60
BRANCH  47  71
ATOM     71  C   UNL A   1      41.132  27.822  28.451  1.00  0.00     0.064 A 
ATOM     72  C   UNL A   1      42.001  28.257  27.441  1.00  0.00     0.173 A 
ATOM     73  C   UNL A   1      40.487  26.589  28.273  1.00  0.00     0.173 A 
ATOM     74  F   UNL A   1      42.622  29.440  27.558  1.00  0.00    -0.203 F 
ATOM     75  C   UNL A   1      42.202  27.501  26.290  1.00  0.00     0.198 A 
ATOM     76  C   UNL A   1      40.709  25.821  27.132  1.00  0.00     0.198 A 
ATOM     77  F   UNL A   1      39.648  26.128  29.212  1.00  0.00    -0.203 F 
ATOM     78  F   UNL A   1      43.004  27.961  25.321  1.00  0.00    -0.200 F 
ATOM     79  C   UNL A   1      41.560  26.281  26.138  1.00  0.00     0.200 A 
ATOM     80  F   UNL A   1      40.097  24.637  26.995  1.00  0.00    -0.200 F 
ATOM     81  F   UNL A   1      41.756  25.551  25.031  1.00  0.00    -0.200 F 
ENDBRANCH  47  71
BRANCH  59  82
ATOM     82  C   UNL A   1      44.266  28.147  34.659  1.00  0.00     0.064 A 
ATOM     83  C   UNL A   1      44.061  26.932  35.330  1.00  0.00     0.173 A 
ATOM     84  C   UNL A   1      45.582  28.618  34.537  1.00  0.00     0.173 A 
ATOM     85  F   UNL A   1      42.820  26.448  35.487  1.00  0.00    -0.203 F 
ATOM     86  C   UNL A   1      45.131  26.231  35.881  1.00  0.00     0.198 A 
ATOM     87  C   UNL A   1      46.652  27.900  35.065  1.00  0.00     0.198 A 
ATOM     88  F   UNL A   1      45.831  29.772  33.901  1.00  0.00    -0.203 F 
ATOM     89  F   UNL A   1      44.908  25.096  36.559  1.00  0.00    -0.200 F 
ATOM     90  C   UNL A   1      46.425  26.711  35.742  1.00  0.00     0.200 A 
ATOM     91  F   UNL A   1      47.902  28.360  34.923  1.00  0.00    -0.200 F 
ATOM     92  F   UNL A   1      47.453  26.033  36.270  1.00  0.00    -0.200 F 
ENDBRANCH  59  82
ENDBRANCH  33  34
ENDBRANCH  25  28
ENDBRANCH  23  24
ENDBRANCH   1  23
TORSDOF 12
ENDMDL
MODEL 3
REMARK VINA RESULT:     -12.0      5.443      9.605
REMARK SMILES O=C(C[C@H]1C[C@H]2CC[C@@H](C1)[N@H+]2[C@@H]1CCCSC1)NCCCNC(=O)c1ccc(-c2c3nc(c(-c4c(F)c(F)c(F)c(F)c4F)c4ccc([nH]4)c(-c4c(F)c(F)c(F)c(F)c4F)c4nc(c(-c5c(F)c(F)c(F)c(F)c5F)c5ccc2[nH]5)C=C4)C=C3)cc1
REMARK SMILES IDX 20 1 19 2 18 3 1 4 2 5 3 7 4 8 5 9 10 10 6 11 9 12 7 13
REMARK SMILES IDX 11 14 8 15 12 17 13 18 17 19 14 20 16 21 15 22 21 23 22 24
REMARK SMILES IDX 23 25 24 27 25 28 26 29 87 30 27 31 86 32 28 33 29 34 30 35
REMARK SMILES IDX 80 36 31 37 85 38 79 39 81 40 32 41 84 42 78 43 77 44 33 46
REMARK SMILES IDX 65 47 45 48 64 49 46 50 49 51 63 52 82 53 47 54 48 55 62 57
REMARK SMILES IDX 83 58 50 59 34 60 35 61 43 62 36 63 37 64 41 65 44 66 38 67
REMARK SMILES IDX 39 68 42 69 40 70 66 71 67 72 75 73 68 74 69 75 73 76 76 77
REMARK SMILES IDX 70 78 71 79 74 80 72 81 51 82 52 83 60 84 53 85 54 86 58 87
REMARK SMILES IDX 61 88 55 89 56 90 59 91 57 92
REMARK H PARENT 18 6 11 16 22 26 81 45 49 56
REMARK Flexibility Score: inf
ROOT
ATOM      1  C   UNL A   1      31.394  31.942  26.419  1.00  0.00     0.042 C 
ENDROOT
BRANCH   1   2
ATOM      2  C   UNL A   1      31.399  30.431  26.195  1.00  0.00     0.117 C 
BRANCH   2   3
ATOM      3  N   UNL A   1      32.071  30.068  24.962  1.00  0.00    -0.356 N 
ATOM      4  O   UNL A   1      30.431  28.677  24.203  1.00  0.00    -0.275 OA
ATOM      5  C   UNL A   1      31.547  29.174  24.062  1.00  0.00     0.220 C 
ATOM      6  H   UNL A   1      32.941  30.483  24.762  1.00  0.00     0.163 HD
BRANCH   5   7
ATOM      7  C   UNL A   1      32.466  28.715  22.931  1.00  0.00     0.104 C 
BRANCH   7   8
ATOM      8  C   UNL A   1      33.501  27.616  23.253  1.00  0.00     0.010 C 
ATOM      9  C   UNL A   1      33.369  27.101  24.715  1.00  0.00     0.069 C 
ATOM     10  C   UNL A   1      33.480  26.498  22.175  1.00  0.00     0.069 C 
ATOM     11  C   UNL A   1      32.954  25.634  24.896  1.00  0.00     0.185 C 
ATOM     12  C   UNL A   1      32.966  25.135  22.647  1.00  0.00     0.185 C 
ATOM     13  C   UNL A   1      31.473  25.474  24.530  1.00  0.00     0.071 C 
ATOM     14  N   UNL A   1      33.546  24.736  23.921  1.00  0.00    -0.327 N 
ATOM     15  C   UNL A   1      31.479  25.215  23.024  1.00  0.00     0.071 C 
ATOM     16  H   UNL A   1      33.313  23.761  24.114  1.00  0.00     0.348 HD
BRANCH  14  17
ATOM     17  C   UNL A   1      34.934  24.270  24.054  1.00  0.00     0.194 C 
ATOM     18  C   UNL A   1      35.351  23.068  23.181  1.00  0.00     0.067 C 
ATOM     19  C   UNL A   1      35.272  24.068  25.552  1.00  0.00     0.134 C 
ATOM     20  C   UNL A   1      36.790  22.587  23.373  1.00  0.00     0.017 C 
ATOM     21  S   UNL A   1      37.005  23.631  25.881  1.00  0.00    -0.156 SA
ATOM     22  C   UNL A   1      37.105  22.185  24.803  1.00  0.00     0.070 C 
ENDBRANCH  14  17
ENDBRANCH   7   8
ENDBRANCH   5   7
ENDBRANCH   2   3
ENDBRANCH   1   2
BRANCH   1  23
ATOM     23  C   UNL A   1      32.685  32.510  27.013  1.00  0.00     0.118 C 
BRANCH  23  24
ATOM     24  N   UNL A   1      32.528  33.852  27.554  1.00  0.00    -0.352 N 
ATOM     25  C   UNL A   1      33.206  34.502  28.554  1.00  0.00     0.251 C 
ATOM     26  H   UNL A   1      31.814  34.383  27.131  1.00  0.00     0.163 HD
ATOM     27  O   UNL A   1      32.801  35.603  28.928  1.00  0.00    -0.269 OA
BRANCH  25  28
ATOM     28  C   UNL A   1      34.393  33.906  29.208  1.00  0.00     0.039 A 
ATOM     29  C   UNL A   1      34.186  32.918  30.179  1.00  0.00     0.014 A 
ATOM     30  C   UNL A   1      35.692  34.336  28.928  1.00  0.00     0.014 A 
ATOM     31  C   UNL A   1      35.276  32.324  30.820  1.00  0.00     0.010 A 
ATOM     32  C   UNL A   1      36.784  33.700  29.523  1.00  0.00     0.010 A 
ATOM     33  C   UNL A   1      36.588  32.686  30.475  1.00  0.00    -0.014 A 
BRANCH  33  34
ATOM     34  C   UNL A   1      37.754  32.000  31.092  1.00  0.00     0.031 A 
ATOM     35  C   UNL A   1      38.212  32.357  32.479  1.00  0.00     0.074 A 
ATOM     36  C   UNL A   1      38.434  31.079  30.381  1.00  0.00     0.049 A 
ATOM     37  N   UNL A   1      39.227  31.888  33.163  1.00  0.00    -0.248 NA
ATOM     38  C   UNL A   1      37.442  33.392  33.184  1.00  0.00     0.031 C 
ATOM     39  C   UNL A   1      38.123  30.673  29.010  1.00  0.00     0.029 A 
ATOM     40  N   UNL A   1      39.530  30.321  30.712  1.00  0.00    -0.354 N 
ATOM     41  C   UNL A   1      39.225  32.577  34.368  1.00  0.00     0.074 A 
ATOM     42  C   UNL A   1      38.135  33.529  34.305  1.00  0.00     0.031 C 
ATOM     43  C   UNL A   1      38.995  29.727  28.624  1.00  0.00     0.029 A 
ATOM     44  C   UNL A   1      39.943  29.481  29.707  1.00  0.00     0.049 A 
ATOM     45  H   UNL A   1      39.980  30.376  31.587  1.00  0.00     0.167 HD
ATOM     46  C   UNL A   1      40.043  32.418  35.436  1.00  0.00     0.037 A 
ATOM     47  C   UNL A   1      40.969  28.610  29.660  1.00  0.00     0.037 A 
ATOM     48  C   UNL A   1      41.109  31.453  35.513  1.00  0.00     0.049 A 
ATOM     49  C   UNL A   1      41.856  28.448  30.864  1.00  0.00     0.074 A 
ATOM     50  C   UNL A   1      41.951  31.178  36.577  1.00  0.00     0.029 A 
ATOM     51  N   UNL A   1      41.483  30.606  34.480  1.00  0.00    -0.354 N 
ATOM     52  N   UNL A   1      41.801  29.058  32.021  1.00  0.00    -0.248 NA
ATOM     53  C   UNL A   1      42.944  27.464  30.755  1.00  0.00     0.031 C 
ATOM     54  C   UNL A   1      42.859  30.192  36.176  1.00  0.00     0.029 A 
ATOM     55  C   UNL A   1      42.554  29.820  34.877  1.00  0.00     0.049 A 
ATOM     56  H   UNL A   1      41.051  30.568  33.596  1.00  0.00     0.167 HD
ATOM     57  C   UNL A   1      42.825  28.517  32.787  1.00  0.00     0.074 A 
ATOM     58  C   UNL A   1      43.477  27.518  31.968  1.00  0.00     0.031 C 
ATOM     59  C   UNL A   1      43.192  28.824  34.055  1.00  0.00     0.037 A 
BRANCH  46  60
ATOM     60  C   UNL A   1      39.813  33.307  36.625  1.00  0.00     0.064 A 
ATOM     61  C   UNL A   1      40.491  34.526  36.771  1.00  0.00     0.173 A 
ATOM     62  C   UNL A   1      38.871  32.959  37.604  1.00  0.00     0.173 A 
ATOM     63  F   UNL A   1      41.409  34.900  35.866  1.00  0.00    -0.203 F 
ATOM     64  C   UNL A   1      40.255  35.350  37.868  1.00  0.00     0.198 A 
ATOM     65  C   UNL A   1      38.617  33.798  38.686  1.00  0.00     0.198 A 
ATOM     66  F   UNL A   1      38.189  31.807  37.508  1.00  0.00    -0.203 F 
ATOM     67  F   UNL A   1      40.947  36.489  38.010  1.00  0.00    -0.200 F 
ATOM     68  C   UNL A   1      39.314  34.990  38.820  1.00  0.00     0.200 A 
ATOM     69  F   UNL A   1      37.699  33.454  39.599  1.00  0.00    -0.200 F 
ATOM     70  F   UNL A   1      39.083  35.787  39.872  1.00  0.00    -0.200 F 
ENDBRANCH  46  60
BRANCH  47  71
ATOM     71  C   UNL A   1      41.196  27.800  28.437  1.00  0.00     0.064 A 
ATOM     72  C   UNL A   1      40.533  26.579  28.251  1.00  0.00     0.173 A 
ATOM     73  C   UNL A   1      42.079  28.223  27.434  1.00  0.00     0.173 A 
ATOM     74  F   UNL A   1      39.696  26.122  29.194  1.00  0.00    -0.203 F 
ATOM     75  C   UNL A   1      40.759  25.803  27.117  1.00  0.00     0.198 A 
ATOM     76  C   UNL A   1      42.285  27.459  26.287  1.00  0.00     0.198 A 
ATOM     77  F   UNL A   1      42.735  29.386  27.563  1.00  0.00    -0.203 F 
ATOM     78  F   UNL A   1      40.145  24.619  26.985  1.00  0.00    -0.200 F 
ATOM     79  C   UNL A   1      41.631  26.245  26.133  1.00  0.00     0.200 A 
ATOM     80  F   UNL A   1      43.119  27.896  25.333  1.00  0.00    -0.200 F 
ATOM     81  F   UNL A   1      41.846  25.500  25.041  1.00  0.00    -0.200 F 
ENDBRANCH  47  71
BRANCH  59  82
ATOM     82  C   UNL A   1      44.330  28.046  34.648  1.00  0.00     0.064 A 
ATOM     83  C   UNL A   1      44.121  26.831  35.316  1.00  0.00     0.173 A 
ATOM     84  C   UNL A   1      45.648  28.509  34.522  1.00  0.00     0.173 A 
ATOM     85  F   UNL A   1      42.877  26.354  35.476  1.00  0.00    -0.203 F 
ATOM     86  C   UNL A   1      45.189  26.120  35.858  1.00  0.00     0.198 A 
ATOM     87  C   UNL A   1      46.716  27.783  35.042  1.00  0.00     0.198 A 
ATOM     88  F   UNL A   1      45.902  29.665  33.889  1.00  0.00    -0.203 F 
ATOM     89  F   UNL A   1      44.961  24.984  36.533  1.00  0.00    -0.200 F 
ATOM     90  C   UNL A   1      46.485  26.593  35.715  1.00  0.00     0.200 A 
ATOM     91  F   UNL A   1      47.968  28.236  34.895  1.00  0.00    -0.200 F 
ATOM     92  F   UNL A   1      47.511  25.906  36.236  1.00  0.00    -0.200 F 
ENDBRANCH  59  82
ENDBRANCH  33  34
ENDBRANCH  25  28
ENDBRANCH  23  24
ENDBRANCH   1  23
TORSDOF 12
ENDMDL
