MODEL 1
REMARK VINA RESULT:     -11.9      0.000      0.000
REMARK SMILES CC(C)=CC(=O)Nc1ccc(C(=O)NCCCNC(=O)c2ccc(-c3c4nc(c(-c5c(F)c(F)c(F)c(F)c5F)c5ccc([nH]5)c(-c5c(F)c(F)c(F)c(F)c5F)c5nc(c(-c6c(F)c(F)c(F)c(F)c6F)c6ccc3[nH]6)C=C5)C=C4)cc2)cc1
REMARK SMILES IDX 16 1 15 2 14 3 12 4 13 5 11 7 8 8 9 9 85 10 10 11 84 12 7 13
REMARK SMILES IDX 5 14 6 15 4 17 1 18 2 19 3 20 17 21 18 22 19 23 20 25 21 26
REMARK SMILES IDX 22 27 83 28 23 29 82 30 24 31 25 32 26 33 76 34 27 35 81 36
REMARK SMILES IDX 75 37 77 38 28 39 80 40 74 41 73 42 29 44 61 45 41 46 60 47
REMARK SMILES IDX 42 48 45 49 59 50 78 51 43 52 44 53 58 55 79 56 46 57 30 58
REMARK SMILES IDX 31 59 39 60 32 61 33 62 37 63 40 64 34 65 35 66 38 67 36 68
REMARK SMILES IDX 62 69 63 70 71 71 64 72 65 73 69 74 72 75 66 76 67 77 70 78
REMARK SMILES IDX 68 79 47 80 48 81 56 82 49 83 50 84 54 85 57 86 51 87 52 88
REMARK SMILES IDX 55 89 53 90
REMARK H PARENT 14 6 7 16 18 24 77 43 45 54
REMARK Flexibility Score: inf
ROOT
ATOM      1  C   UNL A   1      31.462  32.304  26.747  1.00  0.00     0.042 C 
ENDROOT
BRANCH   1   2
ATOM      2  C   UNL A   1      31.669  30.809  26.515  1.00  0.00     0.118 C 
BRANCH   2   3
ATOM      3  N   UNL A   1      32.912  30.352  27.120  1.00  0.00    -0.352 N 
ATOM      4  C   UNL A   1      33.688  29.242  26.895  1.00  0.00     0.251 C 
ATOM      5  O   UNL A   1      34.735  29.121  27.531  1.00  0.00    -0.269 OA
ATOM      6  H   UNL A   1      33.260  30.951  27.819  1.00  0.00     0.163 HD
BRANCH   4   7
ATOM      7  C   UNL A   1      33.354  28.245  25.848  1.00  0.00     0.039 A 
ATOM      8  C   UNL A   1      33.032  26.098  24.095  1.00  0.00     0.041 A 
ATOM      9  C   UNL A   1      32.438  26.052  25.356  1.00  0.00     0.027 A 
ATOM     10  C   UNL A   1      33.615  27.282  23.647  1.00  0.00     0.027 A 
ATOM     11  C   UNL A   1      32.630  27.113  26.244  1.00  0.00     0.016 A 
ATOM     12  C   UNL A   1      33.747  28.365  24.515  1.00  0.00     0.016 A 
BRANCH   8  13
ATOM     13  N   UNL A   1      33.074  24.915  23.350  1.00  0.00    -0.323 N 
ATOM     14  C   UNL A   1      34.118  24.054  23.154  1.00  0.00     0.248 C 
ATOM     15  O   UNL A   1      34.033  23.164  22.309  1.00  0.00    -0.270 OA
ATOM     16  H   UNL A   1      32.233  24.668  22.903  1.00  0.00     0.170 HD
BRANCH  14  17
ATOM     17  C   UNL A   1      35.357  24.134  23.980  1.00  0.00     0.070 C 
ATOM     18  C   UNL A   1      34.492  23.143  26.161  1.00  0.00     0.039 C 
ATOM     19  C   UNL A   1      35.539  23.738  25.259  1.00  0.00    -0.071 C 
ATOM     20  C   UNL A   1      36.900  23.832  25.900  1.00  0.00     0.039 C 
ENDBRANCH  14  17
ENDBRANCH   8  13
ENDBRANCH   4   7
ENDBRANCH   2   3
ENDBRANCH   1   2
BRANCH   1  21
ATOM     21  C   UNL A   1      32.739  33.041  27.136  1.00  0.00     0.118 C 
BRANCH  21  22
ATOM     22  N   UNL A   1      32.470  34.367  27.670  1.00  0.00    -0.352 N 
ATOM     23  C   UNL A   1      33.034  35.009  28.742  1.00  0.00     0.251 C 
ATOM     24  H   UNL A   1      31.780  34.880  27.192  1.00  0.00     0.163 HD
ATOM     25  O   UNL A   1      32.535  36.063  29.147  1.00  0.00    -0.269 OA
BRANCH  23  26
ATOM     26  C   UNL A   1      34.215  34.449  29.434  1.00  0.00     0.039 A 
ATOM     27  C   UNL A   1      34.022  33.745  30.628  1.00  0.00     0.014 A 
ATOM     28  C   UNL A   1      35.510  34.640  28.943  1.00  0.00     0.014 A 
ATOM     29  C   UNL A   1      35.116  33.189  31.297  1.00  0.00     0.010 A 
ATOM     30  C   UNL A   1      36.593  34.025  29.573  1.00  0.00     0.010 A 
ATOM     31  C   UNL A   1      36.407  33.298  30.758  1.00  0.00    -0.014 A 
BRANCH  31  32
ATOM     32  C   UNL A   1      37.573  32.659  31.420  1.00  0.00     0.031 A 
ATOM     33  C   UNL A   1      38.264  31.488  30.779  1.00  0.00     0.074 A 
ATOM     34  C   UNL A   1      37.961  33.084  32.637  1.00  0.00     0.049 A 
ATOM     35  N   UNL A   1      39.244  30.751  31.238  1.00  0.00    -0.248 NA
ATOM     36  C   UNL A   1      37.766  31.072  29.459  1.00  0.00     0.031 C 
ATOM     37  C   UNL A   1      37.335  34.170  33.391  1.00  0.00     0.029 A 
ATOM     38  N   UNL A   1      38.963  32.638  33.463  1.00  0.00    -0.354 N 
ATOM     39  C   UNL A   1      39.465  29.773  30.278  1.00  0.00     0.074 A 
ATOM     40  C   UNL A   1      38.488  29.984  29.230  1.00  0.00     0.031 C 
ATOM     41  C   UNL A   1      37.968  34.310  34.566  1.00  0.00     0.029 A 
ATOM     42  C   UNL A   1      39.024  33.305  34.662  1.00  0.00     0.049 A 
ATOM     43  H   UNL A   1      39.578  31.910  33.220  1.00  0.00     0.167 HD
ATOM     44  C   UNL A   1      40.406  28.800  30.263  1.00  0.00     0.037 A 
ATOM     45  C   UNL A   1      39.830  33.121  35.724  1.00  0.00     0.037 A 
ATOM     46  C   UNL A   1      41.398  28.614  31.289  1.00  0.00     0.049 A 
ATOM     47  C   UNL A   1      40.888  32.055  35.672  1.00  0.00     0.074 A 
ATOM     48  C   UNL A   1      42.451  27.715  31.321  1.00  0.00     0.029 A 
ATOM     49  N   UNL A   1      41.456  29.337  32.472  1.00  0.00    -0.354 N 
ATOM     50  N   UNL A   1      41.143  31.190  34.721  1.00  0.00    -0.248 NA
ATOM     51  C   UNL A   1      41.779  31.947  36.836  1.00  0.00     0.031 C 
ATOM     52  C   UNL A   1      43.118  27.865  32.541  1.00  0.00     0.029 A 
ATOM     53  C   UNL A   1      42.510  28.889  33.251  1.00  0.00     0.049 A 
ATOM     54  H   UNL A   1      40.839  30.063  32.720  1.00  0.00     0.167 HD
ATOM     55  C   UNL A   1      42.228  30.446  35.161  1.00  0.00     0.074 A 
ATOM     56  C   UNL A   1      42.597  30.973  36.459  1.00  0.00     0.031 C 
ATOM     57  C   UNL A   1      42.862  29.418  34.543  1.00  0.00     0.037 A 
BRANCH  44  58
ATOM     58  C   UNL A   1      40.406  27.855  29.095  1.00  0.00     0.064 A 
ATOM     59  C   UNL A   1      41.166  28.107  27.943  1.00  0.00     0.173 A 
ATOM     60  C   UNL A   1      39.650  26.674  29.137  1.00  0.00     0.173 A 
ATOM     61  F   UNL A   1      41.898  29.227  27.848  1.00  0.00    -0.203 F 
ATOM     62  C   UNL A   1      41.143  27.229  26.863  1.00  0.00     0.198 A 
ATOM     63  C   UNL A   1      39.652  25.784  28.067  1.00  0.00     0.198 A 
ATOM     64  F   UNL A   1      38.912  26.382  30.217  1.00  0.00    -0.203 F 
ATOM     65  F   UNL A   1      41.834  27.517  25.750  1.00  0.00    -0.200 F 
ATOM     66  C   UNL A   1      40.390  26.066  26.927  1.00  0.00     0.200 A 
ATOM     67  F   UNL A   1      38.934  24.654  28.135  1.00  0.00    -0.200 F 
ATOM     68  F   UNL A   1      40.368  25.222  25.886  1.00  0.00    -0.200 F 
ENDBRANCH  44  58
BRANCH  45  69
ATOM     69  C   UNL A   1      39.672  33.987  36.919  1.00  0.00     0.064 A 
ATOM     70  C   UNL A   1      40.300  35.238  36.991  1.00  0.00     0.173 A 
ATOM     71  C   UNL A   1      38.867  33.595  37.999  1.00  0.00     0.173 A 
ATOM     72  F   UNL A   1      41.093  35.647  35.990  1.00  0.00    -0.203 F 
ATOM     73  C   UNL A   1      40.136  36.062  38.103  1.00  0.00     0.198 A 
ATOM     74  C   UNL A   1      38.685  34.430  39.099  1.00  0.00     0.198 A 
ATOM     75  F   UNL A   1      38.241  32.411  37.973  1.00  0.00    -0.203 F 
ATOM     76  F   UNL A   1      40.770  37.240  38.161  1.00  0.00    -0.200 F 
ATOM     77  C   UNL A   1      39.322  35.659  39.152  1.00  0.00     0.200 A 
ATOM     78  F   UNL A   1      37.886  34.045  40.104  1.00  0.00    -0.200 F 
ATOM     79  F   UNL A   1      39.154  36.458  40.216  1.00  0.00    -0.200 F 
ENDBRANCH  45  69
BRANCH  57  80
ATOM     80  C   UNL A   1      44.029  28.804  35.258  1.00  0.00     0.064 A 
ATOM     81  C   UNL A   1      45.335  29.284  35.078  1.00  0.00     0.173 A 
ATOM     82  C   UNL A   1      43.835  27.749  36.162  1.00  0.00     0.173 A 
ATOM     83  F   UNL A   1      45.574  30.281  34.212  1.00  0.00    -0.203 F 
ATOM     84  C   UNL A   1      46.406  28.717  35.763  1.00  0.00     0.198 A 
ATOM     85  C   UNL A   1      44.905  27.201  36.865  1.00  0.00     0.198 A 
ATOM     86  F   UNL A   1      42.605  27.256  36.372  1.00  0.00    -0.203 F 
ATOM     87  F   UNL A   1      47.651  29.164  35.546  1.00  0.00    -0.200 F 
ATOM     88  C   UNL A   1      46.190  27.682  36.661  1.00  0.00     0.200 A 
ATOM     89  F   UNL A   1      44.693  26.208  37.739  1.00  0.00    -0.200 F 
ATOM     90  F   UNL A   1      47.221  27.141  37.324  1.00  0.00    -0.200 F 
ENDBRANCH  57  80
ENDBRANCH  31  32
ENDBRANCH  23  26
ENDBRANCH  21  22
ENDBRANCH   1  21
TORSDOF 12
ENDMDL
MODEL 2
REMARK VINA RESULT:     -11.9      0.072      1.631
REMARK SMILES CC(C)=CC(=O)Nc1ccc(C(=O)NCCCNC(=O)c2ccc(-c3c4nc(c(-c5c(F)c(F)c(F)c(F)c5F)c5ccc([nH]5)c(-c5c(F)c(F)c(F)c(F)c5F)c5nc(c(-c6c(F)c(F)c(F)c(F)c6F)c6ccc3[nH]6)C=C5)C=C4)cc2)cc1
REMARK SMILES IDX 16 1 15 2 14 3 12 4 13 5 11 7 8 8 9 9 85 10 10 11 84 12 7 13
REMARK SMILES IDX 5 14 6 15 4 17 1 18 2 19 3 20 17 21 18 22 19 23 20 25 21 26
REMARK SMILES IDX 22 27 83 28 23 29 82 30 24 31 25 32 26 33 76 34 27 35 81 36
REMARK SMILES IDX 75 37 77 38 28 39 80 40 74 41 73 42 29 44 61 45 41 46 60 47
REMARK SMILES IDX 42 48 45 49 59 50 78 51 43 52 44 53 58 55 79 56 46 57 30 58
REMARK SMILES IDX 31 59 39 60 32 61 33 62 37 63 40 64 34 65 35 66 38 67 36 68
REMARK SMILES IDX 62 69 63 70 71 71 64 72 65 73 69 74 72 75 66 76 67 77 70 78
REMARK SMILES IDX 68 79 47 80 48 81 56 82 49 83 50 84 54 85 57 86 51 87 52 88
REMARK SMILES IDX 55 89 53 90
REMARK H PARENT 14 6 7 16 18 24 77 43 45 54
REMARK Flexibility Score: inf
ROOT
ATOM      1  C   UNL A   1      31.441  32.258  26.839  1.00  0.00     0.042 C 
ENDROOT
BRANCH   1   2
ATOM      2  C   UNL A   1      31.686  30.782  26.532  1.00  0.00     0.118 C 
BRANCH   2   3
ATOM      3  N   UNL A   1      32.910  30.312  27.164  1.00  0.00    -0.352 N 
ATOM      4  C   UNL A   1      33.679  29.193  26.955  1.00  0.00     0.251 C 
ATOM      5  O   UNL A   1      34.710  29.061  27.614  1.00  0.00    -0.269 OA
ATOM      6  H   UNL A   1      33.250  30.907  27.871  1.00  0.00     0.163 HD
BRANCH   4   7
ATOM      7  C   UNL A   1      33.356  28.200  25.902  1.00  0.00     0.039 A 
ATOM      8  C   UNL A   1      33.057  26.060  24.136  1.00  0.00     0.041 A 
ATOM      9  C   UNL A   1      32.459  26.002  25.394  1.00  0.00     0.027 A 
ATOM     10  C   UNL A   1      33.632  27.251  23.696  1.00  0.00     0.027 A 
ATOM     11  C   UNL A   1      32.639  27.059  26.289  1.00  0.00     0.016 A 
ATOM     12  C   UNL A   1      33.753  28.330  24.571  1.00  0.00     0.016 A 
BRANCH   8  13
ATOM     13  N   UNL A   1      33.111  24.882  23.384  1.00  0.00    -0.323 N 
ATOM     14  C   UNL A   1      34.163  24.030  23.186  1.00  0.00     0.248 C 
ATOM     15  O   UNL A   1      34.087  23.145  22.335  1.00  0.00    -0.270 OA
ATOM     16  H   UNL A   1      32.273  24.630  22.933  1.00  0.00     0.170 HD
BRANCH  14  17
ATOM     17  C   UNL A   1      35.398  24.116  24.016  1.00  0.00     0.070 C 
ATOM     18  C   UNL A   1      34.546  23.071  26.176  1.00  0.00     0.039 C 
ATOM     19  C   UNL A   1      35.585  23.700  25.287  1.00  0.00    -0.071 C 
ATOM     20  C   UNL A   1      36.943  23.805  25.932  1.00  0.00     0.039 C 
ENDBRANCH  14  17
ENDBRANCH   8  13
ENDBRANCH   4   7
ENDBRANCH   2   3
ENDBRANCH   1   2
BRANCH   1  21
ATOM     21  C   UNL A   1      32.719  33.040  27.121  1.00  0.00     0.118 C 
BRANCH  21  22
ATOM     22  N   UNL A   1      32.449  34.369  27.647  1.00  0.00    -0.352 N 
ATOM     23  C   UNL A   1      33.009  35.016  28.718  1.00  0.00     0.251 C 
ATOM     24  H   UNL A   1      31.760  34.879  27.164  1.00  0.00     0.163 HD
ATOM     25  O   UNL A   1      32.510  36.072  29.116  1.00  0.00    -0.269 OA
BRANCH  23  26
ATOM     26  C   UNL A   1      34.188  34.459  29.417  1.00  0.00     0.039 A 
ATOM     27  C   UNL A   1      33.995  33.795  30.633  1.00  0.00     0.014 A 
ATOM     28  C   UNL A   1      35.481  34.615  28.909  1.00  0.00     0.014 A 
ATOM     29  C   UNL A   1      35.086  33.242  31.309  1.00  0.00     0.010 A 
ATOM     30  C   UNL A   1      36.560  34.003  29.548  1.00  0.00     0.010 A 
ATOM     31  C   UNL A   1      36.374  33.315  30.757  1.00  0.00    -0.014 A 
BRANCH  31  32
ATOM     32  C   UNL A   1      37.536  32.678  31.428  1.00  0.00     0.031 A 
ATOM     33  C   UNL A   1      38.235  31.510  30.792  1.00  0.00     0.074 A 
ATOM     34  C   UNL A   1      37.913  33.103  32.648  1.00  0.00     0.049 A 
ATOM     35  N   UNL A   1      39.213  30.775  31.259  1.00  0.00    -0.248 NA
ATOM     36  C   UNL A   1      37.749  31.093  29.468  1.00  0.00     0.031 C 
ATOM     37  C   UNL A   1      37.277  34.187  33.398  1.00  0.00     0.029 A 
ATOM     38  N   UNL A   1      38.909  32.659  33.483  1.00  0.00    -0.354 N 
ATOM     39  C   UNL A   1      39.444  29.798  30.300  1.00  0.00     0.074 A 
ATOM     40  C   UNL A   1      38.476  30.007  29.244  1.00  0.00     0.031 C 
ATOM     41  C   UNL A   1      37.900  34.328  34.579  1.00  0.00     0.029 A 
ATOM     42  C   UNL A   1      38.957  33.326  34.682  1.00  0.00     0.049 A 
ATOM     43  H   UNL A   1      39.528  31.932  33.244  1.00  0.00     0.167 HD
ATOM     44  C   UNL A   1      40.388  28.826  30.292  1.00  0.00     0.037 A 
ATOM     45  C   UNL A   1      39.756  33.143  35.751  1.00  0.00     0.037 A 
ATOM     46  C   UNL A   1      41.372  28.642  31.326  1.00  0.00     0.049 A 
ATOM     47  C   UNL A   1      40.817  32.079  35.707  1.00  0.00     0.074 A 
ATOM     48  C   UNL A   1      42.426  27.746  31.367  1.00  0.00     0.029 A 
ATOM     49  N   UNL A   1      41.418  29.365  32.510  1.00  0.00    -0.354 N 
ATOM     50  N   UNL A   1      41.081  31.216  34.757  1.00  0.00    -0.248 NA
ATOM     51  C   UNL A   1      41.698  31.972  36.878  1.00  0.00     0.031 C 
ATOM     52  C   UNL A   1      43.083  27.897  32.593  1.00  0.00     0.029 A 
ATOM     53  C   UNL A   1      42.466  28.919  33.298  1.00  0.00     0.049 A 
ATOM     54  H   UNL A   1      40.797  30.089  32.753  1.00  0.00     0.167 HD
ATOM     55  C   UNL A   1      42.164  30.473  35.206  1.00  0.00     0.074 A 
ATOM     56  C   UNL A   1      42.521  31.001  36.508  1.00  0.00     0.031 C 
ATOM     57  C   UNL A   1      42.806  29.448  34.594  1.00  0.00     0.037 A 
BRANCH  44  58
ATOM     58  C   UNL A   1      40.400  27.883  29.124  1.00  0.00     0.064 A 
ATOM     59  C   UNL A   1      41.170  28.137  27.979  1.00  0.00     0.173 A 
ATOM     60  C   UNL A   1      39.646  26.700  29.158  1.00  0.00     0.173 A 
ATOM     61  F   UNL A   1      41.900  29.258  27.891  1.00  0.00    -0.203 F 
ATOM     62  C   UNL A   1      41.157  27.259  26.897  1.00  0.00     0.198 A 
ATOM     63  C   UNL A   1      39.659  25.810  28.088  1.00  0.00     0.198 A 
ATOM     64  F   UNL A   1      38.899  26.406  30.232  1.00  0.00    -0.203 F 
ATOM     65  F   UNL A   1      41.857  27.550  25.791  1.00  0.00    -0.200 F 
ATOM     66  C   UNL A   1      40.407  26.095  26.955  1.00  0.00     0.200 A 
ATOM     67  F   UNL A   1      38.942  24.679  28.149  1.00  0.00    -0.200 F 
ATOM     68  F   UNL A   1      40.395  25.252  25.913  1.00  0.00    -0.200 F 
ENDBRANCH  44  58
BRANCH  45  69
ATOM     69  C   UNL A   1      39.585  34.008  36.946  1.00  0.00     0.064 A 
ATOM     70  C   UNL A   1      38.813  33.586  38.036  1.00  0.00     0.173 A 
ATOM     71  C   UNL A   1      40.216  35.258  37.033  1.00  0.00     0.173 A 
ATOM     72  F   UNL A   1      38.177  32.406  37.989  1.00  0.00    -0.203 F 
ATOM     73  C   UNL A   1      38.669  34.388  39.167  1.00  0.00     0.198 A 
ATOM     74  C   UNL A   1      40.090  36.047  38.174  1.00  0.00     0.198 A 
ATOM     75  F   UNL A   1      40.971  35.701  36.018  1.00  0.00    -0.203 F 
ATOM     76  F   UNL A   1      37.901  33.976  40.184  1.00  0.00    -0.200 F 
ATOM     77  C   UNL A   1      39.314  35.614  39.237  1.00  0.00     0.200 A 
ATOM     78  F   UNL A   1      40.728  37.224  38.244  1.00  0.00    -0.200 F 
ATOM     79  F   UNL A   1      39.186  36.379  40.331  1.00  0.00    -0.200 F 
ENDBRANCH  45  69
BRANCH  57  80
ATOM     80  C   UNL A   1      43.969  28.836  35.318  1.00  0.00     0.064 A 
ATOM     81  C   UNL A   1      43.793  27.787  36.232  1.00  0.00     0.173 A 
ATOM     82  C   UNL A   1      45.276  29.277  35.065  1.00  0.00     0.173 A 
ATOM     83  F   UNL A   1      42.561  27.342  36.520  1.00  0.00    -0.203 F 
ATOM     84  C   UNL A   1      44.883  27.215  36.882  1.00  0.00     0.198 A 
ATOM     85  C   UNL A   1      46.367  28.684  35.697  1.00  0.00     0.198 A 
ATOM     86  F   UNL A   1      45.498  30.274  34.196  1.00  0.00    -0.203 F 
ATOM     87  F   UNL A   1      44.690  26.242  37.783  1.00  0.00    -0.200 F 
ATOM     88  C   UNL A   1      46.169  27.659  36.609  1.00  0.00     0.200 A 
ATOM     89  F   UNL A   1      47.609  29.108  35.424  1.00  0.00    -0.200 F 
ATOM     90  F   UNL A   1      47.218  27.103  37.231  1.00  0.00    -0.200 F 
ENDBRANCH  57  80
ENDBRANCH  31  32
ENDBRANCH  23  26
ENDBRANCH  21  22
ENDBRANCH   1  21
TORSDOF 12
ENDMDL
MODEL 3
REMARK VINA RESULT:     -11.9      5.811     11.368
REMARK SMILES CC(C)=CC(=O)Nc1ccc(C(=O)NCCCNC(=O)c2ccc(-c3c4nc(c(-c5c(F)c(F)c(F)c(F)c5F)c5ccc([nH]5)c(-c5c(F)c(F)c(F)c(F)c5F)c5nc(c(-c6c(F)c(F)c(F)c(F)c6F)c6ccc3[nH]6)C=C5)C=C4)cc2)cc1
REMARK SMILES IDX 16 1 15 2 14 3 12 4 13 5 11 7 8 8 9 9 85 10 10 11 84 12 7 13
REMARK SMILES IDX 5 14 6 15 4 17 1 18 2 19 3 20 17 21 18 22 19 23 20 25 21 26
REMARK SMILES IDX 22 27 83 28 23 29 82 30 24 31 25 32 26 33 76 34 27 35 81 36
REMARK SMILES IDX 75 37 77 38 28 39 80 40 74 41 73 42 29 44 61 45 41 46 60 47
REMARK SMILES IDX 42 48 45 49 59 50 78 51 43 52 44 53 58 55 79 56 46 57 30 58
REMARK SMILES IDX 31 59 39 60 32 61 33 62 37 63 40 64 34 65 35 66 38 67 36 68
REMARK SMILES IDX 62 69 63 70 71 71 64 72 65 73 69 74 72 75 66 76 67 77 70 78
REMARK SMILES IDX 68 79 47 80 48 81 56 82 49 83 50 84 54 85 57 86 51 87 52 88
REMARK SMILES IDX 55 89 53 90
REMARK H PARENT 14 6 7 16 18 24 77 43 45 54
REMARK Flexibility Score: inf
ROOT
ATOM      1  C   UNL A   1      38.247  19.601  25.001  1.00  0.00     0.042 C 
ENDROOT
BRANCH   1   2
ATOM      2  C   UNL A   1      37.405  20.819  24.626  1.00  0.00     0.118 C 
BRANCH   2   3
ATOM      3  N   UNL A   1      37.886  22.016  25.302  1.00  0.00    -0.352 N 
ATOM      4  C   UNL A   1      37.244  23.161  25.706  1.00  0.00     0.251 C 
ATOM      5  O   UNL A   1      37.895  24.014  26.308  1.00  0.00    -0.269 OA
ATOM      6  H   UNL A   1      38.848  22.001  25.508  1.00  0.00     0.163 HD
BRANCH   4   7
ATOM      7  C   UNL A   1      35.784  23.352  25.526  1.00  0.00     0.039 A 
ATOM      8  C   UNL A   1      33.131  24.164  25.234  1.00  0.00     0.041 A 
ATOM      9  C   UNL A   1      34.018  24.317  24.170  1.00  0.00     0.027 A 
ATOM     10  C   UNL A   1      33.517  23.439  26.360  1.00  0.00     0.027 A 
ATOM     11  C   UNL A   1      35.353  23.941  24.330  1.00  0.00     0.016 A 
ATOM     12  C   UNL A   1      34.836  23.007  26.490  1.00  0.00     0.016 A 
BRANCH   8  13
ATOM     13  N   UNL A   1      31.893  24.811  25.150  1.00  0.00    -0.323 N 
ATOM     14  C   UNL A   1      31.466  25.943  25.788  1.00  0.00     0.248 C 
ATOM     15  O   UNL A   1      30.278  26.261  25.748  1.00  0.00    -0.270 OA
ATOM     16  H   UNL A   1      31.238  24.393  24.548  1.00  0.00     0.170 HD
BRANCH  14  17
ATOM     17  C   UNL A   1      32.419  26.840  26.502  1.00  0.00     0.070 C 
ATOM     18  C   UNL A   1      33.520  27.981  24.510  1.00  0.00     0.039 C 
ATOM     19  C   UNL A   1      33.292  27.725  25.975  1.00  0.00    -0.071 C 
ATOM     20  C   UNL A   1      34.123  28.604  26.874  1.00  0.00     0.039 C 
ENDBRANCH  14  17
ENDBRANCH   8  13
ENDBRANCH   4   7
ENDBRANCH   2   3
ENDBRANCH   1   2
BRANCH   1  21
ATOM     21  C   UNL A   1      39.292  19.892  26.073  1.00  0.00     0.118 C 
BRANCH  21  22
ATOM     22  N   UNL A   1      40.405  18.955  26.028  1.00  0.00    -0.352 N 
ATOM     23  C   UNL A   1      41.753  19.197  26.069  1.00  0.00     0.251 C 
ATOM     24  H   UNL A   1      40.151  18.007  25.958  1.00  0.00     0.163 HD
ATOM     25  O   UNL A   1      42.540  18.276  25.830  1.00  0.00    -0.269 OA
BRANCH  23  26
ATOM     26  C   UNL A   1      42.280  20.546  26.370  1.00  0.00     0.039 A 
ATOM     27  C   UNL A   1      42.625  21.385  25.305  1.00  0.00     0.014 A 
ATOM     28  C   UNL A   1      42.473  20.979  27.685  1.00  0.00     0.014 A 
ATOM     29  C   UNL A   1      43.108  22.672  25.557  1.00  0.00     0.010 A 
ATOM     30  C   UNL A   1      42.889  22.287  27.935  1.00  0.00     0.010 A 
ATOM     31  C   UNL A   1      43.216  23.144  26.874  1.00  0.00    -0.014 A 
BRANCH  31  32
ATOM     32  C   UNL A   1      43.667  24.530  27.159  1.00  0.00     0.031 A 
ATOM     33  C   UNL A   1      42.690  25.563  27.646  1.00  0.00     0.074 A 
ATOM     34  C   UNL A   1      44.942  24.880  26.905  1.00  0.00     0.049 A 
ATOM     35  N   UNL A   1      42.877  26.839  27.873  1.00  0.00    -0.248 NA
ATOM     36  C   UNL A   1      41.311  25.107  27.879  1.00  0.00     0.031 C 
ATOM     37  C   UNL A   1      45.972  23.987  26.373  1.00  0.00     0.029 A 
ATOM     38  N   UNL A   1      45.583  26.087  27.039  1.00  0.00    -0.354 N 
ATOM     39  C   UNL A   1      41.639  27.341  28.253  1.00  0.00     0.074 A 
ATOM     40  C   UNL A   1      40.700  26.243  28.184  1.00  0.00     0.031 C 
ATOM     41  C   UNL A   1      47.116  24.673  26.230  1.00  0.00     0.029 A 
ATOM     42  C   UNL A   1      46.894  26.060  26.630  1.00  0.00     0.049 A 
ATOM     43  H   UNL A   1      45.145  26.893  27.393  1.00  0.00     0.167 HD
ATOM     44  C   UNL A   1      41.319  28.599  28.640  1.00  0.00     0.037 A 
ATOM     45  C   UNL A   1      47.810  27.044  26.573  1.00  0.00     0.037 A 
ATOM     46  C   UNL A   1      42.263  29.682  28.742  1.00  0.00     0.049 A 
ATOM     47  C   UNL A   1      47.442  28.425  27.037  1.00  0.00     0.074 A 
ATOM     48  C   UNL A   1      42.056  30.968  29.211  1.00  0.00     0.029 A 
ATOM     49  N   UNL A   1      43.595  29.607  28.360  1.00  0.00    -0.354 N 
ATOM     50  N   UNL A   1      46.290  28.868  27.475  1.00  0.00    -0.248 NA
ATOM     51  C   UNL A   1      48.505  29.439  27.011  1.00  0.00     0.031 C 
ATOM     52  C   UNL A   1      43.250  31.683  29.072  1.00  0.00     0.029 A 
ATOM     53  C   UNL A   1      44.215  30.830  28.559  1.00  0.00     0.049 A 
ATOM     54  H   UNL A   1      44.034  28.803  28.000  1.00  0.00     0.167 HD
ATOM     55  C   UNL A   1      46.488  30.205  27.790  1.00  0.00     0.074 A 
ATOM     56  C   UNL A   1      47.879  30.497  27.510  1.00  0.00     0.031 C 
ATOM     57  C   UNL A   1      45.598  31.108  28.269  1.00  0.00     0.037 A 
BRANCH  44  58
ATOM     58  C   UNL A   1      39.884  28.874  28.983  1.00  0.00     0.064 A 
ATOM     59  C   UNL A   1      39.387  28.691  30.283  1.00  0.00     0.173 A 
ATOM     60  C   UNL A   1      38.997  29.344  28.003  1.00  0.00     0.173 A 
ATOM     61  F   UNL A   1      40.191  28.233  31.254  1.00  0.00    -0.203 F 
ATOM     62  C   UNL A   1      38.049  28.935  30.580  1.00  0.00     0.198 A 
ATOM     63  C   UNL A   1      37.667  29.615  28.310  1.00  0.00     0.198 A 
ATOM     64  F   UNL A   1      39.421  29.543  26.747  1.00  0.00    -0.203 F 
ATOM     65  F   UNL A   1      37.584  28.700  31.815  1.00  0.00    -0.200 F 
ATOM     66  C   UNL A   1      37.191  29.402  29.596  1.00  0.00     0.200 A 
ATOM     67  F   UNL A   1      36.841  30.078  27.361  1.00  0.00    -0.200 F 
ATOM     68  F   UNL A   1      35.903  29.635  29.883  1.00  0.00    -0.200 F 
ENDBRANCH  44  58
BRANCH  45  69
ATOM     69  C   UNL A   1      49.175  26.742  26.069  1.00  0.00     0.064 A 
ATOM     70  C   UNL A   1      49.513  26.966  24.728  1.00  0.00     0.173 A 
ATOM     71  C   UNL A   1      50.173  26.254  26.925  1.00  0.00     0.173 A 
ATOM     72  F   UNL A   1      48.586  27.415  23.870  1.00  0.00    -0.203 F 
ATOM     73  C   UNL A   1      50.799  26.703  24.258  1.00  0.00     0.198 A 
ATOM     74  C   UNL A   1      51.464  26.014  26.458  1.00  0.00     0.198 A 
ATOM     75  F   UNL A   1      49.899  26.031  28.218  1.00  0.00    -0.203 F 
ATOM     76  F   UNL A   1      51.089  26.897  22.965  1.00  0.00    -0.200 F 
ATOM     77  C   UNL A   1      51.774  26.235  25.126  1.00  0.00     0.200 A 
ATOM     78  F   UNL A   1      52.408  25.578  27.304  1.00  0.00    -0.200 F 
ATOM     79  F   UNL A   1      53.014  25.995  24.676  1.00  0.00    -0.200 F 
ENDBRANCH  45  69
BRANCH  57  80
ATOM     80  C   UNL A   1      46.103  32.496  28.534  1.00  0.00     0.064 A 
ATOM     81  C   UNL A   1      46.665  32.849  29.770  1.00  0.00     0.173 A 
ATOM     82  C   UNL A   1      46.061  33.472  27.528  1.00  0.00     0.173 A 
ATOM     83  F   UNL A   1      46.712  31.954  30.769  1.00  0.00    -0.203 F 
ATOM     84  C   UNL A   1      47.148  34.134  29.995  1.00  0.00     0.198 A 
ATOM     85  C   UNL A   1      46.569  34.750  27.748  1.00  0.00     0.198 A 
ATOM     86  F   UNL A   1      45.538  33.185  26.327  1.00  0.00    -0.203 F 
ATOM     87  F   UNL A   1      47.643  34.462  31.197  1.00  0.00    -0.200 F 
ATOM     88  C   UNL A   1      47.107  35.082  28.982  1.00  0.00     0.200 A 
ATOM     89  F   UNL A   1      46.538  35.661  26.765  1.00  0.00    -0.200 F 
ATOM     90  F   UNL A   1      47.578  36.317  29.199  1.00  0.00    -0.200 F 
ENDBRANCH  57  80
ENDBRANCH  31  32
ENDBRANCH  23  26
ENDBRANCH  21  22
ENDBRANCH   1  21
TORSDOF 12
ENDMDL
