MODEL 1
REMARK VINA RESULT:     -12.2      0.000      0.000
REMARK SMILES Cc1cc(C)cc(OCC(=O)Nc2ccc(O)cc2C(=O)NCCCNC(=O)c2ccc(-c3c4nc(c(-c5c(F)c(F)c(F)c(F)c5F)c5ccc([nH]5)c(-c5c(F)c(F)c(F)c(F)c5F)c5nc(c(-c6c(F)c(F)c(F)c(F)c6F)c6ccc3[nH]6)C=C5)C=C4)cc2)c1
REMARK SMILES IDX 23 1 22 2 20 3 21 4 19 6 13 7 14 8 15 9 18 10 16 11 12 12
REMARK SMILES IDX 10 13 11 14 9 16 8 17 7 18 1 19 2 20 3 21 92 22 4 23 5 24
REMARK SMILES IDX 6 25 17 26 24 28 25 29 26 30 27 31 28 33 29 34 30 35 91 36
REMARK SMILES IDX 31 37 90 38 32 39 33 40 34 41 84 42 35 43 89 44 83 45 85 46
REMARK SMILES IDX 36 47 88 48 82 49 81 50 37 52 69 53 49 54 68 55 50 56 53 57
REMARK SMILES IDX 67 58 86 59 51 60 52 61 66 63 87 64 54 65 38 66 39 67 47 68
REMARK SMILES IDX 40 69 41 70 45 71 48 72 42 73 43 74 46 75 44 76 70 77 71 78
REMARK SMILES IDX 79 79 72 80 73 81 77 82 80 83 74 84 75 85 78 86 76 87 55 88
REMARK SMILES IDX 56 89 64 90 57 91 58 92 62 93 65 94 59 95 60 96 63 97 61 98
REMARK H PARENT 22 5 12 15 17 27 26 32 85 51 53 62
REMARK Flexibility Score: inf
ROOT
ATOM      1  C   UNL A   1      32.068  27.996  27.208  1.00  0.00     0.118 C 
ENDROOT
BRANCH   1   2
ATOM      2  N   UNL A   1      33.222  27.505  26.502  1.00  0.00    -0.352 N 
ATOM      3  C   UNL A   1      33.396  26.344  25.778  1.00  0.00     0.253 C 
ATOM      4  O   UNL A   1      34.467  26.240  25.175  1.00  0.00    -0.269 OA
ATOM      5  H   UNL A   1      34.012  28.092  26.541  1.00  0.00     0.163 HD
BRANCH   3   6
ATOM      6  C   UNL A   1      32.435  25.187  25.731  1.00  0.00     0.067 A 
ATOM      7  C   UNL A   1      31.399  24.933  24.808  1.00  0.00     0.054 A 
ATOM      8  C   UNL A   1      30.591  23.790  24.948  1.00  0.00     0.031 A 
ATOM      9  C   UNL A   1      30.796  22.885  25.984  1.00  0.00     0.048 A 
ATOM     10  C   UNL A   1      32.621  24.253  26.774  1.00  0.00     0.062 A 
ATOM     11  C   UNL A   1      31.817  23.122  26.886  1.00  0.00     0.116 A 
BRANCH   7  12
ATOM     12  N   UNL A   1      31.200  25.703  23.656  1.00  0.00    -0.322 N 
ATOM     13  C   UNL A   1      31.897  25.623  22.473  1.00  0.00     0.262 C 
ATOM     14  O   UNL A   1      31.426  26.220  21.498  1.00  0.00    -0.271 OA
ATOM     15  H   UNL A   1      30.482  26.375  23.698  1.00  0.00     0.170 HD
BRANCH  13  16
ATOM     16  C   UNL A   1      33.103  24.654  22.308  1.00  0.00     0.329 C 
BRANCH  16  17
ATOM     17  O   UNL A   1      32.886  23.252  22.222  1.00  0.00    -0.484 OA
BRANCH  17  18
ATOM     18  C   UNL A   1      33.574  22.545  23.172  1.00  0.00     0.120 A 
ATOM     19  C   UNL A   1      36.360  22.996  25.694  1.00  0.00     0.044 C 
ATOM     20  C   UNL A   1      35.222  22.386  24.929  1.00  0.00    -0.047 A 
ATOM     21  C   UNL A   1      34.608  21.209  25.374  1.00  0.00     0.007 A 
ATOM     22  C   UNL A   1      34.737  23.013  23.782  1.00  0.00     0.049 A 
ATOM     23  C   UNL A   1      33.501  20.676  24.695  1.00  0.00    -0.047 A 
ATOM     24  C   UNL A   1      32.854  19.414  25.179  1.00  0.00     0.044 C 
ATOM     25  C   UNL A   1      32.994  21.350  23.582  1.00  0.00     0.049 A 
ENDBRANCH  17  18
ENDBRANCH  16  17
ENDBRANCH  13  16
ENDBRANCH   7  12
BRANCH  11  26
ATOM     26  O   UNL A   1      32.077  22.252  27.902  1.00  0.00    -0.508 OA
ATOM     27  H   UNL A   1      32.961  22.029  28.114  1.00  0.00     0.293 HD
ENDBRANCH  11  26
ENDBRANCH   3   6
ENDBRANCH   1   2
BRANCH   1  28
ATOM     28  C   UNL A   1      31.471  29.319  26.784  1.00  0.00     0.042 C 
BRANCH  28  29
ATOM     29  C   UNL A   1      32.412  30.260  26.059  1.00  0.00     0.118 C 
BRANCH  29  30
ATOM     30  N   UNL A   1      32.373  31.642  26.526  1.00  0.00    -0.352 N 
ATOM     31  C   UNL A   1      33.211  32.389  27.322  1.00  0.00     0.251 C 
ATOM     32  H   UNL A   1      31.587  32.142  26.206  1.00  0.00     0.163 HD
ATOM     33  O   UNL A   1      32.888  33.547  27.596  1.00  0.00    -0.269 OA
BRANCH  31  34
ATOM     34  C   UNL A   1      34.461  31.839  27.899  1.00  0.00     0.039 A 
ATOM     35  C   UNL A   1      35.568  32.685  28.047  1.00  0.00     0.014 A 
ATOM     36  C   UNL A   1      34.584  30.507  28.277  1.00  0.00     0.014 A 
ATOM     37  C   UNL A   1      36.740  32.214  28.649  1.00  0.00     0.010 A 
ATOM     38  C   UNL A   1      35.683  30.081  29.015  1.00  0.00     0.010 A 
ATOM     39  C   UNL A   1      36.788  30.920  29.194  1.00  0.00    -0.014 A 
BRANCH  39  40
ATOM     40  C   UNL A   1      37.986  30.416  29.920  1.00  0.00     0.031 A 
ATOM     41  C   UNL A   1      38.253  30.851  31.341  1.00  0.00     0.074 A 
ATOM     42  C   UNL A   1      38.865  29.615  29.285  1.00  0.00     0.049 A 
ATOM     43  N   UNL A   1      39.274  30.575  32.114  1.00  0.00    -0.248 NA
ATOM     44  C   UNL A   1      37.263  31.743  31.965  1.00  0.00     0.031 C 
ATOM     45  C   UNL A   1      38.759  29.173  27.892  1.00  0.00     0.029 A 
ATOM     46  N   UNL A   1      40.026  29.029  29.726  1.00  0.00    -0.354 N 
ATOM     47  C   UNL A   1      39.051  31.267  33.299  1.00  0.00     0.074 A 
ATOM     48  C   UNL A   1      37.844  32.040  33.117  1.00  0.00     0.031 C 
ATOM     49  C   UNL A   1      39.780  28.351  27.609  1.00  0.00     0.029 A 
ATOM     50  C   UNL A   1      40.643  28.244  28.781  1.00  0.00     0.049 A 
ATOM     51  H   UNL A   1      40.383  29.159  30.634  1.00  0.00     0.167 HD
ATOM     52  C   UNL A   1      39.761  31.230  34.452  1.00  0.00     0.037 A 
ATOM     53  C   UNL A   1      41.777  27.522  28.852  1.00  0.00     0.037 A 
ATOM     54  C   UNL A   1      40.942  30.434  34.645  1.00  0.00     0.049 A 
ATOM     55  C   UNL A   1      42.553  27.509  30.144  1.00  0.00     0.074 A 
ATOM     56  C   UNL A   1      41.711  30.290  35.787  1.00  0.00     0.029 A 
ATOM     57  N   UNL A   1      41.524  29.639  33.669  1.00  0.00    -0.354 N 
ATOM     58  N   UNL A   1      42.288  28.113  31.277  1.00  0.00    -0.248 NA
ATOM     59  C   UNL A   1      43.781  26.703  30.168  1.00  0.00     0.031 C 
ATOM     60  C   UNL A   1      42.784  29.445  35.488  1.00  0.00     0.029 A 
ATOM     61  C   UNL A   1      42.651  29.016  34.178  1.00  0.00     0.049 A 
ATOM     62  H   UNL A   1      41.186  29.533  32.750  1.00  0.00     0.167 HD
ATOM     63  C   UNL A   1      43.294  27.732  32.155  1.00  0.00     0.074 A 
ATOM     64  C   UNL A   1      44.159  26.826  31.431  1.00  0.00     0.031 C 
ATOM     65  C   UNL A   1      43.490  28.102  33.446  1.00  0.00     0.037 A 
BRANCH  52  66
ATOM     66  C   UNL A   1      39.264  32.055  35.606  1.00  0.00     0.064 A 
ATOM     67  C   UNL A   1      38.415  31.512  36.584  1.00  0.00     0.173 A 
ATOM     68  C   UNL A   1      39.680  33.385  35.768  1.00  0.00     0.173 A 
ATOM     69  F   UNL A   1      37.977  30.249  36.472  1.00  0.00    -0.203 F 
ATOM     70  C   UNL A   1      37.983  32.275  37.665  1.00  0.00     0.198 A 
ATOM     71  C   UNL A   1      39.272  34.136  36.869  1.00  0.00     0.198 A 
ATOM     72  F   UNL A   1      40.494  33.955  34.866  1.00  0.00    -0.203 F 
ATOM     73  F   UNL A   1      37.135  31.748  38.559  1.00  0.00    -0.200 F 
ATOM     74  C   UNL A   1      38.420  33.582  37.811  1.00  0.00     0.200 A 
ATOM     75  F   UNL A   1      39.707  35.394  37.017  1.00  0.00    -0.200 F 
ATOM     76  F   UNL A   1      38.015  34.312  38.861  1.00  0.00    -0.200 F 
ENDBRANCH  52  66
BRANCH  53  77
ATOM     77  C   UNL A   1      42.245  26.729  27.682  1.00  0.00     0.064 A 
ATOM     78  C   UNL A   1      41.776  25.425  27.461  1.00  0.00     0.173 A 
ATOM     79  C   UNL A   1      43.199  27.234  26.787  1.00  0.00     0.173 A 
ATOM     80  F   UNL A   1      40.877  24.887  28.298  1.00  0.00    -0.203 F 
ATOM     81  C   UNL A   1      42.272  24.646  26.418  1.00  0.00     0.198 A 
ATOM     82  C   UNL A   1      43.668  26.467  25.723  1.00  0.00     0.198 A 
ATOM     83  F   UNL A   1      43.678  28.478  26.945  1.00  0.00    -0.203 F 
ATOM     84  F   UNL A   1      41.857  23.379  26.276  1.00  0.00    -0.200 F 
ATOM     85  C   UNL A   1      43.216  25.168  25.547  1.00  0.00     0.200 A 
ATOM     86  F   UNL A   1      44.567  26.982  24.873  1.00  0.00    -0.200 F 
ATOM     87  F   UNL A   1      43.698  24.417  24.549  1.00  0.00    -0.200 F 
ENDBRANCH  53  77
BRANCH  65  88
ATOM     88  C   UNL A   1      44.654  27.487  34.166  1.00  0.00     0.064 A 
ATOM     89  C   UNL A   1      45.912  28.108  34.208  1.00  0.00     0.173 A 
ATOM     90  C   UNL A   1      44.503  26.266  34.844  1.00  0.00     0.173 A 
ATOM     91  F   UNL A   1      46.112  29.269  33.566  1.00  0.00    -0.203 F 
ATOM     92  C   UNL A   1      46.983  27.511  34.865  1.00  0.00     0.198 A 
ATOM     93  C   UNL A   1      45.567  25.691  35.532  1.00  0.00     0.198 A 
ATOM     94  F   UNL A   1      43.319  25.635  34.845  1.00  0.00    -0.203 F 
ATOM     95  F   UNL A   1      48.191  28.091  34.835  1.00  0.00    -0.200 F 
ATOM     96  C   UNL A   1      46.810  26.307  35.531  1.00  0.00     0.200 A 
ATOM     97  F   UNL A   1      45.392  24.538  36.191  1.00  0.00    -0.200 F 
ATOM     98  F   UNL A   1      47.842  25.736  36.167  1.00  0.00    -0.200 F 
ENDBRANCH  65  88
ENDBRANCH  39  40
ENDBRANCH  31  34
ENDBRANCH  29  30
ENDBRANCH  28  29
ENDBRANCH   1  28
TORSDOF 15
ENDMDL
MODEL 2
REMARK VINA RESULT:     -12.0      1.879      7.546
REMARK SMILES Cc1cc(C)cc(OCC(=O)Nc2ccc(O)cc2C(=O)NCCCNC(=O)c2ccc(-c3c4nc(c(-c5c(F)c(F)c(F)c(F)c5F)c5ccc([nH]5)c(-c5c(F)c(F)c(F)c(F)c5F)c5nc(c(-c6c(F)c(F)c(F)c(F)c6F)c6ccc3[nH]6)C=C5)C=C4)cc2)c1
REMARK SMILES IDX 23 1 22 2 20 3 21 4 19 6 13 7 14 8 15 9 18 10 16 11 12 12
REMARK SMILES IDX 10 13 11 14 9 16 8 17 7 18 1 19 2 20 3 21 92 22 4 23 5 24
REMARK SMILES IDX 6 25 17 26 24 28 25 29 26 30 27 31 28 33 29 34 30 35 91 36
REMARK SMILES IDX 31 37 90 38 32 39 33 40 34 41 84 42 35 43 89 44 83 45 85 46
REMARK SMILES IDX 36 47 88 48 82 49 81 50 37 52 69 53 49 54 68 55 50 56 53 57
REMARK SMILES IDX 67 58 86 59 51 60 52 61 66 63 87 64 54 65 38 66 39 67 47 68
REMARK SMILES IDX 40 69 41 70 45 71 48 72 42 73 43 74 46 75 44 76 70 77 71 78
REMARK SMILES IDX 79 79 72 80 73 81 77 82 80 83 74 84 75 85 78 86 76 87 55 88
REMARK SMILES IDX 56 89 64 90 57 91 58 92 62 93 65 94 59 95 60 96 63 97 61 98
REMARK H PARENT 22 5 12 15 17 27 26 32 85 51 53 62
REMARK Flexibility Score: inf
ROOT
ATOM      1  C   UNL A   1      31.449  30.762  25.855  1.00  0.00     0.118 C 
ENDROOT
BRANCH   1   2
ATOM      2  N   UNL A   1      32.425  29.858  26.407  1.00  0.00    -0.352 N 
ATOM      3  C   UNL A   1      32.633  28.517  26.163  1.00  0.00     0.253 C 
ATOM      4  O   UNL A   1      33.629  28.020  26.696  1.00  0.00    -0.269 OA
ATOM      5  H   UNL A   1      33.040  30.261  27.061  1.00  0.00     0.163 HD
BRANCH   3   6
ATOM      6  C   UNL A   1      31.718  27.614  25.379  1.00  0.00     0.067 A 
ATOM      7  C   UNL A   1      31.578  27.495  23.980  1.00  0.00     0.054 A 
ATOM      8  C   UNL A   1      30.644  26.594  23.438  1.00  0.00     0.031 A 
ATOM      9  C   UNL A   1      29.849  25.798  24.257  1.00  0.00     0.048 A 
ATOM     10  C   UNL A   1      30.900  26.796  26.188  1.00  0.00     0.062 A 
ATOM     11  C   UNL A   1      29.991  25.902  25.629  1.00  0.00     0.116 A 
BRANCH   7  12
ATOM     12  N   UNL A   1      32.422  28.145  23.072  1.00  0.00    -0.322 N 
ATOM     13  C   UNL A   1      33.612  27.678  22.566  1.00  0.00     0.262 C 
ATOM     14  O   UNL A   1      34.095  28.287  21.604  1.00  0.00    -0.271 OA
ATOM     15  H   UNL A   1      32.130  29.032  22.762  1.00  0.00     0.170 HD
BRANCH  13  16
ATOM     16  C   UNL A   1      34.218  26.325  23.036  1.00  0.00     0.329 C 
BRANCH  16  17
ATOM     17  O   UNL A   1      33.997  25.142  22.279  1.00  0.00    -0.484 OA
BRANCH  17  18
ATOM     18  C   UNL A   1      33.543  24.098  23.038  1.00  0.00     0.120 A 
ATOM     19  C   UNL A   1      32.376  23.343  26.558  1.00  0.00     0.044 C 
ATOM     20  C   UNL A   1      32.681  23.179  25.098  1.00  0.00    -0.047 A 
ATOM     21  C   UNL A   1      32.210  22.070  24.386  1.00  0.00     0.007 A 
ATOM     22  C   UNL A   1      33.409  24.160  24.424  1.00  0.00     0.049 A 
ATOM     23  C   UNL A   1      32.439  21.953  23.006  1.00  0.00    -0.047 A 
ATOM     24  C   UNL A   1      31.933  20.759  22.255  1.00  0.00     0.044 C 
ATOM     25  C   UNL A   1      33.120  22.973  22.338  1.00  0.00     0.049 A 
ENDBRANCH  17  18
ENDBRANCH  16  17
ENDBRANCH  13  16
ENDBRANCH   7  12
BRANCH  11  26
ATOM     26  O   UNL A   1      29.257  25.126  26.474  1.00  0.00    -0.508 OA
ATOM     27  H   UNL A   1      28.563  25.505  26.975  1.00  0.00     0.293 HD
ENDBRANCH  11  26
ENDBRANCH   3   6
ENDBRANCH   1   2
BRANCH   1  28
ATOM     28  C   UNL A   1      31.247  32.101  26.527  1.00  0.00     0.042 C 
BRANCH  28  29
ATOM     29  C   UNL A   1      32.496  32.750  27.085  1.00  0.00     0.118 C 
BRANCH  29  30
ATOM     30  N   UNL A   1      32.309  34.109  27.585  1.00  0.00    -0.352 N 
ATOM     31  C   UNL A   1      32.969  34.863  28.527  1.00  0.00     0.251 C 
ATOM     32  H   UNL A   1      31.557  34.582  27.161  1.00  0.00     0.163 HD
ATOM     33  O   UNL A   1      32.544  35.992  28.784  1.00  0.00    -0.269 OA
BRANCH  31  34
ATOM     34  C   UNL A   1      34.142  34.353  29.277  1.00  0.00     0.039 A 
ATOM     35  C   UNL A   1      33.929  33.616  30.449  1.00  0.00     0.014 A 
ATOM     36  C   UNL A   1      35.450  34.601  28.873  1.00  0.00     0.014 A 
ATOM     37  C   UNL A   1      35.012  33.064  31.142  1.00  0.00     0.010 A 
ATOM     38  C   UNL A   1      36.511  33.926  29.465  1.00  0.00     0.010 A 
ATOM     39  C   UNL A   1      36.313  33.164  30.622  1.00  0.00    -0.014 A 
BRANCH  39  40
ATOM     40  C   UNL A   1      37.477  32.515  31.285  1.00  0.00     0.031 A 
ATOM     41  C   UNL A   1      38.214  31.391  30.599  1.00  0.00     0.074 A 
ATOM     42  C   UNL A   1      37.838  32.895  32.528  1.00  0.00     0.049 A 
ATOM     43  N   UNL A   1      39.206  30.657  31.040  1.00  0.00    -0.248 NA
ATOM     44  C   UNL A   1      37.754  31.013  29.251  1.00  0.00     0.031 C 
ATOM     45  C   UNL A   1      37.169  33.923  33.328  1.00  0.00     0.029 A 
ATOM     46  N   UNL A   1      38.855  32.459  33.340  1.00  0.00    -0.354 N 
ATOM     47  C   UNL A   1      39.472  29.734  30.035  1.00  0.00     0.074 A 
ATOM     48  C   UNL A   1      38.489  29.942  28.997  1.00  0.00     0.031 C 
ATOM     49  C   UNL A   1      37.820  34.072  34.492  1.00  0.00     0.029 A 
ATOM     50  C   UNL A   1      38.922  33.118  34.545  1.00  0.00     0.049 A 
ATOM     51  H   UNL A   1      39.478  31.741  33.083  1.00  0.00     0.167 HD
ATOM     52  C   UNL A   1      40.472  28.823  29.961  1.00  0.00     0.037 A 
ATOM     53  C   UNL A   1      39.776  32.966  35.575  1.00  0.00     0.037 A 
ATOM     54  C   UNL A   1      41.471  28.639  30.978  1.00  0.00     0.049 A 
ATOM     55  C   UNL A   1      40.871  31.937  35.469  1.00  0.00     0.074 A 
ATOM     56  C   UNL A   1      42.552  27.776  30.981  1.00  0.00     0.029 A 
ATOM     57  N   UNL A   1      41.515  29.340  32.174  1.00  0.00    -0.354 N 
ATOM     58  N   UNL A   1      41.151  31.121  34.482  1.00  0.00    -0.248 NA
ATOM     59  C   UNL A   1      41.775  31.816  36.621  1.00  0.00     0.031 C 
ATOM     60  C   UNL A   1      43.223  27.920  32.200  1.00  0.00     0.029 A 
ATOM     61  C   UNL A   1      42.595  28.914  32.931  1.00  0.00     0.049 A 
ATOM     62  H   UNL A   1      40.873  30.036  32.447  1.00  0.00     0.167 HD
ATOM     63  C   UNL A   1      42.282  30.419  34.878  1.00  0.00     0.074 A 
ATOM     64  C   UNL A   1      42.649  30.922  36.184  1.00  0.00     0.031 C 
ATOM     65  C   UNL A   1      42.955  29.440  34.222  1.00  0.00     0.037 A 
BRANCH  52  66
ATOM     66  C   UNL A   1      40.552  27.971  28.725  1.00  0.00     0.064 A 
ATOM     67  C   UNL A   1      41.317  28.361  27.614  1.00  0.00     0.173 A 
ATOM     68  C   UNL A   1      39.901  26.730  28.667  1.00  0.00     0.173 A 
ATOM     69  F   UNL A   1      41.950  29.544  27.611  1.00  0.00    -0.203 F 
ATOM     70  C   UNL A   1      41.408  27.552  26.485  1.00  0.00     0.198 A 
ATOM     71  C   UNL A   1      40.022  25.908  27.548  1.00  0.00     0.198 A 
ATOM     72  F   UNL A   1      39.159  26.305  29.701  1.00  0.00    -0.203 F 
ATOM     73  F   UNL A   1      42.106  27.968  25.420  1.00  0.00    -0.200 F 
ATOM     74  C   UNL A   1      40.769  26.323  26.457  1.00  0.00     0.200 A 
ATOM     75  F   UNL A   1      39.415  24.713  27.529  1.00  0.00    -0.200 F 
ATOM     76  F   UNL A   1      40.870  25.538  25.374  1.00  0.00    -0.200 F 
ENDBRANCH  52  66
BRANCH  53  77
ATOM     77  C   UNL A   1      39.656  33.819  36.790  1.00  0.00     0.064 A 
ATOM     78  C   UNL A   1      38.901  33.397  37.895  1.00  0.00     0.173 A 
ATOM     79  C   UNL A   1      40.252  35.086  36.859  1.00  0.00     0.173 A 
ATOM     80  F   UNL A   1      38.294  32.201  37.873  1.00  0.00    -0.203 F 
ATOM     81  C   UNL A   1      38.713  34.225  39.000  1.00  0.00     0.198 A 
ATOM     82  C   UNL A   1      40.094  35.899  37.979  1.00  0.00     0.198 A 
ATOM     83  F   UNL A   1      40.992  35.539  35.834  1.00  0.00    -0.203 F 
ATOM     84  F   UNL A   1      37.927  33.823  40.009  1.00  0.00    -0.200 F 
ATOM     85  C   UNL A   1      39.312  35.474  39.043  1.00  0.00     0.200 A 
ATOM     86  F   UNL A   1      40.689  37.098  38.025  1.00  0.00    -0.200 F 
ATOM     87  F   UNL A   1      39.126  36.273  40.102  1.00  0.00    -0.200 F 
ENDBRANCH  53  77
BRANCH  65  88
ATOM     88  C   UNL A   1      44.182  28.889  34.887  1.00  0.00     0.064 A 
ATOM     89  C   UNL A   1      45.449  29.462  34.695  1.00  0.00     0.173 A 
ATOM     90  C   UNL A   1      44.086  27.783  35.747  1.00  0.00     0.173 A 
ATOM     91  F   UNL A   1      45.597  30.512  33.874  1.00  0.00    -0.203 F 
ATOM     92  C   UNL A   1      46.577  28.923  35.305  1.00  0.00     0.198 A 
ATOM     93  C   UNL A   1      45.212  27.271  36.385  1.00  0.00     0.198 A 
ATOM     94  F   UNL A   1      42.898  27.204  35.974  1.00  0.00    -0.203 F 
ATOM     95  F   UNL A   1      47.785  29.447  35.054  1.00  0.00    -0.200 F 
ATOM     96  C   UNL A   1      46.458  27.833  36.154  1.00  0.00     0.200 A 
ATOM     97  F   UNL A   1      45.091  26.230  37.219  1.00  0.00    -0.200 F 
ATOM     98  F   UNL A   1      47.546  27.319  36.743  1.00  0.00    -0.200 F 
ENDBRANCH  65  88
ENDBRANCH  39  40
ENDBRANCH  31  34
ENDBRANCH  29  30
ENDBRANCH  28  29
ENDBRANCH   1  28
TORSDOF 15
ENDMDL
MODEL 3
REMARK VINA RESULT:     -12.0      4.269      9.638
REMARK SMILES Cc1cc(C)cc(OCC(=O)Nc2ccc(O)cc2C(=O)NCCCNC(=O)c2ccc(-c3c4nc(c(-c5c(F)c(F)c(F)c(F)c5F)c5ccc([nH]5)c(-c5c(F)c(F)c(F)c(F)c5F)c5nc(c(-c6c(F)c(F)c(F)c(F)c6F)c6ccc3[nH]6)C=C5)C=C4)cc2)c1
REMARK SMILES IDX 23 1 22 2 20 3 21 4 19 6 13 7 14 8 15 9 18 10 16 11 12 12
REMARK SMILES IDX 10 13 11 14 9 16 8 17 7 18 1 19 2 20 3 21 92 22 4 23 5 24
REMARK SMILES IDX 6 25 17 26 24 28 25 29 26 30 27 31 28 33 29 34 30 35 91 36
REMARK SMILES IDX 31 37 90 38 32 39 33 40 34 41 84 42 35 43 89 44 83 45 85 46
REMARK SMILES IDX 36 47 88 48 82 49 81 50 37 52 69 53 49 54 68 55 50 56 53 57
REMARK SMILES IDX 67 58 86 59 51 60 52 61 66 63 87 64 54 65 38 66 39 67 47 68
REMARK SMILES IDX 40 69 41 70 45 71 48 72 42 73 43 74 46 75 44 76 70 77 71 78
REMARK SMILES IDX 79 79 72 80 73 81 77 82 80 83 74 84 75 85 78 86 76 87 55 88
REMARK SMILES IDX 56 89 64 90 57 91 58 92 62 93 65 94 59 95 60 96 63 97 61 98
REMARK H PARENT 22 5 12 15 17 27 26 32 85 51 53 62
REMARK Flexibility Score: inf
ROOT
ATOM      1  C   UNL A   1      36.407  23.465  23.808  1.00  0.00     0.118 C 
ENDROOT
BRANCH   1   2
ATOM      2  N   UNL A   1      35.791  24.138  24.922  1.00  0.00    -0.352 N 
ATOM      3  C   UNL A   1      34.545  24.717  25.034  1.00  0.00     0.253 C 
ATOM      4  O   UNL A   1      34.236  25.121  26.158  1.00  0.00    -0.269 OA
ATOM      5  H   UNL A   1      36.348  24.192  25.732  1.00  0.00     0.163 HD
BRANCH   3   6
ATOM      6  C   UNL A   1      33.585  24.958  23.900  1.00  0.00     0.067 A 
ATOM      7  C   UNL A   1      32.426  24.233  23.550  1.00  0.00     0.054 A 
ATOM      8  C   UNL A   1      31.664  24.615  22.431  1.00  0.00     0.031 A 
ATOM      9  C   UNL A   1      32.022  25.711  21.653  1.00  0.00     0.048 A 
ATOM     10  C   UNL A   1      33.927  26.067  23.094  1.00  0.00     0.062 A 
ATOM     11  C   UNL A   1      33.151  26.434  21.998  1.00  0.00     0.116 A 
BRANCH   7  12
ATOM     12  N   UNL A   1      31.904  23.204  24.343  1.00  0.00    -0.322 N 
ATOM     13  C   UNL A   1      31.089  23.336  25.442  1.00  0.00     0.262 C 
ATOM     14  O   UNL A   1      30.543  22.311  25.868  1.00  0.00    -0.271 OA
ATOM     15  H   UNL A   1      32.146  22.286  24.084  1.00  0.00     0.170 HD
BRANCH  13  16
ATOM     16  C   UNL A   1      30.696  24.736  25.996  1.00  0.00     0.329 C 
BRANCH  16  17
ATOM     17  O   UNL A   1      29.842  25.589  25.244  1.00  0.00    -0.484 OA
BRANCH  17  18
ATOM     18  C   UNL A   1      30.396  26.815  24.996  1.00  0.00     0.120 A 
ATOM     19  C   UNL A   1      33.460  28.862  25.860  1.00  0.00     0.044 C 
ATOM     20  C   UNL A   1      32.176  28.432  25.214  1.00  0.00    -0.047 A 
ATOM     21  C   UNL A   1      31.671  29.112  24.098  1.00  0.00     0.007 A 
ATOM     22  C   UNL A   1      31.490  27.319  25.698  1.00  0.00     0.049 A 
ATOM     23  C   UNL A   1      30.505  28.668  23.455  1.00  0.00    -0.047 A 
ATOM     24  C   UNL A   1      29.973  29.405  22.264  1.00  0.00     0.044 C 
ATOM     25  C   UNL A   1      29.864  27.518  23.919  1.00  0.00     0.049 A 
ENDBRANCH  17  18
ENDBRANCH  16  17
ENDBRANCH  13  16
ENDBRANCH   7  12
BRANCH  11  26
ATOM     26  O   UNL A   1      33.529  27.532  21.286  1.00  0.00    -0.508 OA
ATOM     27  H   UNL A   1      33.073  28.342  21.398  1.00  0.00     0.293 HD
ENDBRANCH  11  26
ENDBRANCH   3   6
ENDBRANCH   1   2
BRANCH   1  28
ATOM     28  C   UNL A   1      37.036  22.110  24.043  1.00  0.00     0.042 C 
BRANCH  28  29
ATOM     29  C   UNL A   1      37.145  21.679  25.491  1.00  0.00     0.118 C 
BRANCH  29  30
ATOM     30  N   UNL A   1      38.270  20.797  25.783  1.00  0.00    -0.352 N 
ATOM     31  C   UNL A   1      39.523  21.013  26.309  1.00  0.00     0.251 C 
ATOM     32  H   UNL A   1      38.097  19.854  25.558  1.00  0.00     0.163 HD
ATOM     33  O   UNL A   1      40.300  20.061  26.396  1.00  0.00    -0.269 OA
BRANCH  31  34
ATOM     34  C   UNL A   1      39.987  22.357  26.733  1.00  0.00     0.039 A 
ATOM     35  C   UNL A   1      41.003  22.450  27.693  1.00  0.00     0.014 A 
ATOM     36  C   UNL A   1      39.433  23.529  26.230  1.00  0.00     0.014 A 
ATOM     37  C   UNL A   1      41.509  23.701  28.064  1.00  0.00     0.010 A 
ATOM     38  C   UNL A   1      40.038  24.756  26.476  1.00  0.00     0.010 A 
ATOM     39  C   UNL A   1      41.071  24.866  27.413  1.00  0.00    -0.014 A 
BRANCH  39  40
ATOM     40  C   UNL A   1      41.650  26.203  27.720  1.00  0.00     0.031 A 
ATOM     41  C   UNL A   1      43.053  26.543  27.279  1.00  0.00     0.074 A 
ATOM     42  C   UNL A   1      40.939  27.091  28.444  1.00  0.00     0.049 A 
ATOM     43  N   UNL A   1      43.755  27.626  27.507  1.00  0.00    -0.248 NA
ATOM     44  C   UNL A   1      43.780  25.519  26.510  1.00  0.00     0.031 C 
ATOM     45  C   UNL A   1      39.597  26.862  28.986  1.00  0.00     0.029 A 
ATOM     46  N   UNL A   1      41.244  28.365  28.852  1.00  0.00    -0.354 N 
ATOM     47  C   UNL A   1      44.997  27.403  26.925  1.00  0.00     0.074 A 
ATOM     48  C   UNL A   1      44.986  26.055  26.405  1.00  0.00     0.031 C 
ATOM     49  C   UNL A   1      39.178  27.973  29.612  1.00  0.00     0.029 A 
ATOM     50  C   UNL A   1      40.236  28.976  29.560  1.00  0.00     0.049 A 
ATOM     51  H   UNL A   1      42.105  28.802  28.656  1.00  0.00     0.167 HD
ATOM     52  C   UNL A   1      46.041  28.257  26.796  1.00  0.00     0.037 A 
ATOM     53  C   UNL A   1      40.175  30.205  30.108  1.00  0.00     0.037 A 
ATOM     54  C   UNL A   1      46.040  29.609  27.283  1.00  0.00     0.049 A 
ATOM     55  C   UNL A   1      41.355  31.129  29.957  1.00  0.00     0.074 A 
ATOM     56  C   UNL A   1      47.028  30.571  27.164  1.00  0.00     0.029 A 
ATOM     57  N   UNL A   1      44.993  30.195  27.978  1.00  0.00    -0.354 N 
ATOM     58  N   UNL A   1      42.495  30.927  29.341  1.00  0.00    -0.248 NA
ATOM     59  C   UNL A   1      41.234  32.458  30.571  1.00  0.00     0.031 C 
ATOM     60  C   UNL A   1      46.597  31.724  27.829  1.00  0.00     0.029 A 
ATOM     61  C   UNL A   1      45.318  31.500  28.310  1.00  0.00     0.049 A 
ATOM     62  H   UNL A   1      44.144  29.749  28.203  1.00  0.00     0.167 HD
ATOM     63  C   UNL A   1      43.208  32.112  29.463  1.00  0.00     0.074 A 
ATOM     64  C   UNL A   1      42.363  33.035  30.189  1.00  0.00     0.031 C 
ATOM     65  C   UNL A   1      44.455  32.410  29.019  1.00  0.00     0.037 A 
BRANCH  52  66
ATOM     66  C   UNL A   1      47.263  27.763  26.074  1.00  0.00     0.064 A 
ATOM     67  C   UNL A   1      48.361  27.232  26.770  1.00  0.00     0.173 A 
ATOM     68  C   UNL A   1      47.320  27.770  24.672  1.00  0.00     0.173 A 
ATOM     69  F   UNL A   1      48.365  27.211  28.111  1.00  0.00    -0.203 F 
ATOM     70  C   UNL A   1      49.478  26.750  26.092  1.00  0.00     0.198 A 
ATOM     71  C   UNL A   1      48.425  27.257  23.996  1.00  0.00     0.198 A 
ATOM     72  F   UNL A   1      46.298  28.262  23.955  1.00  0.00    -0.203 F 
ATOM     73  F   UNL A   1      50.532  26.293  26.780  1.00  0.00    -0.200 F 
ATOM     74  C   UNL A   1      49.504  26.754  24.706  1.00  0.00     0.200 A 
ATOM     75  F   UNL A   1      48.442  27.248  22.656  1.00  0.00    -0.200 F 
ATOM     76  F   UNL A   1      50.574  26.276  24.053  1.00  0.00    -0.200 F 
ENDBRANCH  52  66
BRANCH  53  77
ATOM     77  C   UNL A   1      38.951  30.653  30.828  1.00  0.00     0.064 A 
ATOM     78  C   UNL A   1      38.844  30.516  32.220  1.00  0.00     0.173 A 
ATOM     79  C   UNL A   1      37.850  31.185  30.143  1.00  0.00     0.173 A 
ATOM     80  F   UNL A   1      39.862  29.995  32.921  1.00  0.00    -0.203 F 
ATOM     81  C   UNL A   1      37.670  30.853  32.891  1.00  0.00     0.198 A 
ATOM     82  C   UNL A   1      36.690  31.557  30.819  1.00  0.00     0.198 A 
ATOM     83  F   UNL A   1      37.899  31.346  28.811  1.00  0.00    -0.203 F 
ATOM     84  F   UNL A   1      37.572  30.643  34.211  1.00  0.00    -0.200 F 
ATOM     85  C   UNL A   1      36.595  31.377  32.191  1.00  0.00     0.200 A 
ATOM     86  F   UNL A   1      35.659  32.079  30.141  1.00  0.00    -0.200 F 
ATOM     87  F   UNL A   1      35.464  31.695  32.834  1.00  0.00    -0.200 F 
ENDBRANCH  53  77
BRANCH  65  88
ATOM     88  C   UNL A   1      44.954  33.804  29.262  1.00  0.00     0.064 A 
ATOM     89  C   UNL A   1      44.716  34.845  28.352  1.00  0.00     0.173 A 
ATOM     90  C   UNL A   1      45.664  34.108  30.435  1.00  0.00     0.173 A 
ATOM     91  F   UNL A   1      44.053  34.605  27.210  1.00  0.00    -0.203 F 
ATOM     92  C   UNL A   1      45.205  36.127  28.587  1.00  0.00     0.198 A 
ATOM     93  C   UNL A   1      46.118  35.400  30.684  1.00  0.00     0.198 A 
ATOM     94  F   UNL A   1      45.910  33.153  31.343  1.00  0.00    -0.203 F 
ATOM     95  F   UNL A   1      45.021  37.089  27.672  1.00  0.00    -0.200 F 
ATOM     96  C   UNL A   1      45.899  36.405  29.754  1.00  0.00     0.200 A 
ATOM     97  F   UNL A   1      46.772  35.670  31.821  1.00  0.00    -0.200 F 
ATOM     98  F   UNL A   1      46.365  37.641  29.980  1.00  0.00    -0.200 F 
ENDBRANCH  65  88
ENDBRANCH  39  40
ENDBRANCH  31  34
ENDBRANCH  29  30
ENDBRANCH  28  29
ENDBRANCH   1  28
TORSDOF 15
ENDMDL
