MODEL 1
REMARK VINA RESULT:     -10.3      0.000      0.000
REMARK SMILES CC1(C)S[C@H](c2ccc(Br)cc2)[NH2+][C@H]1C(=O)NCCCNC(=O)c1ccc(-c2c3nc(c(-c4c(F)c(F)c(F)c(F)c4F)c4ccc([nH]4)c(-c4c(F)c(F)c(F)c(F)c4F)c4nc(c(-c5c(F)c(F)c(F)c(F)c5F)c5ccc2[nH]5)C=C4)C=C3)cc1
REMARK SMILES IDX 19 1 18 2 17 3 15 4 16 5 14 7 1 8 2 9 3 10 4 11 5 12 13 13
REMARK SMILES IDX 6 16 7 17 12 18 8 19 11 20 9 21 10 22 20 23 21 24 22 25
REMARK SMILES IDX 23 27 24 28 25 29 86 30 26 31 85 32 27 33 28 34 29 35 79 36
REMARK SMILES IDX 30 37 84 38 78 39 80 40 31 41 83 42 77 43 76 44 32 46 64 47
REMARK SMILES IDX 44 48 63 49 45 50 48 51 62 52 81 53 46 54 47 55 61 57 82 58
REMARK SMILES IDX 49 59 33 60 34 61 42 62 35 63 36 64 40 65 43 66 37 67 38 68
REMARK SMILES IDX 41 69 39 70 65 71 66 72 74 73 67 74 68 75 72 76 75 77 69 78
REMARK SMILES IDX 70 79 73 80 71 81 50 82 51 83 59 84 52 85 53 86 57 87 60 88
REMARK SMILES IDX 54 89 55 90 58 91 56 92
REMARK H PARENT 17 6 13 14 13 15 21 26 80 45 48 56
REMARK Flexibility Score: inf
ROOT
ATOM      1  C   UNL A   1      34.778  32.397  30.625  1.00  0.00     0.042 C 
ENDROOT
BRANCH   1   2
ATOM      2  C   UNL A   1      35.063  33.704  31.361  1.00  0.00     0.118 C 
BRANCH   2   3
ATOM      3  N   UNL A   1      36.376  34.248  31.040  1.00  0.00    -0.351 N 
ATOM      4  C   UNL A   1      37.639  34.059  31.501  1.00  0.00     0.279 C 
ATOM      5  O   UNL A   1      38.496  34.807  31.011  1.00  0.00    -0.268 OA
ATOM      6  H   UNL A   1      36.338  34.911  30.314  1.00  0.00     0.163 HD
BRANCH   4   7
ATOM      7  C   UNL A   1      38.055  33.055  32.596  1.00  0.00     0.289 C 
ATOM      8  C   UNL A   1      36.472  34.205  34.328  1.00  0.00     0.030 C 
ATOM      9  C   UNL A   1      37.812  33.537  34.039  1.00  0.00     0.077 C 
ATOM     10  C   UNL A   1      38.947  34.449  34.519  1.00  0.00     0.030 C 
ATOM     11  S   UNL A   1      37.846  31.985  34.999  1.00  0.00    -0.081 SA
ATOM     12  C   UNL A   1      37.807  30.884  33.551  1.00  0.00     0.274 C 
ATOM     13  N   UNL A   1      37.526  31.690  32.358  1.00  0.00    -0.320 N 
ATOM     14  H   UNL A   1      36.520  31.731  32.197  1.00  0.00     0.348 HD
ATOM     15  H   UNL A   1      37.968  31.276  31.537  1.00  0.00     0.348 HD
BRANCH  12  16
ATOM     16  C   UNL A   1      39.051  30.016  33.477  1.00  0.00     0.020 A 
ATOM     17  C   UNL A   1      40.240  30.489  34.070  1.00  0.00     0.012 A 
ATOM     18  C   UNL A   1      39.082  28.759  32.854  1.00  0.00     0.012 A 
ATOM     19  C   UNL A   1      41.421  29.747  34.019  1.00  0.00     0.016 A 
ATOM     20  C   UNL A   1      40.264  28.012  32.801  1.00  0.00     0.016 A 
ATOM     21  C   UNL A   1      41.428  28.514  33.378  1.00  0.00     0.018 A 
ATOM     22  Br  UNL A   1      43.028  27.512  33.293  1.00  0.00    -0.051 Br
ENDBRANCH  12  16
ENDBRANCH   4   7
ENDBRANCH   2   3
ENDBRANCH   1   2
BRANCH   1  23
ATOM     23  C   UNL A   1      34.765  32.524  29.111  1.00  0.00     0.118 C 
BRANCH  23  24
ATOM     24  N   UNL A   1      34.117  31.392  28.471  1.00  0.00    -0.352 N 
ATOM     25  C   UNL A   1      34.662  30.241  27.954  1.00  0.00     0.251 C 
ATOM     26  H   UNL A   1      33.137  31.460  28.397  1.00  0.00     0.163 HD
ATOM     27  O   UNL A   1      33.971  29.511  27.248  1.00  0.00    -0.269 OA
BRANCH  25  28
ATOM     28  C   UNL A   1      36.075  29.878  28.219  1.00  0.00     0.039 A 
ATOM     29  C   UNL A   1      36.408  29.328  29.460  1.00  0.00     0.014 A 
ATOM     30  C   UNL A   1      37.080  30.123  27.281  1.00  0.00     0.014 A 
ATOM     31  C   UNL A   1      37.734  28.980  29.739  1.00  0.00     0.010 A 
ATOM     32  C   UNL A   1      38.383  29.690  27.521  1.00  0.00     0.010 A 
ATOM     33  C   UNL A   1      38.728  29.133  28.760  1.00  0.00    -0.014 A 
BRANCH  33  34
ATOM     34  C   UNL A   1      40.143  28.762  29.029  1.00  0.00     0.031 A 
ATOM     35  C   UNL A   1      41.047  29.722  29.755  1.00  0.00     0.074 A 
ATOM     36  C   UNL A   1      40.631  27.592  28.577  1.00  0.00     0.049 A 
ATOM     37  N   UNL A   1      42.326  29.622  30.018  1.00  0.00    -0.248 NA
ATOM     38  C   UNL A   1      40.440  30.980  30.222  1.00  0.00     0.031 C 
ATOM     39  C   UNL A   1      39.874  26.594  27.821  1.00  0.00     0.029 A 
ATOM     40  N   UNL A   1      41.887  27.047  28.681  1.00  0.00    -0.354 N 
ATOM     41  C   UNL A   1      42.676  30.805  30.654  1.00  0.00     0.074 A 
ATOM     42  C   UNL A   1      41.491  31.633  30.693  1.00  0.00     0.031 C 
ATOM     43  C   UNL A   1      40.671  25.546  27.554  1.00  0.00     0.029 A 
ATOM     44  C   UNL A   1      42.003  25.813  28.088  1.00  0.00     0.049 A 
ATOM     45  H   UNL A   1      42.634  27.497  29.138  1.00  0.00     0.167 HD
ATOM     46  C   UNL A   1      43.872  31.161  31.184  1.00  0.00     0.037 A 
ATOM     47  C   UNL A   1      43.065  24.991  27.987  1.00  0.00     0.037 A 
ATOM     48  C   UNL A   1      45.040  30.322  31.187  1.00  0.00     0.049 A 
ATOM     49  C   UNL A   1      44.377  25.402  28.600  1.00  0.00     0.074 A 
ATOM     50  C   UNL A   1      46.279  30.568  31.752  1.00  0.00     0.029 A 
ATOM     51  N   UNL A   1      45.109  29.068  30.599  1.00  0.00    -0.354 N 
ATOM     52  N   UNL A   1      44.680  26.501  29.247  1.00  0.00    -0.248 NA
ATOM     53  C   UNL A   1      45.492  24.454  28.473  1.00  0.00     0.031 C 
ATOM     54  C   UNL A   1      47.109  29.474  31.480  1.00  0.00     0.029 A 
ATOM     55  C   UNL A   1      46.374  28.531  30.779  1.00  0.00     0.049 A 
ATOM     56  H   UNL A   1      44.368  28.624  30.125  1.00  0.00     0.167 HD
ATOM     57  C   UNL A   1      46.008  26.367  29.625  1.00  0.00     0.074 A 
ATOM     58  C   UNL A   1      46.451  25.073  29.148  1.00  0.00     0.031 C 
ATOM     59  C   UNL A   1      46.793  27.237  30.306  1.00  0.00     0.037 A 
BRANCH  46  60
ATOM     60  C   UNL A   1      43.970  32.518  31.818  1.00  0.00     0.064 A 
ATOM     61  C   UNL A   1      44.119  33.680  31.046  1.00  0.00     0.173 A 
ATOM     62  C   UNL A   1      43.887  32.662  33.211  1.00  0.00     0.173 A 
ATOM     63  F   UNL A   1      44.216  33.595  29.711  1.00  0.00    -0.203 F 
ATOM     64  C   UNL A   1      44.208  34.934  31.647  1.00  0.00     0.198 A 
ATOM     65  C   UNL A   1      43.948  33.920  33.806  1.00  0.00     0.198 A 
ATOM     66  F   UNL A   1      43.741  31.583  33.995  1.00  0.00    -0.203 F 
ATOM     67  F   UNL A   1      44.399  36.024  30.891  1.00  0.00    -0.200 F 
ATOM     68  C   UNL A   1      44.116  35.052  33.024  1.00  0.00     0.200 A 
ATOM     69  F   UNL A   1      43.849  34.035  35.138  1.00  0.00    -0.200 F 
ATOM     70  F   UNL A   1      44.198  36.260  33.600  1.00  0.00    -0.200 F 
ENDBRANCH  46  60
BRANCH  47  71
ATOM     71  C   UNL A   1      42.924  23.679  27.308  1.00  0.00     0.064 A 
ATOM     72  C   UNL A   1      43.313  23.519  25.971  1.00  0.00     0.173 A 
ATOM     73  C   UNL A   1      42.400  22.562  27.975  1.00  0.00     0.173 A 
ATOM     74  F   UNL A   1      43.799  24.564  25.286  1.00  0.00    -0.203 F 
ATOM     75  C   UNL A   1      43.168  22.294  25.321  1.00  0.00     0.198 A 
ATOM     76  C   UNL A   1      42.278  21.332  27.331  1.00  0.00     0.198 A 
ATOM     77  F   UNL A   1      42.017  22.664  29.257  1.00  0.00    -0.203 F 
ATOM     78  F   UNL A   1      43.510  22.179  24.031  1.00  0.00    -0.200 F 
ATOM     79  C   UNL A   1      42.656  21.201  26.002  1.00  0.00     0.200 A 
ATOM     80  F   UNL A   1      41.795  20.275  27.997  1.00  0.00    -0.200 F 
ATOM     81  F   UNL A   1      42.520  20.023  25.379  1.00  0.00    -0.200 F 
ENDBRANCH  47  71
BRANCH  59  82
ATOM     82  C   UNL A   1      48.197  26.808  30.604  1.00  0.00     0.064 A 
ATOM     83  C   UNL A   1      48.498  25.995  31.706  1.00  0.00     0.173 A 
ATOM     84  C   UNL A   1      49.249  27.181  29.754  1.00  0.00     0.173 A 
ATOM     85  F   UNL A   1      47.528  25.625  32.556  1.00  0.00    -0.203 F 
ATOM     86  C   UNL A   1      49.805  25.591  31.960  1.00  0.00     0.198 A 
ATOM     87  C   UNL A   1      50.551  26.753  29.995  1.00  0.00     0.198 A 
ATOM     88  F   UNL A   1      49.011  27.952  28.682  1.00  0.00    -0.203 F 
ATOM     89  F   UNL A   1      50.077  24.850  33.044  1.00  0.00    -0.200 F 
ATOM     90  C   UNL A   1      50.829  25.964  31.101  1.00  0.00     0.200 A 
ATOM     91  F   UNL A   1      51.538  27.105  29.160  1.00  0.00    -0.200 F 
ATOM     92  F   UNL A   1      52.087  25.569  31.345  1.00  0.00    -0.200 F 
ENDBRANCH  59  82
ENDBRANCH  33  34
ENDBRANCH  25  28
ENDBRANCH  23  24
ENDBRANCH   1  23
TORSDOF 11
ENDMDL
MODEL 2
REMARK VINA RESULT:     -10.2      3.854     10.111
REMARK SMILES CC1(C)S[C@H](c2ccc(Br)cc2)[NH2+][C@H]1C(=O)NCCCNC(=O)c1ccc(-c2c3nc(c(-c4c(F)c(F)c(F)c(F)c4F)c4ccc([nH]4)c(-c4c(F)c(F)c(F)c(F)c4F)c4nc(c(-c5c(F)c(F)c(F)c(F)c5F)c5ccc2[nH]5)C=C4)C=C3)cc1
REMARK SMILES IDX 19 1 18 2 17 3 15 4 16 5 14 7 1 8 2 9 3 10 4 11 5 12 13 13
REMARK SMILES IDX 6 16 7 17 12 18 8 19 11 20 9 21 10 22 20 23 21 24 22 25
REMARK SMILES IDX 23 27 24 28 25 29 86 30 26 31 85 32 27 33 28 34 29 35 79 36
REMARK SMILES IDX 30 37 84 38 78 39 80 40 31 41 83 42 77 43 76 44 32 46 64 47
REMARK SMILES IDX 44 48 63 49 45 50 48 51 62 52 81 53 46 54 47 55 61 57 82 58
REMARK SMILES IDX 49 59 33 60 34 61 42 62 35 63 36 64 40 65 43 66 37 67 38 68
REMARK SMILES IDX 41 69 39 70 65 71 66 72 74 73 67 74 68 75 72 76 75 77 69 78
REMARK SMILES IDX 70 79 73 80 71 81 50 82 51 83 59 84 52 85 53 86 57 87 60 88
REMARK SMILES IDX 54 89 55 90 58 91 56 92
REMARK H PARENT 17 6 13 14 13 15 21 26 80 45 48 56
REMARK Flexibility Score: inf
ROOT
ATOM      1  C   UNL A   1      42.027  21.374  25.888  1.00  0.00     0.042 C 
ENDROOT
BRANCH   1   2
ATOM      2  C   UNL A   1      43.293  22.224  25.838  1.00  0.00     0.118 C 
BRANCH   2   3
ATOM      3  N   UNL A   1      43.856  22.460  27.161  1.00  0.00    -0.351 N 
ATOM      4  C   UNL A   1      44.550  23.468  27.751  1.00  0.00     0.279 C 
ATOM      5  O   UNL A   1      44.939  23.235  28.904  1.00  0.00    -0.268 OA
ATOM      6  H   UNL A   1      43.695  21.707  27.775  1.00  0.00     0.163 HD
BRANCH   4   7
ATOM      7  C   UNL A   1      44.922  24.810  27.088  1.00  0.00     0.289 C 
ATOM      8  C   UNL A   1      46.403  23.585  25.317  1.00  0.00     0.030 C 
ATOM      9  C   UNL A   1      46.214  24.778  26.249  1.00  0.00     0.077 C 
ATOM     10  C   UNL A   1      47.457  24.930  27.134  1.00  0.00     0.030 C 
ATOM     11  S   UNL A   1      46.050  26.254  25.189  1.00  0.00    -0.081 SA
ATOM     12  C   UNL A   1      44.309  26.575  25.608  1.00  0.00     0.274 C 
ATOM     13  N   UNL A   1      43.789  25.428  26.358  1.00  0.00    -0.320 N 
ATOM     14  H   UNL A   1      43.378  24.750  25.716  1.00  0.00     0.348 HD
ATOM     15  H   UNL A   1      43.067  25.729  27.014  1.00  0.00     0.348 HD
BRANCH  12  16
ATOM     16  C   UNL A   1      44.136  27.928  26.276  1.00  0.00     0.020 A 
ATOM     17  C   UNL A   1      45.227  28.475  26.982  1.00  0.00     0.012 A 
ATOM     18  C   UNL A   1      42.947  28.672  26.223  1.00  0.00     0.012 A 
ATOM     19  C   UNL A   1      45.125  29.705  27.634  1.00  0.00     0.016 A 
ATOM     20  C   UNL A   1      42.842  29.905  26.875  1.00  0.00     0.016 A 
ATOM     21  C   UNL A   1      43.929  30.412  27.582  1.00  0.00     0.018 A 
ATOM     22  Br  UNL A   1      43.782  32.070  28.475  1.00  0.00    -0.051 Br
ENDBRANCH  12  16
ENDBRANCH   4   7
ENDBRANCH   2   3
ENDBRANCH   1   2
BRANCH   1  23
ATOM     23  C   UNL A   1      40.946  21.918  26.807  1.00  0.00     0.118 C 
BRANCH  23  24
ATOM     24  N   UNL A   1      39.722  22.231  26.089  1.00  0.00    -0.352 N 
ATOM     25  C   UNL A   1      38.880  23.310  26.210  1.00  0.00     0.251 C 
ATOM     26  H   UNL A   1      39.454  21.566  25.413  1.00  0.00     0.163 HD
ATOM     27  O   UNL A   1      37.775  23.276  25.675  1.00  0.00    -0.269 OA
BRANCH  25  28
ATOM     28  C   UNL A   1      39.278  24.506  26.990  1.00  0.00     0.039 A 
ATOM     29  C   UNL A   1      40.028  25.504  26.359  1.00  0.00     0.014 A 
ATOM     30  C   UNL A   1      38.969  24.630  28.346  1.00  0.00     0.014 A 
ATOM     31  C   UNL A   1      40.420  26.642  27.072  1.00  0.00     0.010 A 
ATOM     32  C   UNL A   1      39.278  25.804  29.031  1.00  0.00     0.010 A 
ATOM     33  C   UNL A   1      40.024  26.814  28.407  1.00  0.00    -0.014 A 
BRANCH  33  34
ATOM     34  C   UNL A   1      40.421  28.018  29.184  1.00  0.00     0.031 A 
ATOM     35  C   UNL A   1      41.803  28.110  29.776  1.00  0.00     0.074 A 
ATOM     36  C   UNL A   1      39.531  29.003  29.404  1.00  0.00     0.049 A 
ATOM     37  N   UNL A   1      42.316  29.035  30.547  1.00  0.00    -0.248 NA
ATOM     38  C   UNL A   1      42.721  26.995  29.489  1.00  0.00     0.031 C 
ATOM     39  C   UNL A   1      38.147  29.016  28.926  1.00  0.00     0.029 A 
ATOM     40  N   UNL A   1      39.654  30.183  30.096  1.00  0.00    -0.354 N 
ATOM     41  C   UNL A   1      43.600  28.603  30.853  1.00  0.00     0.074 A 
ATOM     42  C   UNL A   1      43.773  27.309  30.230  1.00  0.00     0.031 C 
ATOM     43  C   UNL A   1      37.559  30.161  29.313  1.00  0.00     0.029 A 
ATOM     44  C   UNL A   1      38.511  30.943  30.096  1.00  0.00     0.049 A 
ATOM     45  H   UNL A   1      40.484  30.457  30.549  1.00  0.00     0.167 HD
ATOM     46  C   UNL A   1      44.561  29.239  31.567  1.00  0.00     0.037 A 
ATOM     47  C   UNL A   1      38.258  32.138  30.665  1.00  0.00     0.037 A 
ATOM     48  C   UNL A   1      44.407  30.545  32.150  1.00  0.00     0.049 A 
ATOM     49  C   UNL A   1      39.348  32.832  31.437  1.00  0.00     0.074 A 
ATOM     50  C   UNL A   1      45.342  31.299  32.838  1.00  0.00     0.029 A 
ATOM     51  N   UNL A   1      43.241  31.294  32.105  1.00  0.00    -0.354 N 
ATOM     52  N   UNL A   1      40.575  32.437  31.673  1.00  0.00    -0.248 NA
ATOM     53  C   UNL A   1      39.018  34.141  32.017  1.00  0.00     0.031 C 
ATOM     54  C   UNL A   1      44.731  32.493  33.237  1.00  0.00     0.029 A 
ATOM     55  C   UNL A   1      43.429  32.499  32.763  1.00  0.00     0.049 A 
ATOM     56  H   UNL A   1      42.405  31.012  31.669  1.00  0.00     0.167 HD
ATOM     57  C   UNL A   1      41.170  33.455  32.404  1.00  0.00     0.074 A 
ATOM     58  C   UNL A   1      40.174  34.495  32.561  1.00  0.00     0.031 C 
ATOM     59  C   UNL A   1      42.429  33.525  32.901  1.00  0.00     0.037 A 
BRANCH  46  60
ATOM     60  C   UNL A   1      45.872  28.530  31.746  1.00  0.00     0.064 A 
ATOM     61  C   UNL A   1      47.000  28.869  30.984  1.00  0.00     0.173 A 
ATOM     62  C   UNL A   1      46.011  27.521  32.711  1.00  0.00     0.173 A 
ATOM     63  F   UNL A   1      46.915  29.818  30.040  1.00  0.00    -0.203 F 
ATOM     64  C   UNL A   1      48.211  28.205  31.161  1.00  0.00     0.198 A 
ATOM     65  C   UNL A   1      47.232  26.879  32.904  1.00  0.00     0.198 A 
ATOM     66  F   UNL A   1      44.965  27.161  33.469  1.00  0.00    -0.203 F 
ATOM     67  F   UNL A   1      49.261  28.513  30.386  1.00  0.00    -0.200 F 
ATOM     68  C   UNL A   1      48.327  27.216  32.124  1.00  0.00     0.200 A 
ATOM     69  F   UNL A   1      47.346  25.929  33.844  1.00  0.00    -0.200 F 
ATOM     70  F   UNL A   1      49.495  26.581  32.296  1.00  0.00    -0.200 F 
ENDBRANCH  46  60
BRANCH  47  71
ATOM     71  C   UNL A   1      36.927  32.773  30.495  1.00  0.00     0.064 A 
ATOM     72  C   UNL A   1      36.624  33.501  29.336  1.00  0.00     0.173 A 
ATOM     73  C   UNL A   1      35.934  32.668  31.480  1.00  0.00     0.173 A 
ATOM     74  F   UNL A   1      37.550  33.645  28.376  1.00  0.00    -0.203 F 
ATOM     75  C   UNL A   1      35.383  34.114  29.175  1.00  0.00     0.198 A 
ATOM     76  C   UNL A   1      34.686  33.262  31.307  1.00  0.00     0.198 A 
ATOM     77  F   UNL A   1      36.175  31.979  32.605  1.00  0.00    -0.203 F 
ATOM     78  F   UNL A   1      35.134  34.837  28.075  1.00  0.00    -0.200 F 
ATOM     79  C   UNL A   1      34.413  33.990  30.158  1.00  0.00     0.200 A 
ATOM     80  F   UNL A   1      33.747  33.129  32.253  1.00  0.00    -0.200 F 
ATOM     81  F   UNL A   1      33.219  34.577  30.001  1.00  0.00    -0.200 F 
ENDBRANCH  47  71
BRANCH  59  82
ATOM     82  C   UNL A   1      42.809  34.776  33.633  1.00  0.00     0.064 A 
ATOM     83  C   UNL A   1      43.264  35.915  32.953  1.00  0.00     0.173 A 
ATOM     84  C   UNL A   1      42.681  34.849  35.028  1.00  0.00     0.173 A 
ATOM     85  F   UNL A   1      43.419  35.888  31.621  1.00  0.00    -0.203 F 
ATOM     86  C   UNL A   1      43.598  37.075  33.646  1.00  0.00     0.198 A 
ATOM     87  C   UNL A   1      42.990  36.019  35.716  1.00  0.00     0.198 A 
ATOM     88  F   UNL A   1      42.243  33.788  35.723  1.00  0.00    -0.203 F 
ATOM     89  F   UNL A   1      44.072  38.138  32.981  1.00  0.00    -0.200 F 
ATOM     90  C   UNL A   1      43.454  37.128  35.025  1.00  0.00     0.200 A 
ATOM     91  F   UNL A   1      42.841  36.074  37.046  1.00  0.00    -0.200 F 
ATOM     92  F   UNL A   1      43.772  38.249  35.690  1.00  0.00    -0.200 F 
ENDBRANCH  59  82
ENDBRANCH  33  34
ENDBRANCH  25  28
ENDBRANCH  23  24
ENDBRANCH   1  23
TORSDOF 11
ENDMDL
MODEL 3
REMARK VINA RESULT:     -10.1      3.828     10.174
REMARK SMILES CC1(C)S[C@H](c2ccc(Br)cc2)[NH2+][C@H]1C(=O)NCCCNC(=O)c1ccc(-c2c3nc(c(-c4c(F)c(F)c(F)c(F)c4F)c4ccc([nH]4)c(-c4c(F)c(F)c(F)c(F)c4F)c4nc(c(-c5c(F)c(F)c(F)c(F)c5F)c5ccc2[nH]5)C=C4)C=C3)cc1
REMARK SMILES IDX 19 1 18 2 17 3 15 4 16 5 14 7 1 8 2 9 3 10 4 11 5 12 13 13
REMARK SMILES IDX 6 16 7 17 12 18 8 19 11 20 9 21 10 22 20 23 21 24 22 25
REMARK SMILES IDX 23 27 24 28 25 29 86 30 26 31 85 32 27 33 28 34 29 35 79 36
REMARK SMILES IDX 30 37 84 38 78 39 80 40 31 41 83 42 77 43 76 44 32 46 64 47
REMARK SMILES IDX 44 48 63 49 45 50 48 51 62 52 81 53 46 54 47 55 61 57 82 58
REMARK SMILES IDX 49 59 33 60 34 61 42 62 35 63 36 64 40 65 43 66 37 67 38 68
REMARK SMILES IDX 41 69 39 70 65 71 66 72 74 73 67 74 68 75 72 76 75 77 69 78
REMARK SMILES IDX 70 79 73 80 71 81 50 82 51 83 59 84 52 85 53 86 57 87 60 88
REMARK SMILES IDX 54 89 55 90 58 91 56 92
REMARK H PARENT 17 6 13 14 13 15 21 26 80 45 48 56
REMARK Flexibility Score: inf
ROOT
ATOM      1  C   UNL A   1      42.184  22.547  25.676  1.00  0.00     0.042 C 
ENDROOT
BRANCH   1   2
ATOM      2  C   UNL A   1      43.566  21.981  25.992  1.00  0.00     0.118 C 
BRANCH   2   3
ATOM      3  N   UNL A   1      44.007  22.312  27.341  1.00  0.00    -0.351 N 
ATOM      4  C   UNL A   1      44.598  23.385  27.929  1.00  0.00     0.279 C 
ATOM      5  O   UNL A   1      44.903  23.230  29.119  1.00  0.00    -0.268 OA
ATOM      6  H   UNL A   1      43.835  21.583  27.979  1.00  0.00     0.163 HD
BRANCH   4   7
ATOM      7  C   UNL A   1      44.954  24.711  27.226  1.00  0.00     0.289 C 
ATOM      8  C   UNL A   1      46.417  23.448  25.467  1.00  0.00     0.030 C 
ATOM      9  C   UNL A   1      46.234  24.664  26.370  1.00  0.00     0.077 C 
ATOM     10  C   UNL A   1      47.488  24.846  27.234  1.00  0.00     0.030 C 
ATOM     11  S   UNL A   1      46.047  26.112  25.275  1.00  0.00    -0.081 SA
ATOM     12  C   UNL A   1      44.310  26.434  25.709  1.00  0.00     0.274 C 
ATOM     13  N   UNL A   1      43.807  25.304  26.496  1.00  0.00    -0.320 N 
ATOM     14  H   UNL A   1      43.392  24.607  25.877  1.00  0.00     0.348 HD
ATOM     15  H   UNL A   1      43.092  25.618  27.153  1.00  0.00     0.348 HD
BRANCH  12  16
ATOM     16  C   UNL A   1      44.139  27.803  26.345  1.00  0.00     0.020 A 
ATOM     17  C   UNL A   1      45.222  28.355  27.058  1.00  0.00     0.012 A 
ATOM     18  C   UNL A   1      42.958  28.557  26.254  1.00  0.00     0.012 A 
ATOM     19  C   UNL A   1      45.121  29.600  27.681  1.00  0.00     0.016 A 
ATOM     20  C   UNL A   1      42.854  29.805  26.876  1.00  0.00     0.016 A 
ATOM     21  C   UNL A   1      43.933  30.316  27.592  1.00  0.00     0.018 A 
ATOM     22  Br  UNL A   1      43.786  31.996  28.446  1.00  0.00    -0.051 Br
ENDBRANCH  12  16
ENDBRANCH   4   7
ENDBRANCH   2   3
ENDBRANCH   1   2
BRANCH   1  23
ATOM     23  C   UNL A   1      41.057  21.932  26.489  1.00  0.00     0.118 C 
BRANCH  23  24
ATOM     24  N   UNL A   1      39.754  22.185  25.899  1.00  0.00    -0.352 N 
ATOM     25  C   UNL A   1      38.868  23.211  26.126  1.00  0.00     0.251 C 
ATOM     26  H   UNL A   1      39.460  21.519  25.235  1.00  0.00     0.163 HD
ATOM     27  O   UNL A   1      37.719  23.121  25.699  1.00  0.00    -0.269 OA
BRANCH  25  28
ATOM     28  C   UNL A   1      39.271  24.413  26.894  1.00  0.00     0.039 A 
ATOM     29  C   UNL A   1      38.905  24.508  28.240  1.00  0.00     0.014 A 
ATOM     30  C   UNL A   1      39.955  25.470  26.289  1.00  0.00     0.014 A 
ATOM     31  C   UNL A   1      39.269  25.633  28.987  1.00  0.00     0.010 A 
ATOM     32  C   UNL A   1      40.399  26.547  27.055  1.00  0.00     0.010 A 
ATOM     33  C   UNL A   1      40.043  26.650  28.407  1.00  0.00    -0.014 A 
BRANCH  33  34
ATOM     34  C   UNL A   1      40.449  27.852  29.183  1.00  0.00     0.031 A 
ATOM     35  C   UNL A   1      41.829  27.931  29.779  1.00  0.00     0.074 A 
ATOM     36  C   UNL A   1      39.567  28.846  29.398  1.00  0.00     0.049 A 
ATOM     37  N   UNL A   1      42.349  28.853  30.551  1.00  0.00    -0.248 NA
ATOM     38  C   UNL A   1      42.738  26.808  29.497  1.00  0.00     0.031 C 
ATOM     39  C   UNL A   1      38.186  28.871  28.915  1.00  0.00     0.029 A 
ATOM     40  N   UNL A   1      39.699  30.025  30.088  1.00  0.00    -0.354 N 
ATOM     41  C   UNL A   1      43.627  28.410  30.862  1.00  0.00     0.074 A 
ATOM     42  C   UNL A   1      43.790  27.113  30.242  1.00  0.00     0.031 C 
ATOM     43  C   UNL A   1      37.607  30.022  29.298  1.00  0.00     0.029 A 
ATOM     44  C   UNL A   1      38.563  30.797  30.083  1.00  0.00     0.049 A 
ATOM     45  H   UNL A   1      40.530  30.293  30.543  1.00  0.00     0.167 HD
ATOM     46  C   UNL A   1      44.591  29.037  31.578  1.00  0.00     0.037 A 
ATOM     47  C   UNL A   1      38.320  31.995  30.649  1.00  0.00     0.037 A 
ATOM     48  C   UNL A   1      44.448  30.346  32.159  1.00  0.00     0.049 A 
ATOM     49  C   UNL A   1      39.414  32.680  31.424  1.00  0.00     0.074 A 
ATOM     50  C   UNL A   1      45.387  31.092  32.849  1.00  0.00     0.029 A 
ATOM     51  N   UNL A   1      43.290  31.106  32.108  1.00  0.00    -0.354 N 
ATOM     52  N   UNL A   1      40.636  32.273  31.665  1.00  0.00    -0.248 NA
ATOM     53  C   UNL A   1      39.094  33.993  32.000  1.00  0.00     0.031 C 
ATOM     54  C   UNL A   1      44.787  32.293  33.244  1.00  0.00     0.029 A 
ATOM     55  C   UNL A   1      43.487  32.310  32.765  1.00  0.00     0.049 A 
ATOM     56  H   UNL A   1      42.452  30.832  31.670  1.00  0.00     0.167 HD
ATOM     57  C   UNL A   1      41.238  33.287  32.396  1.00  0.00     0.074 A 
ATOM     58  C   UNL A   1      40.251  34.337  32.548  1.00  0.00     0.031 C 
ATOM     59  C   UNL A   1      42.496  33.346  32.898  1.00  0.00     0.037 A 
BRANCH  46  60
ATOM     60  C   UNL A   1      45.895  28.317  31.763  1.00  0.00     0.064 A 
ATOM     61  C   UNL A   1      46.035  27.279  32.697  1.00  0.00     0.173 A 
ATOM     62  C   UNL A   1      47.010  28.648  30.978  1.00  0.00     0.173 A 
ATOM     63  F   UNL A   1      45.003  26.934  33.481  1.00  0.00    -0.203 F 
ATOM     64  C   UNL A   1      47.250  26.618  32.858  1.00  0.00     0.198 A 
ATOM     65  C   UNL A   1      48.215  27.965  31.122  1.00  0.00     0.198 A 
ATOM     66  F   UNL A   1      46.929  29.629  30.067  1.00  0.00    -0.203 F 
ATOM     67  F   UNL A   1      47.372  25.664  33.791  1.00  0.00    -0.200 F 
ATOM     68  C   UNL A   1      48.336  26.957  32.067  1.00  0.00     0.200 A 
ATOM     69  F   UNL A   1      49.263  28.286  30.349  1.00  0.00    -0.200 F 
ATOM     70  F   UNL A   1      49.503  26.316  32.220  1.00  0.00    -0.200 F 
ENDBRANCH  46  60
BRANCH  47  71
ATOM     71  C   UNL A   1      36.996  32.642  30.473  1.00  0.00     0.064 A 
ATOM     72  C   UNL A   1      36.003  32.520  31.455  1.00  0.00     0.173 A 
ATOM     73  C   UNL A   1      36.694  33.392  29.328  1.00  0.00     0.173 A 
ATOM     74  F   UNL A   1      36.239  31.795  32.558  1.00  0.00    -0.203 F 
ATOM     75  C   UNL A   1      34.752  33.111  31.291  1.00  0.00     0.198 A 
ATOM     76  C   UNL A   1      35.451  34.002  29.175  1.00  0.00     0.198 A 
ATOM     77  F   UNL A   1      37.612  33.541  28.361  1.00  0.00    -0.203 F 
ATOM     78  F   UNL A   1      33.807  32.945  32.226  1.00  0.00    -0.200 F 
ATOM     79  C   UNL A   1      34.478  33.855  30.154  1.00  0.00     0.200 A 
ATOM     80  F   UNL A   1      35.194  34.732  28.081  1.00  0.00    -0.200 F 
ATOM     81  F   UNL A   1      33.276  34.426  29.997  1.00  0.00    -0.200 F 
ENDBRANCH  47  71
BRANCH  59  82
ATOM     82  C   UNL A   1      42.886  34.595  33.629  1.00  0.00     0.064 A 
ATOM     83  C   UNL A   1      43.344  35.731  32.948  1.00  0.00     0.173 A 
ATOM     84  C   UNL A   1      42.762  34.668  35.025  1.00  0.00     0.173 A 
ATOM     85  F   UNL A   1      43.493  35.705  31.615  1.00  0.00    -0.203 F 
ATOM     86  C   UNL A   1      43.686  36.889  33.640  1.00  0.00     0.198 A 
ATOM     87  C   UNL A   1      43.080  35.836  35.711  1.00  0.00     0.198 A 
ATOM     88  F   UNL A   1      42.322  33.609  35.721  1.00  0.00    -0.203 F 
ATOM     89  F   UNL A   1      44.164  37.950  32.973  1.00  0.00    -0.200 F 
ATOM     90  C   UNL A   1      43.548  36.943  35.019  1.00  0.00     0.200 A 
ATOM     91  F   UNL A   1      42.937  35.890  37.042  1.00  0.00    -0.200 F 
ATOM     92  F   UNL A   1      43.874  38.061  35.684  1.00  0.00    -0.200 F 
ENDBRANCH  59  82
ENDBRANCH  33  34
ENDBRANCH  25  28
ENDBRANCH  23  24
ENDBRANCH   1  23
TORSDOF 11
ENDMDL
