MODEL 1
REMARK VINA RESULT:     -13.2      0.000      0.000
REMARK SMILES NC(=O)c1ccc(C[N@H+]2CCC[C@@H](C(=O)NCCCNC(=O)c3ccc(-c4c5nc(c(-c6c(F)c(F)c(F)c(F)c6F)c6ccc([nH]6)c(-c6c(F)c(F)c(F)c(F)c6F)c6nc(c(-c7c(F)c(F)c(F)c(F)c7F)c7ccc4[nH]7)C=C6)C=C5)cc3)C2)cc1
REMARK SMILES IDX 17 1 16 2 14 3 15 4 13 6 9 7 10 8 86 9 11 11 12 12 8 13 7 14
REMARK SMILES IDX 4 15 5 16 88 17 6 18 87 19 2 20 1 21 3 24 18 25 19 26 20 27
REMARK SMILES IDX 21 28 22 30 23 31 24 32 85 33 25 34 84 35 26 36 27 37 28 38
REMARK SMILES IDX 78 39 29 40 83 41 77 42 79 43 30 44 82 45 76 46 75 47 31 49
REMARK SMILES IDX 63 50 43 51 62 52 44 53 47 54 61 55 80 56 45 57 46 58 60 60
REMARK SMILES IDX 81 61 48 62 32 63 33 64 41 65 34 66 35 67 39 68 42 69 36 70
REMARK SMILES IDX 37 71 40 72 38 73 64 74 65 75 73 76 66 77 67 78 71 79 74 80
REMARK SMILES IDX 68 81 69 82 72 83 70 84 49 85 50 86 58 87 51 88 52 89 56 90
REMARK SMILES IDX 59 91 53 92 54 93 57 94 55 95
REMARK H PARENT 16 5 9 10 1 22 1 23 20 29 79 48 47 59
REMARK Flexibility Score: inf
ROOT
ATOM      1  C   UNL A   1      31.538  30.827  25.917  1.00  0.00     0.117 C 
ENDROOT
BRANCH   1   2
ATOM      2  N   UNL A   1      32.554  29.985  26.519  1.00  0.00    -0.356 N 
ATOM      3  C   UNL A   1      32.702  28.648  26.668  1.00  0.00     0.228 C 
ATOM      4  O   UNL A   1      33.780  28.296  27.165  1.00  0.00    -0.275 OA
ATOM      5  H   UNL A   1      33.299  30.499  26.904  1.00  0.00     0.163 HD
BRANCH   3   6
ATOM      6  C   UNL A   1      31.646  27.582  26.363  1.00  0.00     0.133 C 
ATOM      7  N   UNL A   1      30.174  26.849  24.454  1.00  0.00    -0.331 N 
ATOM      8  C   UNL A   1      30.487  25.444  24.713  1.00  0.00     0.262 C 
ATOM      9  C   UNL A   1      31.251  27.756  24.886  1.00  0.00     0.276 C 
ATOM     10  H   UNL A   1      29.369  27.070  25.038  1.00  0.00     0.348 HD
ATOM     11  C   UNL A   1      30.784  25.229  26.199  1.00  0.00     0.062 C 
ATOM     12  C   UNL A   1      31.942  26.115  26.646  1.00  0.00     0.025 C 
BRANCH   7  13
ATOM     13  C   UNL A   1      29.732  27.097  23.068  1.00  0.00     0.299 C 
BRANCH  13  14
ATOM     14  C   UNL A   1      29.319  28.520  22.739  1.00  0.00     0.006 A 
ATOM     15  C   UNL A   1      28.500  31.091  21.959  1.00  0.00     0.039 A 
ATOM     16  C   UNL A   1      29.758  30.617  21.585  1.00  0.00     0.014 A 
ATOM     17  C   UNL A   1      27.657  30.299  22.747  1.00  0.00     0.014 A 
ATOM     18  C   UNL A   1      30.174  29.354  22.000  1.00  0.00     0.010 A 
ATOM     19  C   UNL A   1      28.063  29.015  23.126  1.00  0.00     0.010 A 
BRANCH  15  20
ATOM     20  C   UNL A   1      28.083  32.420  21.463  1.00  0.00     0.248 C 
ATOM     21  N   UNL A   1      27.688  32.494  20.159  1.00  0.00    -0.366 N 
ATOM     22  H   UNL A   1      27.401  33.355  19.779  1.00  0.00     0.159 HD
ATOM     23  H   UNL A   1      27.692  31.685  19.597  1.00  0.00     0.159 HD
ATOM     24  O   UNL A   1      28.061  33.397  22.199  1.00  0.00    -0.270 OA
ENDBRANCH  15  20
ENDBRANCH  13  14
ENDBRANCH   7  13
ENDBRANCH   3   6
ENDBRANCH   1   2
BRANCH   1  25
ATOM     25  C   UNL A   1      31.315  32.124  26.691  1.00  0.00     0.042 C 
BRANCH  25  26
ATOM     26  C   UNL A   1      32.607  32.724  27.249  1.00  0.00     0.118 C 
BRANCH  26  27
ATOM     27  N   UNL A   1      32.454  34.137  27.585  1.00  0.00    -0.352 N 
ATOM     28  C   UNL A   1      33.030  34.894  28.574  1.00  0.00     0.251 C 
ATOM     29  H   UNL A   1      31.831  34.631  27.003  1.00  0.00     0.163 HD
ATOM     30  O   UNL A   1      32.550  35.987  28.856  1.00  0.00    -0.269 OA
BRANCH  28  31
ATOM     31  C   UNL A   1      34.222  34.410  29.297  1.00  0.00     0.039 A 
ATOM     32  C   UNL A   1      34.055  33.775  30.532  1.00  0.00     0.014 A 
ATOM     33  C   UNL A   1      35.505  34.629  28.790  1.00  0.00     0.014 A 
ATOM     34  C   UNL A   1      35.169  33.291  31.220  1.00  0.00     0.010 A 
ATOM     35  C   UNL A   1      36.608  34.088  29.441  1.00  0.00     0.010 A 
ATOM     36  C   UNL A   1      36.450  33.406  30.657  1.00  0.00    -0.014 A 
BRANCH  36  37
ATOM     37  C   UNL A   1      37.634  32.776  31.289  1.00  0.00     0.031 A 
ATOM     38  C   UNL A   1      38.296  31.589  30.655  1.00  0.00     0.074 A 
ATOM     39  C   UNL A   1      38.034  33.212  32.499  1.00  0.00     0.049 A 
ATOM     40  N   UNL A   1      39.257  30.832  31.119  1.00  0.00    -0.248 NA
ATOM     41  C   UNL A   1      37.790  31.182  29.337  1.00  0.00     0.031 C 
ATOM     42  C   UNL A   1      37.425  34.320  33.238  1.00  0.00     0.029 A 
ATOM     43  N   UNL A   1      39.022  32.756  33.335  1.00  0.00    -0.354 N 
ATOM     44  C   UNL A   1      39.454  29.845  30.163  1.00  0.00     0.074 A 
ATOM     45  C   UNL A   1      38.488  30.078  29.110  1.00  0.00     0.031 C 
ATOM     46  C   UNL A   1      38.047  34.454  34.417  1.00  0.00     0.029 A 
ATOM     47  C   UNL A   1      39.066  33.416  34.538  1.00  0.00     0.049 A 
ATOM     48  H   UNL A   1      39.638  32.027  33.096  1.00  0.00     0.167 HD
ATOM     49  C   UNL A   1      40.368  28.845  30.162  1.00  0.00     0.037 A 
ATOM     50  C   UNL A   1      39.820  33.193  35.630  1.00  0.00     0.037 A 
ATOM     51  C   UNL A   1      41.332  28.634  31.210  1.00  0.00     0.049 A 
ATOM     52  C   UNL A   1      40.820  32.072  35.612  1.00  0.00     0.074 A 
ATOM     53  C   UNL A   1      42.370  27.720  31.258  1.00  0.00     0.029 A 
ATOM     54  N   UNL A   1      41.364  29.336  32.408  1.00  0.00    -0.354 N 
ATOM     55  N   UNL A   1      41.073  31.207  34.659  1.00  0.00    -0.248 NA
ATOM     56  C   UNL A   1      41.638  31.893  36.818  1.00  0.00     0.031 C 
ATOM     57  C   UNL A   1      42.986  27.824  32.510  1.00  0.00     0.029 A 
ATOM     58  C   UNL A   1      42.370  28.841  33.223  1.00  0.00     0.049 A 
ATOM     59  H   UNL A   1      40.758  30.076  32.644  1.00  0.00     0.167 HD
ATOM     60  C   UNL A   1      42.078  30.384  35.145  1.00  0.00     0.074 A 
ATOM     61  C   UNL A   1      42.409  30.870  36.470  1.00  0.00     0.031 C 
ATOM     62  C   UNL A   1      42.668  29.319  34.550  1.00  0.00     0.037 A 
BRANCH  49  63
ATOM     63  C   UNL A   1      40.353  27.891  29.001  1.00  0.00     0.064 A 
ATOM     64  C   UNL A   1      41.092  28.132  27.832  1.00  0.00     0.173 A 
ATOM     65  C   UNL A   1      39.599  26.710  29.064  1.00  0.00     0.173 A 
ATOM     66  F   UNL A   1      41.825  29.249  27.715  1.00  0.00    -0.203 F 
ATOM     67  C   UNL A   1      41.042  27.250  26.756  1.00  0.00     0.198 A 
ATOM     68  C   UNL A   1      39.578  25.812  27.999  1.00  0.00     0.198 A 
ATOM     69  F   UNL A   1      38.881  26.422  30.160  1.00  0.00    -0.203 F 
ATOM     70  F   UNL A   1      41.707  27.533  25.627  1.00  0.00    -0.200 F 
ATOM     71  C   UNL A   1      40.289  26.088  26.842  1.00  0.00     0.200 A 
ATOM     72  F   UNL A   1      38.862  24.683  28.090  1.00  0.00    -0.200 F 
ATOM     73  F   UNL A   1      40.242  25.240  25.806  1.00  0.00    -0.200 F 
ENDBRANCH  49  63
BRANCH  50  74
ATOM     74  C   UNL A   1      39.641  34.054  36.825  1.00  0.00     0.064 A 
ATOM     75  C   UNL A   1      38.829  33.648  37.892  1.00  0.00     0.173 A 
ATOM     76  C   UNL A   1      40.317  35.278  36.947  1.00  0.00     0.173 A 
ATOM     77  F   UNL A   1      38.146  32.497  37.813  1.00  0.00    -0.203 F 
ATOM     78  C   UNL A   1      38.699  34.433  39.036  1.00  0.00     0.198 A 
ATOM     79  C   UNL A   1      40.209  36.048  38.103  1.00  0.00     0.198 A 
ATOM     80  F   UNL A   1      41.107  35.712  35.954  1.00  0.00    -0.203 F 
ATOM     81  F   UNL A   1      37.896  34.035  40.032  1.00  0.00    -0.200 F 
ATOM     82  C   UNL A   1      39.398  35.627  39.144  1.00  0.00     0.200 A 
ATOM     83  F   UNL A   1      40.896  37.194  38.209  1.00  0.00    -0.200 F 
ATOM     84  F   UNL A   1      39.287  36.372  40.252  1.00  0.00    -0.200 F 
ENDBRANCH  50  74
BRANCH  62  85
ATOM     85  C   UNL A   1      43.726  28.595  35.332  1.00  0.00     0.064 A 
ATOM     86  C   UNL A   1      43.404  27.509  36.161  1.00  0.00     0.173 A 
ATOM     87  C   UNL A   1      45.077  28.954  35.215  1.00  0.00     0.173 A 
ATOM     88  F   UNL A   1      42.125  27.138  36.322  1.00  0.00    -0.203 F 
ATOM     89  C   UNL A   1      44.395  26.819  36.854  1.00  0.00     0.198 A 
ATOM     90  C   UNL A   1      46.068  28.243  35.885  1.00  0.00     0.198 A 
ATOM     91  F   UNL A   1      45.437  29.983  34.434  1.00  0.00    -0.203 F 
ATOM     92  F   UNL A   1      44.061  25.811  37.670  1.00  0.00    -0.200 F 
ATOM     93  C   UNL A   1      45.727  27.181  36.707  1.00  0.00     0.200 A 
ATOM     94  F   UNL A   1      47.355  28.585  35.732  1.00  0.00    -0.200 F 
ATOM     95  F   UNL A   1      46.681  26.507  37.366  1.00  0.00    -0.200 F 
ENDBRANCH  62  85
ENDBRANCH  36  37
ENDBRANCH  28  31
ENDBRANCH  26  27
ENDBRANCH  25  26
ENDBRANCH   1  25
TORSDOF 13
ENDMDL
MODEL 2
REMARK VINA RESULT:     -13.1      2.178      4.304
REMARK SMILES NC(=O)c1ccc(C[N@H+]2CCC[C@@H](C(=O)NCCCNC(=O)c3ccc(-c4c5nc(c(-c6c(F)c(F)c(F)c(F)c6F)c6ccc([nH]6)c(-c6c(F)c(F)c(F)c(F)c6F)c6nc(c(-c7c(F)c(F)c(F)c(F)c7F)c7ccc4[nH]7)C=C6)C=C5)cc3)C2)cc1
REMARK SMILES IDX 17 1 16 2 14 3 15 4 13 6 9 7 10 8 86 9 11 11 12 12 8 13 7 14
REMARK SMILES IDX 4 15 5 16 88 17 6 18 87 19 2 20 1 21 3 24 18 25 19 26 20 27
REMARK SMILES IDX 21 28 22 30 23 31 24 32 85 33 25 34 84 35 26 36 27 37 28 38
REMARK SMILES IDX 78 39 29 40 83 41 77 42 79 43 30 44 82 45 76 46 75 47 31 49
REMARK SMILES IDX 63 50 43 51 62 52 44 53 47 54 61 55 80 56 45 57 46 58 60 60
REMARK SMILES IDX 81 61 48 62 32 63 33 64 41 65 34 66 35 67 39 68 42 69 36 70
REMARK SMILES IDX 37 71 40 72 38 73 64 74 65 75 73 76 66 77 67 78 71 79 74 80
REMARK SMILES IDX 68 81 69 82 72 83 70 84 49 85 50 86 58 87 51 88 52 89 56 90
REMARK SMILES IDX 59 91 53 92 54 93 57 94 55 95
REMARK H PARENT 16 5 9 10 1 22 1 23 20 29 79 48 47 59
REMARK Flexibility Score: inf
ROOT
ATOM      1  C   UNL A   1      31.574  30.789  26.125  1.00  0.00     0.117 C 
ENDROOT
BRANCH   1   2
ATOM      2  N   UNL A   1      32.834  30.210  26.550  1.00  0.00    -0.356 N 
ATOM      3  C   UNL A   1      33.390  28.982  26.440  1.00  0.00     0.228 C 
ATOM      4  O   UNL A   1      34.554  28.898  26.855  1.00  0.00    -0.275 OA
ATOM      5  H   UNL A   1      33.412  30.853  27.021  1.00  0.00     0.163 HD
BRANCH   3   6
ATOM      6  C   UNL A   1      32.690  27.713  25.944  1.00  0.00     0.133 C 
ATOM      7  N   UNL A   1      33.283  25.408  25.119  1.00  0.00    -0.331 N 
ATOM      8  C   UNL A   1      32.228  24.812  25.938  1.00  0.00     0.262 C 
ATOM      9  C   UNL A   1      33.790  26.670  25.683  1.00  0.00     0.276 C 
ATOM     10  H   UNL A   1      32.844  25.653  24.231  1.00  0.00     0.348 HD
ATOM     11  C   UNL A   1      31.074  25.800  26.125  1.00  0.00     0.062 C 
ATOM     12  C   UNL A   1      31.573  27.088  26.770  1.00  0.00     0.025 C 
BRANCH   7  13
ATOM     13  C   UNL A   1      34.357  24.457  24.775  1.00  0.00     0.299 C 
BRANCH  13  14
ATOM     14  C   UNL A   1      33.998  22.983  24.845  1.00  0.00     0.006 A 
ATOM     15  C   UNL A   1      33.180  20.307  25.073  1.00  0.00     0.039 A 
ATOM     16  C   UNL A   1      33.879  20.913  26.117  1.00  0.00     0.014 A 
ATOM     17  C   UNL A   1      32.910  21.021  23.900  1.00  0.00     0.014 A 
ATOM     18  C   UNL A   1      34.312  22.231  25.988  1.00  0.00     0.010 A 
ATOM     19  C   UNL A   1      33.311  22.357  23.793  1.00  0.00     0.010 A 
BRANCH  15  20
ATOM     20  C   UNL A   1      32.705  18.920  25.268  1.00  0.00     0.248 C 
ATOM     21  N   UNL A   1      32.903  18.370  26.501  1.00  0.00    -0.366 N 
ATOM     22  H   UNL A   1      32.606  17.449  26.684  1.00  0.00     0.159 HD
ATOM     23  H   UNL A   1      33.344  18.894  27.209  1.00  0.00     0.159 HD
ATOM     24  O   UNL A   1      32.133  18.311  24.375  1.00  0.00    -0.270 OA
ENDBRANCH  15  20
ENDBRANCH  13  14
ENDBRANCH   7  13
ENDBRANCH   3   6
ENDBRANCH   1   2
BRANCH   1  25
ATOM     25  C   UNL A   1      31.403  32.233  26.592  1.00  0.00     0.042 C 
BRANCH  25  26
ATOM     26  C   UNL A   1      32.657  32.806  27.253  1.00  0.00     0.118 C 
BRANCH  26  27
ATOM     27  N   UNL A   1      32.481  34.203  27.645  1.00  0.00    -0.352 N 
ATOM     28  C   UNL A   1      33.034  34.926  28.670  1.00  0.00     0.251 C 
ATOM     29  H   UNL A   1      31.858  34.711  27.076  1.00  0.00     0.163 HD
ATOM     30  O   UNL A   1      32.536  36.001  28.991  1.00  0.00    -0.269 OA
BRANCH  28  31
ATOM     31  C   UNL A   1      34.224  34.429  29.389  1.00  0.00     0.039 A 
ATOM     32  C   UNL A   1      34.060  33.838  30.645  1.00  0.00     0.014 A 
ATOM     33  C   UNL A   1      35.503  34.595  28.854  1.00  0.00     0.014 A 
ATOM     34  C   UNL A   1      35.171  33.342  31.329  1.00  0.00     0.010 A 
ATOM     35  C   UNL A   1      36.602  34.041  29.502  1.00  0.00     0.010 A 
ATOM     36  C   UNL A   1      36.445  33.401  30.742  1.00  0.00    -0.014 A 
BRANCH  36  37
ATOM     37  C   UNL A   1      37.621  32.756  31.373  1.00  0.00     0.031 A 
ATOM     38  C   UNL A   1      38.288  31.582  30.721  1.00  0.00     0.074 A 
ATOM     39  C   UNL A   1      38.008  33.165  32.597  1.00  0.00     0.049 A 
ATOM     40  N   UNL A   1      39.243  30.813  31.180  1.00  0.00    -0.248 NA
ATOM     41  C   UNL A   1      37.797  31.204  29.388  1.00  0.00     0.031 C 
ATOM     42  C   UNL A   1      37.392  34.257  33.353  1.00  0.00     0.029 A 
ATOM     43  N   UNL A   1      38.986  32.690  33.434  1.00  0.00    -0.354 N 
ATOM     44  C   UNL A   1      39.450  29.847  30.204  1.00  0.00     0.074 A 
ATOM     45  C   UNL A   1      38.496  30.105  29.146  1.00  0.00     0.031 C 
ATOM     46  C   UNL A   1      38.001  34.365  34.542  1.00  0.00     0.029 A 
ATOM     47  C   UNL A   1      39.017  33.323  34.651  1.00  0.00     0.049 A 
ATOM     48  H   UNL A   1      39.604  31.965  33.186  1.00  0.00     0.167 HD
ATOM     49  C   UNL A   1      40.363  28.846  30.192  1.00  0.00     0.037 A 
ATOM     50  C   UNL A   1      39.758  33.075  35.747  1.00  0.00     0.037 A 
ATOM     51  C   UNL A   1      41.315  28.611  31.246  1.00  0.00     0.049 A 
ATOM     52  C   UNL A   1      40.757  31.953  35.715  1.00  0.00     0.074 A 
ATOM     53  C   UNL A   1      42.351  27.695  31.286  1.00  0.00     0.029 A 
ATOM     54  N   UNL A   1      41.333  29.286  32.459  1.00  0.00    -0.354 N 
ATOM     55  N   UNL A   1      41.020  31.109  34.746  1.00  0.00    -0.248 NA
ATOM     56  C   UNL A   1      41.561  31.747  36.926  1.00  0.00     0.031 C 
ATOM     57  C   UNL A   1      42.953  27.770  32.547  1.00  0.00     0.029 A 
ATOM     58  C   UNL A   1      42.330  28.772  33.274  1.00  0.00     0.049 A 
ATOM     59  H   UNL A   1      40.726  30.022  32.705  1.00  0.00     0.167 HD
ATOM     60  C   UNL A   1      42.018  30.274  35.227  1.00  0.00     0.074 A 
ATOM     61  C   UNL A   1      42.334  30.731  36.565  1.00  0.00     0.031 C 
ATOM     62  C   UNL A   1      42.614  29.222  34.615  1.00  0.00     0.037 A 
BRANCH  49  63
ATOM     63  C   UNL A   1      40.359  27.918  29.010  1.00  0.00     0.064 A 
ATOM     64  C   UNL A   1      39.622  26.724  29.005  1.00  0.00     0.173 A 
ATOM     65  C   UNL A   1      41.094  28.236  27.857  1.00  0.00     0.173 A 
ATOM     66  F   UNL A   1      38.906  26.368  30.083  1.00  0.00    -0.203 F 
ATOM     67  C   UNL A   1      39.654  25.864  27.911  1.00  0.00     0.198 A 
ATOM     68  C   UNL A   1      41.098  27.389  26.751  1.00  0.00     0.198 A 
ATOM     69  F   UNL A   1      41.810  29.368  27.801  1.00  0.00    -0.203 F 
ATOM     70  F   UNL A   1      38.991  24.699  27.955  1.00  0.00    -0.200 F 
ATOM     71  C   UNL A   1      40.388  26.199  26.783  1.00  0.00     0.200 A 
ATOM     72  F   UNL A   1      41.795  27.723  25.656  1.00  0.00    -0.200 F 
ATOM     73  F   UNL A   1      40.419  25.370  25.730  1.00  0.00    -0.200 F 
ENDBRANCH  49  63
BRANCH  50  74
ATOM     74  C   UNL A   1      39.566  33.910  36.958  1.00  0.00     0.064 A 
ATOM     75  C   UNL A   1      40.136  35.186  37.052  1.00  0.00     0.173 A 
ATOM     76  C   UNL A   1      38.769  33.470  38.026  1.00  0.00     0.173 A 
ATOM     77  F   UNL A   1      40.923  35.642  36.067  1.00  0.00    -0.203 F 
ATOM     78  C   UNL A   1      39.915  35.992  38.168  1.00  0.00     0.198 A 
ATOM     79  C   UNL A   1      38.526  34.286  39.128  1.00  0.00     0.198 A 
ATOM     80  F   UNL A   1      38.201  32.256  37.985  1.00  0.00    -0.203 F 
ATOM     81  F   UNL A   1      40.492  37.199  38.245  1.00  0.00    -0.200 F 
ATOM     82  C   UNL A   1      39.102  35.545  39.200  1.00  0.00     0.200 A 
ATOM     83  F   UNL A   1      37.729  33.856  40.116  1.00  0.00    -0.200 F 
ATOM     84  F   UNL A   1      38.876  36.327  40.264  1.00  0.00    -0.200 F 
ENDBRANCH  50  74
BRANCH  62  85
ATOM     85  C   UNL A   1      43.661  28.479  35.393  1.00  0.00     0.064 A 
ATOM     86  C   UNL A   1      43.324  27.398  36.222  1.00  0.00     0.173 A 
ATOM     87  C   UNL A   1      45.018  28.815  35.271  1.00  0.00     0.173 A 
ATOM     88  F   UNL A   1      42.040  27.049  36.388  1.00  0.00    -0.203 F 
ATOM     89  C   UNL A   1      44.305  26.691  36.911  1.00  0.00     0.198 A 
ATOM     90  C   UNL A   1      45.999  28.086  35.938  1.00  0.00     0.198 A 
ATOM     91  F   UNL A   1      45.393  29.837  34.489  1.00  0.00    -0.203 F 
ATOM     92  F   UNL A   1      43.957  25.688  37.729  1.00  0.00    -0.200 F 
ATOM     93  C   UNL A   1      45.643  27.029  36.760  1.00  0.00     0.200 A 
ATOM     94  F   UNL A   1      47.291  28.406  35.780  1.00  0.00    -0.200 F 
ATOM     95  F   UNL A   1      46.587  26.339  37.415  1.00  0.00    -0.200 F 
ENDBRANCH  62  85
ENDBRANCH  36  37
ENDBRANCH  28  31
ENDBRANCH  26  27
ENDBRANCH  25  26
ENDBRANCH   1  25
TORSDOF 13
ENDMDL
MODEL 3
REMARK VINA RESULT:     -13.1      2.167      4.301
REMARK SMILES NC(=O)c1ccc(C[N@H+]2CCC[C@@H](C(=O)NCCCNC(=O)c3ccc(-c4c5nc(c(-c6c(F)c(F)c(F)c(F)c6F)c6ccc([nH]6)c(-c6c(F)c(F)c(F)c(F)c6F)c6nc(c(-c7c(F)c(F)c(F)c(F)c7F)c7ccc4[nH]7)C=C6)C=C5)cc3)C2)cc1
REMARK SMILES IDX 17 1 16 2 14 3 15 4 13 6 9 7 10 8 86 9 11 11 12 12 8 13 7 14
REMARK SMILES IDX 4 15 5 16 88 17 6 18 87 19 2 20 1 21 3 24 18 25 19 26 20 27
REMARK SMILES IDX 21 28 22 30 23 31 24 32 85 33 25 34 84 35 26 36 27 37 28 38
REMARK SMILES IDX 78 39 29 40 83 41 77 42 79 43 30 44 82 45 76 46 75 47 31 49
REMARK SMILES IDX 63 50 43 51 62 52 44 53 47 54 61 55 80 56 45 57 46 58 60 60
REMARK SMILES IDX 81 61 48 62 32 63 33 64 41 65 34 66 35 67 39 68 42 69 36 70
REMARK SMILES IDX 37 71 40 72 38 73 64 74 65 75 73 76 66 77 67 78 71 79 74 80
REMARK SMILES IDX 68 81 69 82 72 83 70 84 49 85 50 86 58 87 51 88 52 89 56 90
REMARK SMILES IDX 59 91 53 92 54 93 57 94 55 95
REMARK H PARENT 16 5 9 10 1 22 1 23 20 29 79 48 47 59
REMARK Flexibility Score: inf
ROOT
ATOM      1  C   UNL A   1      31.549  30.795  26.113  1.00  0.00     0.117 C 
ENDROOT
BRANCH   1   2
ATOM      2  N   UNL A   1      32.780  30.201  26.599  1.00  0.00    -0.356 N 
ATOM      3  C   UNL A   1      33.328  28.967  26.514  1.00  0.00     0.228 C 
ATOM      4  O   UNL A   1      34.469  28.869  26.987  1.00  0.00    -0.275 OA
ATOM      5  H   UNL A   1      33.340  30.836  27.101  1.00  0.00     0.163 HD
BRANCH   3   6
ATOM      6  C   UNL A   1      32.640  27.707  25.979  1.00  0.00     0.133 C 
ATOM      7  N   UNL A   1      33.251  25.404  25.161  1.00  0.00    -0.331 N 
ATOM      8  C   UNL A   1      32.158  24.809  25.931  1.00  0.00     0.262 C 
ATOM      9  C   UNL A   1      33.743  26.658  25.756  1.00  0.00     0.276 C 
ATOM     10  H   UNL A   1      32.851  25.659  24.258  1.00  0.00     0.348 HD
ATOM     11  C   UNL A   1      31.005  25.804  26.078  1.00  0.00     0.062 C 
ATOM     12  C   UNL A   1      31.486  27.084  26.753  1.00  0.00     0.025 C 
BRANCH   7  13
ATOM     13  C   UNL A   1      34.331  24.448  24.855  1.00  0.00     0.299 C 
BRANCH  13  14
ATOM     14  C   UNL A   1      33.962  22.976  24.910  1.00  0.00     0.006 A 
ATOM     15  C   UNL A   1      33.124  20.303  25.108  1.00  0.00     0.039 A 
ATOM     16  C   UNL A   1      33.799  20.903  26.172  1.00  0.00     0.014 A 
ATOM     17  C   UNL A   1      32.890  21.023  23.931  1.00  0.00     0.014 A 
ATOM     18  C   UNL A   1      34.242  22.219  26.059  1.00  0.00     0.010 A 
ATOM     19  C   UNL A   1      33.300  22.357  23.838  1.00  0.00     0.010 A 
BRANCH  15  20
ATOM     20  C   UNL A   1      32.637  18.918  25.286  1.00  0.00     0.248 C 
ATOM     21  N   UNL A   1      32.782  18.370  26.527  1.00  0.00    -0.366 N 
ATOM     22  H   UNL A   1      32.475  17.451  26.698  1.00  0.00     0.159 HD
ATOM     23  H   UNL A   1      33.196  18.893  27.251  1.00  0.00     0.159 HD
ATOM     24  O   UNL A   1      32.098  18.310  24.371  1.00  0.00    -0.270 OA
ENDBRANCH  15  20
ENDBRANCH  13  14
ENDBRANCH   7  13
ENDBRANCH   3   6
ENDBRANCH   1   2
BRANCH   1  25
ATOM     25  C   UNL A   1      31.382  32.246  26.557  1.00  0.00     0.042 C 
BRANCH  25  26
ATOM     26  C   UNL A   1      32.621  32.812  27.252  1.00  0.00     0.118 C 
BRANCH  26  27
ATOM     27  N   UNL A   1      32.449  34.216  27.621  1.00  0.00    -0.352 N 
ATOM     28  C   UNL A   1      33.008  34.955  28.632  1.00  0.00     0.251 C 
ATOM     29  H   UNL A   1      31.826  34.716  27.044  1.00  0.00     0.163 HD
ATOM     30  O   UNL A   1      32.513  36.036  28.936  1.00  0.00    -0.269 OA
BRANCH  28  31
ATOM     31  C   UNL A   1      34.198  34.467  29.355  1.00  0.00     0.039 A 
ATOM     32  C   UNL A   1      34.036  33.901  30.624  1.00  0.00     0.014 A 
ATOM     33  C   UNL A   1      35.476  34.617  28.812  1.00  0.00     0.014 A 
ATOM     34  C   UNL A   1      35.149  33.413  31.312  1.00  0.00     0.010 A 
ATOM     35  C   UNL A   1      36.575  34.071  29.467  1.00  0.00     0.010 A 
ATOM     36  C   UNL A   1      36.420  33.456  30.719  1.00  0.00    -0.014 A 
BRANCH  36  37
ATOM     37  C   UNL A   1      37.596  32.818  31.358  1.00  0.00     0.031 A 
ATOM     38  C   UNL A   1      38.252  31.625  30.730  1.00  0.00     0.074 A 
ATOM     39  C   UNL A   1      37.993  33.253  32.570  1.00  0.00     0.049 A 
ATOM     40  N   UNL A   1      39.205  30.861  31.200  1.00  0.00    -0.248 NA
ATOM     41  C   UNL A   1      37.750  31.220  29.409  1.00  0.00     0.031 C 
ATOM     42  C   UNL A   1      37.388  34.366  33.304  1.00  0.00     0.029 A 
ATOM     43  N   UNL A   1      38.973  32.791  33.412  1.00  0.00    -0.354 N 
ATOM     44  C   UNL A   1      39.400  29.872  30.246  1.00  0.00     0.074 A 
ATOM     45  C   UNL A   1      38.441  30.110  29.188  1.00  0.00     0.031 C 
ATOM     46  C   UNL A   1      38.005  34.498  34.486  1.00  0.00     0.029 A 
ATOM     47  C   UNL A   1      39.016  33.452  34.614  1.00  0.00     0.049 A 
ATOM     48  H   UNL A   1      39.585  32.057  33.177  1.00  0.00     0.167 HD
ATOM     49  C   UNL A   1      40.306  28.865  30.252  1.00  0.00     0.037 A 
ATOM     50  C   UNL A   1      39.762  33.225  35.710  1.00  0.00     0.037 A 
ATOM     51  C   UNL A   1      41.263  28.648  31.306  1.00  0.00     0.049 A 
ATOM     52  C   UNL A   1      40.753  32.097  35.699  1.00  0.00     0.074 A 
ATOM     53  C   UNL A   1      42.294  27.726  31.360  1.00  0.00     0.029 A 
ATOM     54  N   UNL A   1      41.293  29.351  32.502  1.00  0.00    -0.354 N 
ATOM     55  N   UNL A   1      41.005  31.228  34.749  1.00  0.00    -0.248 NA
ATOM     56  C   UNL A   1      41.564  31.913  36.910  1.00  0.00     0.031 C 
ATOM     57  C   UNL A   1      42.904  27.827  32.616  1.00  0.00     0.029 A 
ATOM     58  C   UNL A   1      42.292  28.850  33.323  1.00  0.00     0.049 A 
ATOM     59  H   UNL A   1      40.692  30.096  32.734  1.00  0.00     0.167 HD
ATOM     60  C   UNL A   1      42.001  30.398  35.242  1.00  0.00     0.074 A 
ATOM     61  C   UNL A   1      42.328  30.884  36.568  1.00  0.00     0.031 C 
ATOM     62  C   UNL A   1      42.587  29.328  34.652  1.00  0.00     0.037 A 
BRANCH  49  63
ATOM     63  C   UNL A   1      40.290  27.910  29.092  1.00  0.00     0.064 A 
ATOM     64  C   UNL A   1      39.545  26.720  29.120  1.00  0.00     0.173 A 
ATOM     65  C   UNL A   1      41.019  28.196  27.927  1.00  0.00     0.173 A 
ATOM     66  F   UNL A   1      38.835  26.393  30.209  1.00  0.00    -0.203 F 
ATOM     67  C   UNL A   1      39.566  25.835  28.045  1.00  0.00     0.198 A 
ATOM     68  C   UNL A   1      41.011  27.324  26.841  1.00  0.00     0.198 A 
ATOM     69  F   UNL A   1      41.741  29.323  27.840  1.00  0.00    -0.203 F 
ATOM     70  F   UNL A   1      38.897  24.675  28.121  1.00  0.00    -0.200 F 
ATOM     71  C   UNL A   1      40.295  26.139  26.905  1.00  0.00     0.200 A 
ATOM     72  F   UNL A   1      41.703  27.628  25.734  1.00  0.00    -0.200 F 
ATOM     73  F   UNL A   1      40.314  25.286  25.872  1.00  0.00    -0.200 F 
ENDBRANCH  49  63
BRANCH  50  74
ATOM     74  C   UNL A   1      39.583  34.089  36.904  1.00  0.00     0.064 A 
ATOM     75  C   UNL A   1      38.790  33.675  37.982  1.00  0.00     0.173 A 
ATOM     76  C   UNL A   1      40.240  35.324  37.011  1.00  0.00     0.173 A 
ATOM     77  F   UNL A   1      38.126  32.513  37.917  1.00  0.00    -0.203 F 
ATOM     78  C   UNL A   1      38.662  34.463  39.124  1.00  0.00     0.198 A 
ATOM     79  C   UNL A   1      40.133  36.099  38.164  1.00  0.00     0.198 A 
ATOM     80  F   UNL A   1      41.010  35.766  36.006  1.00  0.00    -0.203 F 
ATOM     81  F   UNL A   1      37.877  34.057  40.131  1.00  0.00    -0.200 F 
ATOM     82  C   UNL A   1      39.341  35.670  39.217  1.00  0.00     0.200 A 
ATOM     83  F   UNL A   1      40.802  37.256  38.256  1.00  0.00    -0.200 F 
ATOM     84  F   UNL A   1      39.232  36.419  40.323  1.00  0.00    -0.200 F 
ENDBRANCH  50  74
BRANCH  62  85
ATOM     85  C   UNL A   1      43.634  28.597  35.441  1.00  0.00     0.064 A 
ATOM     86  C   UNL A   1      44.991  28.943  35.348  1.00  0.00     0.173 A 
ATOM     87  C   UNL A   1      43.276  27.578  36.335  1.00  0.00     0.173 A 
ATOM     88  F   UNL A   1      45.387  29.898  34.493  1.00  0.00    -0.203 F 
ATOM     89  C   UNL A   1      45.951  28.285  36.110  1.00  0.00     0.198 A 
ATOM     90  C   UNL A   1      44.235  26.942  37.119  1.00  0.00     0.198 A 
ATOM     91  F   UNL A   1      41.992  27.211  36.464  1.00  0.00    -0.203 F 
ATOM     92  F   UNL A   1      47.246  28.604  35.976  1.00  0.00    -0.200 F 
ATOM     93  C   UNL A   1      45.571  27.292  37.002  1.00  0.00     0.200 A 
ATOM     94  F   UNL A   1      43.865  25.993  37.989  1.00  0.00    -0.200 F 
ATOM     95  F   UNL A   1      46.497  26.668  37.745  1.00  0.00    -0.200 F 
ENDBRANCH  62  85
ENDBRANCH  36  37
ENDBRANCH  28  31
ENDBRANCH  26  27
ENDBRANCH  25  26
ENDBRANCH   1  25
TORSDOF 13
ENDMDL
