MODEL 1
REMARK VINA RESULT:     -12.8      0.000      0.000
REMARK SMILES O=C(NCCCNC(=O)c1cn(C2C[NH+](Cc3cc(F)ccc3F)C2)nn1)c1ccc(-c2c3nc(c(-c4c(F)c(F)c(F)c(F)c4F)c4ccc([nH]4)c(-c4c(F)c(F)c(F)c(F)c4F)c4nc(c(-c5c(F)c(F)c(F)c(F)c5F)c5ccc2[nH]5)C=C4)C=C3)cc1
REMARK SMILES IDX 5 1 4 2 3 3 1 4 2 5 28 7 29 8 90 9 30 10 89 11 31 12 32 13
REMARK SMILES IDX 33 14 83 15 34 16 88 17 82 18 84 19 35 20 87 21 81 22 80 23
REMARK SMILES IDX 36 25 68 26 48 27 67 28 49 29 52 30 66 31 85 32 50 33 51 34
REMARK SMILES IDX 65 36 86 37 53 38 37 39 38 40 46 41 39 42 40 43 44 44 47 45
REMARK SMILES IDX 41 46 42 47 45 48 43 49 69 50 70 51 78 52 71 53 72 54 76 55
REMARK SMILES IDX 79 56 73 57 74 58 77 59 75 60 54 61 55 62 63 63 56 64 57 65
REMARK SMILES IDX 61 66 64 67 58 68 59 69 62 70 60 71 6 72 7 73 8 74 9 76
REMARK SMILES IDX 10 77 11 78 27 79 12 80 26 81 13 82 14 83 25 84 15 85 16 87
REMARK SMILES IDX 17 88 18 89 23 90 19 91 22 92 24 93 20 94 21 95
REMARK H PARENT 3 6 84 24 52 35 7 75 15 86
REMARK Flexibility Score: inf
ROOT
ATOM      1  C   UNL A   1      34.420  35.528  28.412  1.00  0.00     0.042 C 
ENDROOT
BRANCH   1   2
ATOM      2  C   UNL A   1      35.073  34.225  28.862  1.00  0.00     0.118 C 
BRANCH   2   3
ATOM      3  N   UNL A   1      34.439  33.020  28.367  1.00  0.00    -0.352 N 
ATOM      4  O   UNL A   1      33.885  30.919  27.983  1.00  0.00    -0.269 OA
ATOM      5  C   UNL A   1      34.774  31.697  28.338  1.00  0.00     0.251 C 
ATOM      6  H   UNL A   1      33.564  33.198  27.955  1.00  0.00     0.163 HD
BRANCH   5   7
ATOM      7  C   UNL A   1      36.129  31.150  28.609  1.00  0.00     0.039 A 
ATOM      8  C   UNL A   1      37.229  31.866  29.087  1.00  0.00     0.014 A 
ATOM      9  C   UNL A   1      36.288  29.779  28.328  1.00  0.00     0.014 A 
ATOM     10  C   UNL A   1      38.477  31.250  29.188  1.00  0.00     0.010 A 
ATOM     11  C   UNL A   1      37.524  29.159  28.436  1.00  0.00     0.010 A 
ATOM     12  C   UNL A   1      38.627  29.907  28.831  1.00  0.00    -0.014 A 
BRANCH  12  13
ATOM     13  C   UNL A   1      39.913  29.250  29.064  1.00  0.00     0.031 A 
ATOM     14  C   UNL A   1      40.195  28.955  30.501  1.00  0.00     0.074 A 
ATOM     15  C   UNL A   1      40.690  28.773  28.068  1.00  0.00     0.049 A 
ATOM     16  N   UNL A   1      41.214  29.313  31.212  1.00  0.00    -0.248 NA
ATOM     17  C   UNL A   1      39.155  28.246  31.270  1.00  0.00     0.031 C 
ATOM     18  C   UNL A   1      40.384  28.724  26.636  1.00  0.00     0.029 A 
ATOM     19  N   UNL A   1      41.892  28.131  28.141  1.00  0.00    -0.354 N 
ATOM     20  C   UNL A   1      41.031  28.735  32.470  1.00  0.00     0.074 A 
ATOM     21  C   UNL A   1      39.689  28.218  32.491  1.00  0.00     0.031 C 
ATOM     22  C   UNL A   1      41.260  27.899  26.017  1.00  0.00     0.029 A 
ATOM     23  C   UNL A   1      42.261  27.465  26.975  1.00  0.00     0.049 A 
ATOM     24  H   UNL A   1      42.453  28.138  28.950  1.00  0.00     0.167 HD
ATOM     25  C   UNL A   1      42.079  28.522  33.313  1.00  0.00     0.037 A 
ATOM     26  C   UNL A   1      43.280  26.576  26.831  1.00  0.00     0.037 A 
ATOM     27  C   UNL A   1      43.182  29.391  32.997  1.00  0.00     0.049 A 
ATOM     28  C   UNL A   1      44.209  26.781  27.969  1.00  0.00     0.074 A 
ATOM     29  C   UNL A   1      43.360  30.760  32.958  1.00  0.00     0.029 A 
ATOM     30  N   UNL A   1      44.247  28.865  32.311  1.00  0.00    -0.354 N 
ATOM     31  N   UNL A   1      44.934  27.850  28.139  1.00  0.00    -0.248 NA
ATOM     32  C   UNL A   1      44.000  25.965  29.154  1.00  0.00     0.031 C 
ATOM     33  C   UNL A   1      44.214  30.989  31.839  1.00  0.00     0.029 A 
ATOM     34  C   UNL A   1      44.557  29.746  31.309  1.00  0.00     0.049 A 
ATOM     35  H   UNL A   1      44.704  28.015  32.502  1.00  0.00     0.167 HD
ATOM     36  C   UNL A   1      44.902  28.076  29.505  1.00  0.00     0.074 A 
ATOM     37  C   UNL A   1      44.381  26.841  30.086  1.00  0.00     0.031 C 
ATOM     38  C   UNL A   1      45.031  29.336  30.009  1.00  0.00     0.037 A 
BRANCH  25  39
ATOM     39  C   UNL A   1      42.244  27.278  34.161  1.00  0.00     0.064 A 
ATOM     40  C   UNL A   1      43.023  26.161  33.784  1.00  0.00     0.173 A 
ATOM     41  C   UNL A   1      41.882  27.323  35.524  1.00  0.00     0.173 A 
ATOM     42  F   UNL A   1      43.512  26.011  32.548  1.00  0.00    -0.203 F 
ATOM     43  C   UNL A   1      43.438  25.194  34.699  1.00  0.00     0.198 A 
ATOM     44  C   UNL A   1      42.343  26.380  36.447  1.00  0.00     0.198 A 
ATOM     45  F   UNL A   1      41.154  28.343  36.005  1.00  0.00    -0.203 F 
ATOM     46  F   UNL A   1      44.214  24.184  34.280  1.00  0.00    -0.200 F 
ATOM     47  C   UNL A   1      43.129  25.320  36.034  1.00  0.00     0.200 A 
ATOM     48  F   UNL A   1      42.085  26.545  37.752  1.00  0.00    -0.200 F 
ATOM     49  F   UNL A   1      43.629  24.454  36.925  1.00  0.00    -0.200 F 
ENDBRANCH  25  39
BRANCH  26  50
ATOM     50  C   UNL A   1      43.341  25.343  26.001  1.00  0.00     0.064 A 
ATOM     51  C   UNL A   1      42.443  24.279  26.208  1.00  0.00     0.173 A 
ATOM     52  C   UNL A   1      44.470  25.057  25.212  1.00  0.00     0.173 A 
ATOM     53  F   UNL A   1      41.374  24.425  27.003  1.00  0.00    -0.203 F 
ATOM     54  C   UNL A   1      42.676  23.004  25.687  1.00  0.00     0.198 A 
ATOM     55  C   UNL A   1      44.707  23.776  24.697  1.00  0.00     0.198 A 
ATOM     56  F   UNL A   1      45.401  25.999  25.000  1.00  0.00    -0.203 F 
ATOM     57  F   UNL A   1      41.824  22.007  25.968  1.00  0.00    -0.200 F 
ATOM     58  C   UNL A   1      43.815  22.748  24.947  1.00  0.00     0.200 A 
ATOM     59  F   UNL A   1      45.832  23.526  24.013  1.00  0.00    -0.200 F 
ATOM     60  F   UNL A   1      44.074  21.505  24.516  1.00  0.00    -0.200 F 
ENDBRANCH  26  50
BRANCH  38  61
ATOM     61  C   UNL A   1      45.474  30.430  29.078  1.00  0.00     0.064 A 
ATOM     62  C   UNL A   1      44.490  31.106  28.344  1.00  0.00     0.173 A 
ATOM     63  C   UNL A   1      46.817  30.711  28.772  1.00  0.00     0.173 A 
ATOM     64  F   UNL A   1      43.192  30.841  28.559  1.00  0.00    -0.203 F 
ATOM     65  C   UNL A   1      44.828  32.011  27.345  1.00  0.00     0.198 A 
ATOM     66  C   UNL A   1      47.154  31.647  27.794  1.00  0.00     0.198 A 
ATOM     67  F   UNL A   1      47.816  30.042  29.361  1.00  0.00    -0.203 F 
ATOM     68  F   UNL A   1      43.864  32.590  26.616  1.00  0.00    -0.200 F 
ATOM     69  C   UNL A   1      46.159  32.287  27.074  1.00  0.00     0.200 A 
ATOM     70  F   UNL A   1      48.442  31.898  27.519  1.00  0.00    -0.200 F 
ATOM     71  F   UNL A   1      46.483  33.147  26.098  1.00  0.00    -0.200 F 
ENDBRANCH  38  61
ENDBRANCH  12  13
ENDBRANCH   5   7
ENDBRANCH   2   3
ENDBRANCH   1   2
BRANCH   1  72
ATOM     72  C   UNL A   1      33.077  35.832  29.077  1.00  0.00     0.118 C 
BRANCH  72  73
ATOM     73  N   UNL A   1      33.144  36.964  29.988  1.00  0.00    -0.351 N 
ATOM     74  C   UNL A   1      33.273  36.997  31.352  1.00  0.00     0.273 C 
ATOM     75  H   UNL A   1      33.090  37.847  29.556  1.00  0.00     0.163 HD
ATOM     76  O   UNL A   1      33.104  38.082  31.926  1.00  0.00    -0.267 OA
BRANCH  74  77
ATOM     77  C   UNL A   1      33.592  35.783  32.073  1.00  0.00     0.170 A 
ATOM     78  C   UNL A   1      34.825  35.336  32.514  1.00  0.00     0.145 A 
ATOM     79  N   UNL A   1      32.632  34.880  32.456  1.00  0.00    -0.125 NA
ATOM     80  N   UNL A   1      34.556  34.111  33.050  1.00  0.00    -0.237 N 
ATOM     81  N   UNL A   1      33.236  33.856  33.037  1.00  0.00    -0.066 NA
BRANCH  80  82
ATOM     82  C   UNL A   1      35.476  33.099  33.458  1.00  0.00     0.218 C 
ATOM     83  C   UNL A   1      35.614  31.921  32.456  1.00  0.00     0.296 C 
ATOM     84  C   UNL A   1      36.965  33.350  33.128  1.00  0.00     0.296 C 
ATOM     85  N   UNL A   1      37.077  31.958  32.637  1.00  0.00    -0.327 N 
ATOM     86  H   UNL A   1      37.710  31.734  31.868  1.00  0.00     0.348 HD
BRANCH  85  87
ATOM     87  C   UNL A   1      37.594  30.975  33.623  1.00  0.00     0.302 C 
BRANCH  87  88
ATOM     88  C   UNL A   1      38.554  31.430  34.703  1.00  0.00     0.045 A 
ATOM     89  C   UNL A   1      38.159  31.523  36.048  1.00  0.00     0.051 A 
ATOM     90  C   UNL A   1      39.849  31.846  34.369  1.00  0.00     0.132 A 
ATOM     91  C   UNL A   1      38.992  32.140  36.979  1.00  0.00     0.123 A 
ATOM     92  C   UNL A   1      40.696  32.425  35.313  1.00  0.00     0.043 A 
ATOM     93  F   UNL A   1      40.285  31.723  33.108  1.00  0.00    -0.206 F 
ATOM     94  F   UNL A   1      38.549  32.329  38.229  1.00  0.00    -0.207 F 
ATOM     95  C   UNL A   1      40.252  32.604  36.620  1.00  0.00     0.042 A 
ENDBRANCH  87  88
ENDBRANCH  85  87
ENDBRANCH  80  82
ENDBRANCH  74  77
ENDBRANCH  72  73
ENDBRANCH   1  72
TORSDOF 13
ENDMDL
MODEL 2
REMARK VINA RESULT:     -12.8      3.485      6.579
REMARK SMILES O=C(NCCCNC(=O)c1cn(C2C[NH+](Cc3cc(F)ccc3F)C2)nn1)c1ccc(-c2c3nc(c(-c4c(F)c(F)c(F)c(F)c4F)c4ccc([nH]4)c(-c4c(F)c(F)c(F)c(F)c4F)c4nc(c(-c5c(F)c(F)c(F)c(F)c5F)c5ccc2[nH]5)C=C4)C=C3)cc1
REMARK SMILES IDX 5 1 4 2 3 3 1 4 2 5 28 7 29 8 90 9 30 10 89 11 31 12 32 13
REMARK SMILES IDX 33 14 83 15 34 16 88 17 82 18 84 19 35 20 87 21 81 22 80 23
REMARK SMILES IDX 36 25 68 26 48 27 67 28 49 29 52 30 66 31 85 32 50 33 51 34
REMARK SMILES IDX 65 36 86 37 53 38 37 39 38 40 46 41 39 42 40 43 44 44 47 45
REMARK SMILES IDX 41 46 42 47 45 48 43 49 69 50 70 51 78 52 71 53 72 54 76 55
REMARK SMILES IDX 79 56 73 57 74 58 77 59 75 60 54 61 55 62 63 63 56 64 57 65
REMARK SMILES IDX 61 66 64 67 58 68 59 69 62 70 60 71 6 72 7 73 8 74 9 76
REMARK SMILES IDX 10 77 11 78 27 79 12 80 26 81 13 82 14 83 25 84 15 85 16 87
REMARK SMILES IDX 17 88 18 89 23 90 19 91 22 92 24 93 20 94 21 95
REMARK H PARENT 3 6 84 24 52 35 7 75 15 86
REMARK Flexibility Score: inf
ROOT
ATOM      1  C   UNL A   1      32.376  30.659  26.687  1.00  0.00     0.042 C 
ENDROOT
BRANCH   1   2
ATOM      2  C   UNL A   1      33.798  30.707  27.237  1.00  0.00     0.118 C 
BRANCH   2   3
ATOM      3  N   UNL A   1      33.956  31.473  28.457  1.00  0.00    -0.352 N 
ATOM      4  O   UNL A   1      34.791  32.568  30.181  1.00  0.00    -0.269 OA
ATOM      5  C   UNL A   1      34.983  31.698  29.327  1.00  0.00     0.251 C 
ATOM      6  H   UNL A   1      33.130  31.939  28.719  1.00  0.00     0.163 HD
BRANCH   5   7
ATOM      7  C   UNL A   1      36.251  30.924  29.376  1.00  0.00     0.039 A 
ATOM      8  C   UNL A   1      36.368  29.544  29.557  1.00  0.00     0.014 A 
ATOM      9  C   UNL A   1      37.425  31.689  29.242  1.00  0.00     0.014 A 
ATOM     10  C   UNL A   1      37.629  28.960  29.697  1.00  0.00     0.010 A 
ATOM     11  C   UNL A   1      38.680  31.113  29.371  1.00  0.00     0.010 A 
ATOM     12  C   UNL A   1      38.779  29.752  29.637  1.00  0.00    -0.014 A 
BRANCH  12  13
ATOM     13  C   UNL A   1      40.090  29.103  29.660  1.00  0.00     0.031 A 
ATOM     14  C   UNL A   1      40.668  28.945  31.029  1.00  0.00     0.074 A 
ATOM     15  C   UNL A   1      40.644  28.520  28.576  1.00  0.00     0.049 A 
ATOM     16  N   UNL A   1      41.810  29.357  31.472  1.00  0.00    -0.248 NA
ATOM     17  C   UNL A   1      39.816  28.331  32.064  1.00  0.00     0.031 C 
ATOM     18  C   UNL A   1      40.046  28.335  27.251  1.00  0.00     0.029 A 
ATOM     19  N   UNL A   1      41.839  27.870  28.459  1.00  0.00    -0.354 N 
ATOM     20  C   UNL A   1      41.898  28.907  32.791  1.00  0.00     0.074 A 
ATOM     21  C   UNL A   1      40.594  28.415  33.143  1.00  0.00     0.031 C 
ATOM     22  C   UNL A   1      40.778  27.440  26.547  1.00  0.00     0.029 A 
ATOM     23  C   UNL A   1      41.961  27.088  27.313  1.00  0.00     0.049 A 
ATOM     24  H   UNL A   1      42.556  27.948  29.128  1.00  0.00     0.167 HD
ATOM     25  C   UNL A   1      43.101  28.763  33.413  1.00  0.00     0.037 A 
ATOM     26  C   UNL A   1      42.933  26.175  27.049  1.00  0.00     0.037 A 
ATOM     27  C   UNL A   1      44.108  29.581  32.790  1.00  0.00     0.049 A 
ATOM     28  C   UNL A   1      44.078  26.477  27.942  1.00  0.00     0.074 A 
ATOM     29  C   UNL A   1      44.264  30.938  32.580  1.00  0.00     0.029 A 
ATOM     30  N   UNL A   1      45.009  28.976  31.952  1.00  0.00    -0.354 N 
ATOM     31  N   UNL A   1      44.816  27.548  27.850  1.00  0.00    -0.248 NA
ATOM     32  C   UNL A   1      44.127  25.784  29.219  1.00  0.00     0.031 C 
ATOM     33  C   UNL A   1      44.864  31.043  31.291  1.00  0.00     0.029 A 
ATOM     34  C   UNL A   1      45.097  29.750  30.825  1.00  0.00     0.049 A 
ATOM     35  H   UNL A   1      45.501  28.142  32.127  1.00  0.00     0.167 HD
ATOM     36  C   UNL A   1      45.068  27.906  29.164  1.00  0.00     0.074 A 
ATOM     37  C   UNL A   1      44.689  26.742  29.960  1.00  0.00     0.031 C 
ATOM     38  C   UNL A   1      45.292  29.208  29.503  1.00  0.00     0.037 A 
BRANCH  25  39
ATOM     39  C   UNL A   1      43.448  27.606  34.327  1.00  0.00     0.064 A 
ATOM     40  C   UNL A   1      43.444  27.684  35.738  1.00  0.00     0.173 A 
ATOM     41  C   UNL A   1      43.475  26.298  33.799  1.00  0.00     0.173 A 
ATOM     42  F   UNL A   1      43.341  28.845  36.393  1.00  0.00    -0.203 F 
ATOM     43  C   UNL A   1      43.426  26.550  36.551  1.00  0.00     0.198 A 
ATOM     44  C   UNL A   1      43.405  25.165  34.615  1.00  0.00     0.198 A 
ATOM     45  F   UNL A   1      43.468  26.095  32.472  1.00  0.00    -0.203 F 
ATOM     46  F   UNL A   1      43.377  26.697  37.882  1.00  0.00    -0.200 F 
ATOM     47  C   UNL A   1      43.372  25.294  35.991  1.00  0.00     0.200 A 
ATOM     48  F   UNL A   1      43.294  23.951  34.060  1.00  0.00    -0.200 F 
ATOM     49  F   UNL A   1      43.236  24.215  36.774  1.00  0.00    -0.200 F 
ENDBRANCH  25  39
BRANCH  26  50
ATOM     50  C   UNL A   1      42.827  24.866  26.350  1.00  0.00     0.064 A 
ATOM     51  C   UNL A   1      42.143  23.782  26.932  1.00  0.00     0.173 A 
ATOM     52  C   UNL A   1      43.656  24.561  25.255  1.00  0.00     0.173 A 
ATOM     53  F   UNL A   1      41.386  23.952  28.025  1.00  0.00    -0.203 F 
ATOM     54  C   UNL A   1      42.305  22.473  26.470  1.00  0.00     0.198 A 
ATOM     55  C   UNL A   1      43.822  23.248  24.797  1.00  0.00     0.198 A 
ATOM     56  F   UNL A   1      44.379  25.526  24.667  1.00  0.00    -0.203 F 
ATOM     57  F   UNL A   1      41.683  21.466  27.100  1.00  0.00    -0.200 F 
ATOM     58  C   UNL A   1      43.156  22.204  25.415  1.00  0.00     0.200 A 
ATOM     59  F   UNL A   1      44.679  22.990  23.799  1.00  0.00    -0.200 F 
ATOM     60  F   UNL A   1      43.368  20.938  25.025  1.00  0.00    -0.200 F 
ENDBRANCH  26  50
BRANCH  38  61
ATOM     61  C   UNL A   1      45.522  30.199  28.396  1.00  0.00     0.064 A 
ATOM     62  C   UNL A   1      46.841  30.588  28.127  1.00  0.00     0.173 A 
ATOM     63  C   UNL A   1      44.496  30.883  27.722  1.00  0.00     0.173 A 
ATOM     64  F   UNL A   1      47.859  30.003  28.778  1.00  0.00    -0.203 F 
ATOM     65  C   UNL A   1      47.123  31.617  27.236  1.00  0.00     0.198 A 
ATOM     66  C   UNL A   1      44.783  31.890  26.802  1.00  0.00     0.198 A 
ATOM     67  F   UNL A   1      43.207  30.636  27.990  1.00  0.00    -0.203 F 
ATOM     68  F   UNL A   1      48.391  32.010  27.052  1.00  0.00    -0.200 F 
ATOM     69  C   UNL A   1      46.096  32.264  26.569  1.00  0.00     0.200 A 
ATOM     70  F   UNL A   1      43.786  32.529  26.171  1.00  0.00    -0.200 F 
ATOM     71  F   UNL A   1      46.369  33.268  25.724  1.00  0.00    -0.200 F 
ENDBRANCH  38  61
ENDBRANCH  12  13
ENDBRANCH   5   7
ENDBRANCH   2   3
ENDBRANCH   1   2
BRANCH   1  72
ATOM     72  C   UNL A   1      32.257  30.079  25.276  1.00  0.00     0.118 C 
BRANCH  72  73
ATOM     73  N   UNL A   1      30.919  30.218  24.723  1.00  0.00    -0.351 N 
ATOM     74  C   UNL A   1      30.247  29.433  23.823  1.00  0.00     0.273 C 
ATOM     75  H   UNL A   1      30.415  31.000  25.048  1.00  0.00     0.163 HD
ATOM     76  O   UNL A   1      29.188  29.869  23.350  1.00  0.00    -0.267 OA
BRANCH  74  77
ATOM     77  C   UNL A   1      30.786  28.143  23.452  1.00  0.00     0.170 A 
ATOM     78  C   UNL A   1      31.330  27.164  24.266  1.00  0.00     0.145 A 
ATOM     79  N   UNL A   1      30.796  27.694  22.155  1.00  0.00    -0.125 NA
ATOM     80  N   UNL A   1      31.751  26.207  23.390  1.00  0.00    -0.237 N 
ATOM     81  N   UNL A   1      31.403  26.518  22.129  1.00  0.00    -0.066 NA
BRANCH  80  82
ATOM     82  C   UNL A   1      32.579  25.073  23.643  1.00  0.00     0.218 C 
ATOM     83  C   UNL A   1      34.020  25.426  24.101  1.00  0.00     0.296 C 
ATOM     84  C   UNL A   1      32.458  24.433  25.046  1.00  0.00     0.296 C 
ATOM     85  N   UNL A   1      33.935  24.376  25.132  1.00  0.00    -0.327 N 
ATOM     86  H   UNL A   1      34.401  24.482  26.034  1.00  0.00     0.348 HD
BRANCH  85  87
ATOM     87  C   UNL A   1      34.544  23.081  24.735  1.00  0.00     0.302 C 
BRANCH  87  88
ATOM     88  C   UNL A   1      35.933  22.724  25.224  1.00  0.00     0.045 A 
ATOM     89  C   UNL A   1      36.798  23.694  25.759  1.00  0.00     0.051 A 
ATOM     90  C   UNL A   1      36.420  21.419  25.080  1.00  0.00     0.132 A 
ATOM     91  C   UNL A   1      38.134  23.380  26.002  1.00  0.00     0.123 A 
ATOM     92  C   UNL A   1      37.746  21.098  25.365  1.00  0.00     0.043 A 
ATOM     93  F   UNL A   1      35.612  20.451  24.626  1.00  0.00    -0.206 F 
ATOM     94  F   UNL A   1      38.972  24.348  26.396  1.00  0.00    -0.207 F 
ATOM     95  C   UNL A   1      38.619  22.094  25.797  1.00  0.00     0.042 A 
ENDBRANCH  87  88
ENDBRANCH  85  87
ENDBRANCH  80  82
ENDBRANCH  74  77
ENDBRANCH  72  73
ENDBRANCH   1  72
TORSDOF 13
ENDMDL
MODEL 3
REMARK VINA RESULT:     -12.7      5.712     11.600
REMARK SMILES O=C(NCCCNC(=O)c1cn(C2C[NH+](Cc3cc(F)ccc3F)C2)nn1)c1ccc(-c2c3nc(c(-c4c(F)c(F)c(F)c(F)c4F)c4ccc([nH]4)c(-c4c(F)c(F)c(F)c(F)c4F)c4nc(c(-c5c(F)c(F)c(F)c(F)c5F)c5ccc2[nH]5)C=C4)C=C3)cc1
REMARK SMILES IDX 5 1 4 2 3 3 1 4 2 5 28 7 29 8 90 9 30 10 89 11 31 12 32 13
REMARK SMILES IDX 33 14 83 15 34 16 88 17 82 18 84 19 35 20 87 21 81 22 80 23
REMARK SMILES IDX 36 25 68 26 48 27 67 28 49 29 52 30 66 31 85 32 50 33 51 34
REMARK SMILES IDX 65 36 86 37 53 38 37 39 38 40 46 41 39 42 40 43 44 44 47 45
REMARK SMILES IDX 41 46 42 47 45 48 43 49 69 50 70 51 78 52 71 53 72 54 76 55
REMARK SMILES IDX 79 56 73 57 74 58 77 59 75 60 54 61 55 62 63 63 56 64 57 65
REMARK SMILES IDX 61 66 64 67 58 68 59 69 62 70 60 71 6 72 7 73 8 74 9 76
REMARK SMILES IDX 10 77 11 78 27 79 12 80 26 81 13 82 14 83 25 84 15 85 16 87
REMARK SMILES IDX 17 88 18 89 23 90 19 91 22 92 24 93 20 94 21 95
REMARK H PARENT 3 6 84 24 52 35 7 75 15 86
REMARK Flexibility Score: inf
ROOT
ATOM      1  C   UNL A   1      37.674  21.033  25.224  1.00  0.00     0.042 C 
ENDROOT
BRANCH   1   2
ATOM      2  C   UNL A   1      38.470  22.144  25.901  1.00  0.00     0.118 C 
BRANCH   2   3
ATOM      3  N   UNL A   1      39.910  22.007  25.811  1.00  0.00    -0.352 N 
ATOM      4  O   UNL A   1      42.083  22.186  26.149  1.00  0.00    -0.269 OA
ATOM      5  C   UNL A   1      40.976  22.717  26.282  1.00  0.00     0.251 C 
ATOM      6  H   UNL A   1      40.181  21.218  25.289  1.00  0.00     0.163 HD
BRANCH   5   7
ATOM      7  C   UNL A   1      40.911  24.090  26.844  1.00  0.00     0.039 A 
ATOM      8  C   UNL A   1      40.142  25.148  26.353  1.00  0.00     0.014 A 
ATOM      9  C   UNL A   1      41.729  24.317  27.967  1.00  0.00     0.014 A 
ATOM     10  C   UNL A   1      40.262  26.421  26.912  1.00  0.00     0.010 A 
ATOM     11  C   UNL A   1      41.846  25.578  28.532  1.00  0.00     0.010 A 
ATOM     12  C   UNL A   1      41.139  26.639  27.979  1.00  0.00    -0.014 A 
BRANCH  12  13
ATOM     13  C   UNL A   1      41.155  27.950  28.627  1.00  0.00     0.031 A 
ATOM     14  C   UNL A   1      42.242  28.855  28.146  1.00  0.00     0.074 A 
ATOM     15  C   UNL A   1      40.169  28.383  29.441  1.00  0.00     0.049 A 
ATOM     16  N   UNL A   1      43.160  29.448  28.837  1.00  0.00    -0.248 NA
ATOM     17  C   UNL A   1      42.378  29.046  26.690  1.00  0.00     0.031 C 
ATOM     18  C   UNL A   1      38.901  27.716  29.750  1.00  0.00     0.029 A 
ATOM     19  N   UNL A   1      40.047  29.576  30.094  1.00  0.00    -0.354 N 
ATOM     20  C   UNL A   1      43.886  30.222  27.929  1.00  0.00     0.074 A 
ATOM     21  C   UNL A   1      43.457  29.825  26.616  1.00  0.00     0.031 C 
ATOM     22  C   UNL A   1      38.059  28.598  30.338  1.00  0.00     0.029 A 
ATOM     23  C   UNL A   1      38.765  29.847  30.565  1.00  0.00     0.049 A 
ATOM     24  H   UNL A   1      40.802  30.193  30.222  1.00  0.00     0.167 HD
ATOM     25  C   UNL A   1      44.618  31.296  28.339  1.00  0.00     0.037 A 
ATOM     26  C   UNL A   1      38.308  31.032  31.049  1.00  0.00     0.037 A 
ATOM     27  C   UNL A   1      44.955  31.192  29.734  1.00  0.00     0.049 A 
ATOM     28  C   UNL A   1      39.492  31.841  31.428  1.00  0.00     0.074 A 
ATOM     29  C   UNL A   1      45.669  30.286  30.495  1.00  0.00     0.029 A 
ATOM     30  N   UNL A   1      44.240  31.941  30.632  1.00  0.00    -0.354 N 
ATOM     31  N   UNL A   1      40.293  31.549  32.413  1.00  0.00    -0.248 NA
ATOM     32  C   UNL A   1      40.028  32.746  30.425  1.00  0.00     0.031 C 
ATOM     33  C   UNL A   1      44.962  30.208  31.732  1.00  0.00     0.029 A 
ATOM     34  C   UNL A   1      43.905  31.115  31.672  1.00  0.00     0.049 A 
ATOM     35  H   UNL A   1      44.012  32.895  30.547  1.00  0.00     0.167 HD
ATOM     36  C   UNL A   1      41.554  31.867  31.938  1.00  0.00     0.074 A 
ATOM     37  C   UNL A   1      41.322  32.674  30.742  1.00  0.00     0.031 C 
ATOM     38  C   UNL A   1      42.660  31.212  32.395  1.00  0.00     0.037 A 
BRANCH  25  39
ATOM     39  C   UNL A   1      44.695  32.606  27.582  1.00  0.00     0.064 A 
ATOM     40  C   UNL A   1      43.838  33.706  27.815  1.00  0.00     0.173 A 
ATOM     41  C   UNL A   1      45.851  32.897  26.828  1.00  0.00     0.173 A 
ATOM     42  F   UNL A   1      42.743  33.613  28.577  1.00  0.00    -0.203 F 
ATOM     43  C   UNL A   1      44.133  34.993  27.368  1.00  0.00     0.198 A 
ATOM     44  C   UNL A   1      46.169  34.198  26.426  1.00  0.00     0.198 A 
ATOM     45  F   UNL A   1      46.748  31.937  26.553  1.00  0.00    -0.203 F 
ATOM     46  F   UNL A   1      43.297  35.999  27.664  1.00  0.00    -0.200 F 
ATOM     47  C   UNL A   1      45.312  35.246  26.705  1.00  0.00     0.200 A 
ATOM     48  F   UNL A   1      47.345  34.442  25.834  1.00  0.00    -0.200 F 
ATOM     49  F   UNL A   1      45.645  36.503  26.382  1.00  0.00    -0.200 F 
ENDBRANCH  25  39
BRANCH  26  50
ATOM     50  C   UNL A   1      36.968  31.659  30.888  1.00  0.00     0.064 A 
ATOM     51  C   UNL A   1      36.609  32.317  29.696  1.00  0.00     0.173 A 
ATOM     52  C   UNL A   1      36.142  31.897  32.002  1.00  0.00     0.173 A 
ATOM     53  F   UNL A   1      37.369  32.215  28.598  1.00  0.00    -0.203 F 
ATOM     54  C   UNL A   1      35.514  33.183  29.632  1.00  0.00     0.198 A 
ATOM     55  C   UNL A   1      35.050  32.772  31.938  1.00  0.00     0.198 A 
ATOM     56  F   UNL A   1      36.435  31.347  33.189  1.00  0.00    -0.203 F 
ATOM     57  F   UNL A   1      35.252  33.837  28.491  1.00  0.00    -0.200 F 
ATOM     58  C   UNL A   1      34.746  33.424  30.756  1.00  0.00     0.200 A 
ATOM     59  F   UNL A   1      34.333  33.030  33.041  1.00  0.00    -0.200 F 
ATOM     60  F   UNL A   1      33.745  34.316  30.710  1.00  0.00    -0.200 F 
ENDBRANCH  26  50
BRANCH  38  61
ATOM     61  C   UNL A   1      42.513  30.335  33.606  1.00  0.00     0.064 A 
ATOM     62  C   UNL A   1      42.130  29.001  33.408  1.00  0.00     0.173 A 
ATOM     63  C   UNL A   1      42.575  30.801  34.930  1.00  0.00     0.173 A 
ATOM     64  F   UNL A   1      42.005  28.516  32.163  1.00  0.00    -0.203 F 
ATOM     65  C   UNL A   1      41.813  28.174  34.480  1.00  0.00     0.198 A 
ATOM     66  C   UNL A   1      42.293  29.959  36.006  1.00  0.00     0.198 A 
ATOM     67  F   UNL A   1      42.843  32.084  35.202  1.00  0.00    -0.203 F 
ATOM     68  F   UNL A   1      41.386  26.925  34.254  1.00  0.00    -0.200 F 
ATOM     69  C   UNL A   1      41.901  28.650  35.779  1.00  0.00     0.200 A 
ATOM     70  F   UNL A   1      42.359  30.426  37.262  1.00  0.00    -0.200 F 
ATOM     71  F   UNL A   1      41.579  27.856  36.810  1.00  0.00    -0.200 F 
ENDBRANCH  38  61
ENDBRANCH  12  13
ENDBRANCH   5   7
ENDBRANCH   2   3
ENDBRANCH   1   2
BRANCH   1  72
ATOM     72  C   UNL A   1      36.156  21.154  25.371  1.00  0.00     0.118 C 
BRANCH  72  73
ATOM     73  N   UNL A   1      35.455  19.941  24.979  1.00  0.00    -0.351 N 
ATOM     74  C   UNL A   1      34.126  19.731  24.720  1.00  0.00     0.273 C 
ATOM     75  H   UNL A   1      36.027  19.144  24.885  1.00  0.00     0.163 HD
ATOM     76  O   UNL A   1      33.735  18.561  24.601  1.00  0.00    -0.267 OA
BRANCH  74  77
ATOM     77  C   UNL A   1      33.230  20.861  24.600  1.00  0.00     0.170 A 
ATOM     78  C   UNL A   1      33.342  21.972  23.782  1.00  0.00     0.145 A 
ATOM     79  N   UNL A   1      32.065  20.956  25.317  1.00  0.00    -0.125 NA
ATOM     80  N   UNL A   1      32.277  22.748  24.137  1.00  0.00    -0.237 N 
ATOM     81  N   UNL A   1      31.500  22.120  25.037  1.00  0.00    -0.066 NA
BRANCH  80  82
ATOM     82  C   UNL A   1      32.007  24.104  23.782  1.00  0.00     0.218 C 
ATOM     83  C   UNL A   1      30.595  24.337  23.182  1.00  0.00     0.296 C 
ATOM     84  C   UNL A   1      31.506  25.024  24.919  1.00  0.00     0.296 C 
ATOM     85  N   UNL A   1      30.456  25.546  24.014  1.00  0.00    -0.327 N 
ATOM     86  H   UNL A   1      29.550  25.829  24.388  1.00  0.00     0.348 HD
BRANCH  85  87
ATOM     87  C   UNL A   1      30.794  26.810  23.312  1.00  0.00     0.302 C 
BRANCH  87  88
ATOM     88  C   UNL A   1      29.730  27.873  23.127  1.00  0.00     0.045 A 
ATOM     89  C   UNL A   1      28.405  27.671  23.550  1.00  0.00     0.051 A 
ATOM     90  C   UNL A   1      30.029  29.064  22.453  1.00  0.00     0.132 A 
ATOM     91  C   UNL A   1      27.409  28.572  23.180  1.00  0.00     0.123 A 
ATOM     92  C   UNL A   1      29.037  29.984  22.121  1.00  0.00     0.043 A 
ATOM     93  F   UNL A   1      31.291  29.321  22.080  1.00  0.00    -0.206 F 
ATOM     94  F   UNL A   1      26.134  28.301  23.487  1.00  0.00    -0.207 F 
ATOM     95  C   UNL A   1      27.711  29.721  22.458  1.00  0.00     0.042 A 
ENDBRANCH  87  88
ENDBRANCH  85  87
ENDBRANCH  80  82
ENDBRANCH  74  77
ENDBRANCH  72  73
ENDBRANCH   1  72
TORSDOF 13
ENDMDL
