MODEL 1
REMARK VINA RESULT:     -13.5      0.000      0.000
REMARK SMILES O=C(Cn1cnc(-c2ccccc2)c1-c1ccccc1)NCCCNC(=O)c1ccc(-c2c3nc(c(-c4c(F)c(F)c(F)c(F)c4F)c4ccc([nH]4)c(-c4c(F)c(F)c(F)c(F)c4F)c4nc(c(-c5c(F)c(F)c(F)c(F)c5F)c5ccc2[nH]5)C=C4)C=C3)cc1
REMARK SMILES IDX 23 1 22 2 21 3 1 4 2 5 3 7 4 8 5 9 14 10 6 11 7 12 15 13
REMARK SMILES IDX 16 14 20 15 17 16 19 17 18 18 8 19 9 20 13 21 10 22 12 23
REMARK SMILES IDX 11 24 24 25 25 26 26 27 27 29 28 30 29 31 90 32 30 33 89 34
REMARK SMILES IDX 31 35 32 36 33 37 83 38 34 39 88 40 82 41 84 42 35 43 87 44
REMARK SMILES IDX 81 45 80 46 36 48 68 49 48 50 67 51 49 52 52 53 66 54 85 55
REMARK SMILES IDX 50 56 51 57 65 59 86 60 53 61 37 62 38 63 46 64 39 65 40 66
REMARK SMILES IDX 44 67 47 68 41 69 42 70 45 71 43 72 69 73 70 74 78 75 71 76
REMARK SMILES IDX 72 77 76 78 79 79 73 80 74 81 77 82 75 83 54 84 55 85 63 86
REMARK SMILES IDX 56 87 57 88 61 89 64 90 58 91 59 92 62 93 60 94
REMARK H PARENT 21 6 25 28 84 47 52 58
REMARK Flexibility Score: inf
ROOT
ATOM      1  C   UNL A   1      35.900  22.142  25.773  1.00  0.00     0.042 C 
ENDROOT
BRANCH   1   2
ATOM      2  C   UNL A   1      35.117  22.239  24.461  1.00  0.00     0.117 C 
BRANCH   2   3
ATOM      3  N   UNL A   1      35.002  23.594  23.925  1.00  0.00    -0.354 N 
ATOM      4  O   UNL A   1      32.939  24.019  24.832  1.00  0.00    -0.273 OA
ATOM      5  C   UNL A   1      33.937  24.421  24.237  1.00  0.00     0.239 C 
ATOM      6  H   UNL A   1      35.705  23.930  23.324  1.00  0.00     0.163 HD
BRANCH   5   7
ATOM      7  C   UNL A   1      34.049  25.864  23.769  1.00  0.00     0.223 C 
BRANCH   7   8
ATOM      8  N   UNL A   1      32.875  26.399  23.085  1.00  0.00    -0.321 N 
ATOM      9  C   UNL A   1      32.437  26.059  21.833  1.00  0.00     0.201 A 
ATOM     10  C   UNL A   1      31.986  27.334  23.594  1.00  0.00     0.076 A 
ATOM     11  N   UNL A   1      31.297  26.632  21.536  1.00  0.00    -0.236 NA
ATOM     12  C   UNL A   1      31.032  27.468  22.588  1.00  0.00     0.096 A 
BRANCH  10  13
ATOM     13  C   UNL A   1      32.066  28.025  24.884  1.00  0.00     0.000 A 
ATOM     14  C   UNL A   1      31.575  27.393  26.036  1.00  0.00     0.010 A 
ATOM     15  C   UNL A   1      32.469  29.363  24.969  1.00  0.00     0.010 A 
ATOM     16  C   UNL A   1      31.439  28.097  27.232  1.00  0.00     0.001 A 
ATOM     17  C   UNL A   1      32.370  30.057  26.179  1.00  0.00     0.001 A 
ATOM     18  C   UNL A   1      31.843  29.427  27.306  1.00  0.00     0.000 A 
ENDBRANCH  10  13
BRANCH  12  19
ATOM     19  C   UNL A   1      29.906  28.384  22.602  1.00  0.00     0.002 A 
ATOM     20  C   UNL A   1      30.027  29.659  22.041  1.00  0.00     0.010 A 
ATOM     21  C   UNL A   1      28.680  27.993  23.159  1.00  0.00     0.010 A 
ATOM     22  C   UNL A   1      28.928  30.522  22.018  1.00  0.00     0.001 A 
ATOM     23  C   UNL A   1      27.584  28.857  23.139  1.00  0.00     0.001 A 
ATOM     24  C   UNL A   1      27.708  30.120  22.565  1.00  0.00     0.000 A 
ENDBRANCH  12  19
ENDBRANCH   7   8
ENDBRANCH   5   7
ENDBRANCH   2   3
ENDBRANCH   1   2
BRANCH   1  25
ATOM     25  C   UNL A   1      37.284  22.763  25.701  1.00  0.00     0.118 C 
BRANCH  25  26
ATOM     26  N   UNL A   1      38.376  21.885  26.153  1.00  0.00    -0.352 N 
ATOM     27  C   UNL A   1      39.655  22.237  26.585  1.00  0.00     0.251 C 
ATOM     28  H   UNL A   1      38.177  20.920  26.150  1.00  0.00     0.163 HD
ATOM     29  O   UNL A   1      40.564  21.430  26.606  1.00  0.00    -0.269 OA
BRANCH  27  30
ATOM     30  C   UNL A   1      39.879  23.628  27.031  1.00  0.00     0.039 A 
ATOM     31  C   UNL A   1      38.933  24.652  26.915  1.00  0.00     0.014 A 
ATOM     32  C   UNL A   1      41.099  23.872  27.634  1.00  0.00     0.014 A 
ATOM     33  C   UNL A   1      39.232  25.899  27.470  1.00  0.00     0.010 A 
ATOM     34  C   UNL A   1      41.226  24.940  28.461  1.00  0.00     0.010 A 
ATOM     35  C   UNL A   1      40.392  26.022  28.244  1.00  0.00    -0.014 A 
BRANCH  35  36
ATOM     36  C   UNL A   1      40.830  27.248  28.889  1.00  0.00     0.031 A 
ATOM     37  C   UNL A   1      42.047  27.860  28.307  1.00  0.00     0.074 A 
ATOM     38  C   UNL A   1      39.985  27.921  29.708  1.00  0.00     0.049 A 
ATOM     39  N   UNL A   1      43.167  28.092  28.900  1.00  0.00    -0.248 NA
ATOM     40  C   UNL A   1      42.068  28.137  26.861  1.00  0.00     0.031 C 
ATOM     41  C   UNL A   1      38.603  27.578  30.086  1.00  0.00     0.029 A 
ATOM     42  N   UNL A   1      40.138  29.148  30.271  1.00  0.00    -0.354 N 
ATOM     43  C   UNL A   1      43.984  28.706  27.955  1.00  0.00     0.074 A 
ATOM     44  C   UNL A   1      43.330  28.532  26.686  1.00  0.00     0.031 C 
ATOM     45  C   UNL A   1      37.984  28.663  30.601  1.00  0.00     0.029 A 
ATOM     46  C   UNL A   1      38.962  29.723  30.742  1.00  0.00     0.049 A 
ATOM     47  H   UNL A   1      41.013  29.594  30.340  1.00  0.00     0.167 HD
ATOM     48  C   UNL A   1      45.015  29.510  28.336  1.00  0.00     0.037 A 
ATOM     49  C   UNL A   1      38.810  31.003  31.167  1.00  0.00     0.037 A 
ATOM     50  C   UNL A   1      45.301  29.343  29.740  1.00  0.00     0.049 A 
ATOM     51  C   UNL A   1      40.169  31.527  31.468  1.00  0.00     0.074 A 
ATOM     52  C   UNL A   1      45.698  28.271  30.518  1.00  0.00     0.029 A 
ATOM     53  N   UNL A   1      44.792  30.272  30.617  1.00  0.00    -0.354 N 
ATOM     54  N   UNL A   1      40.902  31.088  32.453  1.00  0.00    -0.248 NA
ATOM     55  C   UNL A   1      40.899  32.163  30.378  1.00  0.00     0.031 C 
ATOM     56  C   UNL A   1      44.951  28.400  31.728  1.00  0.00     0.029 A 
ATOM     57  C   UNL A   1      44.216  29.584  31.655  1.00  0.00     0.049 A 
ATOM     58  H   UNL A   1      44.831  31.250  30.517  1.00  0.00     0.167 HD
ATOM     59  C   UNL A   1      42.181  30.988  31.922  1.00  0.00     0.074 A 
ATOM     60  C   UNL A   1      42.132  31.736  30.667  1.00  0.00     0.031 C 
ATOM     61  C   UNL A   1      43.063  30.055  32.386  1.00  0.00     0.037 A 
BRANCH  48  62
ATOM     62  C   UNL A   1      45.536  30.691  27.555  1.00  0.00     0.064 A 
ATOM     63  C   UNL A   1      46.913  30.758  27.262  1.00  0.00     0.173 A 
ATOM     64  C   UNL A   1      44.811  31.882  27.337  1.00  0.00     0.173 A 
ATOM     65  F   UNL A   1      47.703  29.687  27.437  1.00  0.00    -0.203 F 
ATOM     66  C   UNL A   1      47.529  31.949  26.872  1.00  0.00     0.198 A 
ATOM     67  C   UNL A   1      45.420  33.053  26.891  1.00  0.00     0.198 A 
ATOM     68  F   UNL A   1      43.516  32.000  27.648  1.00  0.00    -0.203 F 
ATOM     69  F   UNL A   1      48.861  31.994  26.735  1.00  0.00    -0.200 F 
ATOM     70  C   UNL A   1      46.783  33.099  26.694  1.00  0.00     0.200 A 
ATOM     71  F   UNL A   1      44.681  34.161  26.739  1.00  0.00    -0.200 F 
ATOM     72  F   UNL A   1      47.379  34.257  26.384  1.00  0.00    -0.200 F 
ENDBRANCH  48  62
BRANCH  49  73
ATOM     73  C   UNL A   1      37.638  31.888  30.973  1.00  0.00     0.064 A 
ATOM     74  C   UNL A   1      37.291  32.388  29.708  1.00  0.00     0.173 A 
ATOM     75  C   UNL A   1      36.668  32.022  31.985  1.00  0.00     0.173 A 
ATOM     76  F   UNL A   1      38.130  32.240  28.672  1.00  0.00    -0.203 F 
ATOM     77  C   UNL A   1      36.048  32.989  29.470  1.00  0.00     0.198 A 
ATOM     78  C   UNL A   1      35.419  32.591  31.738  1.00  0.00     0.198 A 
ATOM     79  F   UNL A   1      36.877  31.514  33.209  1.00  0.00    -0.203 F 
ATOM     80  F   UNL A   1      35.735  33.419  28.240  1.00  0.00    -0.200 F 
ATOM     81  C   UNL A   1      35.111  33.085  30.485  1.00  0.00     0.200 A 
ATOM     82  F   UNL A   1      34.494  32.601  32.707  1.00  0.00    -0.200 F 
ATOM     83  F   UNL A   1      33.902  33.612  30.251  1.00  0.00    -0.200 F 
ENDBRANCH  49  73
BRANCH  61  84
ATOM     84  C   UNL A   1      42.690  29.286  33.625  1.00  0.00     0.064 A 
ATOM     85  C   UNL A   1      42.000  28.059  33.612  1.00  0.00     0.173 A 
ATOM     86  C   UNL A   1      43.197  29.718  34.856  1.00  0.00     0.173 A 
ATOM     87  F   UNL A   1      41.575  27.519  32.466  1.00  0.00    -0.203 F 
ATOM     88  C   UNL A   1      41.791  27.326  34.778  1.00  0.00     0.198 A 
ATOM     89  C   UNL A   1      43.021  28.966  36.015  1.00  0.00     0.198 A 
ATOM     90  F   UNL A   1      43.916  30.848  34.925  1.00  0.00    -0.203 F 
ATOM     91  F   UNL A   1      41.123  26.164  34.731  1.00  0.00    -0.200 F 
ATOM     92  C   UNL A   1      42.310  27.777  35.978  1.00  0.00     0.200 A 
ATOM     93  F   UNL A   1      43.571  29.379  37.165  1.00  0.00    -0.200 F 
ATOM     94  F   UNL A   1      42.151  27.052  37.095  1.00  0.00    -0.200 F 
ENDBRANCH  61  84
ENDBRANCH  35  36
ENDBRANCH  27  30
ENDBRANCH  25  26
ENDBRANCH   1  25
TORSDOF 13
ENDMDL
MODEL 2
REMARK VINA RESULT:     -13.5      1.223      2.125
REMARK SMILES O=C(Cn1cnc(-c2ccccc2)c1-c1ccccc1)NCCCNC(=O)c1ccc(-c2c3nc(c(-c4c(F)c(F)c(F)c(F)c4F)c4ccc([nH]4)c(-c4c(F)c(F)c(F)c(F)c4F)c4nc(c(-c5c(F)c(F)c(F)c(F)c5F)c5ccc2[nH]5)C=C4)C=C3)cc1
REMARK SMILES IDX 23 1 22 2 21 3 1 4 2 5 3 7 4 8 5 9 14 10 6 11 7 12 15 13
REMARK SMILES IDX 16 14 20 15 17 16 19 17 18 18 8 19 9 20 13 21 10 22 12 23
REMARK SMILES IDX 11 24 24 25 25 26 26 27 27 29 28 30 29 31 90 32 30 33 89 34
REMARK SMILES IDX 31 35 32 36 33 37 83 38 34 39 88 40 82 41 84 42 35 43 87 44
REMARK SMILES IDX 81 45 80 46 36 48 68 49 48 50 67 51 49 52 52 53 66 54 85 55
REMARK SMILES IDX 50 56 51 57 65 59 86 60 53 61 37 62 38 63 46 64 39 65 40 66
REMARK SMILES IDX 44 67 47 68 41 69 42 70 45 71 43 72 69 73 70 74 78 75 71 76
REMARK SMILES IDX 72 77 76 78 79 79 73 80 74 81 77 82 75 83 54 84 55 85 63 86
REMARK SMILES IDX 56 87 57 88 61 89 64 90 58 91 59 92 62 93 60 94
REMARK H PARENT 21 6 25 28 84 47 52 58
REMARK Flexibility Score: inf
ROOT
ATOM      1  C   UNL A   1      37.463  21.997  25.302  1.00  0.00     0.042 C 
ENDROOT
BRANCH   1   2
ATOM      2  C   UNL A   1      36.749  22.851  24.250  1.00  0.00     0.117 C 
BRANCH   2   3
ATOM      3  N   UNL A   1      35.536  23.510  24.728  1.00  0.00    -0.354 N 
ATOM      4  O   UNL A   1      34.172  21.686  24.465  1.00  0.00    -0.273 OA
ATOM      5  C   UNL A   1      34.341  22.830  24.882  1.00  0.00     0.239 C 
ATOM      6  H   UNL A   1      35.570  24.468  24.950  1.00  0.00     0.163 HD
BRANCH   5   7
ATOM      7  C   UNL A   1      33.219  23.591  25.573  1.00  0.00     0.223 C 
BRANCH   7   8
ATOM      8  N   UNL A   1      32.271  24.261  24.687  1.00  0.00    -0.321 N 
ATOM      9  C   UNL A   1      31.593  23.692  23.642  1.00  0.00     0.201 A 
ATOM     10  C   UNL A   1      31.879  25.589  24.760  1.00  0.00     0.076 A 
ATOM     11  N   UNL A   1      30.736  24.522  23.100  1.00  0.00    -0.236 NA
ATOM     12  C   UNL A   1      30.940  25.715  23.740  1.00  0.00     0.096 A 
BRANCH  10  13
ATOM     13  C   UNL A   1      32.371  26.609  25.690  1.00  0.00     0.000 A 
ATOM     14  C   UNL A   1      31.511  27.116  26.676  1.00  0.00     0.010 A 
ATOM     15  C   UNL A   1      33.623  27.209  25.516  1.00  0.00     0.010 A 
ATOM     16  C   UNL A   1      31.872  28.230  27.432  1.00  0.00     0.001 A 
ATOM     17  C   UNL A   1      34.001  28.301  26.303  1.00  0.00     0.001 A 
ATOM     18  C   UNL A   1      33.120  28.819  27.251  1.00  0.00     0.000 A 
ENDBRANCH  10  13
BRANCH  12  19
ATOM     19  C   UNL A   1      30.265  26.941  23.353  1.00  0.00     0.002 A 
ATOM     20  C   UNL A   1      30.985  27.991  22.777  1.00  0.00     0.010 A 
ATOM     21  C   UNL A   1      28.881  27.077  23.537  1.00  0.00     0.010 A 
ATOM     22  C   UNL A   1      30.324  29.153  22.367  1.00  0.00     0.001 A 
ATOM     23  C   UNL A   1      28.223  28.239  23.132  1.00  0.00     0.001 A 
ATOM     24  C   UNL A   1      28.945  29.275  22.543  1.00  0.00     0.000 A 
ENDBRANCH  12  19
ENDBRANCH   7   8
ENDBRANCH   5   7
ENDBRANCH   2   3
ENDBRANCH   1   2
BRANCH   1  25
ATOM     25  C   UNL A   1      38.476  22.773  26.126  1.00  0.00     0.118 C 
BRANCH  25  26
ATOM     26  N   UNL A   1      39.810  22.155  26.200  1.00  0.00    -0.352 N 
ATOM     27  C   UNL A   1      41.055  22.779  26.285  1.00  0.00     0.251 C 
ATOM     28  H   UNL A   1      39.826  21.170  26.189  1.00  0.00     0.163 HD
ATOM     29  O   UNL A   1      42.081  22.191  26.002  1.00  0.00    -0.269 OA
BRANCH  27  30
ATOM     30  C   UNL A   1      41.100  24.183  26.742  1.00  0.00     0.039 A 
ATOM     31  C   UNL A   1      40.401  25.230  26.132  1.00  0.00     0.014 A 
ATOM     32  C   UNL A   1      41.859  24.419  27.873  1.00  0.00     0.014 A 
ATOM     33  C   UNL A   1      40.446  26.494  26.725  1.00  0.00     0.010 A 
ATOM     34  C   UNL A   1      41.609  25.525  28.619  1.00  0.00     0.010 A 
ATOM     35  C   UNL A   1      41.061  26.620  27.977  1.00  0.00    -0.014 A 
BRANCH  35  36
ATOM     36  C   UNL A   1      41.179  27.864  28.719  1.00  0.00     0.031 A 
ATOM     37  C   UNL A   1      42.294  28.741  28.293  1.00  0.00     0.074 A 
ATOM     38  C   UNL A   1      40.143  28.301  29.476  1.00  0.00     0.049 A 
ATOM     39  N   UNL A   1      43.285  29.151  29.008  1.00  0.00    -0.248 NA
ATOM     40  C   UNL A   1      42.391  29.111  26.871  1.00  0.00     0.031 C 
ATOM     41  C   UNL A   1      38.831  27.667  29.694  1.00  0.00     0.029 A 
ATOM     42  N   UNL A   1      39.992  29.494  30.107  1.00  0.00    -0.354 N 
ATOM     43  C   UNL A   1      44.042  29.975  28.181  1.00  0.00     0.074 A 
ATOM     44  C   UNL A   1      43.557  29.758  26.845  1.00  0.00     0.031 C 
ATOM     45  C   UNL A   1      37.960  28.572  30.191  1.00  0.00     0.029 A 
ATOM     46  C   UNL A   1      38.685  29.794  30.480  1.00  0.00     0.049 A 
ATOM     47  H   UNL A   1      40.747  30.100  30.286  1.00  0.00     0.167 HD
ATOM     48  C   UNL A   1      44.849  30.941  28.703  1.00  0.00     0.037 A 
ATOM     49  C   UNL A   1      38.238  30.987  30.946  1.00  0.00     0.037 A 
ATOM     50  C   UNL A   1      45.033  30.742  30.119  1.00  0.00     0.049 A 
ATOM     51  C   UNL A   1      39.428  31.750  31.408  1.00  0.00     0.074 A 
ATOM     52  C   UNL A   1      45.567  29.722  30.884  1.00  0.00     0.029 A 
ATOM     53  N   UNL A   1      44.268  31.493  30.980  1.00  0.00    -0.354 N 
ATOM     54  N   UNL A   1      40.142  31.401  32.442  1.00  0.00    -0.248 NA
ATOM     55  C   UNL A   1      40.110  32.587  30.429  1.00  0.00     0.031 C 
ATOM     56  C   UNL A   1      44.702  29.622  32.015  1.00  0.00     0.029 A 
ATOM     57  C   UNL A   1      43.751  30.638  31.922  1.00  0.00     0.049 A 
ATOM     58  H   UNL A   1      44.116  32.464  30.929  1.00  0.00     0.167 HD
ATOM     59  C   UNL A   1      41.457  31.591  32.042  1.00  0.00     0.074 A 
ATOM     60  C   UNL A   1      41.373  32.395  30.823  1.00  0.00     0.031 C 
ATOM     61  C   UNL A   1      42.465  30.823  32.550  1.00  0.00     0.037 A 
BRANCH  48  62
ATOM     62  C   UNL A   1      45.188  32.249  28.034  1.00  0.00     0.064 A 
ATOM     63  C   UNL A   1      44.153  33.175  27.790  1.00  0.00     0.173 A 
ATOM     64  C   UNL A   1      46.405  32.513  27.369  1.00  0.00     0.173 A 
ATOM     65  F   UNL A   1      42.950  33.024  28.364  1.00  0.00    -0.203 F 
ATOM     66  C   UNL A   1      44.299  34.226  26.881  1.00  0.00     0.198 A 
ATOM     67  C   UNL A   1      46.564  33.595  26.507  1.00  0.00     0.198 A 
ATOM     68  F   UNL A   1      47.450  31.681  27.433  1.00  0.00    -0.203 F 
ATOM     69  F   UNL A   1      43.245  34.998  26.583  1.00  0.00    -0.200 F 
ATOM     70  C   UNL A   1      45.503  34.430  26.234  1.00  0.00     0.200 A 
ATOM     71  F   UNL A   1      47.736  33.768  25.879  1.00  0.00    -0.200 F 
ATOM     72  F   UNL A   1      45.626  35.395  25.313  1.00  0.00    -0.200 F 
ENDBRANCH  48  62
BRANCH  49  73
ATOM     73  C   UNL A   1      36.933  31.633  30.672  1.00  0.00     0.064 A 
ATOM     74  C   UNL A   1      36.021  31.921  31.700  1.00  0.00     0.173 A 
ATOM     75  C   UNL A   1      36.684  32.243  29.427  1.00  0.00     0.173 A 
ATOM     76  F   UNL A   1      36.222  31.437  32.934  1.00  0.00    -0.203 F 
ATOM     77  C   UNL A   1      34.923  32.768  31.493  1.00  0.00     0.198 A 
ATOM     78  C   UNL A   1      35.610  33.110  29.233  1.00  0.00     0.198 A 
ATOM     79  F   UNL A   1      37.535  32.085  28.402  1.00  0.00    -0.203 F 
ATOM     80  F   UNL A   1      34.096  33.053  32.508  1.00  0.00    -0.200 F 
ATOM     81  C   UNL A   1      34.722  33.366  30.261  1.00  0.00     0.200 A 
ATOM     82  F   UNL A   1      35.476  33.745  28.061  1.00  0.00    -0.200 F 
ATOM     83  F   UNL A   1      33.704  34.216  30.072  1.00  0.00    -0.200 F 
ENDBRANCH  49  73
BRANCH  61  84
ATOM     84  C   UNL A   1      42.144  29.916  33.708  1.00  0.00     0.064 A 
ATOM     85  C   UNL A   1      41.727  28.579  33.569  1.00  0.00     0.173 A 
ATOM     86  C   UNL A   1      42.433  30.360  35.003  1.00  0.00     0.173 A 
ATOM     87  F   UNL A   1      41.533  28.039  32.362  1.00  0.00    -0.203 F 
ATOM     88  C   UNL A   1      41.566  27.745  34.673  1.00  0.00     0.198 A 
ATOM     89  C   UNL A   1      42.309  29.515  36.104  1.00  0.00     0.198 A 
ATOM     90  F   UNL A   1      42.893  31.606  35.197  1.00  0.00    -0.203 F 
ATOM     91  F   UNL A   1      41.161  26.478  34.505  1.00  0.00    -0.200 F 
ATOM     92  C   UNL A   1      41.865  28.212  35.940  1.00  0.00     0.200 A 
ATOM     93  F   UNL A   1      42.651  29.956  37.322  1.00  0.00    -0.200 F 
ATOM     94  F   UNL A   1      41.756  27.400  37.000  1.00  0.00    -0.200 F 
ENDBRANCH  61  84
ENDBRANCH  35  36
ENDBRANCH  27  30
ENDBRANCH  25  26
ENDBRANCH   1  25
TORSDOF 13
ENDMDL
MODEL 3
REMARK VINA RESULT:     -13.4      3.093      8.483
REMARK SMILES O=C(Cn1cnc(-c2ccccc2)c1-c1ccccc1)NCCCNC(=O)c1ccc(-c2c3nc(c(-c4c(F)c(F)c(F)c(F)c4F)c4ccc([nH]4)c(-c4c(F)c(F)c(F)c(F)c4F)c4nc(c(-c5c(F)c(F)c(F)c(F)c5F)c5ccc2[nH]5)C=C4)C=C3)cc1
REMARK SMILES IDX 23 1 22 2 21 3 1 4 2 5 3 7 4 8 5 9 14 10 6 11 7 12 15 13
REMARK SMILES IDX 16 14 20 15 17 16 19 17 18 18 8 19 9 20 13 21 10 22 12 23
REMARK SMILES IDX 11 24 24 25 25 26 26 27 27 29 28 30 29 31 90 32 30 33 89 34
REMARK SMILES IDX 31 35 32 36 33 37 83 38 34 39 88 40 82 41 84 42 35 43 87 44
REMARK SMILES IDX 81 45 80 46 36 48 68 49 48 50 67 51 49 52 52 53 66 54 85 55
REMARK SMILES IDX 50 56 51 57 65 59 86 60 53 61 37 62 38 63 46 64 39 65 40 66
REMARK SMILES IDX 44 67 47 68 41 69 42 70 45 71 43 72 69 73 70 74 78 75 71 76
REMARK SMILES IDX 72 77 76 78 79 79 73 80 74 81 77 82 75 83 54 84 55 85 63 86
REMARK SMILES IDX 56 87 57 88 61 89 64 90 58 91 59 92 62 93 60 94
REMARK H PARENT 21 6 25 28 84 47 52 58
REMARK Flexibility Score: inf
ROOT
ATOM      1  C   UNL A   1      33.738  30.458  27.251  1.00  0.00     0.042 C 
ENDROOT
BRANCH   1   2
ATOM      2  C   UNL A   1      34.106  28.972  27.256  1.00  0.00     0.117 C 
BRANCH   2   3
ATOM      3  N   UNL A   1      34.032  28.326  25.947  1.00  0.00    -0.354 N 
ATOM      4  O   UNL A   1      32.631  26.637  26.609  1.00  0.00    -0.273 OA
ATOM      5  C   UNL A   1      33.211  27.238  25.708  1.00  0.00     0.239 C 
ATOM      6  H   UNL A   1      34.583  28.677  25.211  1.00  0.00     0.163 HD
BRANCH   5   7
ATOM      7  C   UNL A   1      33.088  26.797  24.257  1.00  0.00     0.223 C 
BRANCH   7   8
ATOM      8  N   UNL A   1      32.433  25.509  24.043  1.00  0.00    -0.321 N 
ATOM      9  C   UNL A   1      31.099  25.303  23.808  1.00  0.00     0.201 A 
ATOM     10  C   UNL A   1      33.053  24.269  24.023  1.00  0.00     0.076 A 
ATOM     11  N   UNL A   1      30.832  24.047  23.553  1.00  0.00    -0.236 NA
ATOM     12  C   UNL A   1      32.016  23.384  23.738  1.00  0.00     0.096 A 
BRANCH  10  13
ATOM     13  C   UNL A   1      34.468  23.980  24.271  1.00  0.00     0.000 A 
ATOM     14  C   UNL A   1      35.251  23.436  23.242  1.00  0.00     0.010 A 
ATOM     15  C   UNL A   1      35.016  24.078  25.555  1.00  0.00     0.010 A 
ATOM     16  C   UNL A   1      36.533  22.953  23.502  1.00  0.00     0.001 A 
ATOM     17  C   UNL A   1      36.317  23.630  25.806  1.00  0.00     0.001 A 
ATOM     18  C   UNL A   1      37.069  23.055  24.782  1.00  0.00     0.000 A 
ENDBRANCH  10  13
BRANCH  12  19
ATOM     19  C   UNL A   1      32.128  21.938  23.665  1.00  0.00     0.002 A 
ATOM     20  C   UNL A   1      32.003  21.282  22.437  1.00  0.00     0.010 A 
ATOM     21  C   UNL A   1      32.383  21.188  24.822  1.00  0.00     0.010 A 
ATOM     22  C   UNL A   1      32.154  19.894  22.365  1.00  0.00     0.001 A 
ATOM     23  C   UNL A   1      32.529  19.802  24.750  1.00  0.00     0.001 A 
ATOM     24  C   UNL A   1      32.418  19.156  23.520  1.00  0.00     0.000 A 
ENDBRANCH  12  19
ENDBRANCH   7   8
ENDBRANCH   5   7
ENDBRANCH   2   3
ENDBRANCH   1   2
BRANCH   1  25
ATOM     25  C   UNL A   1      34.893  31.370  27.626  1.00  0.00     0.118 C 
BRANCH  25  26
ATOM     26  N   UNL A   1      34.679  32.161  28.850  1.00  0.00    -0.352 N 
ATOM     27  C   UNL A   1      35.204  31.950  30.125  1.00  0.00     0.251 C 
ATOM     28  H   UNL A   1      34.087  32.942  28.755  1.00  0.00     0.163 HD
ATOM     29  O   UNL A   1      34.700  32.453  31.111  1.00  0.00    -0.269 OA
BRANCH  27  30
ATOM     30  C   UNL A   1      36.406  31.102  30.251  1.00  0.00     0.039 A 
ATOM     31  C   UNL A   1      36.379  29.704  30.307  1.00  0.00     0.014 A 
ATOM     32  C   UNL A   1      37.614  31.774  30.268  1.00  0.00     0.014 A 
ATOM     33  C   UNL A   1      37.593  29.015  30.322  1.00  0.00     0.010 A 
ATOM     34  C   UNL A   1      38.746  31.110  29.925  1.00  0.00     0.010 A 
ATOM     35  C   UNL A   1      38.774  29.743  30.129  1.00  0.00    -0.014 A 
BRANCH  35  36
ATOM     36  C   UNL A   1      40.108  29.167  30.112  1.00  0.00     0.031 A 
ATOM     37  C   UNL A   1      40.716  28.961  31.448  1.00  0.00     0.074 A 
ATOM     38  C   UNL A   1      40.571  28.565  28.990  1.00  0.00     0.049 A 
ATOM     39  N   UNL A   1      41.810  29.473  31.897  1.00  0.00    -0.248 NA
ATOM     40  C   UNL A   1      39.960  28.194  32.451  1.00  0.00     0.031 C 
ATOM     41  C   UNL A   1      39.898  28.402  27.689  1.00  0.00     0.029 A 
ATOM     42  N   UNL A   1      41.705  27.836  28.818  1.00  0.00    -0.354 N 
ATOM     43  C   UNL A   1      41.979  28.958  33.178  1.00  0.00     0.074 A 
ATOM     44  C   UNL A   1      40.729  28.341  33.531  1.00  0.00     0.031 C 
ATOM     45  C   UNL A   1      40.518  27.442  26.968  1.00  0.00     0.029 A 
ATOM     46  C   UNL A   1      41.718  27.041  27.676  1.00  0.00     0.049 A 
ATOM     47  H   UNL A   1      42.457  27.868  29.452  1.00  0.00     0.167 HD
ATOM     48  C   UNL A   1      43.215  28.881  33.746  1.00  0.00     0.037 A 
ATOM     49  C   UNL A   1      42.634  26.087  27.374  1.00  0.00     0.037 A 
ATOM     50  C   UNL A   1      44.167  29.673  33.006  1.00  0.00     0.049 A 
ATOM     51  C   UNL A   1      43.831  26.348  28.217  1.00  0.00     0.074 A 
ATOM     52  C   UNL A   1      44.265  31.017  32.699  1.00  0.00     0.029 A 
ATOM     53  N   UNL A   1      44.987  29.025  32.112  1.00  0.00    -0.354 N 
ATOM     54  N   UNL A   1      44.595  27.396  28.068  1.00  0.00    -0.248 NA
ATOM     55  C   UNL A   1      43.874  25.724  29.533  1.00  0.00     0.031 C 
ATOM     56  C   UNL A   1      44.722  31.052  31.348  1.00  0.00     0.029 A 
ATOM     57  C   UNL A   1      44.962  29.739  30.940  1.00  0.00     0.049 A 
ATOM     58  H   UNL A   1      45.497  28.200  32.281  1.00  0.00     0.167 HD
ATOM     59  C   UNL A   1      44.866  27.820  29.361  1.00  0.00     0.074 A 
ATOM     60  C   UNL A   1      44.460  26.709  30.221  1.00  0.00     0.031 C 
ATOM     61  C   UNL A   1      45.094  29.138  29.634  1.00  0.00     0.037 A 
BRANCH  48  62
ATOM     62  C   UNL A   1      43.655  27.836  34.741  1.00  0.00     0.064 A 
ATOM     63  C   UNL A   1      43.529  26.475  34.397  1.00  0.00     0.173 A 
ATOM     64  C   UNL A   1      43.917  28.095  36.104  1.00  0.00     0.173 A 
ATOM     65  F   UNL A   1      43.275  26.109  33.131  1.00  0.00    -0.203 F 
ATOM     66  C   UNL A   1      43.569  25.462  35.358  1.00  0.00     0.198 A 
ATOM     67  C   UNL A   1      44.014  27.077  37.050  1.00  0.00     0.198 A 
ATOM     68  F   UNL A   1      43.978  29.336  36.598  1.00  0.00    -0.203 F 
ATOM     69  F   UNL A   1      43.311  24.197  35.002  1.00  0.00    -0.200 F 
ATOM     70  C   UNL A   1      43.804  25.765  36.686  1.00  0.00     0.200 A 
ATOM     71  F   UNL A   1      44.228  27.394  38.335  1.00  0.00    -0.200 F 
ATOM     72  F   UNL A   1      43.778  24.805  37.619  1.00  0.00    -0.200 F 
ENDBRANCH  48  62
BRANCH  49  73
ATOM     73  C   UNL A   1      42.399  24.787  26.703  1.00  0.00     0.064 A 
ATOM     74  C   UNL A   1      43.163  24.376  25.599  1.00  0.00     0.173 A 
ATOM     75  C   UNL A   1      41.609  23.797  27.319  1.00  0.00     0.173 A 
ATOM     76  F   UNL A   1      43.995  25.239  24.998  1.00  0.00    -0.203 F 
ATOM     77  C   UNL A   1      43.136  23.053  25.137  1.00  0.00     0.198 A 
ATOM     78  C   UNL A   1      41.608  22.475  26.878  1.00  0.00     0.198 A 
ATOM     79  F   UNL A   1      40.896  24.074  28.422  1.00  0.00    -0.203 F 
ATOM     80  F   UNL A   1      43.909  22.687  24.106  1.00  0.00    -0.200 F 
ATOM     81  C   UNL A   1      42.362  22.103  25.781  1.00  0.00     0.200 A 
ATOM     82  F   UNL A   1      40.920  21.550  27.561  1.00  0.00    -0.200 F 
ATOM     83  F   UNL A   1      42.371  20.826  25.376  1.00  0.00    -0.200 F 
ENDBRANCH  49  73
BRANCH  61  84
ATOM     84  C   UNL A   1      45.256  30.081  28.472  1.00  0.00     0.064 A 
ATOM     85  C   UNL A   1      44.204  30.827  27.910  1.00  0.00     0.173 A 
ATOM     86  C   UNL A   1      46.550  30.370  28.023  1.00  0.00     0.173 A 
ATOM     87  F   UNL A   1      42.950  30.694  28.354  1.00  0.00    -0.203 F 
ATOM     88  C   UNL A   1      44.431  31.780  26.919  1.00  0.00     0.198 A 
ATOM     89  C   UNL A   1      46.781  31.350  27.060  1.00  0.00     0.198 A 
ATOM     90  F   UNL A   1      47.604  29.737  28.563  1.00  0.00    -0.203 F 
ATOM     91  F   UNL A   1      43.403  32.468  26.400  1.00  0.00    -0.200 F 
ATOM     92  C   UNL A   1      45.721  32.046  26.501  1.00  0.00     0.200 A 
ATOM     93  F   UNL A   1      48.037  31.641  26.698  1.00  0.00    -0.200 F 
ATOM     94  F   UNL A   1      45.949  32.994  25.582  1.00  0.00    -0.200 F 
ENDBRANCH  61  84
ENDBRANCH  35  36
ENDBRANCH  27  30
ENDBRANCH  25  26
ENDBRANCH   1  25
TORSDOF 13
ENDMDL
