MODEL 1
REMARK VINA RESULT:     -13.1      0.000      0.000
REMARK SMILES Nc1ccc(N2CC3(CCC3)C2)c(C(=O)NCCCNC(=O)c2ccc(-c3c4nc(c(-c5c(F)c(F)c(F)c(F)c5F)c5ccc([nH]5)c(-c5c(F)c(F)c(F)c(F)c5F)c5nc(c(-c6c(F)c(F)c(F)c(F)c6F)c6ccc3[nH]6)C=C5)C=C4)cc2)c1
REMARK SMILES IDX 18 1 17 2 16 3 14 4 15 5 13 7 2 8 3 9 86 10 4 11 5 12 1 13
REMARK SMILES IDX 6 16 7 17 12 18 8 19 9 20 11 21 10 22 19 23 20 24 21 25
REMARK SMILES IDX 22 27 23 28 24 29 85 30 25 31 84 32 26 33 27 34 28 35 78 36
REMARK SMILES IDX 29 37 83 38 77 39 79 40 30 41 82 42 76 43 75 44 31 46 63 47
REMARK SMILES IDX 43 48 62 49 44 50 47 51 61 52 80 53 45 54 46 55 60 57 81 58
REMARK SMILES IDX 48 59 32 60 33 61 41 62 34 63 35 64 39 65 42 66 36 67 37 68
REMARK SMILES IDX 40 69 38 70 64 71 65 72 73 73 66 74 67 75 71 76 74 77 68 78
REMARK SMILES IDX 69 79 72 80 70 81 49 82 50 83 58 84 51 85 52 86 56 87 59 88
REMARK SMILES IDX 53 89 54 90 57 91 55 92
REMARK H PARENT 16 6 1 14 1 15 20 26 79 45 47 56
REMARK Flexibility Score: inf
ROOT
ATOM      1  C   UNL A   1      31.410  31.979  26.506  1.00  0.00     0.042 C 
ENDROOT
BRANCH   1   2
ATOM      2  C   UNL A   1      31.530  30.464  26.342  1.00  0.00     0.118 C 
BRANCH   2   3
ATOM      3  N   UNL A   1      32.264  30.159  25.133  1.00  0.00    -0.352 N 
ATOM      4  C   UNL A   1      32.483  29.042  24.369  1.00  0.00     0.253 C 
ATOM      5  O   UNL A   1      33.352  29.224  23.521  1.00  0.00    -0.269 OA
ATOM      6  H   UNL A   1      32.720  30.951  24.768  1.00  0.00     0.163 HD
BRANCH   4   7
ATOM      7  C   UNL A   1      31.718  27.752  24.489  1.00  0.00     0.065 A 
ATOM      8  C   UNL A   1      31.502  25.580  25.622  1.00  0.00     0.032 A 
ATOM      9  C   UNL A   1      30.195  25.480  25.168  1.00  0.00     0.027 A 
ATOM     10  C   UNL A   1      32.266  26.676  25.211  1.00  0.00     0.041 A 
ATOM     11  C   UNL A   1      29.657  26.480  24.358  1.00  0.00     0.029 A 
ATOM     12  C   UNL A   1      30.401  27.618  23.985  1.00  0.00     0.050 A 
BRANCH   8  13
ATOM     13  N   UNL A   1      32.075  24.563  26.368  1.00  0.00    -0.399 N 
ATOM     14  H   UNL A   1      31.951  23.624  26.098  1.00  0.00     0.156 HD
ATOM     15  H   UNL A   1      32.606  24.780  27.169  1.00  0.00     0.156 HD
ENDBRANCH   8  13
BRANCH  12  16
ATOM     16  N   UNL A   1      29.756  28.525  23.133  1.00  0.00    -0.370 N 
ATOM     17  C   UNL A   1      28.368  28.860  22.998  1.00  0.00     0.125 C 
ATOM     18  C   UNL A   1      30.210  29.525  22.212  1.00  0.00     0.125 C 
ATOM     19  C   UNL A   1      28.851  30.146  22.395  1.00  0.00     0.005 C 
ATOM     20  C   UNL A   1      28.174  30.798  21.221  1.00  0.00     0.011 C 
ATOM     21  C   UNL A   1      28.714  31.415  23.213  1.00  0.00     0.011 C 
ATOM     22  C   UNL A   1      28.580  32.154  21.862  1.00  0.00     0.001 C 
ENDBRANCH  12  16
ENDBRANCH   4   7
ENDBRANCH   2   3
ENDBRANCH   1   2
BRANCH   1  23
ATOM     23  C   UNL A   1      32.597  32.589  27.255  1.00  0.00     0.118 C 
BRANCH  23  24
ATOM     24  N   UNL A   1      32.391  34.003  27.540  1.00  0.00    -0.352 N 
ATOM     25  C   UNL A   1      32.964  34.796  28.503  1.00  0.00     0.251 C 
ATOM     26  H   UNL A   1      31.744  34.459  26.954  1.00  0.00     0.163 HD
ATOM     27  O   UNL A   1      32.486  35.893  28.764  1.00  0.00    -0.269 OA
BRANCH  25  28
ATOM     28  C   UNL A   1      34.155  34.318  29.232  1.00  0.00     0.039 A 
ATOM     29  C   UNL A   1      33.988  33.638  30.441  1.00  0.00     0.014 A 
ATOM     30  C   UNL A   1      35.436  34.557  28.726  1.00  0.00     0.014 A 
ATOM     31  C   UNL A   1      35.106  33.134  31.109  1.00  0.00     0.010 A 
ATOM     32  C   UNL A   1      36.540  33.990  29.353  1.00  0.00     0.010 A 
ATOM     33  C   UNL A   1      36.386  33.273  30.549  1.00  0.00    -0.014 A 
BRANCH  33  34
ATOM     34  C   UNL A   1      37.585  32.671  31.185  1.00  0.00     0.031 A 
ATOM     35  C   UNL A   1      38.308  31.544  30.505  1.00  0.00     0.074 A 
ATOM     36  C   UNL A   1      37.960  33.076  32.414  1.00  0.00     0.049 A 
ATOM     37  N   UNL A   1      39.284  30.795  30.951  1.00  0.00    -0.248 NA
ATOM     38  C   UNL A   1      37.852  31.191  29.151  1.00  0.00     0.031 C 
ATOM     39  C   UNL A   1      37.314  34.136  33.190  1.00  0.00     0.029 A 
ATOM     40  N   UNL A   1      38.962  32.627  33.238  1.00  0.00    -0.354 N 
ATOM     41  C   UNL A   1      39.542  29.874  29.945  1.00  0.00     0.074 A 
ATOM     42  C   UNL A   1      38.589  30.123  28.886  1.00  0.00     0.031 C 
ATOM     43  C   UNL A   1      37.941  34.263  34.369  1.00  0.00     0.029 A 
ATOM     44  C   UNL A   1      39.000  33.262  34.455  1.00  0.00     0.049 A 
ATOM     45  H   UNL A   1      39.594  31.917  32.980  1.00  0.00     0.167 HD
ATOM     46  C   UNL A   1      40.502  28.918  29.903  1.00  0.00     0.037 A 
ATOM     47  C   UNL A   1      39.785  33.046  35.528  1.00  0.00     0.037 A 
ATOM     48  C   UNL A   1      41.459  28.691  30.955  1.00  0.00     0.049 A 
ATOM     49  C   UNL A   1      40.825  31.959  35.466  1.00  0.00     0.074 A 
ATOM     50  C   UNL A   1      42.508  27.789  30.985  1.00  0.00     0.029 A 
ATOM     51  N   UNL A   1      41.477  29.369  32.166  1.00  0.00    -0.354 N 
ATOM     52  N   UNL A   1      41.105  31.137  34.484  1.00  0.00    -0.248 NA
ATOM     53  C   UNL A   1      41.661  31.773  36.660  1.00  0.00     0.031 C 
ATOM     54  C   UNL A   1      43.124  27.880  32.237  1.00  0.00     0.029 A 
ATOM     55  C   UNL A   1      42.503  28.885  32.962  1.00  0.00     0.049 A 
ATOM     56  H   UNL A   1      40.854  30.087  32.420  1.00  0.00     0.167 HD
ATOM     57  C   UNL A   1      42.168  30.361  34.927  1.00  0.00     0.074 A 
ATOM     58  C   UNL A   1      42.490  30.818  36.263  1.00  0.00     0.031 C 
ATOM     59  C   UNL A   1      42.820  29.362  34.283  1.00  0.00     0.037 A 
BRANCH  46  60
ATOM     60  C   UNL A   1      40.563  28.044  28.683  1.00  0.00     0.064 A 
ATOM     61  C   UNL A   1      41.329  28.395  27.560  1.00  0.00     0.173 A 
ATOM     62  C   UNL A   1      39.878  26.819  28.652  1.00  0.00     0.173 A 
ATOM     63  F   UNL A   1      41.996  29.558  27.535  1.00  0.00    -0.203 F 
ATOM     64  C   UNL A   1      41.380  27.568  26.440  1.00  0.00     0.198 A 
ATOM     65  C   UNL A   1      39.960  25.979  27.544  1.00  0.00     0.198 A 
ATOM     66  F   UNL A   1      39.137  26.430  29.700  1.00  0.00    -0.203 F 
ATOM     67  F   UNL A   1      42.076  27.950  25.360  1.00  0.00    -0.200 F 
ATOM     68  C   UNL A   1      40.703  26.358  26.437  1.00  0.00     0.200 A 
ATOM     69  F   UNL A   1      39.319  24.803  27.548  1.00  0.00    -0.200 F 
ATOM     70  F   UNL A   1      40.761  25.560  25.361  1.00  0.00    -0.200 F 
ENDBRANCH  46  60
BRANCH  47  71
ATOM     71  C   UNL A   1      39.624  33.880  36.748  1.00  0.00     0.064 A 
ATOM     72  C   UNL A   1      38.819  33.450  37.812  1.00  0.00     0.173 A 
ATOM     73  C   UNL A   1      40.263  35.122  36.876  1.00  0.00     0.173 A 
ATOM     74  F   UNL A   1      38.171  32.278  37.730  1.00  0.00    -0.203 F 
ATOM     75  C   UNL A   1      38.640  34.240  38.946  1.00  0.00     0.198 A 
ATOM     76  C   UNL A   1      40.110  35.897  38.025  1.00  0.00     0.198 A 
ATOM     77  F   UNL A   1      41.051  35.579  35.891  1.00  0.00    -0.203 F 
ATOM     78  F   UNL A   1      37.825  33.826  39.926  1.00  0.00    -0.200 F 
ATOM     79  C   UNL A   1      39.291  35.459  39.055  1.00  0.00     0.200 A 
ATOM     80  F   UNL A   1      40.755  37.066  38.133  1.00  0.00    -0.200 F 
ATOM     81  F   UNL A   1      39.123  36.216  40.147  1.00  0.00    -0.200 F 
ENDBRANCH  47  71
BRANCH  59  82
ATOM     82  C   UNL A   1      43.981  28.723  34.989  1.00  0.00     0.064 A 
ATOM     83  C   UNL A   1      45.281  29.239  34.890  1.00  0.00     0.173 A 
ATOM     84  C   UNL A   1      43.775  27.618  35.829  1.00  0.00     0.173 A 
ATOM     85  F   UNL A   1      45.535  30.284  34.088  1.00  0.00    -0.203 F 
ATOM     86  C   UNL A   1      46.335  28.661  35.593  1.00  0.00     0.198 A 
ATOM     87  C   UNL A   1      44.824  27.064  36.556  1.00  0.00     0.198 A 
ATOM     88  F   UNL A   1      42.549  27.091  35.964  1.00  0.00    -0.203 F 
ATOM     89  F   UNL A   1      47.577  29.145  35.452  1.00  0.00    -0.200 F 
ATOM     90  C   UNL A   1      46.104  27.582  36.434  1.00  0.00     0.200 A 
ATOM     91  F   UNL A   1      44.594  26.033  37.381  1.00  0.00    -0.200 F 
ATOM     92  F   UNL A   1      47.117  27.039  37.123  1.00  0.00    -0.200 F 
ENDBRANCH  59  82
ENDBRANCH  33  34
ENDBRANCH  25  28
ENDBRANCH  23  24
ENDBRANCH   1  23
TORSDOF 12
ENDMDL
MODEL 2
REMARK VINA RESULT:     -13.1      0.067      1.148
REMARK SMILES Nc1ccc(N2CC3(CCC3)C2)c(C(=O)NCCCNC(=O)c2ccc(-c3c4nc(c(-c5c(F)c(F)c(F)c(F)c5F)c5ccc([nH]5)c(-c5c(F)c(F)c(F)c(F)c5F)c5nc(c(-c6c(F)c(F)c(F)c(F)c6F)c6ccc3[nH]6)C=C5)C=C4)cc2)c1
REMARK SMILES IDX 18 1 17 2 16 3 14 4 15 5 13 7 2 8 3 9 86 10 4 11 5 12 1 13
REMARK SMILES IDX 6 16 7 17 12 18 8 19 9 20 11 21 10 22 19 23 20 24 21 25
REMARK SMILES IDX 22 27 23 28 24 29 85 30 25 31 84 32 26 33 27 34 28 35 78 36
REMARK SMILES IDX 29 37 83 38 77 39 79 40 30 41 82 42 76 43 75 44 31 46 63 47
REMARK SMILES IDX 43 48 62 49 44 50 47 51 61 52 80 53 45 54 46 55 60 57 81 58
REMARK SMILES IDX 48 59 32 60 33 61 41 62 34 63 35 64 39 65 42 66 36 67 37 68
REMARK SMILES IDX 40 69 38 70 64 71 65 72 73 73 66 74 67 75 71 76 74 77 68 78
REMARK SMILES IDX 69 79 72 80 70 81 49 82 50 83 58 84 51 85 52 86 56 87 59 88
REMARK SMILES IDX 53 89 54 90 57 91 55 92
REMARK H PARENT 16 6 1 14 1 15 20 26 79 45 47 56
REMARK Flexibility Score: inf
ROOT
ATOM      1  C   UNL A   1      31.470  31.944  26.515  1.00  0.00     0.042 C 
ENDROOT
BRANCH   1   2
ATOM      2  C   UNL A   1      31.593  30.430  26.349  1.00  0.00     0.118 C 
BRANCH   2   3
ATOM      3  N   UNL A   1      32.300  30.128  25.123  1.00  0.00    -0.352 N 
ATOM      4  C   UNL A   1      32.497  29.014  24.348  1.00  0.00     0.253 C 
ATOM      5  O   UNL A   1      33.350  29.196  23.483  1.00  0.00    -0.269 OA
ATOM      6  H   UNL A   1      32.752  30.920  24.753  1.00  0.00     0.163 HD
BRANCH   4   7
ATOM      7  C   UNL A   1      31.727  27.728  24.478  1.00  0.00     0.065 A 
ATOM      8  C   UNL A   1      31.507  25.561  25.619  1.00  0.00     0.032 A 
ATOM      9  C   UNL A   1      30.198  25.464  25.172  1.00  0.00     0.027 A 
ATOM     10  C   UNL A   1      32.274  26.652  25.201  1.00  0.00     0.041 A 
ATOM     11  C   UNL A   1      29.660  26.464  24.360  1.00  0.00     0.029 A 
ATOM     12  C   UNL A   1      30.407  27.597  23.980  1.00  0.00     0.050 A 
BRANCH   8  13
ATOM     13  N   UNL A   1      32.080  24.544  26.367  1.00  0.00    -0.399 N 
ATOM     14  H   UNL A   1      31.620  23.678  26.453  1.00  0.00     0.156 HD
ATOM     15  H   UNL A   1      32.946  24.690  26.813  1.00  0.00     0.156 HD
ENDBRANCH   8  13
BRANCH  12  16
ATOM     16  N   UNL A   1      29.762  28.503  23.127  1.00  0.00    -0.370 N 
ATOM     17  C   UNL A   1      28.374  28.838  22.993  1.00  0.00     0.125 C 
ATOM     18  C   UNL A   1      30.215  29.502  22.206  1.00  0.00     0.125 C 
ATOM     19  C   UNL A   1      28.857  30.124  22.388  1.00  0.00     0.005 C 
ATOM     20  C   UNL A   1      28.179  30.775  21.214  1.00  0.00     0.011 C 
ATOM     21  C   UNL A   1      28.721  31.393  23.205  1.00  0.00     0.011 C 
ATOM     22  C   UNL A   1      28.586  32.132  21.853  1.00  0.00     0.001 C 
ENDBRANCH  12  16
ENDBRANCH   4   7
ENDBRANCH   2   3
ENDBRANCH   1   2
BRANCH   1  23
ATOM     23  C   UNL A   1      32.653  32.556  27.267  1.00  0.00     0.118 C 
BRANCH  23  24
ATOM     24  N   UNL A   1      32.448  33.971  27.546  1.00  0.00    -0.352 N 
ATOM     25  C   UNL A   1      33.018  34.767  28.508  1.00  0.00     0.251 C 
ATOM     26  H   UNL A   1      31.803  34.426  26.957  1.00  0.00     0.163 HD
ATOM     27  O   UNL A   1      32.541  35.866  28.763  1.00  0.00    -0.269 OA
BRANCH  25  28
ATOM     28  C   UNL A   1      34.207  34.291  29.243  1.00  0.00     0.039 A 
ATOM     29  C   UNL A   1      34.036  33.628  30.461  1.00  0.00     0.014 A 
ATOM     30  C   UNL A   1      35.489  34.514  28.732  1.00  0.00     0.014 A 
ATOM     31  C   UNL A   1      35.151  33.126  31.135  1.00  0.00     0.010 A 
ATOM     32  C   UNL A   1      36.590  33.949  29.366  1.00  0.00     0.010 A 
ATOM     33  C   UNL A   1      36.432  33.248  30.572  1.00  0.00    -0.014 A 
BRANCH  33  34
ATOM     34  C   UNL A   1      37.627  32.647  31.215  1.00  0.00     0.031 A 
ATOM     35  C   UNL A   1      38.346  31.510  30.547  1.00  0.00     0.074 A 
ATOM     36  C   UNL A   1      38.003  33.062  32.440  1.00  0.00     0.049 A 
ATOM     37  N   UNL A   1      39.317  30.761  31.001  1.00  0.00    -0.248 NA
ATOM     38  C   UNL A   1      37.889  31.146  29.195  1.00  0.00     0.031 C 
ATOM     39  C   UNL A   1      37.361  34.132  33.205  1.00  0.00     0.029 A 
ATOM     40  N   UNL A   1      39.002  32.616  33.270  1.00  0.00    -0.354 N 
ATOM     41  C   UNL A   1      39.573  29.829  30.004  1.00  0.00     0.074 A 
ATOM     42  C   UNL A   1      38.622  30.072  28.942  1.00  0.00     0.031 C 
ATOM     43  C   UNL A   1      37.987  34.268  34.384  1.00  0.00     0.029 A 
ATOM     44  C   UNL A   1      39.041  33.263  34.481  1.00  0.00     0.049 A 
ATOM     45  H   UNL A   1      39.631  31.901  33.020  1.00  0.00     0.167 HD
ATOM     46  C   UNL A   1      40.528  28.869  29.973  1.00  0.00     0.037 A 
ATOM     47  C   UNL A   1      39.824  33.053  35.557  1.00  0.00     0.037 A 
ATOM     48  C   UNL A   1      41.482  28.647  31.028  1.00  0.00     0.049 A 
ATOM     49  C   UNL A   1      40.859  31.961  35.507  1.00  0.00     0.074 A 
ATOM     50  C   UNL A   1      42.527  27.740  31.068  1.00  0.00     0.029 A 
ATOM     51  N   UNL A   1      41.502  29.337  32.232  1.00  0.00    -0.354 N 
ATOM     52  N   UNL A   1      41.137  31.128  34.533  1.00  0.00    -0.248 NA
ATOM     53  C   UNL A   1      41.693  31.782  36.703  1.00  0.00     0.031 C 
ATOM     54  C   UNL A   1      43.142  27.840  32.319  1.00  0.00     0.029 A 
ATOM     55  C   UNL A   1      42.525  28.855  33.034  1.00  0.00     0.049 A 
ATOM     56  H   UNL A   1      40.883  30.060  32.479  1.00  0.00     0.167 HD
ATOM     57  C   UNL A   1      42.195  30.351  34.984  1.00  0.00     0.074 A 
ATOM     58  C   UNL A   1      42.517  30.819  36.316  1.00  0.00     0.031 C 
ATOM     59  C   UNL A   1      42.843  29.343  34.351  1.00  0.00     0.037 A 
BRANCH  46  60
ATOM     60  C   UNL A   1      40.586  27.982  28.761  1.00  0.00     0.064 A 
ATOM     61  C   UNL A   1      39.863  26.781  28.689  1.00  0.00     0.173 A 
ATOM     62  C   UNL A   1      41.343  28.359  27.640  1.00  0.00     0.173 A 
ATOM     63  F   UNL A   1      39.130  26.371  29.734  1.00  0.00    -0.203 F 
ATOM     64  C   UNL A   1      39.922  25.975  27.554  1.00  0.00     0.198 A 
ATOM     65  C   UNL A   1      41.372  27.568  26.495  1.00  0.00     0.198 A 
ATOM     66  F   UNL A   1      42.047  29.500  27.651  1.00  0.00    -0.203 F 
ATOM     67  F   UNL A   1      39.265  24.808  27.530  1.00  0.00    -0.200 F 
ATOM     68  C   UNL A   1      40.669  26.374  26.456  1.00  0.00     0.200 A 
ATOM     69  F   UNL A   1      42.080  27.962  25.428  1.00  0.00    -0.200 F 
ATOM     70  F   UNL A   1      40.717  25.601  25.362  1.00  0.00    -0.200 F 
ENDBRANCH  46  60
BRANCH  47  71
ATOM     71  C   UNL A   1      39.665  33.900  36.768  1.00  0.00     0.064 A 
ATOM     72  C   UNL A   1      38.864  33.480  37.840  1.00  0.00     0.173 A 
ATOM     73  C   UNL A   1      40.304  35.144  36.882  1.00  0.00     0.173 A 
ATOM     74  F   UNL A   1      38.217  32.307  37.771  1.00  0.00    -0.203 F 
ATOM     75  C   UNL A   1      38.687  34.281  38.965  1.00  0.00     0.198 A 
ATOM     76  C   UNL A   1      40.153  35.930  38.024  1.00  0.00     0.198 A 
ATOM     77  F   UNL A   1      41.089  35.590  35.891  1.00  0.00    -0.203 F 
ATOM     78  F   UNL A   1      37.875  33.877  39.952  1.00  0.00    -0.200 F 
ATOM     79  C   UNL A   1      39.337  35.502  39.060  1.00  0.00     0.200 A 
ATOM     80  F   UNL A   1      40.797  37.101  38.118  1.00  0.00    -0.200 F 
ATOM     81  F   UNL A   1      39.171  36.270  40.145  1.00  0.00    -0.200 F 
ENDBRANCH  47  71
BRANCH  59  82
ATOM     82  C   UNL A   1      44.000  28.706  35.064  1.00  0.00     0.064 A 
ATOM     83  C   UNL A   1      45.307  29.201  34.943  1.00  0.00     0.173 A 
ATOM     84  C   UNL A   1      43.785  27.624  35.932  1.00  0.00     0.173 A 
ATOM     85  F   UNL A   1      45.568  30.222  34.114  1.00  0.00    -0.203 F 
ATOM     86  C   UNL A   1      46.357  28.625  35.653  1.00  0.00     0.198 A 
ATOM     87  C   UNL A   1      44.832  27.074  36.666  1.00  0.00     0.198 A 
ATOM     88  F   UNL A   1      42.553  27.118  36.089  1.00  0.00    -0.203 F 
ATOM     89  F   UNL A   1      47.605  29.088  35.492  1.00  0.00    -0.200 F 
ATOM     90  C   UNL A   1      46.117  27.571  36.522  1.00  0.00     0.200 A 
ATOM     91  F   UNL A   1      44.593  26.066  37.518  1.00  0.00    -0.200 F 
ATOM     92  F   UNL A   1      47.127  27.030  37.217  1.00  0.00    -0.200 F 
ENDBRANCH  59  82
ENDBRANCH  33  34
ENDBRANCH  25  28
ENDBRANCH  23  24
ENDBRANCH   1  23
TORSDOF 12
ENDMDL
MODEL 3
REMARK VINA RESULT:     -12.9      0.763      2.958
REMARK SMILES Nc1ccc(N2CC3(CCC3)C2)c(C(=O)NCCCNC(=O)c2ccc(-c3c4nc(c(-c5c(F)c(F)c(F)c(F)c5F)c5ccc([nH]5)c(-c5c(F)c(F)c(F)c(F)c5F)c5nc(c(-c6c(F)c(F)c(F)c(F)c6F)c6ccc3[nH]6)C=C5)C=C4)cc2)c1
REMARK SMILES IDX 18 1 17 2 16 3 14 4 15 5 13 7 2 8 3 9 86 10 4 11 5 12 1 13
REMARK SMILES IDX 6 16 7 17 12 18 8 19 9 20 11 21 10 22 19 23 20 24 21 25
REMARK SMILES IDX 22 27 23 28 24 29 85 30 25 31 84 32 26 33 27 34 28 35 78 36
REMARK SMILES IDX 29 37 83 38 77 39 79 40 30 41 82 42 76 43 75 44 31 46 63 47
REMARK SMILES IDX 43 48 62 49 44 50 47 51 61 52 80 53 45 54 46 55 60 57 81 58
REMARK SMILES IDX 48 59 32 60 33 61 41 62 34 63 35 64 39 65 42 66 36 67 37 68
REMARK SMILES IDX 40 69 38 70 64 71 65 72 73 73 66 74 67 75 71 76 74 77 68 78
REMARK SMILES IDX 69 79 72 80 70 81 49 82 50 83 58 84 51 85 52 86 56 87 59 88
REMARK SMILES IDX 53 89 54 90 57 91 55 92
REMARK H PARENT 16 6 1 14 1 15 20 26 79 45 47 56
REMARK Flexibility Score: inf
ROOT
ATOM      1  C   UNL A   1      31.553  32.112  26.669  1.00  0.00     0.042 C 
ENDROOT
BRANCH   1   2
ATOM      2  C   UNL A   1      31.694  30.591  26.635  1.00  0.00     0.118 C 
BRANCH   2   3
ATOM      3  N   UNL A   1      32.343  30.187  25.407  1.00  0.00    -0.352 N 
ATOM      4  C   UNL A   1      32.023  29.390  24.338  1.00  0.00     0.253 C 
ATOM      5  O   UNL A   1      32.987  29.184  23.607  1.00  0.00    -0.269 OA
ATOM      6  H   UNL A   1      33.239  30.584  25.315  1.00  0.00     0.163 HD
BRANCH   4   7
ATOM      7  C   UNL A   1      30.644  28.868  24.037  1.00  0.00     0.065 A 
ATOM      8  C   UNL A   1      28.501  29.243  22.892  1.00  0.00     0.032 A 
ATOM      9  C   UNL A   1      28.206  27.894  23.011  1.00  0.00     0.027 A 
ATOM     10  C   UNL A   1      29.677  29.721  23.474  1.00  0.00     0.041 A 
ATOM     11  C   UNL A   1      29.095  27.038  23.663  1.00  0.00     0.029 A 
ATOM     12  C   UNL A   1      30.313  27.500  24.204  1.00  0.00     0.050 A 
BRANCH   8  13
ATOM     13  N   UNL A   1      27.597  30.119  22.311  1.00  0.00    -0.399 N 
ATOM     14  H   UNL A   1      27.875  31.037  22.089  1.00  0.00     0.156 HD
ATOM     15  H   UNL A   1      26.677  29.823  22.122  1.00  0.00     0.156 HD
ENDBRANCH   8  13
BRANCH  12  16
ATOM     16  N   UNL A   1      31.094  26.546  24.869  1.00  0.00    -0.370 N 
ATOM     17  C   UNL A   1      31.350  26.354  26.267  1.00  0.00     0.125 C 
ATOM     18  C   UNL A   1      31.790  25.363  24.458  1.00  0.00     0.125 C 
ATOM     19  C   UNL A   1      31.689  24.940  25.898  1.00  0.00     0.005 C 
ATOM     20  C   UNL A   1      32.828  24.187  26.528  1.00  0.00     0.011 C 
ATOM     21  C   UNL A   1      30.714  23.847  26.288  1.00  0.00     0.011 C 
ATOM     22  C   UNL A   1      31.946  22.916  26.376  1.00  0.00     0.001 C 
ENDBRANCH  12  16
ENDBRANCH   4   7
ENDBRANCH   2   3
ENDBRANCH   1   2
BRANCH   1  23
ATOM     23  C   UNL A   1      32.799  32.810  27.218  1.00  0.00     0.118 C 
BRANCH  23  24
ATOM     24  N   UNL A   1      32.525  34.189  27.603  1.00  0.00    -0.352 N 
ATOM     25  C   UNL A   1      33.031  34.925  28.646  1.00  0.00     0.251 C 
ATOM     26  H   UNL A   1      31.881  34.664  27.030  1.00  0.00     0.163 HD
ATOM     27  O   UNL A   1      32.499  35.979  28.972  1.00  0.00    -0.269 OA
BRANCH  25  28
ATOM     28  C   UNL A   1      34.214  34.436  29.381  1.00  0.00     0.039 A 
ATOM     29  C   UNL A   1      34.040  33.819  30.622  1.00  0.00     0.014 A 
ATOM     30  C   UNL A   1      35.495  34.605  28.848  1.00  0.00     0.014 A 
ATOM     31  C   UNL A   1      35.149  33.305  31.298  1.00  0.00     0.010 A 
ATOM     32  C   UNL A   1      36.587  34.028  29.486  1.00  0.00     0.010 A 
ATOM     33  C   UNL A   1      36.425  33.371  30.716  1.00  0.00    -0.014 A 
BRANCH  33  34
ATOM     34  C   UNL A   1      37.611  32.756  31.363  1.00  0.00     0.031 A 
ATOM     35  C   UNL A   1      38.317  31.609  30.698  1.00  0.00     0.074 A 
ATOM     36  C   UNL A   1      37.988  33.166  32.589  1.00  0.00     0.049 A 
ATOM     37  N   UNL A   1      39.277  30.848  31.156  1.00  0.00    -0.248 NA
ATOM     38  C   UNL A   1      37.860  31.249  29.346  1.00  0.00     0.031 C 
ATOM     39  C   UNL A   1      37.357  34.246  33.351  1.00  0.00     0.029 A 
ATOM     40  N   UNL A   1      38.978  32.709  33.423  1.00  0.00    -0.354 N 
ATOM     41  C   UNL A   1      39.524  29.911  30.161  1.00  0.00     0.074 A 
ATOM     42  C   UNL A   1      38.579  30.166  29.096  1.00  0.00     0.031 C 
ATOM     43  C   UNL A   1      37.981  34.375  34.532  1.00  0.00     0.029 A 
ATOM     44  C   UNL A   1      39.022  33.357  34.633  1.00  0.00     0.049 A 
ATOM     45  H   UNL A   1      39.599  31.985  33.175  1.00  0.00     0.167 HD
ATOM     46  C   UNL A   1      40.467  28.939  30.134  1.00  0.00     0.037 A 
ATOM     47  C   UNL A   1      39.799  33.138  35.711  1.00  0.00     0.037 A 
ATOM     48  C   UNL A   1      41.415  28.706  31.192  1.00  0.00     0.049 A 
ATOM     49  C   UNL A   1      40.820  32.033  35.666  1.00  0.00     0.074 A 
ATOM     50  C   UNL A   1      42.448  27.786  31.237  1.00  0.00     0.029 A 
ATOM     51  N   UNL A   1      41.440  29.397  32.396  1.00  0.00    -0.354 N 
ATOM     52  N   UNL A   1      41.090  31.195  34.694  1.00  0.00    -0.248 NA
ATOM     53  C   UNL A   1      41.648  31.844  36.865  1.00  0.00     0.031 C 
ATOM     54  C   UNL A   1      43.061  27.879  32.489  1.00  0.00     0.029 A 
ATOM     55  C   UNL A   1      42.454  28.903  33.201  1.00  0.00     0.049 A 
ATOM     56  H   UNL A   1      40.829  30.128  32.640  1.00  0.00     0.167 HD
ATOM     57  C   UNL A   1      42.137  30.405  35.149  1.00  0.00     0.074 A 
ATOM     58  C   UNL A   1      42.461  30.871  36.482  1.00  0.00     0.031 C 
ATOM     59  C   UNL A   1      42.774  29.388  34.519  1.00  0.00     0.037 A 
BRANCH  46  60
ATOM     60  C   UNL A   1      40.517  28.050  28.923  1.00  0.00     0.064 A 
ATOM     61  C   UNL A   1      39.778  26.860  28.849  1.00  0.00     0.173 A 
ATOM     62  C   UNL A   1      41.284  28.416  27.805  1.00  0.00     0.173 A 
ATOM     63  F   UNL A   1      39.035  26.460  29.892  1.00  0.00    -0.203 F 
ATOM     64  C   UNL A   1      39.830  26.052  27.716  1.00  0.00     0.198 A 
ATOM     65  C   UNL A   1      41.306  27.624  26.661  1.00  0.00     0.198 A 
ATOM     66  F   UNL A   1      42.004  29.547  27.818  1.00  0.00    -0.203 F 
ATOM     67  F   UNL A   1      39.157  24.894  27.690  1.00  0.00    -0.200 F 
ATOM     68  C   UNL A   1      40.587  26.439  26.620  1.00  0.00     0.200 A 
ATOM     69  F   UNL A   1      42.024  28.006  25.596  1.00  0.00    -0.200 F 
ATOM     70  F   UNL A   1      40.628  25.665  25.527  1.00  0.00    -0.200 F 
ENDBRANCH  46  60
BRANCH  47  71
ATOM     71  C   UNL A   1      39.647  33.988  36.922  1.00  0.00     0.064 A 
ATOM     72  C   UNL A   1      38.848  33.573  37.997  1.00  0.00     0.173 A 
ATOM     73  C   UNL A   1      40.291  35.230  37.031  1.00  0.00     0.173 A 
ATOM     74  F   UNL A   1      38.197  32.402  37.933  1.00  0.00    -0.203 F 
ATOM     75  C   UNL A   1      38.678  34.377  39.121  1.00  0.00     0.198 A 
ATOM     76  C   UNL A   1      40.146  36.019  38.171  1.00  0.00     0.198 A 
ATOM     77  F   UNL A   1      41.073  35.672  36.035  1.00  0.00    -0.203 F 
ATOM     78  F   UNL A   1      37.869  33.978  40.112  1.00  0.00    -0.200 F 
ATOM     79  C   UNL A   1      39.332  35.596  39.211  1.00  0.00     0.200 A 
ATOM     80  F   UNL A   1      40.794  37.188  38.260  1.00  0.00    -0.200 F 
ATOM     81  F   UNL A   1      39.173  36.367  40.295  1.00  0.00    -0.200 F 
ENDBRANCH  47  71
BRANCH  59  82
ATOM     82  C   UNL A   1      43.921  28.737  35.236  1.00  0.00     0.064 A 
ATOM     83  C   UNL A   1      43.730  27.655  36.107  1.00  0.00     0.173 A 
ATOM     84  C   UNL A   1      45.236  29.162  34.994  1.00  0.00     0.173 A 
ATOM     85  F   UNL A   1      42.491  27.221  36.385  1.00  0.00    -0.203 F 
ATOM     86  C   UNL A   1      44.813  27.034  36.724  1.00  0.00     0.198 A 
ATOM     87  C   UNL A   1      46.319  28.516  35.585  1.00  0.00     0.198 A 
ATOM     88  F   UNL A   1      45.474  30.187  34.163  1.00  0.00    -0.203 F 
ATOM     89  F   UNL A   1      44.606  26.027  37.584  1.00  0.00    -0.200 F 
ATOM     90  C   UNL A   1      46.106  27.457  36.453  1.00  0.00     0.200 A 
ATOM     91  F   UNL A   1      47.568  28.916  35.308  1.00  0.00    -0.200 F 
ATOM     92  F   UNL A   1      47.148  26.846  37.034  1.00  0.00    -0.200 F 
ENDBRANCH  59  82
ENDBRANCH  33  34
ENDBRANCH  25  28
ENDBRANCH  23  24
ENDBRANCH   1  23
TORSDOF 12
ENDMDL
