MODEL 1
REMARK VINA RESULT:     -12.4      0.000      0.000
REMARK SMILES CC[C@@](C)(NC(=O)Nc1c(C)cccc1Cl)C(=O)NCCCNC(=O)c1ccc(-c2c3nc(c(-c4c(F)c(F)c(F)c(F)c4F)c4ccc([nH]4)c(-c4c(F)c(F)c(F)c(F)c4F)c4nc(c(-c5c(F)c(F)c(F)c(F)c5F)c5ccc2[nH]5)C=C4)C=C3)cc1
REMARK SMILES IDX 21 1 20 2 19 3 17 4 18 5 3 7 4 8 2 9 1 10 5 11 6 12 7 14
REMARK SMILES IDX 8 15 9 17 10 18 15 19 11 20 12 21 14 22 16 23 13 24 22 25
REMARK SMILES IDX 23 26 24 27 25 29 26 30 27 31 88 32 28 33 87 34 29 35 30 36
REMARK SMILES IDX 31 37 81 38 32 39 86 40 80 41 82 42 33 43 85 44 79 45 78 46
REMARK SMILES IDX 34 48 66 49 46 50 65 51 47 52 50 53 64 54 83 55 48 56 49 57
REMARK SMILES IDX 63 59 84 60 51 61 35 62 36 63 44 64 37 65 38 66 42 67 45 68
REMARK SMILES IDX 39 69 40 70 43 71 41 72 67 73 68 74 76 75 69 76 70 77 74 78
REMARK SMILES IDX 77 79 71 80 72 81 75 82 73 83 52 84 53 85 61 86 54 87 55 88
REMARK SMILES IDX 59 89 62 90 56 91 57 92 60 93 58 94
REMARK H PARENT 19 6 5 13 8 16 23 28 82 47 50 58
REMARK Flexibility Score: inf
ROOT
ATOM      1  C   UNL A   1      37.815  20.219  25.001  1.00  0.00     0.042 C 
ENDROOT
BRANCH   1   2
ATOM      2  C   UNL A   1      36.904  21.430  24.701  1.00  0.00     0.117 C 
BRANCH   2   3
ATOM      3  N   UNL A   1      36.353  22.065  25.887  1.00  0.00    -0.354 N 
ATOM      4  C   UNL A   1      35.035  22.145  26.322  1.00  0.00     0.245 C 
ATOM      5  O   UNL A   1      34.617  21.453  27.247  1.00  0.00    -0.272 OA
ATOM      6  H   UNL A   1      37.013  22.505  26.470  1.00  0.00     0.163 HD
BRANCH   4   7
ATOM      7  C   UNL A   1      34.122  23.092  25.501  1.00  0.00     0.117 C 
ATOM      8  C   UNL A   1      35.058  24.339  25.415  1.00  0.00     0.045 C 
BRANCH   7   9
ATOM      9  C   UNL A   1      33.654  22.808  24.050  1.00  0.00     0.035 C 
ATOM     10  C   UNL A   1      32.771  21.616  23.765  1.00  0.00     0.007 C 
ENDBRANCH   7   9
BRANCH   7  11
ATOM     11  N   UNL A   1      32.896  23.364  26.281  1.00  0.00    -0.324 N 
ATOM     12  C   UNL A   1      32.037  24.412  26.309  1.00  0.00     0.320 C 
ATOM     13  H   UNL A   1      32.657  22.641  26.905  1.00  0.00     0.166 HD
ATOM     14  O   UNL A   1      31.238  24.447  27.251  1.00  0.00    -0.248 OA
ATOM     15  N   UNL A   1      31.780  25.223  25.226  1.00  0.00    -0.306 N 
ATOM     16  H   UNL A   1      30.887  25.103  24.829  1.00  0.00     0.171 HD
BRANCH  15  17
ATOM     17  C   UNL A   1      32.594  26.218  24.575  1.00  0.00     0.064 A 
ATOM     18  C   UNL A   1      32.806  26.284  23.168  1.00  0.00    -0.026 A 
ATOM     19  C   UNL A   1      32.890  27.398  25.291  1.00  0.00     0.064 A 
ATOM     20  C   UNL A   1      32.069  25.536  22.077  1.00  0.00     0.046 C 
ATOM     21  C   UNL A   1      33.653  27.276  22.635  1.00  0.00     0.005 A 
ATOM     22  C   UNL A   1      33.574  28.468  24.699  1.00  0.00     0.023 A 
ATOM     23  Cl  UNL A   1      32.253  27.668  26.881  1.00  0.00    -0.082 Cl
ATOM     24  C   UNL A   1      34.026  28.371  23.392  1.00  0.00     0.002 A 
ENDBRANCH  15  17
ENDBRANCH   7  11
ENDBRANCH   4   7
ENDBRANCH   2   3
ENDBRANCH   1   2
BRANCH   1  25
ATOM     25  C   UNL A   1      39.113  20.424  25.788  1.00  0.00     0.118 C 
BRANCH  25  26
ATOM     26  N   UNL A   1      40.042  19.315  25.752  1.00  0.00    -0.352 N 
ATOM     27  C   UNL A   1      41.384  19.272  26.068  1.00  0.00     0.251 C 
ATOM     28  H   UNL A   1      39.657  18.458  25.455  1.00  0.00     0.163 HD
ATOM     29  O   UNL A   1      42.003  18.228  25.999  1.00  0.00    -0.269 OA
BRANCH  27  30
ATOM     30  C   UNL A   1      42.094  20.521  26.421  1.00  0.00     0.039 A 
ATOM     31  C   UNL A   1      42.570  21.317  25.376  1.00  0.00     0.014 A 
ATOM     32  C   UNL A   1      42.269  20.922  27.747  1.00  0.00     0.014 A 
ATOM     33  C   UNL A   1      43.136  22.563  25.654  1.00  0.00     0.010 A 
ATOM     34  C   UNL A   1      42.773  22.195  28.019  1.00  0.00     0.010 A 
ATOM     35  C   UNL A   1      43.192  23.037  26.974  1.00  0.00    -0.014 A 
BRANCH  35  36
ATOM     36  C   UNL A   1      43.650  24.420  27.282  1.00  0.00     0.031 A 
ATOM     37  C   UNL A   1      42.670  25.449  27.770  1.00  0.00     0.074 A 
ATOM     38  C   UNL A   1      44.927  24.772  27.036  1.00  0.00     0.049 A 
ATOM     39  N   UNL A   1      42.837  26.735  27.949  1.00  0.00    -0.248 NA
ATOM     40  C   UNL A   1      41.313  24.972  28.070  1.00  0.00     0.031 C 
ATOM     41  C   UNL A   1      45.972  23.876  26.537  1.00  0.00     0.029 A 
ATOM     42  N   UNL A   1      45.562  25.986  27.150  1.00  0.00    -0.354 N 
ATOM     43  C   UNL A   1      41.603  27.224  28.358  1.00  0.00     0.074 A 
ATOM     44  C   UNL A   1      40.687  26.105  28.356  1.00  0.00     0.031 C 
ATOM     45  C   UNL A   1      47.116  24.565  26.398  1.00  0.00     0.029 A 
ATOM     46  C   UNL A   1      46.875  25.963  26.745  1.00  0.00     0.049 A 
ATOM     47  H   UNL A   1      45.118  26.797  27.490  1.00  0.00     0.167 HD
ATOM     48  C   UNL A   1      41.271  28.488  28.716  1.00  0.00     0.037 A 
ATOM     49  C   UNL A   1      47.779  26.957  26.642  1.00  0.00     0.037 A 
ATOM     50  C   UNL A   1      42.193  29.593  28.736  1.00  0.00     0.049 A 
ATOM     51  C   UNL A   1      47.377  28.358  27.021  1.00  0.00     0.074 A 
ATOM     52  C   UNL A   1      41.964  30.901  29.128  1.00  0.00     0.029 A 
ATOM     53  N   UNL A   1      43.521  29.523  28.341  1.00  0.00    -0.354 N 
ATOM     54  N   UNL A   1      46.221  28.799  27.453  1.00  0.00    -0.248 NA
ATOM     55  C   UNL A   1      48.407  29.401  26.902  1.00  0.00     0.031 C 
ATOM     56  C   UNL A   1      43.136  31.633  28.920  1.00  0.00     0.029 A 
ATOM     57  C   UNL A   1      44.117  30.768  28.462  1.00  0.00     0.049 A 
ATOM     58  H   UNL A   1      43.973  28.708  28.022  1.00  0.00     0.167 HD
ATOM     59  C   UNL A   1      46.395  30.155  27.697  1.00  0.00     0.074 A 
ATOM     60  C   UNL A   1      47.770  30.466  27.369  1.00  0.00     0.031 C 
ATOM     61  C   UNL A   1      45.496  31.059  28.158  1.00  0.00     0.037 A 
BRANCH  48  62
ATOM     62  C   UNL A   1      39.844  28.747  29.110  1.00  0.00     0.064 A 
ATOM     63  C   UNL A   1      39.407  28.607  30.437  1.00  0.00     0.173 A 
ATOM     64  C   UNL A   1      38.909  29.177  28.157  1.00  0.00     0.173 A 
ATOM     65  F   UNL A   1      40.258  28.190  31.388  1.00  0.00    -0.203 F 
ATOM     66  C   UNL A   1      38.081  28.852  30.786  1.00  0.00     0.198 A 
ATOM     67  C   UNL A   1      37.593  29.456  28.515  1.00  0.00     0.198 A 
ATOM     68  F   UNL A   1      39.274  29.338  26.875  1.00  0.00    -0.203 F 
ATOM     69  F   UNL A   1      37.675  28.656  32.047  1.00  0.00    -0.200 F 
ATOM     70  C   UNL A   1      37.178  29.283  29.827  1.00  0.00     0.200 A 
ATOM     71  F   UNL A   1      36.725  29.890  27.591  1.00  0.00    -0.200 F 
ATOM     72  F   UNL A   1      35.904  29.527  30.165  1.00  0.00    -0.200 F 
ENDBRANCH  48  62
BRANCH  49  73
ATOM     73  C   UNL A   1      49.159  26.667  26.169  1.00  0.00     0.064 A 
ATOM     74  C   UNL A   1      50.142  26.205  27.056  1.00  0.00     0.173 A 
ATOM     75  C   UNL A   1      49.531  26.854  24.829  1.00  0.00     0.173 A 
ATOM     76  F   UNL A   1      49.843  26.029  28.352  1.00  0.00    -0.203 F 
ATOM     77  C   UNL A   1      51.446  25.968  26.629  1.00  0.00     0.198 A 
ATOM     78  C   UNL A   1      50.827  26.586  24.396  1.00  0.00     0.198 A 
ATOM     79  F   UNL A   1      48.629  27.289  23.937  1.00  0.00    -0.203 F 
ATOM     80  F   UNL A   1      52.377  25.578  27.511  1.00  0.00    -0.200 F 
ATOM     81  C   UNL A   1      51.787  26.152  25.297  1.00  0.00     0.200 A 
ATOM     82  F   UNL A   1      51.148  26.749  23.105  1.00  0.00    -0.200 F 
ATOM     83  F   UNL A   1      53.041  25.920  24.887  1.00  0.00    -0.200 F 
ENDBRANCH  49  73
BRANCH  61  84
ATOM     84  C   UNL A   1      45.979  32.459  28.408  1.00  0.00     0.064 A 
ATOM     85  C   UNL A   1      46.550  32.843  29.629  1.00  0.00     0.173 A 
ATOM     86  C   UNL A   1      45.926  33.413  27.378  1.00  0.00     0.173 A 
ATOM     87  F   UNL A   1      46.611  31.974  30.649  1.00  0.00    -0.203 F 
ATOM     88  C   UNL A   1      47.034  34.136  29.817  1.00  0.00     0.198 A 
ATOM     89  C   UNL A   1      46.441  34.693  27.559  1.00  0.00     0.198 A 
ATOM     90  F   UNL A   1      45.395  33.095  26.188  1.00  0.00    -0.203 F 
ATOM     91  F   UNL A   1      47.539  34.494  31.006  1.00  0.00    -0.200 F 
ATOM     92  C   UNL A   1      46.990  35.055  28.779  1.00  0.00     0.200 A 
ATOM     93  F   UNL A   1      46.411  35.575  26.549  1.00  0.00    -0.200 F 
ATOM     94  F   UNL A   1      47.472  36.293  28.957  1.00  0.00    -0.200 F 
ENDBRANCH  61  84
ENDBRANCH  35  36
ENDBRANCH  27  30
ENDBRANCH  25  26
ENDBRANCH   1  25
TORSDOF 13
ENDMDL
MODEL 2
REMARK VINA RESULT:     -12.4      5.168      8.876
REMARK SMILES CC[C@@](C)(NC(=O)Nc1c(C)cccc1Cl)C(=O)NCCCNC(=O)c1ccc(-c2c3nc(c(-c4c(F)c(F)c(F)c(F)c4F)c4ccc([nH]4)c(-c4c(F)c(F)c(F)c(F)c4F)c4nc(c(-c5c(F)c(F)c(F)c(F)c5F)c5ccc2[nH]5)C=C4)C=C3)cc1
REMARK SMILES IDX 21 1 20 2 19 3 17 4 18 5 3 7 4 8 2 9 1 10 5 11 6 12 7 14
REMARK SMILES IDX 8 15 9 17 10 18 15 19 11 20 12 21 14 22 16 23 13 24 22 25
REMARK SMILES IDX 23 26 24 27 25 29 26 30 27 31 88 32 28 33 87 34 29 35 30 36
REMARK SMILES IDX 31 37 81 38 32 39 86 40 80 41 82 42 33 43 85 44 79 45 78 46
REMARK SMILES IDX 34 48 66 49 46 50 65 51 47 52 50 53 64 54 83 55 48 56 49 57
REMARK SMILES IDX 63 59 84 60 51 61 35 62 36 63 44 64 37 65 38 66 42 67 45 68
REMARK SMILES IDX 39 69 40 70 43 71 41 72 67 73 68 74 76 75 69 76 70 77 74 78
REMARK SMILES IDX 77 79 71 80 72 81 75 82 73 83 52 84 53 85 61 86 54 87 55 88
REMARK SMILES IDX 59 89 62 90 56 91 57 92 60 93 58 94
REMARK H PARENT 19 6 5 13 8 16 23 28 82 47 50 58
REMARK Flexibility Score: inf
ROOT
ATOM      1  C   UNL A   1      31.384  30.977  25.910  1.00  0.00     0.042 C 
ENDROOT
BRANCH   1   2
ATOM      2  C   UNL A   1      31.411  29.597  25.217  1.00  0.00     0.117 C 
BRANCH   2   3
ATOM      3  N   UNL A   1      31.622  29.660  23.780  1.00  0.00    -0.354 N 
ATOM      4  C   UNL A   1      31.721  28.631  22.850  1.00  0.00     0.245 C 
ATOM      5  O   UNL A   1      30.798  28.360  22.085  1.00  0.00    -0.272 OA
ATOM      6  H   UNL A   1      31.708  30.567  23.409  1.00  0.00     0.163 HD
BRANCH   4   7
ATOM      7  C   UNL A   1      33.030  27.802  22.915  1.00  0.00     0.117 C 
ATOM      8  C   UNL A   1      34.072  28.964  22.876  1.00  0.00     0.045 C 
BRANCH   7   9
ATOM      9  C   UNL A   1      33.434  26.907  24.115  1.00  0.00     0.035 C 
ATOM     10  C   UNL A   1      34.022  27.534  25.357  1.00  0.00     0.007 C 
ENDBRANCH   7   9
BRANCH   7  11
ATOM     11  N   UNL A   1      33.106  26.939  21.717  1.00  0.00    -0.324 N 
ATOM     12  C   UNL A   1      32.664  25.684  21.457  1.00  0.00     0.320 C 
ATOM     13  H   UNL A   1      33.571  27.359  20.957  1.00  0.00     0.166 HD
ATOM     14  O   UNL A   1      33.100  25.146  20.435  1.00  0.00    -0.248 OA
ATOM     15  N   UNL A   1      31.554  25.123  22.049  1.00  0.00    -0.306 N 
ATOM     16  H   UNL A   1      30.782  25.017  21.448  1.00  0.00     0.171 HD
BRANCH  15  17
ATOM     17  C   UNL A   1      31.330  24.665  23.396  1.00  0.00     0.064 A 
ATOM     18  C   UNL A   1      30.373  25.231  24.287  1.00  0.00    -0.026 A 
ATOM     19  C   UNL A   1      31.789  23.373  23.737  1.00  0.00     0.064 A 
ATOM     20  C   UNL A   1      29.264  26.209  23.965  1.00  0.00     0.046 C 
ATOM     21  C   UNL A   1      30.260  24.732  25.599  1.00  0.00     0.005 A 
ATOM     22  C   UNL A   1      31.514  22.798  24.985  1.00  0.00     0.023 A 
ATOM     23  Cl  UNL A   1      32.550  22.352  22.562  1.00  0.00    -0.082 Cl
ATOM     24  C   UNL A   1      30.816  23.515  25.946  1.00  0.00     0.002 A 
ENDBRANCH  15  17
ENDBRANCH   7  11
ENDBRANCH   4   7
ENDBRANCH   2   3
ENDBRANCH   1   2
BRANCH   1  25
ATOM     25  C   UNL A   1      32.424  31.307  26.984  1.00  0.00     0.118 C 
BRANCH  25  26
ATOM     26  N   UNL A   1      32.657  32.718  27.210  1.00  0.00    -0.352 N 
ATOM     27  C   UNL A   1      33.769  33.364  27.709  1.00  0.00     0.251 C 
ATOM     28  H   UNL A   1      31.906  33.308  26.969  1.00  0.00     0.163 HD
ATOM     29  O   UNL A   1      33.790  34.576  27.804  1.00  0.00    -0.269 OA
BRANCH  27  30
ATOM     30  C   UNL A   1      34.917  32.571  28.204  1.00  0.00     0.039 A 
ATOM     31  C   UNL A   1      36.148  33.219  28.333  1.00  0.00     0.014 A 
ATOM     32  C   UNL A   1      34.787  31.227  28.561  1.00  0.00     0.014 A 
ATOM     33  C   UNL A   1      37.228  32.549  28.911  1.00  0.00     0.010 A 
ATOM     34  C   UNL A   1      35.848  30.581  29.198  1.00  0.00     0.010 A 
ATOM     35  C   UNL A   1      37.072  31.242  29.399  1.00  0.00    -0.014 A 
BRANCH  35  36
ATOM     36  C   UNL A   1      38.160  30.561  30.153  1.00  0.00     0.031 A 
ATOM     37  C   UNL A   1      38.423  30.918  31.588  1.00  0.00     0.074 A 
ATOM     38  C   UNL A   1      38.969  29.689  29.519  1.00  0.00     0.049 A 
ATOM     39  N   UNL A   1      39.409  30.552  32.369  1.00  0.00    -0.248 NA
ATOM     40  C   UNL A   1      37.462  31.831  32.224  1.00  0.00     0.031 C 
ATOM     41  C   UNL A   1      38.839  29.276  28.121  1.00  0.00     0.029 A 
ATOM     42  N   UNL A   1      40.078  29.008  29.962  1.00  0.00    -0.354 N 
ATOM     43  C   UNL A   1      39.201  31.208  33.574  1.00  0.00     0.074 A 
ATOM     44  C   UNL A   1      38.021  32.029  33.409  1.00  0.00     0.031 C 
ATOM     45  C   UNL A   1      39.820  28.409  27.823  1.00  0.00     0.029 A 
ATOM     46  C   UNL A   1      40.681  28.244  28.991  1.00  0.00     0.049 A 
ATOM     47  H   UNL A   1      40.411  29.062  30.887  1.00  0.00     0.167 HD
ATOM     48  C   UNL A   1      39.920  31.120  34.720  1.00  0.00     0.037 A 
ATOM     49  C   UNL A   1      41.811  27.510  29.028  1.00  0.00     0.037 A 
ATOM     50  C   UNL A   1      41.082  30.286  34.885  1.00  0.00     0.049 A 
ATOM     51  C   UNL A   1      42.607  27.451  30.305  1.00  0.00     0.074 A 
ATOM     52  C   UNL A   1      41.851  30.093  36.019  1.00  0.00     0.029 A 
ATOM     53  N   UNL A   1      41.646  29.508  33.884  1.00  0.00    -0.354 N 
ATOM     54  N   UNL A   1      42.373  28.037  31.454  1.00  0.00    -0.248 NA
ATOM     55  C   UNL A   1      43.823  26.625  30.292  1.00  0.00     0.031 C 
ATOM     56  C   UNL A   1      42.911  29.242  35.691  1.00  0.00     0.029 A 
ATOM     57  C   UNL A   1      42.764  28.850  34.370  1.00  0.00     0.049 A 
ATOM     58  H   UNL A   1      41.302  29.434  32.964  1.00  0.00     0.167 HD
ATOM     59  C   UNL A   1      43.384  27.618  32.310  1.00  0.00     0.074 A 
ATOM     60  C   UNL A   1      44.233  26.726  31.549  1.00  0.00     0.031 C 
ATOM     61  C   UNL A   1      43.586  27.941  33.611  1.00  0.00     0.037 A 
BRANCH  48  62
ATOM     62  C   UNL A   1      39.477  31.957  35.886  1.00  0.00     0.064 A 
ATOM     63  C   UNL A   1      40.035  33.220  36.144  1.00  0.00     0.173 A 
ATOM     64  C   UNL A   1      38.454  31.510  36.736  1.00  0.00     0.173 A 
ATOM     65  F   UNL A   1      41.022  33.693  35.367  1.00  0.00    -0.203 F 
ATOM     66  C   UNL A   1      39.612  33.983  37.229  1.00  0.00     0.198 A 
ATOM     67  C   UNL A   1      38.009  32.291  37.799  1.00  0.00     0.198 A 
ATOM     68  F   UNL A   1      37.877  30.316  36.531  1.00  0.00    -0.203 F 
ATOM     69  F   UNL A   1      40.199  35.160  37.488  1.00  0.00    -0.200 F 
ATOM     70  C   UNL A   1      38.594  33.523  38.050  1.00  0.00     0.200 A 
ATOM     71  F   UNL A   1      37.013  31.853  38.581  1.00  0.00    -0.200 F 
ATOM     72  F   UNL A   1      38.182  34.262  39.089  1.00  0.00    -0.200 F 
ENDBRANCH  48  62
BRANCH  49  73
ATOM     73  C   UNL A   1      42.256  26.762  27.822  1.00  0.00     0.064 A 
ATOM     74  C   UNL A   1      41.789  25.465  27.567  1.00  0.00     0.173 A 
ATOM     75  C   UNL A   1      43.162  27.318  26.906  1.00  0.00     0.173 A 
ATOM     76  F   UNL A   1      40.937  24.880  28.423  1.00  0.00    -0.203 F 
ATOM     77  C   UNL A   1      42.231  24.743  26.460  1.00  0.00     0.198 A 
ATOM     78  C   UNL A   1      43.579  26.608  25.782  1.00  0.00     0.198 A 
ATOM     79  F   UNL A   1      43.636  28.557  27.099  1.00  0.00    -0.203 F 
ATOM     80  F   UNL A   1      41.809  23.485  26.272  1.00  0.00    -0.200 F 
ATOM     81  C   UNL A   1      43.121  25.317  25.565  1.00  0.00     0.200 A 
ATOM     82  F   UNL A   1      44.425  27.172  24.911  1.00  0.00    -0.200 F 
ATOM     83  F   UNL A   1      43.543  24.624  24.499  1.00  0.00    -0.200 F 
ENDBRANCH  49  73
BRANCH  61  84
ATOM     84  C   UNL A   1      44.726  27.275  34.326  1.00  0.00     0.064 A 
ATOM     85  C   UNL A   1      45.990  27.870  34.428  1.00  0.00     0.173 A 
ATOM     86  C   UNL A   1      44.524  26.047  34.977  1.00  0.00     0.173 A 
ATOM     87  F   UNL A   1      46.240  29.036  33.812  1.00  0.00    -0.203 F 
ATOM     88  C   UNL A   1      47.017  27.253  35.139  1.00  0.00     0.198 A 
ATOM     89  C   UNL A   1      45.542  25.449  35.714  1.00  0.00     0.198 A 
ATOM     90  F   UNL A   1      43.330  25.438  34.916  1.00  0.00    -0.203 F 
ATOM     91  F   UNL A   1      48.230  27.820  35.190  1.00  0.00    -0.200 F 
ATOM     92  C   UNL A   1      46.788  26.049  35.790  1.00  0.00     0.200 A 
ATOM     93  F   UNL A   1      45.313  24.294  36.356  1.00  0.00    -0.200 F 
ATOM     94  F   UNL A   1      47.772  25.466  36.488  1.00  0.00    -0.200 F 
ENDBRANCH  61  84
ENDBRANCH  35  36
ENDBRANCH  27  30
ENDBRANCH  25  26
ENDBRANCH   1  25
TORSDOF 13
ENDMDL
MODEL 3
REMARK VINA RESULT:     -12.4      0.068      1.135
REMARK SMILES CC[C@@](C)(NC(=O)Nc1c(C)cccc1Cl)C(=O)NCCCNC(=O)c1ccc(-c2c3nc(c(-c4c(F)c(F)c(F)c(F)c4F)c4ccc([nH]4)c(-c4c(F)c(F)c(F)c(F)c4F)c4nc(c(-c5c(F)c(F)c(F)c(F)c5F)c5ccc2[nH]5)C=C4)C=C3)cc1
REMARK SMILES IDX 21 1 20 2 19 3 17 4 18 5 3 7 4 8 2 9 1 10 5 11 6 12 7 14
REMARK SMILES IDX 8 15 9 17 10 18 15 19 11 20 12 21 14 22 16 23 13 24 22 25
REMARK SMILES IDX 23 26 24 27 25 29 26 30 27 31 88 32 28 33 87 34 29 35 30 36
REMARK SMILES IDX 31 37 81 38 32 39 86 40 80 41 82 42 33 43 85 44 79 45 78 46
REMARK SMILES IDX 34 48 66 49 46 50 65 51 47 52 50 53 64 54 83 55 48 56 49 57
REMARK SMILES IDX 63 59 84 60 51 61 35 62 36 63 44 64 37 65 38 66 42 67 45 68
REMARK SMILES IDX 39 69 40 70 43 71 41 72 67 73 68 74 76 75 69 76 70 77 74 78
REMARK SMILES IDX 77 79 71 80 72 81 75 82 73 83 52 84 53 85 61 86 54 87 55 88
REMARK SMILES IDX 59 89 62 90 56 91 57 92 60 93 58 94
REMARK H PARENT 19 6 5 13 8 16 23 28 82 47 50 58
REMARK Flexibility Score: inf
ROOT
ATOM      1  C   UNL A   1      37.871  20.280  25.002  1.00  0.00     0.042 C 
ENDROOT
BRANCH   1   2
ATOM      2  C   UNL A   1      37.011  21.530  24.715  1.00  0.00     0.117 C 
BRANCH   2   3
ATOM      3  N   UNL A   1      36.426  22.132  25.902  1.00  0.00    -0.354 N 
ATOM      4  C   UNL A   1      35.100  22.171  26.317  1.00  0.00     0.245 C 
ATOM      5  O   UNL A   1      34.686  21.453  27.225  1.00  0.00    -0.272 OA
ATOM      6  H   UNL A   1      37.065  22.579  26.502  1.00  0.00     0.163 HD
BRANCH   4   7
ATOM      7  C   UNL A   1      34.175  23.107  25.497  1.00  0.00     0.117 C 
ATOM      8  C   UNL A   1      35.097  24.363  25.406  1.00  0.00     0.045 C 
BRANCH   7   9
ATOM      9  C   UNL A   1      33.707  22.815  24.048  1.00  0.00     0.035 C 
ATOM     10  C   UNL A   1      32.879  21.585  23.758  1.00  0.00     0.007 C 
ENDBRANCH   7   9
BRANCH   7  11
ATOM     11  N   UNL A   1      32.948  23.367  26.279  1.00  0.00    -0.324 N 
ATOM     12  C   UNL A   1      32.078  24.406  26.307  1.00  0.00     0.320 C 
ATOM     13  H   UNL A   1      32.719  22.643  26.905  1.00  0.00     0.166 HD
ATOM     14  O   UNL A   1      31.282  24.435  27.251  1.00  0.00    -0.248 OA
ATOM     15  N   UNL A   1      31.810  25.212  25.223  1.00  0.00    -0.306 N 
ATOM     16  H   UNL A   1      30.917  25.081  24.829  1.00  0.00     0.171 HD
BRANCH  15  17
ATOM     17  C   UNL A   1      32.611  26.213  24.568  1.00  0.00     0.064 A 
ATOM     18  C   UNL A   1      32.818  26.279  23.159  1.00  0.00    -0.026 A 
ATOM     19  C   UNL A   1      32.897  27.398  25.281  1.00  0.00     0.064 A 
ATOM     20  C   UNL A   1      32.086  25.522  22.072  1.00  0.00     0.046 C 
ATOM     21  C   UNL A   1      33.653  27.279  22.622  1.00  0.00     0.005 A 
ATOM     22  C   UNL A   1      33.568  28.474  24.685  1.00  0.00     0.023 A 
ATOM     23  Cl  UNL A   1      32.263  27.664  26.872  1.00  0.00    -0.082 Cl
ATOM     24  C   UNL A   1      34.017  28.379  23.376  1.00  0.00     0.002 A 
ENDBRANCH  15  17
ENDBRANCH   7  11
ENDBRANCH   4   7
ENDBRANCH   2   3
ENDBRANCH   1   2
BRANCH   1  25
ATOM     25  C   UNL A   1      39.123  20.405  25.875  1.00  0.00     0.118 C 
BRANCH  25  26
ATOM     26  N   UNL A   1      40.063  19.308  25.774  1.00  0.00    -0.352 N 
ATOM     27  C   UNL A   1      41.415  19.271  26.043  1.00  0.00     0.251 C 
ATOM     28  H   UNL A   1      39.677  18.456  25.464  1.00  0.00     0.163 HD
ATOM     29  O   UNL A   1      42.042  18.237  25.921  1.00  0.00    -0.269 OA
BRANCH  27  30
ATOM     30  C   UNL A   1      42.123  20.518  26.411  1.00  0.00     0.039 A 
ATOM     31  C   UNL A   1      42.637  21.304  25.376  1.00  0.00     0.014 A 
ATOM     32  C   UNL A   1      42.259  20.926  27.739  1.00  0.00     0.014 A 
ATOM     33  C   UNL A   1      43.204  22.547  25.664  1.00  0.00     0.010 A 
ATOM     34  C   UNL A   1      42.765  22.196  28.018  1.00  0.00     0.010 A 
ATOM     35  C   UNL A   1      43.223  23.029  26.982  1.00  0.00    -0.014 A 
BRANCH  35  36
ATOM     36  C   UNL A   1      43.681  24.410  27.296  1.00  0.00     0.031 A 
ATOM     37  C   UNL A   1      42.700  25.440  27.778  1.00  0.00     0.074 A 
ATOM     38  C   UNL A   1      44.961  24.760  27.060  1.00  0.00     0.049 A 
ATOM     39  N   UNL A   1      42.868  26.726  27.961  1.00  0.00    -0.248 NA
ATOM     40  C   UNL A   1      41.339  24.966  28.067  1.00  0.00     0.031 C 
ATOM     41  C   UNL A   1      46.007  23.862  26.568  1.00  0.00     0.029 A 
ATOM     42  N   UNL A   1      45.597  25.972  27.182  1.00  0.00    -0.354 N 
ATOM     43  C   UNL A   1      41.632  27.216  28.361  1.00  0.00     0.074 A 
ATOM     44  C   UNL A   1      40.713  26.099  28.351  1.00  0.00     0.031 C 
ATOM     45  C   UNL A   1      47.153  24.549  26.438  1.00  0.00     0.029 A 
ATOM     46  C   UNL A   1      46.913  25.947  26.786  1.00  0.00     0.049 A 
ATOM     47  H   UNL A   1      45.152  26.783  27.519  1.00  0.00     0.167 HD
ATOM     48  C   UNL A   1      41.300  28.481  28.719  1.00  0.00     0.037 A 
ATOM     49  C   UNL A   1      47.820  26.940  26.691  1.00  0.00     0.037 A 
ATOM     50  C   UNL A   1      42.224  29.584  28.748  1.00  0.00     0.049 A 
ATOM     51  C   UNL A   1      47.418  28.341  27.070  1.00  0.00     0.074 A 
ATOM     52  C   UNL A   1      41.995  30.892  29.140  1.00  0.00     0.029 A 
ATOM     53  N   UNL A   1      43.555  29.511  28.362  1.00  0.00    -0.354 N 
ATOM     54  N   UNL A   1      46.259  28.783  27.494  1.00  0.00    -0.248 NA
ATOM     55  C   UNL A   1      48.451  29.381  26.961  1.00  0.00     0.031 C 
ATOM     56  C   UNL A   1      43.170  31.621  28.942  1.00  0.00     0.029 A 
ATOM     57  C   UNL A   1      44.153  30.755  28.491  1.00  0.00     0.049 A 
ATOM     58  H   UNL A   1      44.008  28.697  28.046  1.00  0.00     0.167 HD
ATOM     59  C   UNL A   1      46.434  30.139  27.742  1.00  0.00     0.074 A 
ATOM     60  C   UNL A   1      47.813  30.447  27.424  1.00  0.00     0.031 C 
ATOM     61  C   UNL A   1      45.534  31.044  28.197  1.00  0.00     0.037 A 
BRANCH  48  62
ATOM     62  C   UNL A   1      39.870  28.742  29.103  1.00  0.00     0.064 A 
ATOM     63  C   UNL A   1      38.912  29.135  28.155  1.00  0.00     0.173 A 
ATOM     64  C   UNL A   1      39.444  28.563  30.427  1.00  0.00     0.173 A 
ATOM     65  F   UNL A   1      39.267  29.329  26.876  1.00  0.00    -0.203 F 
ATOM     66  C   UNL A   1      37.591  29.373  28.526  1.00  0.00     0.198 A 
ATOM     67  C   UNL A   1      38.114  28.766  30.788  1.00  0.00     0.198 A 
ATOM     68  F   UNL A   1      40.315  28.177  31.373  1.00  0.00    -0.203 F 
ATOM     69  F   UNL A   1      36.707  29.802  27.615  1.00  0.00    -0.200 F 
ATOM     70  C   UNL A   1      37.192  29.181  29.840  1.00  0.00     0.200 A 
ATOM     71  F   UNL A   1      37.726  28.563  32.055  1.00  0.00    -0.200 F 
ATOM     72  F   UNL A   1      35.918  29.402  30.195  1.00  0.00    -0.200 F 
ENDBRANCH  48  62
BRANCH  49  73
ATOM     73  C   UNL A   1      49.203  26.647  26.228  1.00  0.00     0.064 A 
ATOM     74  C   UNL A   1      50.182  26.196  27.125  1.00  0.00     0.173 A 
ATOM     75  C   UNL A   1      49.581  26.822  24.888  1.00  0.00     0.173 A 
ATOM     76  F   UNL A   1      49.877  26.032  28.421  1.00  0.00    -0.203 F 
ATOM     77  C   UNL A   1      51.489  25.956  26.707  1.00  0.00     0.198 A 
ATOM     78  C   UNL A   1      50.880  26.552  24.464  1.00  0.00     0.198 A 
ATOM     79  F   UNL A   1      48.683  27.247  23.988  1.00  0.00    -0.203 F 
ATOM     80  F   UNL A   1      52.416  25.577  27.597  1.00  0.00    -0.200 F 
ATOM     81  C   UNL A   1      51.836  26.128  25.375  1.00  0.00     0.200 A 
ATOM     82  F   UNL A   1      51.208  26.703  23.174  1.00  0.00    -0.200 F 
ATOM     83  F   UNL A   1      53.093  25.895  24.973  1.00  0.00    -0.200 F 
ENDBRANCH  49  73
BRANCH  61  84
ATOM     84  C   UNL A   1      46.019  32.442  28.453  1.00  0.00     0.064 A 
ATOM     85  C   UNL A   1      46.556  32.830  29.688  1.00  0.00     0.173 A 
ATOM     86  C   UNL A   1      46.001  33.391  27.417  1.00  0.00     0.173 A 
ATOM     87  F   UNL A   1      46.583  31.966  30.714  1.00  0.00    -0.203 F 
ATOM     88  C   UNL A   1      47.043  34.121  29.882  1.00  0.00     0.198 A 
ATOM     89  C   UNL A   1      46.518  34.669  27.606  1.00  0.00     0.198 A 
ATOM     90  F   UNL A   1      45.502  33.069  26.214  1.00  0.00    -0.203 F 
ATOM     91  F   UNL A   1      47.516  34.483  31.083  1.00  0.00    -0.200 F 
ATOM     92  C   UNL A   1      47.034  35.035  28.839  1.00  0.00     0.200 A 
ATOM     93  F   UNL A   1      46.523  35.544  26.590  1.00  0.00    -0.200 F 
ATOM     94  F   UNL A   1      47.518  36.270  29.023  1.00  0.00    -0.200 F 
ENDBRANCH  61  84
ENDBRANCH  35  36
ENDBRANCH  27  30
ENDBRANCH  25  26
ENDBRANCH   1  25
TORSDOF 13
ENDMDL
