MODEL 1
REMARK VINA RESULT:     -15.0      0.000      0.000
REMARK SMILES O=C(NCCCNC(=O)c1ccc(-c2c3nc(c(-c4c(F)c(F)c(F)c(F)c4F)c4ccc([nH]4)c(-c4c(F)c(F)c(F)c(F)c4F)c4nc(c(-c5c(F)c(F)c(F)c(F)c5F)c5ccc2[nH]5)C=C4)C=C3)cc1)C1=Cc2cc(Cl)cc(-c3ccc(Cl)cc3)c2O[C@@H]1C(F)(F)F
REMARK SMILES IDX 5 1 4 2 3 3 1 4 2 5 73 7 74 8 90 9 75 10 89 11 76 12 88 13
REMARK SMILES IDX 77 14 80 15 78 16 79 17 91 18 92 19 93 20 94 21 81 22 82 23
REMARK SMILES IDX 87 24 83 25 86 26 84 27 85 28 6 29 7 30 8 31 9 33 10 34
REMARK SMILES IDX 11 35 72 36 12 37 71 38 13 39 14 40 15 41 65 42 16 43 70 44
REMARK SMILES IDX 64 45 66 46 17 47 69 48 63 49 62 50 18 52 50 53 30 54 49 55
REMARK SMILES IDX 31 56 34 57 48 58 67 59 32 60 33 61 47 63 68 64 35 65 19 66
REMARK SMILES IDX 20 67 28 68 21 69 22 70 26 71 29 72 23 73 24 74 27 75 25 76
REMARK SMILES IDX 51 77 52 78 60 79 53 80 54 81 58 82 61 83 55 84 56 85 59 86
REMARK SMILES IDX 57 87 36 88 37 89 45 90 38 91 39 92 43 93 46 94 40 95 41 96
REMARK SMILES IDX 44 97 42 98
REMARK H PARENT 3 6 7 32 66 51 34 62
REMARK Flexibility Score: inf
ROOT
ATOM      1  C   UNL A   1      31.746  28.082  26.659  1.00  0.00     0.042 C 
ENDROOT
BRANCH   1   2
ATOM      2  C   UNL A   1      32.000  26.720  26.009  1.00  0.00     0.118 C 
BRANCH   2   3
ATOM      3  N   UNL A   1      31.484  25.607  26.813  1.00  0.00    -0.352 N 
ATOM      4  O   UNL A   1      31.402  23.483  27.611  1.00  0.00    -0.270 OA
ATOM      5  C   UNL A   1      31.764  24.266  26.743  1.00  0.00     0.251 C 
ATOM      6  H   UNL A   1      30.837  25.861  27.509  1.00  0.00     0.163 HD
BRANCH   5   7
ATOM      7  C   UNL A   1      32.578  23.824  25.604  1.00  0.00     0.067 C 
ATOM      8  C   UNL A   1      33.891  24.073  25.650  1.00  0.00     0.025 C 
ATOM      9  C   UNL A   1      31.974  22.837  24.658  1.00  0.00     0.314 C 
ATOM     10  C   UNL A   1      34.729  22.989  25.129  1.00  0.00     0.019 A 
ATOM     11  O   UNL A   1      32.769  21.627  24.593  1.00  0.00    -0.475 OA
ATOM     12  C   UNL A   1      36.105  23.067  25.355  1.00  0.00     0.032 A 
ATOM     13  C   UNL A   1      34.125  21.753  24.808  1.00  0.00     0.135 A 
ATOM     14  C   UNL A   1      36.860  21.901  25.367  1.00  0.00     0.042 A 
ATOM     15  C   UNL A   1      34.876  20.567  24.874  1.00  0.00     0.026 A 
ATOM     16  Cl  UNL A   1      38.521  21.974  25.810  1.00  0.00    -0.084 Cl
ATOM     17  C   UNL A   1      36.253  20.664  25.154  1.00  0.00     0.033 A 
BRANCH   9  18
ATOM     18  C   UNL A   1      31.726  23.454  23.270  1.00  0.00     0.429 C 
ATOM     19  F   UNL A   1      30.410  23.424  22.948  1.00  0.00    -0.167 F 
ATOM     20  F   UNL A   1      32.108  24.752  23.224  1.00  0.00    -0.167 F 
ATOM     21  F   UNL A   1      32.393  22.806  22.286  1.00  0.00    -0.167 F 
ENDBRANCH   9  18
BRANCH  15  22
ATOM     22  C   UNL A   1      34.255  19.232  24.859  1.00  0.00    -0.015 A 
ATOM     23  C   UNL A   1      33.046  19.018  25.546  1.00  0.00     0.010 A 
ATOM     24  C   UNL A   1      34.867  18.135  24.247  1.00  0.00     0.010 A 
ATOM     25  C   UNL A   1      32.498  17.743  25.686  1.00  0.00     0.021 A 
ATOM     26  C   UNL A   1      34.312  16.853  24.370  1.00  0.00     0.021 A 
ATOM     27  C   UNL A   1      33.144  16.661  25.105  1.00  0.00     0.041 A 
ATOM     28  Cl  UNL A   1      32.503  15.079  25.315  1.00  0.00    -0.084 Cl
ENDBRANCH  15  22
ENDBRANCH   5   7
ENDBRANCH   2   3
ENDBRANCH   1   2
BRANCH   1  29
ATOM     29  C   UNL A   1      32.625  29.183  26.073  1.00  0.00     0.118 C 
BRANCH  29  30
ATOM     30  N   UNL A   1      32.379  30.515  26.597  1.00  0.00    -0.352 N 
ATOM     31  C   UNL A   1      33.241  31.382  27.241  1.00  0.00     0.251 C 
ATOM     32  H   UNL A   1      31.462  30.850  26.476  1.00  0.00     0.163 HD
ATOM     33  O   UNL A   1      32.827  32.479  27.609  1.00  0.00    -0.269 OA
BRANCH  31  34
ATOM     34  C   UNL A   1      34.622  30.970  27.599  1.00  0.00     0.039 A 
ATOM     35  C   UNL A   1      35.584  31.973  27.767  1.00  0.00     0.014 A 
ATOM     36  C   UNL A   1      34.965  29.647  27.865  1.00  0.00     0.014 A 
ATOM     37  C   UNL A   1      36.821  31.668  28.339  1.00  0.00     0.010 A 
ATOM     38  C   UNL A   1      36.144  29.360  28.540  1.00  0.00     0.010 A 
ATOM     39  C   UNL A   1      37.072  30.372  28.810  1.00  0.00    -0.014 A 
BRANCH  39  40
ATOM     40  C   UNL A   1      38.267  30.058  29.633  1.00  0.00     0.031 A 
ATOM     41  C   UNL A   1      39.315  29.115  29.114  1.00  0.00     0.074 A 
ATOM     42  C   UNL A   1      38.335  30.529  30.894  1.00  0.00     0.049 A 
ATOM     43  N   UNL A   1      40.354  28.610  29.727  1.00  0.00    -0.248 NA
ATOM     44  C   UNL A   1      39.138  28.629  27.736  1.00  0.00     0.031 C 
ATOM     45  C   UNL A   1      37.326  31.374  31.540  1.00  0.00     0.029 A 
ATOM     46  N   UNL A   1      39.289  30.359  31.865  1.00  0.00    -0.354 N 
ATOM     47  C   UNL A   1      40.928  27.722  28.828  1.00  0.00     0.074 A 
ATOM     48  C   UNL A   1      40.088  27.711  27.649  1.00  0.00     0.031 C 
ATOM     49  C   UNL A   1      37.735  31.682  32.781  1.00  0.00     0.029 A 
ATOM     50  C   UNL A   1      39.015  31.031  33.031  1.00  0.00     0.049 A 
ATOM     51  H   UNL A   1      40.094  29.806  31.738  1.00  0.00     0.167 HD
ATOM     52  C   UNL A   1      42.067  27.001  28.962  1.00  0.00     0.037 A 
ATOM     53  C   UNL A   1      39.726  31.118  34.170  1.00  0.00     0.037 A 
ATOM     54  C   UNL A   1      42.923  27.069  30.117  1.00  0.00     0.049 A 
ATOM     55  C   UNL A   1      41.042  30.396  34.254  1.00  0.00     0.074 A 
ATOM     56  C   UNL A   1      44.132  26.435  30.340  1.00  0.00     0.029 A 
ATOM     57  N   UNL A   1      42.662  27.842  31.241  1.00  0.00    -0.354 N 
ATOM     58  N   UNL A   1      41.605  29.603  33.374  1.00  0.00    -0.248 NA
ATOM     59  C   UNL A   1      41.828  30.591  35.478  1.00  0.00     0.031 C 
ATOM     60  C   UNL A   1      44.594  26.814  31.607  1.00  0.00     0.029 A 
ATOM     61  C   UNL A   1      43.691  27.709  32.157  1.00  0.00     0.049 A 
ATOM     62  H   UNL A   1      41.861  28.402  31.367  1.00  0.00     0.167 HD
ATOM     63  C   UNL A   1      42.821  29.226  33.925  1.00  0.00     0.074 A 
ATOM     64  C   UNL A   1      42.921  29.893  35.207  1.00  0.00     0.031 C 
ATOM     65  C   UNL A   1      43.769  28.399  33.418  1.00  0.00     0.037 A 
BRANCH  52  66
ATOM     66  C   UNL A   1      42.450  26.100  27.825  1.00  0.00     0.064 A 
ATOM     67  C   UNL A   1      43.387  26.495  26.857  1.00  0.00     0.173 A 
ATOM     68  C   UNL A   1      41.868  24.831  27.690  1.00  0.00     0.173 A 
ATOM     69  F   UNL A   1      43.961  27.706  26.929  1.00  0.00    -0.203 F 
ATOM     70  C   UNL A   1      43.691  25.676  25.774  1.00  0.00     0.198 A 
ATOM     71  C   UNL A   1      42.199  24.000  26.622  1.00  0.00     0.198 A 
ATOM     72  F   UNL A   1      40.969  24.399  28.587  1.00  0.00    -0.203 F 
ATOM     73  F   UNL A   1      44.535  26.107  24.825  1.00  0.00    -0.200 F 
ATOM     74  C   UNL A   1      43.101  24.427  25.658  1.00  0.00     0.200 A 
ATOM     75  F   UNL A   1      41.634  22.789  26.517  1.00  0.00    -0.200 F 
ATOM     76  F   UNL A   1      43.389  23.642  24.613  1.00  0.00    -0.200 F 
ENDBRANCH  52  66
BRANCH  53  77
ATOM     77  C   UNL A   1      39.245  31.973  35.286  1.00  0.00     0.064 A 
ATOM     78  C   UNL A   1      38.473  31.426  36.322  1.00  0.00     0.173 A 
ATOM     79  C   UNL A   1      39.553  33.339  35.354  1.00  0.00     0.173 A 
ATOM     80  F   UNL A   1      38.141  30.127  36.293  1.00  0.00    -0.203 F 
ATOM     81  C   UNL A   1      38.008  32.217  37.371  1.00  0.00     0.198 A 
ATOM     82  C   UNL A   1      39.108  34.124  36.418  1.00  0.00     0.198 A 
ATOM     83  F   UNL A   1      40.299  33.909  34.397  1.00  0.00    -0.203 F 
ATOM     84  F   UNL A   1      37.238  31.675  38.324  1.00  0.00    -0.200 F 
ATOM     85  C   UNL A   1      38.330  33.564  37.420  1.00  0.00     0.200 A 
ATOM     86  F   UNL A   1      39.433  35.423  36.471  1.00  0.00    -0.200 F 
ATOM     87  F   UNL A   1      37.886  34.324  38.430  1.00  0.00    -0.200 F 
ENDBRANCH  53  77
BRANCH  65  88
ATOM     88  C   UNL A   1      45.007  28.208  34.239  1.00  0.00     0.064 A 
ATOM     89  C   UNL A   1      45.108  27.180  35.186  1.00  0.00     0.173 A 
ATOM     90  C   UNL A   1      46.114  29.050  34.054  1.00  0.00     0.173 A 
ATOM     91  F   UNL A   1      44.069  26.361  35.407  1.00  0.00    -0.203 F 
ATOM     92  C   UNL A   1      46.267  27.016  35.939  1.00  0.00     0.198 A 
ATOM     93  C   UNL A   1      47.280  28.867  34.790  1.00  0.00     0.198 A 
ATOM     94  F   UNL A   1      46.065  30.045  33.156  1.00  0.00    -0.203 F 
ATOM     95  F   UNL A   1      46.327  26.056  36.872  1.00  0.00    -0.200 F 
ATOM     96  C   UNL A   1      47.353  27.855  35.737  1.00  0.00     0.200 A 
ATOM     97  F   UNL A   1      48.331  29.672  34.588  1.00  0.00    -0.200 F 
ATOM     98  F   UNL A   1      48.468  27.694  36.462  1.00  0.00    -0.200 F 
ENDBRANCH  65  88
ENDBRANCH  39  40
ENDBRANCH  31  34
ENDBRANCH  29  30
ENDBRANCH   1  29
TORSDOF 12
ENDMDL
MODEL 2
REMARK VINA RESULT:     -15.0      0.519      7.152
REMARK SMILES O=C(NCCCNC(=O)c1ccc(-c2c3nc(c(-c4c(F)c(F)c(F)c(F)c4F)c4ccc([nH]4)c(-c4c(F)c(F)c(F)c(F)c4F)c4nc(c(-c5c(F)c(F)c(F)c(F)c5F)c5ccc2[nH]5)C=C4)C=C3)cc1)C1=Cc2cc(Cl)cc(-c3ccc(Cl)cc3)c2O[C@@H]1C(F)(F)F
REMARK SMILES IDX 5 1 4 2 3 3 1 4 2 5 73 7 74 8 90 9 75 10 89 11 76 12 88 13
REMARK SMILES IDX 77 14 80 15 78 16 79 17 91 18 92 19 93 20 94 21 81 22 82 23
REMARK SMILES IDX 87 24 83 25 86 26 84 27 85 28 6 29 7 30 8 31 9 33 10 34
REMARK SMILES IDX 11 35 72 36 12 37 71 38 13 39 14 40 15 41 65 42 16 43 70 44
REMARK SMILES IDX 64 45 66 46 17 47 69 48 63 49 62 50 18 52 50 53 30 54 49 55
REMARK SMILES IDX 31 56 34 57 48 58 67 59 32 60 33 61 47 63 68 64 35 65 19 66
REMARK SMILES IDX 20 67 28 68 21 69 22 70 26 71 29 72 23 73 24 74 27 75 25 76
REMARK SMILES IDX 51 77 52 78 60 79 53 80 54 81 58 82 61 83 55 84 56 85 59 86
REMARK SMILES IDX 57 87 36 88 37 89 45 90 38 91 39 92 43 93 46 94 40 95 41 96
REMARK SMILES IDX 44 97 42 98
REMARK H PARENT 3 6 7 32 66 51 34 62
REMARK Flexibility Score: inf
ROOT
ATOM      1  C   UNL A   1      31.776  28.281  26.687  1.00  0.00     0.042 C 
ENDROOT
BRANCH   1   2
ATOM      2  C   UNL A   1      31.988  26.922  26.017  1.00  0.00     0.118 C 
BRANCH   2   3
ATOM      3  N   UNL A   1      31.470  25.809  26.820  1.00  0.00    -0.352 N 
ATOM      4  O   UNL A   1      31.391  23.689  27.626  1.00  0.00    -0.270 OA
ATOM      5  C   UNL A   1      31.757  24.470  26.759  1.00  0.00     0.251 C 
ATOM      6  H   UNL A   1      30.814  26.063  27.509  1.00  0.00     0.163 HD
BRANCH   5   7
ATOM      7  C   UNL A   1      32.584  24.027  25.629  1.00  0.00     0.067 C 
ATOM      8  C   UNL A   1      33.897  24.274  25.692  1.00  0.00     0.025 C 
ATOM      9  C   UNL A   1      31.990  23.042  24.676  1.00  0.00     0.314 C 
ATOM     10  C   UNL A   1      34.740  23.189  25.181  1.00  0.00     0.019 A 
ATOM     11  O   UNL A   1      32.784  21.830  24.620  1.00  0.00    -0.475 OA
ATOM     12  C   UNL A   1      36.113  23.265  25.424  1.00  0.00     0.032 A 
ATOM     13  C   UNL A   1      34.138  21.955  24.852  1.00  0.00     0.135 A 
ATOM     14  C   UNL A   1      36.866  22.097  25.444  1.00  0.00     0.042 A 
ATOM     15  C   UNL A   1      34.886  20.767  24.926  1.00  0.00     0.026 A 
ATOM     16  Cl  UNL A   1      38.521  22.167  25.908  1.00  0.00    -0.084 Cl
ATOM     17  C   UNL A   1      36.259  20.861  25.224  1.00  0.00     0.033 A 
BRANCH   9  18
ATOM     18  C   UNL A   1      31.761  23.660  23.285  1.00  0.00     0.429 C 
ATOM     19  F   UNL A   1      30.465  23.543  22.905  1.00  0.00    -0.167 F 
ATOM     20  F   UNL A   1      32.053  24.982  23.271  1.00  0.00    -0.167 F 
ATOM     21  F   UNL A   1      32.514  23.073  22.325  1.00  0.00    -0.167 F 
ENDBRANCH   9  18
BRANCH  15  22
ATOM     22  C   UNL A   1      34.263  19.433  24.903  1.00  0.00    -0.015 A 
ATOM     23  C   UNL A   1      33.074  19.206  25.622  1.00  0.00     0.010 A 
ATOM     24  C   UNL A   1      34.854  18.348  24.251  1.00  0.00     0.010 A 
ATOM     25  C   UNL A   1      32.529  17.929  25.752  1.00  0.00     0.021 A 
ATOM     26  C   UNL A   1      34.302  17.065  24.364  1.00  0.00     0.021 A 
ATOM     27  C   UNL A   1      33.156  16.858  25.131  1.00  0.00     0.041 A 
ATOM     28  Cl  UNL A   1      32.520  15.273  25.327  1.00  0.00    -0.084 Cl
ENDBRANCH  15  22
ENDBRANCH   5   7
ENDBRANCH   2   3
ENDBRANCH   1   2
BRANCH   1  29
ATOM     29  C   UNL A   1      32.581  29.393  26.023  1.00  0.00     0.118 C 
BRANCH  29  30
ATOM     30  N   UNL A   1      32.390  30.718  26.588  1.00  0.00    -0.352 N 
ATOM     31  C   UNL A   1      33.284  31.527  27.262  1.00  0.00     0.251 C 
ATOM     32  H   UNL A   1      31.488  31.095  26.473  1.00  0.00     0.163 HD
ATOM     33  O   UNL A   1      32.914  32.628  27.663  1.00  0.00    -0.269 OA
BRANCH  31  34
ATOM     34  C   UNL A   1      34.643  31.045  27.613  1.00  0.00     0.039 A 
ATOM     35  C   UNL A   1      35.603  31.997  27.979  1.00  0.00     0.014 A 
ATOM     36  C   UNL A   1      34.966  29.692  27.684  1.00  0.00     0.014 A 
ATOM     37  C   UNL A   1      36.811  31.590  28.551  1.00  0.00     0.010 A 
ATOM     38  C   UNL A   1      36.110  29.288  28.358  1.00  0.00     0.010 A 
ATOM     39  C   UNL A   1      37.031  30.233  28.825  1.00  0.00    -0.014 A 
BRANCH  39  40
ATOM     40  C   UNL A   1      38.184  29.779  29.641  1.00  0.00     0.031 A 
ATOM     41  C   UNL A   1      38.363  30.284  31.044  1.00  0.00     0.074 A 
ATOM     42  C   UNL A   1      39.131  29.010  29.066  1.00  0.00     0.049 A 
ATOM     43  N   UNL A   1      39.367  30.115  31.866  1.00  0.00    -0.248 NA
ATOM     44  C   UNL A   1      37.292  31.142  31.576  1.00  0.00     0.031 C 
ATOM     45  C   UNL A   1      39.114  28.541  27.676  1.00  0.00     0.029 A 
ATOM     46  N   UNL A   1      40.297  28.495  29.570  1.00  0.00    -0.354 N 
ATOM     47  C   UNL A   1      39.067  30.875  32.988  1.00  0.00     0.074 A 
ATOM     48  C   UNL A   1      37.817  31.553  32.720  1.00  0.00     0.031 C 
ATOM     49  C   UNL A   1      40.193  27.773  27.455  1.00  0.00     0.029 A 
ATOM     50  C   UNL A   1      40.994  27.723  28.672  1.00  0.00     0.049 A 
ATOM     51  H   UNL A   1      40.606  28.663  30.490  1.00  0.00     0.167 HD
ATOM     52  C   UNL A   1      39.758  30.976  34.149  1.00  0.00     0.037 A 
ATOM     53  C   UNL A   1      42.146  27.045  28.821  1.00  0.00     0.037 A 
ATOM     54  C   UNL A   1      40.968  30.249  34.423  1.00  0.00     0.049 A 
ATOM     55  C   UNL A   1      42.838  27.086  30.155  1.00  0.00     0.074 A 
ATOM     56  C   UNL A   1      41.721  30.222  35.583  1.00  0.00     0.029 A 
ATOM     57  N   UNL A   1      41.591  29.396  33.522  1.00  0.00    -0.354 N 
ATOM     58  N   UNL A   1      42.515  27.763  31.231  1.00  0.00    -0.248 NA
ATOM     59  C   UNL A   1      44.042  26.259  30.303  1.00  0.00     0.031 C 
ATOM     60  C   UNL A   1      42.808  29.364  35.377  1.00  0.00     0.029 A 
ATOM     61  C   UNL A   1      42.713  28.830  34.102  1.00  0.00     0.049 A 
ATOM     62  H   UNL A   1      41.279  29.220  32.604  1.00  0.00     0.167 HD
ATOM     63  C   UNL A   1      43.458  27.424  32.190  1.00  0.00     0.074 A 
ATOM     64  C   UNL A   1      44.354  26.467  31.573  1.00  0.00     0.031 C 
ATOM     65  C   UNL A   1      43.576  27.868  33.466  1.00  0.00     0.037 A 
BRANCH  52  66
ATOM     66  C   UNL A   1      39.205  31.892  35.202  1.00  0.00     0.064 A 
ATOM     67  C   UNL A   1      39.461  33.273  35.184  1.00  0.00     0.173 A 
ATOM     68  C   UNL A   1      38.419  31.388  36.249  1.00  0.00     0.173 A 
ATOM     69  F   UNL A   1      40.221  33.804  34.214  1.00  0.00    -0.203 F 
ATOM     70  C   UNL A   1      38.993  34.104  36.197  1.00  0.00     0.198 A 
ATOM     71  C   UNL A   1      37.924  32.228  37.244  1.00  0.00     0.198 A 
ATOM     72  F   UNL A   1      38.139  30.078  36.315  1.00  0.00    -0.203 F 
ATOM     73  F   UNL A   1      39.312  35.407  36.194  1.00  0.00    -0.200 F 
ATOM     74  C   UNL A   1      38.221  33.583  37.224  1.00  0.00     0.200 A 
ATOM     75  F   UNL A   1      37.171  31.724  38.231  1.00  0.00    -0.200 F 
ATOM     76  F   UNL A   1      37.776  34.383  38.202  1.00  0.00    -0.200 F 
ENDBRANCH  52  66
BRANCH  53  77
ATOM     77  C   UNL A   1      42.674  26.217  27.706  1.00  0.00     0.064 A 
ATOM     78  C   UNL A   1      42.192  24.917  27.493  1.00  0.00     0.173 A 
ATOM     79  C   UNL A   1      43.651  26.703  26.825  1.00  0.00     0.173 A 
ATOM     80  F   UNL A   1      41.267  24.403  28.317  1.00  0.00    -0.203 F 
ATOM     81  C   UNL A   1      42.683  24.125  26.456  1.00  0.00     0.198 A 
ATOM     82  C   UNL A   1      44.123  25.918  25.773  1.00  0.00     0.198 A 
ATOM     83  F   UNL A   1      44.135  27.943  26.976  1.00  0.00    -0.203 F 
ATOM     84  F   UNL A   1      42.234  22.872  26.303  1.00  0.00    -0.200 F 
ATOM     85  C   UNL A   1      43.646  24.629  25.594  1.00  0.00     0.200 A 
ATOM     86  F   UNL A   1      45.043  26.413  24.932  1.00  0.00    -0.200 F 
ATOM     87  F   UNL A   1      44.116  23.870  24.596  1.00  0.00    -0.200 F 
ENDBRANCH  53  77
BRANCH  65  88
ATOM     88  C   UNL A   1      44.690  27.288  34.283  1.00  0.00     0.064 A 
ATOM     89  C   UNL A   1      45.952  27.897  34.339  1.00  0.00     0.173 A 
ATOM     90  C   UNL A   1      44.481  26.126  35.039  1.00  0.00     0.173 A 
ATOM     91  F   UNL A   1      46.201  29.002  33.619  1.00  0.00    -0.203 F 
ATOM     92  C   UNL A   1      46.975  27.346  35.103  1.00  0.00     0.198 A 
ATOM     93  C   UNL A   1      45.499  25.592  35.823  1.00  0.00     0.198 A 
ATOM     94  F   UNL A   1      43.288  25.512  35.020  1.00  0.00    -0.203 F 
ATOM     95  F   UNL A   1      48.188  27.915  35.107  1.00  0.00    -0.200 F 
ATOM     96  C   UNL A   1      46.746  26.198  35.849  1.00  0.00     0.200 A 
ATOM     97  F   UNL A   1      45.274  24.489  36.549  1.00  0.00    -0.200 F 
ATOM     98  F   UNL A   1      47.733  25.669  36.586  1.00  0.00    -0.200 F 
ENDBRANCH  65  88
ENDBRANCH  39  40
ENDBRANCH  31  34
ENDBRANCH  29  30
ENDBRANCH   1  29
TORSDOF 12
ENDMDL
MODEL 3
REMARK VINA RESULT:     -14.8      0.661      7.175
REMARK SMILES O=C(NCCCNC(=O)c1ccc(-c2c3nc(c(-c4c(F)c(F)c(F)c(F)c4F)c4ccc([nH]4)c(-c4c(F)c(F)c(F)c(F)c4F)c4nc(c(-c5c(F)c(F)c(F)c(F)c5F)c5ccc2[nH]5)C=C4)C=C3)cc1)C1=Cc2cc(Cl)cc(-c3ccc(Cl)cc3)c2O[C@@H]1C(F)(F)F
REMARK SMILES IDX 5 1 4 2 3 3 1 4 2 5 73 7 74 8 90 9 75 10 89 11 76 12 88 13
REMARK SMILES IDX 77 14 80 15 78 16 79 17 91 18 92 19 93 20 94 21 81 22 82 23
REMARK SMILES IDX 87 24 83 25 86 26 84 27 85 28 6 29 7 30 8 31 9 33 10 34
REMARK SMILES IDX 11 35 72 36 12 37 71 38 13 39 14 40 15 41 65 42 16 43 70 44
REMARK SMILES IDX 64 45 66 46 17 47 69 48 63 49 62 50 18 52 50 53 30 54 49 55
REMARK SMILES IDX 31 56 34 57 48 58 67 59 32 60 33 61 47 63 68 64 35 65 19 66
REMARK SMILES IDX 20 67 28 68 21 69 22 70 26 71 29 72 23 73 24 74 27 75 25 76
REMARK SMILES IDX 51 77 52 78 60 79 53 80 54 81 58 82 61 83 55 84 56 85 59 86
REMARK SMILES IDX 57 87 36 88 37 89 45 90 38 91 39 92 43 93 46 94 40 95 41 96
REMARK SMILES IDX 44 97 42 98
REMARK H PARENT 3 6 7 32 66 51 34 62
REMARK Flexibility Score: inf
ROOT
ATOM      1  C   UNL A   1      31.806  28.247  26.725  1.00  0.00     0.042 C 
ENDROOT
BRANCH   1   2
ATOM      2  C   UNL A   1      31.901  26.903  26.000  1.00  0.00     0.118 C 
BRANCH   2   3
ATOM      3  N   UNL A   1      31.402  25.788  26.811  1.00  0.00    -0.352 N 
ATOM      4  O   UNL A   1      31.353  23.670  27.627  1.00  0.00    -0.270 OA
ATOM      5  C   UNL A   1      31.705  24.451  26.754  1.00  0.00     0.251 C 
ATOM      6  H   UNL A   1      30.748  26.037  27.503  1.00  0.00     0.163 HD
BRANCH   5   7
ATOM      7  C   UNL A   1      32.530  24.014  25.620  1.00  0.00     0.067 C 
ATOM      8  C   UNL A   1      33.841  24.273  25.675  1.00  0.00     0.025 C 
ATOM      9  C   UNL A   1      31.940  23.021  24.673  1.00  0.00     0.314 C 
ATOM     10  C   UNL A   1      34.690  23.196  25.162  1.00  0.00     0.019 A 
ATOM     11  O   UNL A   1      32.745  21.817  24.616  1.00  0.00    -0.475 OA
ATOM     12  C   UNL A   1      36.064  23.285  25.397  1.00  0.00     0.032 A 
ATOM     13  C   UNL A   1      34.098  21.955  24.839  1.00  0.00     0.135 A 
ATOM     14  C   UNL A   1      36.828  22.125  25.416  1.00  0.00     0.042 A 
ATOM     15  C   UNL A   1      34.858  20.774  24.912  1.00  0.00     0.026 A 
ATOM     16  Cl  UNL A   1      38.486  22.212  25.870  1.00  0.00    -0.084 Cl
ATOM     17  C   UNL A   1      36.232  20.882  25.202  1.00  0.00     0.033 A 
BRANCH   9  18
ATOM     18  C   UNL A   1      31.697  23.633  23.281  1.00  0.00     0.429 C 
ATOM     19  F   UNL A   1      31.860  24.979  23.303  1.00  0.00    -0.167 F 
ATOM     20  F   UNL A   1      32.568  23.151  22.364  1.00  0.00    -0.167 F 
ATOM     21  F   UNL A   1      30.449  23.390  22.816  1.00  0.00    -0.167 F 
ENDBRANCH   9  18
BRANCH  15  22
ATOM     22  C   UNL A   1      34.248  19.435  24.896  1.00  0.00    -0.015 A 
ATOM     23  C   UNL A   1      33.059  19.201  25.612  1.00  0.00     0.010 A 
ATOM     24  C   UNL A   1      34.852  18.351  24.252  1.00  0.00     0.010 A 
ATOM     25  C   UNL A   1      32.526  17.920  25.749  1.00  0.00     0.021 A 
ATOM     26  C   UNL A   1      34.312  17.063  24.373  1.00  0.00     0.021 A 
ATOM     27  C   UNL A   1      33.165  16.851  25.136  1.00  0.00     0.041 A 
ATOM     28  Cl  UNL A   1      32.543  15.261  25.341  1.00  0.00    -0.084 Cl
ENDBRANCH  15  22
ENDBRANCH   5   7
ENDBRANCH   2   3
ENDBRANCH   1   2
BRANCH   1  29
ATOM     29  C   UNL A   1      32.747  29.296  26.139  1.00  0.00     0.118 C 
BRANCH  29  30
ATOM     30  N   UNL A   1      32.596  30.635  26.682  1.00  0.00    -0.352 N 
ATOM     31  C   UNL A   1      33.522  31.438  27.319  1.00  0.00     0.251 C 
ATOM     32  H   UNL A   1      31.699  31.029  26.582  1.00  0.00     0.163 HD
ATOM     33  O   UNL A   1      33.184  32.555  27.706  1.00  0.00    -0.269 OA
BRANCH  31  34
ATOM     34  C   UNL A   1      34.880  30.936  27.647  1.00  0.00     0.039 A 
ATOM     35  C   UNL A   1      35.860  31.872  27.999  1.00  0.00     0.014 A 
ATOM     36  C   UNL A   1      35.183  29.578  27.710  1.00  0.00     0.014 A 
ATOM     37  C   UNL A   1      37.070  31.446  28.551  1.00  0.00     0.010 A 
ATOM     38  C   UNL A   1      36.332  29.155  28.365  1.00  0.00     0.010 A 
ATOM     39  C   UNL A   1      37.275  30.086  28.818  1.00  0.00    -0.014 A 
BRANCH  39  40
ATOM     40  C   UNL A   1      38.434  29.612  29.614  1.00  0.00     0.031 A 
ATOM     41  C   UNL A   1      38.658  30.132  31.006  1.00  0.00     0.074 A 
ATOM     42  C   UNL A   1      39.346  28.811  29.030  1.00  0.00     0.049 A 
ATOM     43  N   UNL A   1      39.675  29.948  31.807  1.00  0.00    -0.248 NA
ATOM     44  C   UNL A   1      37.622  31.025  31.549  1.00  0.00     0.031 C 
ATOM     45  C   UNL A   1      39.286  28.323  27.648  1.00  0.00     0.029 A 
ATOM     46  N   UNL A   1      40.510  28.273  29.515  1.00  0.00    -0.354 N 
ATOM     47  C   UNL A   1      39.421  30.731  32.925  1.00  0.00     0.074 A 
ATOM     48  C   UNL A   1      38.183  31.438  32.675  1.00  0.00     0.031 C 
ATOM     49  C   UNL A   1      40.339  27.524  27.414  1.00  0.00     0.029 A 
ATOM     50  C   UNL A   1      41.166  27.470  28.612  1.00  0.00     0.049 A 
ATOM     51  H   UNL A   1      40.845  28.445  30.425  1.00  0.00     0.167 HD
ATOM     52  C   UNL A   1      40.141  30.830  34.068  1.00  0.00     0.037 A 
ATOM     53  C   UNL A   1      42.303  26.764  28.745  1.00  0.00     0.037 A 
ATOM     54  C   UNL A   1      41.338  30.075  34.326  1.00  0.00     0.049 A 
ATOM     55  C   UNL A   1      43.026  26.805  30.063  1.00  0.00     0.074 A 
ATOM     56  C   UNL A   1      42.116  30.044  35.469  1.00  0.00     0.029 A 
ATOM     57  N   UNL A   1      41.917  29.193  33.423  1.00  0.00    -0.354 N 
ATOM     58  N   UNL A   1      42.746  27.505  31.136  1.00  0.00    -0.248 NA
ATOM     59  C   UNL A   1      44.211  25.949  30.195  1.00  0.00     0.031 C 
ATOM     60  C   UNL A   1      43.176  29.155  35.251  1.00  0.00     0.029 A 
ATOM     61  C   UNL A   1      43.037  28.606  33.986  1.00  0.00     0.049 A 
ATOM     62  H   UNL A   1      41.580  29.013  32.515  1.00  0.00     0.167 HD
ATOM     63  C   UNL A   1      43.701  27.155  32.078  1.00  0.00     0.074 A 
ATOM     64  C   UNL A   1      44.558  26.167  31.455  1.00  0.00     0.031 C 
ATOM     65  C   UNL A   1      43.860  27.614  33.345  1.00  0.00     0.037 A 
BRANCH  52  66
ATOM     66  C   UNL A   1      39.636  31.774  35.120  1.00  0.00     0.064 A 
ATOM     67  C   UNL A   1      38.746  31.352  36.121  1.00  0.00     0.173 A 
ATOM     68  C   UNL A   1      40.032  33.120  35.125  1.00  0.00     0.173 A 
ATOM     69  F   UNL A   1      38.321  30.080  36.152  1.00  0.00    -0.203 F 
ATOM     70  C   UNL A   1      38.237  32.249  37.056  1.00  0.00     0.198 A 
ATOM     71  C   UNL A   1      39.547  34.008  36.082  1.00  0.00     0.198 A 
ATOM     72  F   UNL A   1      40.883  33.578  34.194  1.00  0.00    -0.203 F 
ATOM     73  F   UNL A   1      37.335  31.836  37.957  1.00  0.00    -0.200 F 
ATOM     74  C   UNL A   1      38.641  33.575  37.039  1.00  0.00     0.200 A 
ATOM     75  F   UNL A   1      39.945  35.288  36.070  1.00  0.00    -0.200 F 
ATOM     76  F   UNL A   1      38.147  34.439  37.936  1.00  0.00    -0.200 F 
ENDBRANCH  52  66
BRANCH  53  77
ATOM     77  C   UNL A   1      42.784  25.907  27.631  1.00  0.00     0.064 A 
ATOM     78  C   UNL A   1      42.262  24.618  27.446  1.00  0.00     0.173 A 
ATOM     79  C   UNL A   1      43.754  26.354  26.722  1.00  0.00     0.173 A 
ATOM     80  F   UNL A   1      41.343  24.141  28.298  1.00  0.00    -0.203 F 
ATOM     81  C   UNL A   1      42.709  23.799  26.411  1.00  0.00     0.198 A 
ATOM     82  C   UNL A   1      44.181  25.543  25.671  1.00  0.00     0.198 A 
ATOM     83  F   UNL A   1      44.274  27.583  26.845  1.00  0.00    -0.203 F 
ATOM     84  F   UNL A   1      42.223  22.557  26.285  1.00  0.00    -0.200 F 
ATOM     85  C   UNL A   1      43.665  24.265  25.521  1.00  0.00     0.200 A 
ATOM     86  F   UNL A   1      45.095  26.001  24.804  1.00  0.00    -0.200 F 
ATOM     87  F   UNL A   1      44.092  23.480  24.523  1.00  0.00    -0.200 F 
ENDBRANCH  53  77
BRANCH  65  88
ATOM     88  C   UNL A   1      44.977  27.016  34.145  1.00  0.00     0.064 A 
ATOM     89  C   UNL A   1      44.790  25.858  34.913  1.00  0.00     0.173 A 
ATOM     90  C   UNL A   1      46.253  27.595  34.118  1.00  0.00     0.173 A 
ATOM     91  F   UNL A   1      43.582  25.279  34.980  1.00  0.00    -0.203 F 
ATOM     92  C   UNL A   1      45.839  25.315  35.650  1.00  0.00     0.198 A 
ATOM     93  C   UNL A   1      47.306  27.035  34.835  1.00  0.00     0.198 A 
ATOM     94  F   UNL A   1      46.480  28.701  33.394  1.00  0.00    -0.203 F 
ATOM     95  F   UNL A   1      45.629  24.236  36.415  1.00  0.00    -0.200 F 
ATOM     96  C   UNL A   1      47.096  25.900  35.606  1.00  0.00     0.200 A 
ATOM     97  F   UNL A   1      48.522  27.595  34.785  1.00  0.00    -0.200 F 
ATOM     98  F   UNL A   1      48.105  25.375  36.314  1.00  0.00    -0.200 F 
ENDBRANCH  65  88
ENDBRANCH  39  40
ENDBRANCH  31  34
ENDBRANCH  29  30
ENDBRANCH   1  29
TORSDOF 12
ENDMDL
