MODEL 1
REMARK VINA RESULT:     -12.7      0.000      0.000
REMARK SMILES C[C@@H](C(=O)NCCCNC(=O)c1ccc(-c2c3nc(c(-c4c(F)c(F)c(F)c(F)c4F)c4ccc([nH]4)c(-c4c(F)c(F)c(F)c(F)c4F)c4nc(c(-c5c(F)c(F)c(F)c(F)c5F)c5ccc2[nH]5)C=C4)C=C3)cc1)c1ccc(C[C@H]2CCCC2=O)cc1
REMARK SMILES IDX 6 1 5 2 3 3 4 4 2 6 1 7 75 8 76 9 87 10 77 11 86 12 78 13
REMARK SMILES IDX 79 14 80 15 81 16 84 17 82 18 83 19 85 20 7 21 8 22 9 23
REMARK SMILES IDX 10 24 11 26 12 27 13 28 74 29 14 30 73 31 15 32 16 33 17 34
REMARK SMILES IDX 67 35 18 36 72 37 66 38 68 39 19 40 71 41 65 42 64 43 20 45
REMARK SMILES IDX 52 46 32 47 51 48 33 49 36 50 50 51 69 52 34 53 35 54 49 56
REMARK SMILES IDX 70 57 37 58 21 59 22 60 30 61 23 62 24 63 28 64 31 65 25 66
REMARK SMILES IDX 26 67 29 68 27 69 53 70 54 71 62 72 55 73 56 74 60 75 63 76
REMARK SMILES IDX 57 77 58 78 61 79 59 80 38 81 39 82 47 83 40 84 41 85 45 86
REMARK SMILES IDX 48 87 42 88 43 89 46 90 44 91
REMARK H PARENT 5 5 9 25 68 44 36 55
REMARK Flexibility Score: inf
ROOT
ATOM      1  C   UNL A   1      31.757  30.662  26.058  1.00  0.00     0.117 C 
ENDROOT
BRANCH   1   2
ATOM      2  N   UNL A   1      31.758  29.686  27.128  1.00  0.00    -0.356 N 
ATOM      3  C   UNL A   1      31.623  28.328  27.067  1.00  0.00     0.227 C 
ATOM      4  O   UNL A   1      31.189  27.785  28.083  1.00  0.00    -0.274 OA
ATOM      5  H   UNL A   1      31.872  30.055  28.034  1.00  0.00     0.163 HD
BRANCH   3   6
ATOM      6  C   UNL A   1      31.987  27.579  25.771  1.00  0.00     0.105 C 
ATOM      7  C   UNL A   1      30.700  27.392  24.956  1.00  0.00     0.023 C 
BRANCH   6   8
ATOM      8  C   UNL A   1      32.727  26.246  25.951  1.00  0.00    -0.036 A 
ATOM      9  C   UNL A   1      32.090  25.070  26.369  1.00  0.00     0.005 A 
ATOM     10  C   UNL A   1      34.114  26.173  25.720  1.00  0.00     0.005 A 
ATOM     11  C   UNL A   1      32.779  23.859  26.456  1.00  0.00     0.004 A 
ATOM     12  C   UNL A   1      34.814  24.966  25.834  1.00  0.00     0.004 A 
ATOM     13  C   UNL A   1      34.151  23.793  26.199  1.00  0.00    -0.047 A 
BRANCH  13  14
ATOM     14  C   UNL A   1      34.896  22.489  26.323  1.00  0.00     0.047 C 
BRANCH  14  15
ATOM     15  C   UNL A   1      35.201  21.754  25.013  1.00  0.00     0.060 C 
ATOM     16  C   UNL A   1      34.282  22.070  23.828  1.00  0.00     0.012 C 
ATOM     17  C   UNL A   1      36.562  22.099  24.456  1.00  0.00     0.136 C 
ATOM     18  C   UNL A   1      35.002  23.126  22.996  1.00  0.00     0.009 C 
ATOM     19  C   UNL A   1      36.488  22.824  23.139  1.00  0.00     0.076 C 
ATOM     20  O   UNL A   1      37.617  21.812  25.011  1.00  0.00    -0.299 OA
ENDBRANCH  14  15
ENDBRANCH  13  14
ENDBRANCH   6   8
ENDBRANCH   3   6
ENDBRANCH   1   2
BRANCH   1  21
ATOM     21  C   UNL A   1      31.473  32.066  26.600  1.00  0.00     0.042 C 
BRANCH  21  22
ATOM     22  C   UNL A   1      32.685  32.759  27.217  1.00  0.00     0.118 C 
BRANCH  22  23
ATOM     23  N   UNL A   1      32.409  34.135  27.596  1.00  0.00    -0.352 N 
ATOM     24  C   UNL A   1      32.977  34.903  28.580  1.00  0.00     0.251 C 
ATOM     25  H   UNL A   1      31.708  34.582  27.068  1.00  0.00     0.163 HD
ATOM     26  O   UNL A   1      32.472  35.984  28.881  1.00  0.00    -0.269 OA
BRANCH  24  27
ATOM     27  C   UNL A   1      34.178  34.429  29.302  1.00  0.00     0.039 A 
ATOM     28  C   UNL A   1      34.017  33.821  30.549  1.00  0.00     0.014 A 
ATOM     29  C   UNL A   1      35.457  34.590  28.761  1.00  0.00     0.014 A 
ATOM     30  C   UNL A   1      35.129  33.307  31.221  1.00  0.00     0.010 A 
ATOM     31  C   UNL A   1      36.555  34.013  29.396  1.00  0.00     0.010 A 
ATOM     32  C   UNL A   1      36.401  33.359  30.629  1.00  0.00    -0.014 A 
BRANCH  32  33
ATOM     33  C   UNL A   1      37.577  32.709  31.266  1.00  0.00     0.031 A 
ATOM     34  C   UNL A   1      38.247  31.537  30.606  1.00  0.00     0.074 A 
ATOM     35  C   UNL A   1      37.987  33.126  32.480  1.00  0.00     0.049 A 
ATOM     36  N   UNL A   1      39.216  30.778  31.054  1.00  0.00    -0.248 NA
ATOM     37  C   UNL A   1      37.747  31.148  29.278  1.00  0.00     0.031 C 
ATOM     38  C   UNL A   1      37.392  34.227  33.241  1.00  0.00     0.029 A 
ATOM     39  N   UNL A   1      38.986  32.661  33.300  1.00  0.00    -0.354 N 
ATOM     40  C   UNL A   1      39.425  29.814  30.076  1.00  0.00     0.074 A 
ATOM     41  C   UNL A   1      38.459  30.059  29.027  1.00  0.00     0.031 C 
ATOM     42  C   UNL A   1      38.043  34.358  34.408  1.00  0.00     0.029 A 
ATOM     43  C   UNL A   1      39.065  33.322  34.502  1.00  0.00     0.049 A 
ATOM     44  H   UNL A   1      39.588  31.923  33.050  1.00  0.00     0.167 HD
ATOM     45  C   UNL A   1      40.349  28.824  30.052  1.00  0.00     0.037 A 
ATOM     46  C   UNL A   1      39.857  33.104  35.570  1.00  0.00     0.037 A 
ATOM     47  C   UNL A   1      41.328  28.606  31.085  1.00  0.00     0.049 A 
ATOM     48  C   UNL A   1      40.859  31.980  35.522  1.00  0.00     0.074 A 
ATOM     49  C   UNL A   1      42.365  27.690  31.108  1.00  0.00     0.029 A 
ATOM     50  N   UNL A   1      41.384  29.303  32.282  1.00  0.00    -0.354 N 
ATOM     51  N   UNL A   1      41.110  31.135  34.552  1.00  0.00    -0.248 NA
ATOM     52  C   UNL A   1      41.688  31.778  36.720  1.00  0.00     0.031 C 
ATOM     53  C   UNL A   1      43.007  27.786  32.346  1.00  0.00     0.029 A 
ATOM     54  C   UNL A   1      42.412  28.806  33.069  1.00  0.00     0.049 A 
ATOM     55  H   UNL A   1      40.785  30.042  32.535  1.00  0.00     0.167 HD
ATOM     56  C   UNL A   1      42.139  30.323  35.010  1.00  0.00     0.074 A 
ATOM     57  C   UNL A   1      42.480  30.787  36.338  1.00  0.00     0.031 C 
ATOM     58  C   UNL A   1      42.746  29.284  34.385  1.00  0.00     0.037 A 
BRANCH  45  59
ATOM     59  C   UNL A   1      40.351  27.888  28.878  1.00  0.00     0.064 A 
ATOM     60  C   UNL A   1      41.111  28.147  27.727  1.00  0.00     0.173 A 
ATOM     61  C   UNL A   1      39.641  26.679  28.938  1.00  0.00     0.173 A 
ATOM     62  F   UNL A   1      41.802  29.290  27.617  1.00  0.00    -0.203 F 
ATOM     63  C   UNL A   1      41.141  27.239  26.671  1.00  0.00     0.198 A 
ATOM     64  C   UNL A   1      39.699  25.760  27.894  1.00  0.00     0.198 A 
ATOM     65  F   UNL A   1      38.906  26.379  30.019  1.00  0.00    -0.203 F 
ATOM     66  F   UNL A   1      41.844  27.524  25.566  1.00  0.00    -0.200 F 
ATOM     67  C   UNL A   1      40.444  26.043  26.759  1.00  0.00     0.200 A 
ATOM     68  F   UNL A   1      39.038  24.598  27.988  1.00  0.00    -0.200 F 
ATOM     69  F   UNL A   1      40.489  25.164  25.749  1.00  0.00    -0.200 F 
ENDBRANCH  45  59
BRANCH  46  70
ATOM     70  C   UNL A   1      39.732  33.955  36.784  1.00  0.00     0.064 A 
ATOM     71  C   UNL A   1      38.913  33.570  37.855  1.00  0.00     0.173 A 
ATOM     72  C   UNL A   1      40.401  35.184  36.887  1.00  0.00     0.173 A 
ATOM     73  F   UNL A   1      38.235  32.413  37.796  1.00  0.00    -0.203 F 
ATOM     74  C   UNL A   1      38.743  34.393  38.966  1.00  0.00     0.198 A 
ATOM     75  C   UNL A   1      40.258  35.990  38.013  1.00  0.00     0.198 A 
ATOM     76  F   UNL A   1      41.201  35.599  35.894  1.00  0.00    -0.203 F 
ATOM     77  F   UNL A   1      37.907  34.027  39.946  1.00  0.00    -0.200 F 
ATOM     78  C   UNL A   1      39.419  35.601  39.046  1.00  0.00     0.200 A 
ATOM     79  F   UNL A   1      40.925  37.149  38.094  1.00  0.00    -0.200 F 
ATOM     80  F   UNL A   1      39.254  36.394  40.114  1.00  0.00    -0.200 F 
ENDBRANCH  46  70
BRANCH  58  81
ATOM     81  C   UNL A   1      43.862  28.594  35.115  1.00  0.00     0.064 A 
ATOM     82  C   UNL A   1      45.192  29.028  35.005  1.00  0.00     0.173 A 
ATOM     83  C   UNL A   1      43.590  27.523  35.979  1.00  0.00     0.173 A 
ATOM     84  F   UNL A   1      45.508  30.035  34.178  1.00  0.00    -0.203 F 
ATOM     85  C   UNL A   1      46.210  28.401  35.721  1.00  0.00     0.198 A 
ATOM     86  C   UNL A   1      44.605  26.921  36.718  1.00  0.00     0.198 A 
ATOM     87  F   UNL A   1      42.335  27.074  36.125  1.00  0.00    -0.203 F 
ATOM     88  F   UNL A   1      47.479  28.804  35.567  1.00  0.00    -0.200 F 
ATOM     89  C   UNL A   1      45.913  27.357  36.584  1.00  0.00     0.200 A 
ATOM     90  F   UNL A   1      44.314  25.923  37.564  1.00  0.00    -0.200 F 
ATOM     91  F   UNL A   1      46.893  26.766  37.283  1.00  0.00    -0.200 F 
ENDBRANCH  58  81
ENDBRANCH  32  33
ENDBRANCH  24  27
ENDBRANCH  22  23
ENDBRANCH  21  22
ENDBRANCH   1  21
TORSDOF 13
ENDMDL
MODEL 2
REMARK VINA RESULT:     -12.5      5.656     11.262
REMARK SMILES C[C@@H](C(=O)NCCCNC(=O)c1ccc(-c2c3nc(c(-c4c(F)c(F)c(F)c(F)c4F)c4ccc([nH]4)c(-c4c(F)c(F)c(F)c(F)c4F)c4nc(c(-c5c(F)c(F)c(F)c(F)c5F)c5ccc2[nH]5)C=C4)C=C3)cc1)c1ccc(C[C@H]2CCCC2=O)cc1
REMARK SMILES IDX 6 1 5 2 3 3 4 4 2 6 1 7 75 8 76 9 87 10 77 11 86 12 78 13
REMARK SMILES IDX 79 14 80 15 81 16 84 17 82 18 83 19 85 20 7 21 8 22 9 23
REMARK SMILES IDX 10 24 11 26 12 27 13 28 74 29 14 30 73 31 15 32 16 33 17 34
REMARK SMILES IDX 67 35 18 36 72 37 66 38 68 39 19 40 71 41 65 42 64 43 20 45
REMARK SMILES IDX 52 46 32 47 51 48 33 49 36 50 50 51 69 52 34 53 35 54 49 56
REMARK SMILES IDX 70 57 37 58 21 59 22 60 30 61 23 62 24 63 28 64 31 65 25 66
REMARK SMILES IDX 26 67 29 68 27 69 53 70 54 71 62 72 55 73 56 74 60 75 63 76
REMARK SMILES IDX 57 77 58 78 61 79 59 80 38 81 39 82 47 83 40 84 41 85 45 86
REMARK SMILES IDX 48 87 42 88 43 89 46 90 44 91
REMARK H PARENT 5 5 9 25 68 44 36 55
REMARK Flexibility Score: inf
ROOT
ATOM      1  C   UNL A   1      36.653  20.357  25.342  1.00  0.00     0.117 C 
ENDROOT
BRANCH   1   2
ATOM      2  N   UNL A   1      36.731  21.634  26.023  1.00  0.00    -0.356 N 
ATOM      3  C   UNL A   1      36.410  22.881  25.569  1.00  0.00     0.227 C 
ATOM      4  O   UNL A   1      36.985  23.818  26.124  1.00  0.00    -0.274 OA
ATOM      5  H   UNL A   1      37.062  21.596  26.949  1.00  0.00     0.163 HD
BRANCH   3   6
ATOM      6  C   UNL A   1      35.401  23.043  24.417  1.00  0.00     0.105 C 
ATOM      7  C   UNL A   1      36.194  23.277  23.124  1.00  0.00     0.023 C 
BRANCH   6   8
ATOM      8  C   UNL A   1      34.327  24.123  24.612  1.00  0.00    -0.036 A 
ATOM      9  C   UNL A   1      34.022  25.081  23.635  1.00  0.00     0.005 A 
ATOM     10  C   UNL A   1      33.616  24.200  25.824  1.00  0.00     0.005 A 
ATOM     11  C   UNL A   1      32.992  26.005  23.817  1.00  0.00     0.004 A 
ATOM     12  C   UNL A   1      32.602  25.144  26.022  1.00  0.00     0.004 A 
ATOM     13  C   UNL A   1      32.275  26.054  25.015  1.00  0.00    -0.047 A 
BRANCH  13  14
ATOM     14  C   UNL A   1      31.184  27.074  25.218  1.00  0.00     0.047 C 
BRANCH  14  15
ATOM     15  C   UNL A   1      31.619  28.431  25.783  1.00  0.00     0.060 C 
ATOM     16  C   UNL A   1      32.054  28.446  27.252  1.00  0.00     0.012 C 
ATOM     17  C   UNL A   1      32.841  28.985  25.088  1.00  0.00     0.136 C 
ATOM     18  C   UNL A   1      33.576  28.351  27.250  1.00  0.00     0.009 C 
ATOM     19  C   UNL A   1      34.036  29.084  25.998  1.00  0.00     0.076 C 
ATOM     20  O   UNL A   1      32.858  29.325  23.911  1.00  0.00    -0.299 OA
ENDBRANCH  14  15
ENDBRANCH  13  14
ENDBRANCH   6   8
ENDBRANCH   3   6
ENDBRANCH   1   2
BRANCH   1  21
ATOM     21  C   UNL A   1      38.045  19.878  24.921  1.00  0.00     0.042 C 
BRANCH  21  22
ATOM     22  C   UNL A   1      39.149  20.185  25.929  1.00  0.00     0.118 C 
BRANCH  22  23
ATOM     23  N   UNL A   1      40.172  19.153  25.971  1.00  0.00    -0.352 N 
ATOM     24  C   UNL A   1      41.532  19.274  26.094  1.00  0.00     0.251 C 
ATOM     25  H   UNL A   1      39.838  18.230  25.899  1.00  0.00     0.163 HD
ATOM     26  O   UNL A   1      42.252  18.293  25.909  1.00  0.00    -0.269 OA
BRANCH  24  27
ATOM     27  C   UNL A   1      42.143  20.580  26.422  1.00  0.00     0.039 A 
ATOM     28  C   UNL A   1      42.552  21.412  25.377  1.00  0.00     0.014 A 
ATOM     29  C   UNL A   1      42.324  20.982  27.749  1.00  0.00     0.014 A 
ATOM     30  C   UNL A   1      43.071  22.679  25.659  1.00  0.00     0.010 A 
ATOM     31  C   UNL A   1      42.774  22.271  28.027  1.00  0.00     0.010 A 
ATOM     32  C   UNL A   1      43.145  23.136  26.984  1.00  0.00    -0.014 A 
BRANCH  32  33
ATOM     33  C   UNL A   1      43.577  24.522  27.301  1.00  0.00     0.031 A 
ATOM     34  C   UNL A   1      42.577  25.538  27.778  1.00  0.00     0.074 A 
ATOM     35  C   UNL A   1      44.855  24.885  27.078  1.00  0.00     0.049 A 
ATOM     36  N   UNL A   1      42.743  26.818  28.006  1.00  0.00    -0.248 NA
ATOM     37  C   UNL A   1      41.204  25.063  28.006  1.00  0.00     0.031 C 
ATOM     38  C   UNL A   1      45.910  24.000  26.578  1.00  0.00     0.029 A 
ATOM     39  N   UNL A   1      45.483  26.098  27.222  1.00  0.00    -0.354 N 
ATOM     40  C   UNL A   1      41.496  27.300  28.381  1.00  0.00     0.074 A 
ATOM     41  C   UNL A   1      40.574  26.186  28.315  1.00  0.00     0.031 C 
ATOM     42  C   UNL A   1      47.053  24.696  26.467  1.00  0.00     0.029 A 
ATOM     43  C   UNL A   1      46.803  26.084  26.838  1.00  0.00     0.049 A 
ATOM     44  H   UNL A   1      45.031  26.901  27.566  1.00  0.00     0.167 HD
ATOM     45  C   UNL A   1      41.156  28.556  28.758  1.00  0.00     0.037 A 
ATOM     46  C   UNL A   1      47.705  27.083  26.770  1.00  0.00     0.037 A 
ATOM     47  C   UNL A   1      42.085  29.651  28.852  1.00  0.00     0.049 A 
ATOM     48  C   UNL A   1      47.290  28.473  27.175  1.00  0.00     0.074 A 
ATOM     49  C   UNL A   1      41.857  30.936  29.314  1.00  0.00     0.029 A 
ATOM     50  N   UNL A   1      43.416  29.596  28.466  1.00  0.00    -0.354 N 
ATOM     51  N   UNL A   1      46.132  28.896  27.618  1.00  0.00    -0.248 NA
ATOM     52  C   UNL A   1      48.310  29.527  27.068  1.00  0.00     0.031 C 
ATOM     53  C   UNL A   1      43.030  31.677  29.145  1.00  0.00     0.029 A 
ATOM     54  C   UNL A   1      44.009  30.838  28.638  1.00  0.00     0.049 A 
ATOM     55  H   UNL A   1      43.872  28.795  28.121  1.00  0.00     0.167 HD
ATOM     56  C   UNL A   1      46.290  30.253  27.868  1.00  0.00     0.074 A 
ATOM     57  C   UNL A   1      47.663  30.580  27.545  1.00  0.00     0.031 C 
ATOM     58  C   UNL A   1      45.379  31.147  28.322  1.00  0.00     0.037 A 
BRANCH  45  59
ATOM     59  C   UNL A   1      39.719  28.828  29.095  1.00  0.00     0.064 A 
ATOM     60  C   UNL A   1      39.220  28.666  30.396  1.00  0.00     0.173 A 
ATOM     61  C   UNL A   1      38.847  29.328  28.116  1.00  0.00     0.173 A 
ATOM     62  F   UNL A   1      40.010  28.185  31.368  1.00  0.00    -0.203 F 
ATOM     63  C   UNL A   1      37.896  28.975  30.699  1.00  0.00     0.198 A 
ATOM     64  C   UNL A   1      37.533  29.666  28.429  1.00  0.00     0.198 A 
ATOM     65  F   UNL A   1      39.275  29.510  26.858  1.00  0.00    -0.203 F 
ATOM     66  F   UNL A   1      37.432  28.778  31.941  1.00  0.00    -0.200 F 
ATOM     67  C   UNL A   1      37.057  29.484  29.718  1.00  0.00     0.200 A 
ATOM     68  F   UNL A   1      36.729  30.172  27.484  1.00  0.00    -0.200 F 
ATOM     69  F   UNL A   1      35.789  29.797  30.016  1.00  0.00    -0.200 F 
ENDBRANCH  45  59
BRANCH  46  70
ATOM     70  C   UNL A   1      49.087  26.815  26.290  1.00  0.00     0.064 A 
ATOM     71  C   UNL A   1      49.432  26.999  24.943  1.00  0.00     0.173 A 
ATOM     72  C   UNL A   1      50.083  26.340  27.155  1.00  0.00     0.173 A 
ATOM     73  F   UNL A   1      48.510  27.433  24.070  1.00  0.00    -0.203 F 
ATOM     74  C   UNL A   1      50.707  26.689  24.475  1.00  0.00     0.198 A 
ATOM     75  C   UNL A   1      51.368  26.063  26.694  1.00  0.00     0.198 A 
ATOM     76  F   UNL A   1      49.809  26.150  28.455  1.00  0.00    -0.203 F 
ATOM     77  F   UNL A   1      50.990  26.818  23.172  1.00  0.00    -0.200 F 
ATOM     78  C   UNL A   1      51.676  26.226  25.352  1.00  0.00     0.200 A 
ATOM     79  F   UNL A   1      52.305  25.630  27.548  1.00  0.00    -0.200 F 
ATOM     80  F   UNL A   1      52.902  25.926  24.902  1.00  0.00    -0.200 F 
ENDBRANCH  46  70
BRANCH  58  81
ATOM     81  C   UNL A   1      45.839  32.561  28.528  1.00  0.00     0.064 A 
ATOM     82  C   UNL A   1      46.438  32.972  29.728  1.00  0.00     0.173 A 
ATOM     83  C   UNL A   1      45.732  33.501  27.492  1.00  0.00     0.173 A 
ATOM     84  F   UNL A   1      46.548  32.118  30.756  1.00  0.00    -0.203 F 
ATOM     85  C   UNL A   1      46.897  34.279  29.888  1.00  0.00     0.198 A 
ATOM     86  C   UNL A   1      46.222  34.796  27.643  1.00  0.00     0.198 A 
ATOM     87  F   UNL A   1      45.173  33.157  26.322  1.00  0.00    -0.203 F 
ATOM     88  F   UNL A   1      47.427  34.661  31.057  1.00  0.00    -0.200 F 
ATOM     89  C   UNL A   1      46.798  35.184  28.842  1.00  0.00     0.200 A 
ATOM     90  F   UNL A   1      46.140  35.664  26.626  1.00  0.00    -0.200 F 
ATOM     91  F   UNL A   1      47.254  36.436  28.993  1.00  0.00    -0.200 F 
ENDBRANCH  58  81
ENDBRANCH  32  33
ENDBRANCH  24  27
ENDBRANCH  22  23
ENDBRANCH  21  22
ENDBRANCH   1  21
TORSDOF 13
ENDMDL
MODEL 3
REMARK VINA RESULT:     -12.4      1.023      2.057
REMARK SMILES C[C@@H](C(=O)NCCCNC(=O)c1ccc(-c2c3nc(c(-c4c(F)c(F)c(F)c(F)c4F)c4ccc([nH]4)c(-c4c(F)c(F)c(F)c(F)c4F)c4nc(c(-c5c(F)c(F)c(F)c(F)c5F)c5ccc2[nH]5)C=C4)C=C3)cc1)c1ccc(C[C@H]2CCCC2=O)cc1
REMARK SMILES IDX 6 1 5 2 3 3 4 4 2 6 1 7 75 8 76 9 87 10 77 11 86 12 78 13
REMARK SMILES IDX 79 14 80 15 81 16 84 17 82 18 83 19 85 20 7 21 8 22 9 23
REMARK SMILES IDX 10 24 11 26 12 27 13 28 74 29 14 30 73 31 15 32 16 33 17 34
REMARK SMILES IDX 67 35 18 36 72 37 66 38 68 39 19 40 71 41 65 42 64 43 20 45
REMARK SMILES IDX 52 46 32 47 51 48 33 49 36 50 50 51 69 52 34 53 35 54 49 56
REMARK SMILES IDX 70 57 37 58 21 59 22 60 30 61 23 62 24 63 28 64 31 65 25 66
REMARK SMILES IDX 26 67 29 68 27 69 53 70 54 71 62 72 55 73 56 74 60 75 63 76
REMARK SMILES IDX 57 77 58 78 61 79 59 80 38 81 39 82 47 83 40 84 41 85 45 86
REMARK SMILES IDX 48 87 42 88 43 89 46 90 44 91
REMARK H PARENT 5 5 9 25 68 44 36 55
REMARK Flexibility Score: inf
ROOT
ATOM      1  C   UNL A   1      31.481  30.648  26.552  1.00  0.00     0.117 C 
ENDROOT
BRANCH   1   2
ATOM      2  N   UNL A   1      31.786  30.086  25.253  1.00  0.00    -0.356 N 
ATOM      3  C   UNL A   1      32.658  29.088  24.921  1.00  0.00     0.227 C 
ATOM      4  O   UNL A   1      33.085  29.111  23.766  1.00  0.00    -0.274 OA
ATOM      5  H   UNL A   1      31.293  30.481  24.498  1.00  0.00     0.163 HD
BRANCH   3   6
ATOM      6  C   UNL A   1      33.060  28.039  25.974  1.00  0.00     0.105 C 
ATOM      7  C   UNL A   1      34.403  28.468  26.579  1.00  0.00     0.023 C 
BRANCH   6   8
ATOM      8  C   UNL A   1      33.112  26.583  25.486  1.00  0.00    -0.036 A 
ATOM      9  C   UNL A   1      32.007  25.724  25.533  1.00  0.00     0.005 A 
ATOM     10  C   UNL A   1      34.316  26.049  24.989  1.00  0.00     0.005 A 
ATOM     11  C   UNL A   1      32.069  24.427  25.017  1.00  0.00     0.004 A 
ATOM     12  C   UNL A   1      34.391  24.741  24.498  1.00  0.00     0.004 A 
ATOM     13  C   UNL A   1      33.264  23.917  24.502  1.00  0.00    -0.047 A 
BRANCH  13  14
ATOM     14  C   UNL A   1      33.334  22.506  23.974  1.00  0.00     0.047 C 
BRANCH  14  15
ATOM     15  C   UNL A   1      33.300  21.387  25.021  1.00  0.00     0.060 C 
ATOM     16  C   UNL A   1      32.203  20.332  24.850  1.00  0.00     0.012 C 
ATOM     17  C   UNL A   1      34.553  20.544  25.010  1.00  0.00     0.136 C 
ATOM     18  C   UNL A   1      32.848  19.156  24.124  1.00  0.00     0.009 C 
ATOM     19  C   UNL A   1      34.294  19.119  24.597  1.00  0.00     0.076 C 
ATOM     20  O   UNL A   1      35.662  20.968  25.313  1.00  0.00    -0.299 OA
ENDBRANCH  14  15
ENDBRANCH  13  14
ENDBRANCH   6   8
ENDBRANCH   3   6
ENDBRANCH   1   2
BRANCH   1  21
ATOM     21  C   UNL A   1      31.523  32.178  26.509  1.00  0.00     0.042 C 
BRANCH  21  22
ATOM     22  C   UNL A   1      32.652  32.800  27.326  1.00  0.00     0.118 C 
BRANCH  22  23
ATOM     23  N   UNL A   1      32.412  34.199  27.637  1.00  0.00    -0.352 N 
ATOM     24  C   UNL A   1      33.001  35.000  28.583  1.00  0.00     0.251 C 
ATOM     25  H   UNL A   1      31.724  34.638  27.087  1.00  0.00     0.163 HD
ATOM     26  O   UNL A   1      32.524  36.107  28.830  1.00  0.00    -0.269 OA
BRANCH  24  27
ATOM     27  C   UNL A   1      34.188  34.531  29.328  1.00  0.00     0.039 A 
ATOM     28  C   UNL A   1      34.011  33.981  30.600  1.00  0.00     0.014 A 
ATOM     29  C   UNL A   1      35.472  34.640  28.786  1.00  0.00     0.014 A 
ATOM     30  C   UNL A   1      35.110  33.471  31.297  1.00  0.00     0.010 A 
ATOM     31  C   UNL A   1      36.555  34.066  29.449  1.00  0.00     0.010 A 
ATOM     32  C   UNL A   1      36.384  33.469  30.708  1.00  0.00    -0.014 A 
BRANCH  32  33
ATOM     33  C   UNL A   1      37.543  32.821  31.376  1.00  0.00     0.031 A 
ATOM     34  C   UNL A   1      38.221  31.639  30.743  1.00  0.00     0.074 A 
ATOM     35  C   UNL A   1      37.930  33.250  32.593  1.00  0.00     0.049 A 
ATOM     36  N   UNL A   1      39.177  30.881  31.219  1.00  0.00    -0.248 NA
ATOM     37  C   UNL A   1      37.747  31.238  29.410  1.00  0.00     0.031 C 
ATOM     38  C   UNL A   1      37.325  34.362  33.330  1.00  0.00     0.029 A 
ATOM     39  N   UNL A   1      38.910  32.790  33.439  1.00  0.00    -0.354 N 
ATOM     40  C   UNL A   1      39.402  29.905  30.256  1.00  0.00     0.074 A 
ATOM     41  C   UNL A   1      38.458  30.143  29.185  1.00  0.00     0.031 C 
ATOM     42  C   UNL A   1      37.952  34.504  34.508  1.00  0.00     0.029 A 
ATOM     43  C   UNL A   1      38.968  33.464  34.635  1.00  0.00     0.049 A 
ATOM     44  H   UNL A   1      39.513  32.046  33.210  1.00  0.00     0.167 HD
ATOM     45  C   UNL A   1      40.322  28.911  30.263  1.00  0.00     0.037 A 
ATOM     46  C   UNL A   1      39.737  33.254  35.722  1.00  0.00     0.037 A 
ATOM     47  C   UNL A   1      41.278  28.700  31.318  1.00  0.00     0.049 A 
ATOM     48  C   UNL A   1      40.734  32.125  35.707  1.00  0.00     0.074 A 
ATOM     49  C   UNL A   1      42.310  27.779  31.372  1.00  0.00     0.029 A 
ATOM     50  N   UNL A   1      41.313  29.410  32.508  1.00  0.00    -0.354 N 
ATOM     51  N   UNL A   1      41.001  31.269  34.751  1.00  0.00    -0.248 NA
ATOM     52  C   UNL A   1      41.537  31.933  36.924  1.00  0.00     0.031 C 
ATOM     53  C   UNL A   1      42.927  27.886  32.622  1.00  0.00     0.029 A 
ATOM     54  C   UNL A   1      42.322  28.917  33.322  1.00  0.00     0.049 A 
ATOM     55  H   UNL A   1      40.712  30.154  32.741  1.00  0.00     0.167 HD
ATOM     56  C   UNL A   1      42.017  30.458  35.239  1.00  0.00     0.074 A 
ATOM     57  C   UNL A   1      42.332  30.935  36.569  1.00  0.00     0.031 C 
ATOM     58  C   UNL A   1      42.631  29.409  34.639  1.00  0.00     0.037 A 
BRANCH  45  59
ATOM     59  C   UNL A   1      40.344  27.962  29.100  1.00  0.00     0.064 A 
ATOM     60  C   UNL A   1      39.578  26.786  29.089  1.00  0.00     0.173 A 
ATOM     61  C   UNL A   1      41.084  28.273  27.949  1.00  0.00     0.173 A 
ATOM     62  F   UNL A   1      38.857  26.439  30.166  1.00  0.00    -0.203 F 
ATOM     63  C   UNL A   1      39.571  25.946  27.978  1.00  0.00     0.198 A 
ATOM     64  C   UNL A   1      41.050  27.447  26.828  1.00  0.00     0.198 A 
ATOM     65  F   UNL A   1      41.827  29.389  27.903  1.00  0.00    -0.203 F 
ATOM     66  F   UNL A   1      38.862  24.810  28.004  1.00  0.00    -0.200 F 
ATOM     67  C   UNL A   1      40.299  26.282  26.845  1.00  0.00     0.200 A 
ATOM     68  F   UNL A   1      41.741  27.783  25.730  1.00  0.00    -0.200 F 
ATOM     69  F   UNL A   1      40.276  25.482  25.771  1.00  0.00    -0.200 F 
ENDBRANCH  45  59
BRANCH  46  70
ATOM     70  C   UNL A   1      39.591  34.120  36.923  1.00  0.00     0.064 A 
ATOM     71  C   UNL A   1      40.254  35.352  37.009  1.00  0.00     0.173 A 
ATOM     72  C   UNL A   1      38.814  33.722  38.021  1.00  0.00     0.173 A 
ATOM     73  F   UNL A   1      41.026  35.769  35.994  1.00  0.00    -0.203 F 
ATOM     74  C   UNL A   1      40.171  36.138  38.157  1.00  0.00     0.198 A 
ATOM     75  C   UNL A   1      38.703  34.524  39.154  1.00  0.00     0.198 A 
ATOM     76  F   UNL A   1      38.154  32.554  37.990  1.00  0.00    -0.203 F 
ATOM     77  F   UNL A   1      40.864  37.281  38.235  1.00  0.00    -0.200 F 
ATOM     78  C   UNL A   1      39.392  35.725  39.227  1.00  0.00     0.200 A 
ATOM     79  F   UNL A   1      37.937  34.128  40.180  1.00  0.00    -0.200 F 
ATOM     80  F   UNL A   1      39.314  36.479  40.332  1.00  0.00    -0.200 F 
ENDBRANCH  46  70
BRANCH  58  81
ATOM     81  C   UNL A   1      43.729  28.722  35.399  1.00  0.00     0.064 A 
ATOM     82  C   UNL A   1      45.071  29.107  35.262  1.00  0.00     0.173 A 
ATOM     83  C   UNL A   1      43.428  27.705  36.318  1.00  0.00     0.173 A 
ATOM     84  F   UNL A   1      45.414  30.061  34.384  1.00  0.00    -0.203 F 
ATOM     85  C   UNL A   1      46.073  28.486  36.006  1.00  0.00     0.198 A 
ATOM     86  C   UNL A   1      44.427  27.110  37.083  1.00  0.00     0.198 A 
ATOM     87  F   UNL A   1      42.160  27.304  36.491  1.00  0.00    -0.203 F 
ATOM     88  F   UNL A   1      47.352  28.840  35.828  1.00  0.00    -0.200 F 
ATOM     89  C   UNL A   1      45.748  27.497  36.922  1.00  0.00     0.200 A 
ATOM     90  F   UNL A   1      44.109  26.166  37.980  1.00  0.00    -0.200 F 
ATOM     91  F   UNL A   1      46.712  26.912  37.648  1.00  0.00    -0.200 F 
ENDBRANCH  58  81
ENDBRANCH  32  33
ENDBRANCH  24  27
ENDBRANCH  22  23
ENDBRANCH  21  22
ENDBRANCH   1  21
TORSDOF 13
ENDMDL
