MODEL 1
REMARK VINA RESULT:     -11.3      0.000      0.000
REMARK SMILES CCCCCCNC(=O)Oc1cccc(-c2ccc([C@@H](C)C(=O)NCCCNC(=O)c3ccc(-c4c5nc(c(-c6c(F)c(F)c(F)c(F)c6F)c6ccc([nH]6)c(-c6c(F)c(F)c(F)c(F)c6F)c6nc(c(-c7c(F)c(F)c(F)c(F)c7F)c7ccc4[nH]7)C=C6)C=C5)cc3)cc2N)c1
REMARK SMILES IDX 16 1 17 2 18 3 19 4 94 5 95 6 15 7 11 8 12 9 97 10 13 11
REMARK SMILES IDX 14 12 10 13 8 14 7 15 9 17 6 18 5 19 4 20 3 21 2 22 1 23
REMARK SMILES IDX 96 24 20 27 21 28 22 29 23 30 24 31 25 33 26 34 27 35 28 36
REMARK SMILES IDX 29 37 30 39 31 40 32 41 93 42 33 43 92 44 34 45 35 46 36 47
REMARK SMILES IDX 86 48 37 49 91 50 85 51 87 52 38 53 90 54 84 55 83 56 39 58
REMARK SMILES IDX 71 59 51 60 70 61 52 62 55 63 69 64 88 65 53 66 54 67 68 69
REMARK SMILES IDX 89 70 56 71 40 72 41 73 49 74 42 75 43 76 47 77 50 78 44 79
REMARK SMILES IDX 45 80 48 81 46 82 72 83 73 84 81 85 74 86 75 87 79 88 82 89
REMARK SMILES IDX 76 90 77 91 80 92 78 93 57 94 58 95 66 96 59 97 60 98 64 99
REMARK SMILES IDX 67 100 61 101 62 102 65 103 63 104
REMARK H PARENT 7 16 96 25 96 26 24 32 28 38 87 57 55 68
REMARK Flexibility Score: inf
ROOT
ATOM      1  C   UNL A   1      36.321  23.128  25.780  1.00  0.00     0.005 A 
ATOM      2  C   UNL A   1      35.422  23.165  26.862  1.00  0.00     0.011 A 
ATOM      3  C   UNL A   1      34.043  23.304  26.676  1.00  0.00     0.005 A 
ATOM      4  C   UNL A   1      33.516  23.519  25.405  1.00  0.00    -0.034 A 
ATOM      5  C   UNL A   1      34.400  23.450  24.317  1.00  0.00     0.030 A 
ATOM      6  C   UNL A   1      35.771  23.176  24.478  1.00  0.00     0.040 A 
ENDROOT
BRANCH   1   7
ATOM      7  C   UNL A   1      37.779  23.044  26.059  1.00  0.00    -0.013 A 
ATOM      8  C   UNL A   1      39.869  21.795  26.125  1.00  0.00     0.133 A 
ATOM      9  C   UNL A   1      40.556  22.904  26.605  1.00  0.00     0.047 A 
ATOM     10  C   UNL A   1      38.504  21.861  25.835  1.00  0.00     0.056 A 
ATOM     11  C   UNL A   1      39.868  24.097  26.797  1.00  0.00     0.004 A 
ATOM     12  C   UNL A   1      38.494  24.160  26.541  1.00  0.00     0.009 A 
BRANCH   8  13
ATOM     13  O   UNL A   1      40.567  20.574  26.117  1.00  0.00    -0.410 OA
BRANCH  13  14
ATOM     14  C   UNL A   1      41.256  20.163  27.248  1.00  0.00     0.412 C 
ATOM     15  N   UNL A   1      42.586  19.942  27.007  1.00  0.00    -0.321 N 
ATOM     16  H   UNL A   1      43.121  19.609  27.763  1.00  0.00     0.167 HD
ATOM     17  O   UNL A   1      40.776  19.991  28.361  1.00  0.00    -0.224 OA
BRANCH  15  18
ATOM     18  C   UNL A   1      43.285  20.148  25.754  1.00  0.00     0.119 C 
BRANCH  18  19
ATOM     19  C   UNL A   1      43.724  18.829  25.117  1.00  0.00     0.021 C 
BRANCH  19  20
ATOM     20  C   UNL A   1      45.230  18.706  24.855  1.00  0.00     0.002 C 
BRANCH  20  21
ATOM     21  C   UNL A   1      46.083  19.886  25.337  1.00  0.00    -0.000 C 
BRANCH  21  22
ATOM     22  C   UNL A   1      46.508  20.877  24.251  1.00  0.00    -0.003 C 
ATOM     23  C   UNL A   1      46.258  22.329  24.630  1.00  0.00     0.004 C 
ENDBRANCH  21  22
ENDBRANCH  20  21
ENDBRANCH  19  20
ENDBRANCH  18  19
ENDBRANCH  15  18
ENDBRANCH  13  14
ENDBRANCH   8  13
ENDBRANCH   1   7
BRANCH   6  24
ATOM     24  N   UNL A   1      36.553  23.072  23.325  1.00  0.00    -0.398 N 
ATOM     25  H   UNL A   1      37.123  22.280  23.187  1.00  0.00     0.156 HD
ATOM     26  H   UNL A   1      36.536  23.790  22.652  1.00  0.00     0.156 HD
ENDBRANCH   6  24
BRANCH   4  27
ATOM     27  C   UNL A   1      32.049  23.841  25.162  1.00  0.00     0.105 C 
ATOM     28  C   UNL A   1      31.225  22.708  24.552  1.00  0.00     0.023 C 
BRANCH  27  29
ATOM     29  C   UNL A   1      31.370  24.575  26.328  1.00  0.00     0.227 C 
ATOM     30  O   UNL A   1      30.772  23.928  27.197  1.00  0.00    -0.274 OA
ATOM     31  N   UNL A   1      31.383  25.925  26.496  1.00  0.00    -0.356 N 
ATOM     32  H   UNL A   1      30.961  26.227  27.333  1.00  0.00     0.163 HD
BRANCH  31  33
ATOM     33  C   UNL A   1      31.901  27.004  25.678  1.00  0.00     0.117 C 
BRANCH  33  34
ATOM     34  C   UNL A   1      33.202  27.577  26.234  1.00  0.00     0.042 C 
BRANCH  34  35
ATOM     35  C   UNL A   1      33.743  28.759  25.441  1.00  0.00     0.118 C 
BRANCH  35  36
ATOM     36  N   UNL A   1      33.176  30.027  25.885  1.00  0.00    -0.352 N 
ATOM     37  C   UNL A   1      33.536  30.856  26.919  1.00  0.00     0.251 C 
ATOM     38  H   UNL A   1      32.409  30.341  25.355  1.00  0.00     0.163 HD
ATOM     39  O   UNL A   1      32.780  31.768  27.246  1.00  0.00    -0.269 OA
BRANCH  37  40
ATOM     40  C   UNL A   1      34.806  30.664  27.656  1.00  0.00     0.039 A 
ATOM     41  C   UNL A   1      35.728  31.717  27.691  1.00  0.00     0.014 A 
ATOM     42  C   UNL A   1      35.127  29.447  28.260  1.00  0.00     0.014 A 
ATOM     43  C   UNL A   1      36.934  31.570  28.382  1.00  0.00     0.010 A 
ATOM     44  C   UNL A   1      36.292  29.326  29.016  1.00  0.00     0.010 A 
ATOM     45  C   UNL A   1      37.211  30.385  29.079  1.00  0.00    -0.014 A 
BRANCH  45  46
ATOM     46  C   UNL A   1      38.455  30.223  29.875  1.00  0.00     0.031 A 
ATOM     47  C   UNL A   1      39.617  29.451  29.313  1.00  0.00     0.074 A 
ATOM     48  C   UNL A   1      38.511  30.706  31.130  1.00  0.00     0.049 A 
ATOM     49  N   UNL A   1      40.745  29.114  29.886  1.00  0.00    -0.248 NA
ATOM     50  C   UNL A   1      39.483  28.973  27.927  1.00  0.00     0.031 C 
ATOM     51  C   UNL A   1      37.436  31.435  31.805  1.00  0.00     0.029 A 
ATOM     52  N   UNL A   1      39.508  30.640  32.073  1.00  0.00    -0.354 N 
ATOM     53  C   UNL A   1      41.441  28.368  28.943  1.00  0.00     0.074 A 
ATOM     54  C   UNL A   1      40.591  28.264  27.777  1.00  0.00     0.031 C 
ATOM     55  C   UNL A   1      37.835  31.762  33.044  1.00  0.00     0.029 A 
ATOM     56  C   UNL A   1      39.177  31.231  33.267  1.00  0.00     0.049 A 
ATOM     57  H   UNL A   1      40.378  30.210  31.907  1.00  0.00     0.167 HD
ATOM     58  C   UNL A   1      42.683  27.836  29.036  1.00  0.00     0.037 A 
ATOM     59  C   UNL A   1      39.871  31.322  34.417  1.00  0.00     0.037 A 
ATOM     60  C   UNL A   1      43.536  27.965  30.188  1.00  0.00     0.049 A 
ATOM     61  C   UNL A   1      41.244  30.715  34.496  1.00  0.00     0.074 A 
ATOM     62  C   UNL A   1      44.834  27.515  30.357  1.00  0.00     0.029 A 
ATOM     63  N   UNL A   1      43.171  28.589  31.373  1.00  0.00    -0.354 N 
ATOM     64  N   UNL A   1      41.918  30.068  33.577  1.00  0.00    -0.248 NA
ATOM     65  C   UNL A   1      41.958  30.855  35.774  1.00  0.00     0.031 C 
ATOM     66  C   UNL A   1      45.240  27.831  31.658  1.00  0.00     0.029 A 
ATOM     67  C   UNL A   1      44.213  28.517  32.284  1.00  0.00     0.049 A 
ATOM     68  H   UNL A   1      42.301  29.018  31.541  1.00  0.00     0.167 HD
ATOM     69  C   UNL A   1      43.139  29.745  34.153  1.00  0.00     0.074 A 
ATOM     70  C   UNL A   1      43.121  30.283  35.498  1.00  0.00     0.031 C 
ATOM     71  C   UNL A   1      44.181  29.065  33.616  1.00  0.00     0.037 A 
BRANCH  58  72
ATOM     72  C   UNL A   1      43.198  27.067  27.852  1.00  0.00     0.064 A 
ATOM     73  C   UNL A   1      43.819  27.711  26.771  1.00  0.00     0.173 A 
ATOM     74  C   UNL A   1      43.100  25.668  27.814  1.00  0.00     0.173 A 
ATOM     75  F   UNL A   1      43.929  29.048  26.755  1.00  0.00    -0.203 F 
ATOM     76  C   UNL A   1      44.295  26.986  25.682  1.00  0.00     0.198 A 
ATOM     77  C   UNL A   1      43.604  24.944  26.737  1.00  0.00     0.198 A 
ATOM     78  F   UNL A   1      42.524  25.001  28.825  1.00  0.00    -0.203 F 
ATOM     79  F   UNL A   1      44.838  27.627  24.639  1.00  0.00    -0.200 F 
ATOM     80  C   UNL A   1      44.192  25.604  25.668  1.00  0.00     0.200 A 
ATOM     81  F   UNL A   1      43.517  23.606  26.731  1.00  0.00    -0.200 F 
ATOM     82  F   UNL A   1      44.655  24.906  24.622  1.00  0.00    -0.200 F 
ENDBRANCH  58  72
BRANCH  59  83
ATOM     83  C   UNL A   1      39.284  32.038  35.580  1.00  0.00     0.064 A 
ATOM     84  C   UNL A   1      38.450  31.369  36.486  1.00  0.00     0.173 A 
ATOM     85  C   UNL A   1      39.545  33.396  35.811  1.00  0.00     0.173 A 
ATOM     86  F   UNL A   1      38.153  30.075  36.293  1.00  0.00    -0.203 F 
ATOM     87  C   UNL A   1      37.887  32.035  37.572  1.00  0.00     0.198 A 
ATOM     88  C   UNL A   1      39.004  34.054  36.913  1.00  0.00     0.198 A 
ATOM     89  F   UNL A   1      40.338  34.081  34.975  1.00  0.00    -0.203 F 
ATOM     90  F   UNL A   1      37.060  31.383  38.399  1.00  0.00    -0.200 F 
ATOM     91  C   UNL A   1      38.168  33.376  37.788  1.00  0.00     0.200 A 
ATOM     92  F   UNL A   1      39.289  35.346  37.128  1.00  0.00    -0.200 F 
ATOM     93  F   UNL A   1      37.631  34.014  38.836  1.00  0.00    -0.200 F 
ENDBRANCH  59  83
BRANCH  71  94
ATOM     94  C   UNL A   1      45.403  28.892  34.470  1.00  0.00     0.064 A 
ATOM     95  C   UNL A   1      45.600  27.740  35.245  1.00  0.00     0.173 A 
ATOM     96  C   UNL A   1      46.407  29.871  34.478  1.00  0.00     0.173 A 
ATOM     97  F   UNL A   1      44.661  26.783  35.283  1.00  0.00    -0.203 F 
ATOM     98  C   UNL A   1      46.751  27.583  36.013  1.00  0.00     0.198 A 
ATOM     99  C   UNL A   1      47.569  29.699  35.225  1.00  0.00     0.198 A 
ATOM    100  F   UNL A   1      46.268  30.989  33.751  1.00  0.00    -0.203 F 
ATOM    101  F   UNL A   1      46.900  26.494  36.779  1.00  0.00    -0.200 F 
ATOM    102  C   UNL A   1      47.737  28.558  35.996  1.00  0.00     0.200 A 
ATOM    103  F   UNL A   1      48.526  30.636  35.198  1.00  0.00    -0.200 F 
ATOM    104  F   UNL A   1      48.848  28.402  36.729  1.00  0.00    -0.200 F 
ENDBRANCH  71  94
ENDBRANCH  45  46
ENDBRANCH  37  40
ENDBRANCH  35  36
ENDBRANCH  34  35
ENDBRANCH  33  34
ENDBRANCH  31  33
ENDBRANCH  27  29
ENDBRANCH   4  27
TORSDOF 20
ENDMDL
MODEL 2
REMARK VINA RESULT:     -11.2      1.135      2.248
REMARK SMILES CCCCCCNC(=O)Oc1cccc(-c2ccc([C@@H](C)C(=O)NCCCNC(=O)c3ccc(-c4c5nc(c(-c6c(F)c(F)c(F)c(F)c6F)c6ccc([nH]6)c(-c6c(F)c(F)c(F)c(F)c6F)c6nc(c(-c7c(F)c(F)c(F)c(F)c7F)c7ccc4[nH]7)C=C6)C=C5)cc3)cc2N)c1
REMARK SMILES IDX 16 1 17 2 18 3 19 4 94 5 95 6 15 7 11 8 12 9 97 10 13 11
REMARK SMILES IDX 14 12 10 13 8 14 7 15 9 17 6 18 5 19 4 20 3 21 2 22 1 23
REMARK SMILES IDX 96 24 20 27 21 28 22 29 23 30 24 31 25 33 26 34 27 35 28 36
REMARK SMILES IDX 29 37 30 39 31 40 32 41 93 42 33 43 92 44 34 45 35 46 36 47
REMARK SMILES IDX 86 48 37 49 91 50 85 51 87 52 38 53 90 54 84 55 83 56 39 58
REMARK SMILES IDX 71 59 51 60 70 61 52 62 55 63 69 64 88 65 53 66 54 67 68 69
REMARK SMILES IDX 89 70 56 71 40 72 41 73 49 74 42 75 43 76 47 77 50 78 44 79
REMARK SMILES IDX 45 80 48 81 46 82 72 83 73 84 81 85 74 86 75 87 79 88 82 89
REMARK SMILES IDX 76 90 77 91 80 92 78 93 57 94 58 95 66 96 59 97 60 98 64 99
REMARK SMILES IDX 67 100 61 101 62 102 65 103 63 104
REMARK H PARENT 7 16 96 25 96 26 24 32 28 38 87 57 55 68
REMARK Flexibility Score: inf
ROOT
ATOM      1  C   UNL A   1      38.551  22.076  26.056  1.00  0.00     0.005 A 
ATOM      2  C   UNL A   1      38.253  23.410  26.393  1.00  0.00     0.011 A 
ATOM      3  C   UNL A   1      37.069  24.031  25.986  1.00  0.00     0.005 A 
ATOM      4  C   UNL A   1      36.181  23.379  25.135  1.00  0.00    -0.034 A 
ATOM      5  C   UNL A   1      36.451  22.037  24.821  1.00  0.00     0.030 A 
ATOM      6  C   UNL A   1      37.571  21.356  25.333  1.00  0.00     0.040 A 
ENDROOT
BRANCH   1   7
ATOM      7  C   UNL A   1      39.860  21.505  26.468  1.00  0.00    -0.013 A 
ATOM      8  C   UNL A   1      41.750  20.017  26.089  1.00  0.00     0.133 A 
ATOM      9  C   UNL A   1      42.351  20.423  27.276  1.00  0.00     0.047 A 
ATOM     10  C   UNL A   1      40.532  20.559  25.674  1.00  0.00     0.056 A 
ATOM     11  C   UNL A   1      41.724  21.386  28.058  1.00  0.00     0.004 A 
ATOM     12  C   UNL A   1      40.487  21.908  27.665  1.00  0.00     0.009 A 
BRANCH   8  13
ATOM     13  O   UNL A   1      42.333  18.920  25.430  1.00  0.00    -0.410 OA
BRANCH  13  14
ATOM     14  C   UNL A   1      43.552  18.420  25.862  1.00  0.00     0.412 C 
ATOM     15  N   UNL A   1      44.594  18.797  25.058  1.00  0.00    -0.321 N 
ATOM     16  H   UNL A   1      45.482  18.441  25.290  1.00  0.00     0.167 HD
ATOM     17  O   UNL A   1      43.732  17.707  26.841  1.00  0.00    -0.224 OA
BRANCH  15  18
ATOM     18  C   UNL A   1      44.525  19.668  23.901  1.00  0.00     0.119 C 
BRANCH  18  19
ATOM     19  C   UNL A   1      44.901  21.110  24.244  1.00  0.00     0.021 C 
BRANCH  19  20
ATOM     20  C   UNL A   1      45.796  21.269  25.479  1.00  0.00     0.002 C 
BRANCH  20  21
ATOM     21  C   UNL A   1      45.333  22.313  26.501  1.00  0.00    -0.000 C 
BRANCH  21  22
ATOM     22  C   UNL A   1      46.176  23.589  26.565  1.00  0.00    -0.003 C 
ATOM     23  C   UNL A   1      45.946  24.400  27.832  1.00  0.00     0.004 C 
ENDBRANCH  21  22
ENDBRANCH  20  21
ENDBRANCH  19  20
ENDBRANCH  18  19
ENDBRANCH  15  18
ENDBRANCH  13  14
ENDBRANCH   8  13
ENDBRANCH   1   7
BRANCH   6  24
ATOM     24  N   UNL A   1      37.718  20.006  25.005  1.00  0.00    -0.398 N 
ATOM     25  H   UNL A   1      37.540  19.701  24.085  1.00  0.00     0.156 HD
ATOM     26  H   UNL A   1      37.997  19.359  25.692  1.00  0.00     0.156 HD
ENDBRANCH   6  24
BRANCH   4  27
ATOM     27  C   UNL A   1      34.963  24.060  24.529  1.00  0.00     0.105 C 
ATOM     28  C   UNL A   1      34.459  23.456  23.219  1.00  0.00     0.023 C 
BRANCH  27  29
ATOM     29  C   UNL A   1      33.862  24.391  25.549  1.00  0.00     0.227 C 
ATOM     30  O   UNL A   1      33.550  23.558  26.409  1.00  0.00    -0.274 OA
ATOM     31  N   UNL A   1      33.189  25.572  25.594  1.00  0.00    -0.356 N 
ATOM     32  H   UNL A   1      32.566  25.647  26.353  1.00  0.00     0.163 HD
BRANCH  31  33
ATOM     33  C   UNL A   1      33.213  26.741  24.737  1.00  0.00     0.117 C 
BRANCH  33  34
ATOM     34  C   UNL A   1      32.693  27.988  25.448  1.00  0.00     0.042 C 
BRANCH  34  35
ATOM     35  C   UNL A   1      33.467  29.257  25.113  1.00  0.00     0.118 C 
BRANCH  35  36
ATOM     36  N   UNL A   1      32.865  30.443  25.709  1.00  0.00    -0.352 N 
ATOM     37  C   UNL A   1      33.200  31.146  26.840  1.00  0.00     0.251 C 
ATOM     38  H   UNL A   1      32.089  30.799  25.219  1.00  0.00     0.163 HD
ATOM     39  O   UNL A   1      32.420  31.989  27.274  1.00  0.00    -0.269 OA
BRANCH  37  40
ATOM     40  C   UNL A   1      34.475  30.899  27.552  1.00  0.00     0.039 A 
ATOM     41  C   UNL A   1      35.406  31.940  27.645  1.00  0.00     0.014 A 
ATOM     42  C   UNL A   1      34.790  29.645  28.078  1.00  0.00     0.014 A 
ATOM     43  C   UNL A   1      36.616  31.742  28.315  1.00  0.00     0.010 A 
ATOM     44  C   UNL A   1      35.960  29.468  28.815  1.00  0.00     0.010 A 
ATOM     45  C   UNL A   1      36.889  30.513  28.935  1.00  0.00    -0.014 A 
BRANCH  45  46
ATOM     46  C   UNL A   1      38.138  30.293  29.708  1.00  0.00     0.031 A 
ATOM     47  C   UNL A   1      39.255  29.473  29.123  1.00  0.00     0.074 A 
ATOM     48  C   UNL A   1      38.237  30.767  30.964  1.00  0.00     0.049 A 
ATOM     49  N   UNL A   1      40.376  29.083  29.676  1.00  0.00    -0.248 NA
ATOM     50  C   UNL A   1      39.076  29.008  27.739  1.00  0.00     0.031 C 
ATOM     51  C   UNL A   1      37.207  31.539  31.660  1.00  0.00     0.029 A 
ATOM     52  N   UNL A   1      39.246  30.652  31.889  1.00  0.00    -0.354 N 
ATOM     53  C   UNL A   1      41.022  28.312  28.718  1.00  0.00     0.074 A 
ATOM     54  C   UNL A   1      40.149  28.250  27.566  1.00  0.00     0.031 C 
ATOM     55  C   UNL A   1      37.641  31.843  32.893  1.00  0.00     0.029 A 
ATOM     56  C   UNL A   1      38.962  31.251  33.091  1.00  0.00     0.049 A 
ATOM     57  H   UNL A   1      40.093  30.185  31.706  1.00  0.00     0.167 HD
ATOM     58  C   UNL A   1      42.241  27.725  28.787  1.00  0.00     0.037 A 
ATOM     59  C   UNL A   1      39.678  31.306  34.229  1.00  0.00     0.037 A 
ATOM     60  C   UNL A   1      43.118  27.810  29.925  1.00  0.00     0.049 A 
ATOM     61  C   UNL A   1      41.025  30.639  34.283  1.00  0.00     0.074 A 
ATOM     62  C   UNL A   1      44.397  27.302  30.069  1.00  0.00     0.029 A 
ATOM     63  N   UNL A   1      42.802  28.444  31.118  1.00  0.00    -0.354 N 
ATOM     64  N   UNL A   1      41.653  29.967  33.349  1.00  0.00    -0.248 NA
ATOM     65  C   UNL A   1      41.766  30.741  35.549  1.00  0.00     0.031 C 
ATOM     66  C   UNL A   1      44.840  27.593  31.364  1.00  0.00     0.029 A 
ATOM     67  C   UNL A   1      43.855  28.322  32.011  1.00  0.00     0.049 A 
ATOM     68  H   UNL A   1      41.954  28.910  31.303  1.00  0.00     0.167 HD
ATOM     69  C   UNL A   1      42.869  29.587  33.903  1.00  0.00     0.074 A 
ATOM     70  C   UNL A   1      42.897  30.119  35.251  1.00  0.00     0.031 C 
ATOM     71  C   UNL A   1      43.870  28.864  33.346  1.00  0.00     0.037 A 
BRANCH  58  72
ATOM     72  C   UNL A   1      42.701  26.939  27.592  1.00  0.00     0.064 A 
ATOM     73  C   UNL A   1      42.234  25.640  27.342  1.00  0.00     0.173 A 
ATOM     74  C   UNL A   1      43.592  27.505  26.668  1.00  0.00     0.173 A 
ATOM     75  F   UNL A   1      41.388  25.050  28.201  1.00  0.00    -0.203 F 
ATOM     76  C   UNL A   1      42.667  24.924  26.229  1.00  0.00     0.198 A 
ATOM     77  C   UNL A   1      43.999  26.797  25.539  1.00  0.00     0.198 A 
ATOM     78  F   UNL A   1      44.063  28.747  26.853  1.00  0.00    -0.203 F 
ATOM     79  F   UNL A   1      42.246  23.666  26.039  1.00  0.00    -0.200 F 
ATOM     80  C   UNL A   1      43.544  25.505  25.326  1.00  0.00     0.200 A 
ATOM     81  F   UNL A   1      44.836  27.365  24.659  1.00  0.00    -0.200 F 
ATOM     82  F   UNL A   1      43.954  24.817  24.252  1.00  0.00    -0.200 F 
ENDBRANCH  58  72
BRANCH  59  83
ATOM     83  C   UNL A   1      39.145  32.042  35.405  1.00  0.00     0.064 A 
ATOM     84  C   UNL A   1      38.376  31.382  36.375  1.00  0.00     0.173 A 
ATOM     85  C   UNL A   1      39.390  33.411  35.586  1.00  0.00     0.173 A 
ATOM     86  F   UNL A   1      38.096  30.078  36.233  1.00  0.00    -0.203 F 
ATOM     87  C   UNL A   1      37.862  32.067  37.474  1.00  0.00     0.198 A 
ATOM     88  C   UNL A   1      38.899  34.088  36.700  1.00  0.00     0.198 A 
ATOM     89  F   UNL A   1      40.120  34.087  34.688  1.00  0.00    -0.203 F 
ATOM     90  F   UNL A   1      37.097  31.421  38.363  1.00  0.00    -0.200 F 
ATOM     91  C   UNL A   1      38.128  33.417  37.639  1.00  0.00     0.200 A 
ATOM     92  F   UNL A   1      39.169  35.391  36.865  1.00  0.00    -0.200 F 
ATOM     93  F   UNL A   1      37.638  34.073  38.699  1.00  0.00    -0.200 F 
ENDBRANCH  59  83
BRANCH  71  94
ATOM     94  C   UNL A   1      45.097  28.633  34.178  1.00  0.00     0.064 A 
ATOM     95  C   UNL A   1      46.196  29.503  34.124  1.00  0.00     0.173 A 
ATOM     96  C   UNL A   1      45.156  27.553  35.070  1.00  0.00     0.173 A 
ATOM     97  F   UNL A   1      46.194  30.541  33.275  1.00  0.00    -0.203 F 
ATOM     98  C   UNL A   1      47.317  29.289  34.921  1.00  0.00     0.198 A 
ATOM     99  C   UNL A   1      46.267  27.357  35.885  1.00  0.00     0.198 A 
ATOM    100  F   UNL A   1      44.129  26.695  35.162  1.00  0.00    -0.203 F 
ATOM    101  F   UNL A   1      48.373  30.108  34.823  1.00  0.00    -0.200 F 
ATOM    102  C   UNL A   1      47.348  28.222  35.806  1.00  0.00     0.200 A 
ATOM    103  F   UNL A   1      46.290  26.332  36.749  1.00  0.00    -0.200 F 
ATOM    104  F   UNL A   1      48.425  28.021  36.579  1.00  0.00    -0.200 F 
ENDBRANCH  71  94
ENDBRANCH  45  46
ENDBRANCH  37  40
ENDBRANCH  35  36
ENDBRANCH  34  35
ENDBRANCH  33  34
ENDBRANCH  31  33
ENDBRANCH  27  29
ENDBRANCH   4  27
TORSDOF 20
ENDMDL
MODEL 3
REMARK VINA RESULT:     -11.2      3.166      5.193
REMARK SMILES CCCCCCNC(=O)Oc1cccc(-c2ccc([C@@H](C)C(=O)NCCCNC(=O)c3ccc(-c4c5nc(c(-c6c(F)c(F)c(F)c(F)c6F)c6ccc([nH]6)c(-c6c(F)c(F)c(F)c(F)c6F)c6nc(c(-c7c(F)c(F)c(F)c(F)c7F)c7ccc4[nH]7)C=C6)C=C5)cc3)cc2N)c1
REMARK SMILES IDX 16 1 17 2 18 3 19 4 94 5 95 6 15 7 11 8 12 9 97 10 13 11
REMARK SMILES IDX 14 12 10 13 8 14 7 15 9 17 6 18 5 19 4 20 3 21 2 22 1 23
REMARK SMILES IDX 96 24 20 27 21 28 22 29 23 30 24 31 25 33 26 34 27 35 28 36
REMARK SMILES IDX 29 37 30 39 31 40 32 41 93 42 33 43 92 44 34 45 35 46 36 47
REMARK SMILES IDX 86 48 37 49 91 50 85 51 87 52 38 53 90 54 84 55 83 56 39 58
REMARK SMILES IDX 71 59 51 60 70 61 52 62 55 63 69 64 88 65 53 66 54 67 68 69
REMARK SMILES IDX 89 70 56 71 40 72 41 73 49 74 42 75 43 76 47 77 50 78 44 79
REMARK SMILES IDX 45 80 48 81 46 82 72 83 73 84 81 85 74 86 75 87 79 88 82 89
REMARK SMILES IDX 76 90 77 91 80 92 78 93 57 94 58 95 66 96 59 97 60 98 64 99
REMARK SMILES IDX 67 100 61 101 62 102 65 103 63 104
REMARK H PARENT 7 16 96 25 96 26 24 32 28 38 87 57 55 68
REMARK Flexibility Score: inf
ROOT
ATOM      1  C   UNL A   1      31.405  27.201  23.570  1.00  0.00     0.005 A 
ATOM      2  C   UNL A   1      30.057  27.372  23.942  1.00  0.00     0.011 A 
ATOM      3  C   UNL A   1      29.288  28.439  23.469  1.00  0.00     0.005 A 
ATOM      4  C   UNL A   1      29.863  29.439  22.689  1.00  0.00    -0.034 A 
ATOM      5  C   UNL A   1      31.195  29.260  22.285  1.00  0.00     0.030 A 
ATOM      6  C   UNL A   1      31.944  28.123  22.642  1.00  0.00     0.040 A 
ENDROOT
BRANCH   1   7
ATOM      7  C   UNL A   1      32.178  26.081  24.166  1.00  0.00    -0.013 A 
ATOM      8  C   UNL A   1      32.661  23.703  24.386  1.00  0.00     0.133 A 
ATOM      9  C   UNL A   1      33.659  23.958  25.321  1.00  0.00     0.047 A 
ATOM     10  C   UNL A   1      31.940  24.745  23.798  1.00  0.00     0.056 A 
ATOM     11  C   UNL A   1      33.939  25.274  25.671  1.00  0.00     0.004 A 
ATOM     12  C   UNL A   1      33.197  26.319  25.112  1.00  0.00     0.009 A 
BRANCH   8  13
ATOM     13  O   UNL A   1      32.299  22.357  24.201  1.00  0.00    -0.410 OA
BRANCH  13  14
ATOM     14  C   UNL A   1      31.815  21.617  25.268  1.00  0.00     0.412 C 
ATOM     15  N   UNL A   1      32.600  20.534  25.561  1.00  0.00    -0.321 N 
ATOM     16  H   UNL A   1      32.286  19.945  26.285  1.00  0.00     0.167 HD
ATOM     17  O   UNL A   1      30.798  21.854  25.906  1.00  0.00    -0.224 OA
BRANCH  15  18
ATOM     18  C   UNL A   1      33.845  20.166  24.916  1.00  0.00     0.119 C 
BRANCH  18  19
ATOM     19  C   UNL A   1      35.056  20.802  25.599  1.00  0.00     0.021 C 
BRANCH  19  20
ATOM     20  C   UNL A   1      36.414  20.413  25.002  1.00  0.00     0.002 C 
BRANCH  20  21
ATOM     21  C   UNL A   1      37.490  21.504  25.041  1.00  0.00    -0.000 C 
BRANCH  21  22
ATOM     22  C   UNL A   1      37.038  22.890  24.575  1.00  0.00    -0.003 C 
ATOM     23  C   UNL A   1      36.594  22.921  23.120  1.00  0.00     0.004 C 
ENDBRANCH  21  22
ENDBRANCH  20  21
ENDBRANCH  19  20
ENDBRANCH  18  19
ENDBRANCH  15  18
ENDBRANCH  13  14
ENDBRANCH   8  13
ENDBRANCH   1   7
BRANCH   6  24
ATOM     24  N   UNL A   1      33.243  28.015  22.140  1.00  0.00    -0.398 N 
ATOM     25  H   UNL A   1      33.414  28.167  21.183  1.00  0.00     0.156 HD
ATOM     26  H   UNL A   1      33.986  27.785  22.743  1.00  0.00     0.156 HD
ENDBRANCH   6  24
BRANCH   4  27
ATOM     27  C   UNL A   1      29.119  30.703  22.284  1.00  0.00     0.105 C 
ATOM     28  C   UNL A   1      28.163  30.548  21.102  1.00  0.00     0.023 C 
BRANCH  27  29
ATOM     29  C   UNL A   1      28.552  31.499  23.469  1.00  0.00     0.227 C 
ATOM     30  O   UNL A   1      27.379  31.892  23.441  1.00  0.00    -0.274 OA
ATOM     31  N   UNL A   1      29.255  31.808  24.592  1.00  0.00    -0.356 N 
ATOM     32  H   UNL A   1      28.722  32.262  25.285  1.00  0.00     0.163 HD
BRANCH  31  33
ATOM     33  C   UNL A   1      30.641  31.597  24.964  1.00  0.00     0.117 C 
BRANCH  33  34
ATOM     34  C   UNL A   1      30.887  31.860  26.447  1.00  0.00     0.042 C 
BRANCH  34  35
ATOM     35  C   UNL A   1      32.260  32.446  26.750  1.00  0.00     0.118 C 
BRANCH  35  36
ATOM     36  N   UNL A   1      32.180  33.820  27.230  1.00  0.00    -0.352 N 
ATOM     37  C   UNL A   1      32.881  34.465  28.219  1.00  0.00     0.251 C 
ATOM     38  H   UNL A   1      31.513  34.378  26.769  1.00  0.00     0.163 HD
ATOM     39  O   UNL A   1      32.497  35.567  28.604  1.00  0.00    -0.269 OA
BRANCH  37  40
ATOM     40  C   UNL A   1      34.080  33.855  28.839  1.00  0.00     0.039 A 
ATOM     41  C   UNL A   1      35.329  34.442  28.607  1.00  0.00     0.014 A 
ATOM     42  C   UNL A   1      33.999  32.685  29.596  1.00  0.00     0.014 A 
ATOM     43  C   UNL A   1      36.479  33.895  29.181  1.00  0.00     0.010 A 
ATOM     44  C   UNL A   1      35.132  32.184  30.233  1.00  0.00     0.010 A 
ATOM     45  C   UNL A   1      36.385  32.780  30.028  1.00  0.00    -0.014 A 
BRANCH  45  46
ATOM     46  C   UNL A   1      37.582  32.214  30.704  1.00  0.00     0.031 A 
ATOM     47  C   UNL A   1      38.375  31.119  30.045  1.00  0.00     0.074 A 
ATOM     48  C   UNL A   1      37.909  32.633  31.940  1.00  0.00     0.049 A 
ATOM     49  N   UNL A   1      39.384  30.428  30.514  1.00  0.00    -0.248 NA
ATOM     50  C   UNL A   1      37.964  30.733  28.686  1.00  0.00     0.031 C 
ATOM     51  C   UNL A   1      37.194  33.658  32.703  1.00  0.00     0.029 A 
ATOM     52  N   UNL A   1      38.916  32.234  32.784  1.00  0.00    -0.354 N 
ATOM     53  C   UNL A   1      39.710  29.514  29.520  1.00  0.00     0.074 A 
ATOM     54  C   UNL A   1      38.765  29.707  28.441  1.00  0.00     0.031 C 
ATOM     55  C   UNL A   1      37.793  33.819  33.893  1.00  0.00     0.029 A 
ATOM     56  C   UNL A   1      38.908  32.881  33.996  1.00  0.00     0.049 A 
ATOM     57  H   UNL A   1      39.582  31.551  32.543  1.00  0.00     0.167 HD
ATOM     58  C   UNL A   1      40.718  28.610  29.502  1.00  0.00     0.037 A 
ATOM     59  C   UNL A   1      39.700  32.726  35.073  1.00  0.00     0.037 A 
ATOM     60  C   UNL A   1      41.673  28.439  30.566  1.00  0.00     0.049 A 
ATOM     61  C   UNL A   1      40.807  31.709  35.030  1.00  0.00     0.074 A 
ATOM     62  C   UNL A   1      42.767  27.593  30.617  1.00  0.00     0.029 A 
ATOM     63  N   UNL A   1      41.642  29.127  31.770  1.00  0.00    -0.354 N 
ATOM     64  N   UNL A   1      41.146  30.894  34.061  1.00  0.00    -0.248 NA
ATOM     65  C   UNL A   1      41.646  31.591  36.232  1.00  0.00     0.031 C 
ATOM     66  C   UNL A   1      43.375  27.740  31.868  1.00  0.00     0.029 A 
ATOM     67  C   UNL A   1      42.688  28.710  32.579  1.00  0.00     0.049 A 
ATOM     68  H   UNL A   1      40.976  29.810  32.014  1.00  0.00     0.167 HD
ATOM     69  C   UNL A   1      42.248  30.187  34.523  1.00  0.00     0.074 A 
ATOM     70  C   UNL A   1      42.531  30.680  35.856  1.00  0.00     0.031 C 
ATOM     71  C   UNL A   1      42.960  29.217  33.900  1.00  0.00     0.037 A 
BRANCH  58  72
ATOM     72  C   UNL A   1      40.844  27.736  28.287  1.00  0.00     0.064 A 
ATOM     73  C   UNL A   1      40.166  26.511  28.188  1.00  0.00     0.173 A 
ATOM     74  C   UNL A   1      41.625  28.142  27.194  1.00  0.00     0.173 A 
ATOM     75  F   UNL A   1      39.414  26.073  29.209  1.00  0.00    -0.203 F 
ATOM     76  C   UNL A   1      40.289  25.713  27.055  1.00  0.00     0.198 A 
ATOM     77  C   UNL A   1      41.722  27.354  26.050  1.00  0.00     0.198 A 
ATOM     78  F   UNL A   1      42.288  29.308  27.231  1.00  0.00    -0.203 F 
ATOM     79  F   UNL A   1      39.671  24.524  27.005  1.00  0.00    -0.200 F 
ATOM     80  C   UNL A   1      41.061  26.137  25.985  1.00  0.00     0.200 A 
ATOM     81  F   UNL A   1      42.458  27.773  25.010  1.00  0.00    -0.200 F 
ATOM     82  F   UNL A   1      41.174  25.369  24.892  1.00  0.00    -0.200 F 
ENDBRANCH  58  72
BRANCH  59  83
ATOM     83  C   UNL A   1      39.488  33.573  36.275  1.00  0.00     0.064 A 
ATOM     84  C   UNL A   1      40.085  34.838  36.374  1.00  0.00     0.173 A 
ATOM     85  C   UNL A   1      38.690  33.142  37.344  1.00  0.00     0.173 A 
ATOM     86  F   UNL A   1      40.875  35.284  35.387  1.00  0.00    -0.203 F 
ATOM     87  C   UNL A   1      39.901  35.634  37.503  1.00  0.00     0.198 A 
ATOM     88  C   UNL A   1      38.484  33.951  38.460  1.00  0.00     0.198 A 
ATOM     89  F   UNL A   1      38.096  31.941  37.299  1.00  0.00    -0.203 F 
ATOM     90  F   UNL A   1      40.516  36.821  37.589  1.00  0.00    -0.200 F 
ATOM     91  C   UNL A   1      39.097  35.192  38.542  1.00  0.00     0.200 A 
ATOM     92  F   UNL A   1      37.695  33.527  39.458  1.00  0.00    -0.200 F 
ATOM     93  F   UNL A   1      38.917  35.961  39.624  1.00  0.00    -0.200 F 
ENDBRANCH  59  83
BRANCH  71  94
ATOM     94  C   UNL A   1      44.137  28.647  34.636  1.00  0.00     0.064 A 
ATOM     95  C   UNL A   1      45.405  29.241  34.567  1.00  0.00     0.173 A 
ATOM     96  C   UNL A   1      43.983  27.519  35.454  1.00  0.00     0.173 A 
ATOM     97  F   UNL A   1      45.607  30.313  33.785  1.00  0.00    -0.203 F 
ATOM     98  C   UNL A   1      46.481  28.714  35.276  1.00  0.00     0.198 A 
ATOM     99  C   UNL A   1      45.053  27.011  36.183  1.00  0.00     0.198 A 
ATOM    100  F   UNL A   1      42.788  26.916  35.558  1.00  0.00    -0.203 F 
ATOM    101  F   UNL A   1      47.694  29.273  35.162  1.00  0.00    -0.200 F 
ATOM    102  C   UNL A   1      46.303  27.606  36.089  1.00  0.00     0.200 A 
ATOM    103  F   UNL A   1      44.877  25.946  36.978  1.00  0.00    -0.200 F 
ATOM    104  F   UNL A   1      47.338  27.104  36.777  1.00  0.00    -0.200 F 
ENDBRANCH  71  94
ENDBRANCH  45  46
ENDBRANCH  37  40
ENDBRANCH  35  36
ENDBRANCH  34  35
ENDBRANCH  33  34
ENDBRANCH  31  33
ENDBRANCH  27  29
ENDBRANCH   4  27
TORSDOF 20
ENDMDL
