MODEL 1
REMARK VINA RESULT:     -13.7      0.000      0.000
REMARK SMILES Cc1nc(S[C@@H](C(=O)NCCCNC(=O)c2ccc(-c3c4nc(c(-c5c(F)c(F)c(F)c(F)c5F)c5ccc([nH]5)c(-c5c(F)c(F)c(F)c(F)c5F)c5nc(c(-c6c(F)c(F)c(F)c(F)c6F)c6ccc3[nH]6)C=C5)C=C4)cc2)c2ccccc2)nc2ccccc12
REMARK SMILES IDX 11 1 10 2 9 3 7 4 8 5 6 7 5 8 4 9 1 10 2 11 3 12 91 13 86 14
REMARK SMILES IDX 90 15 85 16 87 17 89 18 88 19 79 20 80 21 84 22 81 23 83 24
REMARK SMILES IDX 82 25 12 26 13 27 14 28 15 30 16 31 17 32 78 33 18 34 77 35
REMARK SMILES IDX 19 36 20 37 21 38 71 39 22 40 76 41 70 42 72 43 23 44 75 45
REMARK SMILES IDX 69 46 68 47 24 49 56 50 36 51 55 52 37 53 40 54 54 55 73 56
REMARK SMILES IDX 38 57 39 58 53 60 74 61 41 62 25 63 26 64 34 65 27 66 28 67
REMARK SMILES IDX 32 68 35 69 29 70 30 71 33 72 31 73 57 74 58 75 66 76 59 77
REMARK SMILES IDX 60 78 64 79 67 80 61 81 62 82 65 83 63 84 42 85 43 86 51 87
REMARK SMILES IDX 44 88 45 89 49 90 52 91 46 92 47 93 50 94 48 95
REMARK H PARENT 9 6 13 29 72 48 40 59
REMARK Flexibility Score: inf
ROOT
ATOM      1  C   UNL A   1      32.366  29.729  25.401  1.00  0.00     0.042 C 
ENDROOT
BRANCH   1   2
ATOM      2  C   UNL A   1      33.354  28.590  25.168  1.00  0.00     0.117 C 
BRANCH   2   3
ATOM      3  N   UNL A   1      33.948  28.632  23.841  1.00  0.00    -0.355 N 
ATOM      4  C   UNL A   1      33.635  27.947  22.692  1.00  0.00     0.238 C 
ATOM      5  O   UNL A   1      34.292  28.255  21.692  1.00  0.00    -0.273 OA
ATOM      6  H   UNL A   1      34.702  29.257  23.751  1.00  0.00     0.163 HD
BRANCH   4   7
ATOM      7  C   UNL A   1      32.456  26.958  22.664  1.00  0.00     0.174 C 
BRANCH   7   8
ATOM      8  S   UNL A   1      32.653  25.592  21.460  1.00  0.00    -0.068 SA
BRANCH   8   9
ATOM      9  C   UNL A   1      33.180  24.211  22.435  1.00  0.00     0.189 A 
ATOM     10  C   UNL A   1      31.762  22.203  25.111  1.00  0.00     0.067 C 
ATOM     11  C   UNL A   1      32.785  22.731  24.146  1.00  0.00     0.050 A 
ATOM     12  N   UNL A   1      32.302  23.579  23.212  1.00  0.00    -0.227 NA
ATOM     13  C   UNL A   1      34.151  22.464  24.278  1.00  0.00     0.022 A 
ATOM     14  C   UNL A   1      34.969  23.099  23.333  1.00  0.00     0.075 A 
ATOM     15  C   UNL A   1      34.735  21.641  25.272  1.00  0.00     0.012 A 
ATOM     16  N   UNL A   1      34.494  23.960  22.426  1.00  0.00    -0.222 NA
ATOM     17  C   UNL A   1      36.335  22.858  23.373  1.00  0.00     0.029 A 
ATOM     18  C   UNL A   1      36.112  21.436  25.305  1.00  0.00     0.001 A 
ATOM     19  C   UNL A   1      36.914  22.037  24.344  1.00  0.00     0.002 A 
ENDBRANCH   8   9
ENDBRANCH   7   8
BRANCH   7  20
ATOM     20  C   UNL A   1      31.075  27.618  22.715  1.00  0.00    -0.025 A 
ATOM     21  C   UNL A   1      30.811  28.912  22.242  1.00  0.00     0.005 A 
ATOM     22  C   UNL A   1      30.014  26.931  23.336  1.00  0.00     0.005 A 
ATOM     23  C   UNL A   1      29.552  29.502  22.384  1.00  0.00     0.000 A 
ATOM     24  C   UNL A   1      28.751  27.517  23.475  1.00  0.00     0.000 A 
ATOM     25  C   UNL A   1      28.522  28.805  23.003  1.00  0.00     0.000 A 
ENDBRANCH   7  20
ENDBRANCH   4   7
ENDBRANCH   2   3
ENDBRANCH   1   2
BRANCH   1  26
ATOM     26  C   UNL A   1      32.292  30.216  26.845  1.00  0.00     0.118 C 
BRANCH  26  27
ATOM     27  N   UNL A   1      32.311  31.667  26.969  1.00  0.00    -0.352 N 
ATOM     28  C   UNL A   1      33.269  32.499  27.503  1.00  0.00     0.251 C 
ATOM     29  H   UNL A   1      31.515  32.125  26.615  1.00  0.00     0.163 HD
ATOM     30  O   UNL A   1      33.033  33.698  27.626  1.00  0.00    -0.269 OA
BRANCH  28  31
ATOM     31  C   UNL A   1      34.566  31.957  27.969  1.00  0.00     0.039 A 
ATOM     32  C   UNL A   1      34.706  30.617  28.330  1.00  0.00     0.014 A 
ATOM     33  C   UNL A   1      35.668  32.816  28.048  1.00  0.00     0.014 A 
ATOM     34  C   UNL A   1      35.882  30.183  28.939  1.00  0.00     0.010 A 
ATOM     35  C   UNL A   1      36.876  32.358  28.582  1.00  0.00     0.010 A 
ATOM     36  C   UNL A   1      36.975  31.053  29.087  1.00  0.00    -0.014 A 
BRANCH  36  37
ATOM     37  C   UNL A   1      38.191  30.587  29.804  1.00  0.00     0.031 A 
ATOM     38  C   UNL A   1      38.445  31.001  31.230  1.00  0.00     0.074 A 
ATOM     39  C   UNL A   1      39.033  29.726  29.200  1.00  0.00     0.049 A 
ATOM     40  N   UNL A   1      39.425  30.660  32.030  1.00  0.00    -0.248 NA
ATOM     41  C   UNL A   1      37.470  31.918  31.840  1.00  0.00     0.031 C 
ATOM     42  C   UNL A   1      38.886  29.230  27.832  1.00  0.00     0.029 A 
ATOM     43  N   UNL A   1      40.155  29.089  29.668  1.00  0.00    -0.354 N 
ATOM     44  C   UNL A   1      39.189  31.322  33.227  1.00  0.00     0.074 A 
ATOM     45  C   UNL A   1      37.996  32.118  33.040  1.00  0.00     0.031 C 
ATOM     46  C   UNL A   1      39.839  28.316  27.593  1.00  0.00     0.029 A 
ATOM     47  C   UNL A   1      40.699  28.206  28.768  1.00  0.00     0.049 A 
ATOM     48  H   UNL A   1      40.534  29.251  30.562  1.00  0.00     0.167 HD
ATOM     49  C   UNL A   1      39.890  31.257  34.385  1.00  0.00     0.037 A 
ATOM     50  C   UNL A   1      41.768  27.396  28.876  1.00  0.00     0.037 A 
ATOM     51  C   UNL A   1      41.070  30.456  34.580  1.00  0.00     0.049 A 
ATOM     52  C   UNL A   1      42.569  27.396  30.147  1.00  0.00     0.074 A 
ATOM     53  C   UNL A   1      41.848  30.328  35.718  1.00  0.00     0.029 A 
ATOM     54  N   UNL A   1      41.638  29.640  33.614  1.00  0.00    -0.354 N 
ATOM     55  N   UNL A   1      42.343  28.038  31.267  1.00  0.00    -0.248 NA
ATOM     56  C   UNL A   1      43.785  26.569  30.163  1.00  0.00     0.031 C 
ATOM     57  C   UNL A   1      42.909  29.463  35.428  1.00  0.00     0.029 A 
ATOM     58  C   UNL A   1      42.768  29.020  34.124  1.00  0.00     0.049 A 
ATOM     59  H   UNL A   1      41.291  29.520  32.700  1.00  0.00     0.167 HD
ATOM     60  C   UNL A   1      43.377  27.687  32.123  1.00  0.00     0.074 A 
ATOM     61  C   UNL A   1      44.223  26.759  31.400  1.00  0.00     0.031 C 
ATOM     62  C   UNL A   1      43.604  28.101  33.393  1.00  0.00     0.037 A 
BRANCH  49  63
ATOM     63  C   UNL A   1      39.399  32.083  35.539  1.00  0.00     0.064 A 
ATOM     64  C   UNL A   1      38.528  31.550  36.501  1.00  0.00     0.173 A 
ATOM     65  C   UNL A   1      39.842  33.403  35.714  1.00  0.00     0.173 A 
ATOM     66  F   UNL A   1      38.068  30.295  36.373  1.00  0.00    -0.203 F 
ATOM     67  C   UNL A   1      38.098  32.315  37.582  1.00  0.00     0.198 A 
ATOM     68  C   UNL A   1      39.431  34.157  36.810  1.00  0.00     0.198 A 
ATOM     69  F   UNL A   1      40.682  33.957  34.828  1.00  0.00    -0.203 F 
ATOM     70  F   UNL A   1      37.235  31.798  38.466  1.00  0.00    -0.200 F 
ATOM     71  C   UNL A   1      38.556  33.615  37.739  1.00  0.00     0.200 A 
ATOM     72  F   UNL A   1      39.884  35.409  36.969  1.00  0.00    -0.200 F 
ATOM     73  F   UNL A   1      38.149  34.347  38.786  1.00  0.00    -0.200 F 
ENDBRANCH  49  63
BRANCH  50  74
ATOM     74  C   UNL A   1      42.124  26.500  27.746  1.00  0.00     0.064 A 
ATOM     75  C   UNL A   1      43.064  26.900  26.788  1.00  0.00     0.173 A 
ATOM     76  C   UNL A   1      41.566  25.220  27.623  1.00  0.00     0.173 A 
ATOM     77  F   UNL A   1      43.608  28.125  26.853  1.00  0.00    -0.203 F 
ATOM     78  C   UNL A   1      43.435  26.051  25.748  1.00  0.00     0.198 A 
ATOM     79  C   UNL A   1      41.956  24.363  26.598  1.00  0.00     0.198 A 
ATOM     80  F   UNL A   1      40.662  24.793  28.517  1.00  0.00    -0.203 F 
ATOM     81  F   UNL A   1      44.321  26.464  24.832  1.00  0.00    -0.200 F 
ATOM     82  C   UNL A   1      42.889  24.779  25.660  1.00  0.00     0.200 A 
ATOM     83  F   UNL A   1      41.437  23.130  26.525  1.00  0.00    -0.200 F 
ATOM     84  F   UNL A   1      43.260  23.955  24.670  1.00  0.00    -0.200 F 
ENDBRANCH  50  74
BRANCH  62  85
ATOM     85  C   UNL A   1      44.811  27.554  34.092  1.00  0.00     0.064 A 
ATOM     86  C   UNL A   1      46.038  28.232  34.068  1.00  0.00     0.173 A 
ATOM     87  C   UNL A   1      44.726  26.373  34.845  1.00  0.00     0.173 A 
ATOM     88  F   UNL A   1      46.174  29.357  33.351  1.00  0.00    -0.203 F 
ATOM     89  C   UNL A   1      47.140  27.740  34.763  1.00  0.00     0.198 A 
ATOM     90  C   UNL A   1      45.822  25.898  35.559  1.00  0.00     0.198 A 
ATOM     91  F   UNL A   1      43.571  25.691  34.904  1.00  0.00    -0.203 F 
ATOM     92  F   UNL A   1      48.313  28.387  34.701  1.00  0.00    -0.200 F 
ATOM     93  C   UNL A   1      47.029  26.579  35.514  1.00  0.00     0.200 A 
ATOM     94  F   UNL A   1      45.710  24.782  36.293  1.00  0.00    -0.200 F 
ATOM     95  F   UNL A   1      48.087  26.115  36.193  1.00  0.00    -0.200 F 
ENDBRANCH  62  85
ENDBRANCH  36  37
ENDBRANCH  28  31
ENDBRANCH  26  27
ENDBRANCH   1  26
TORSDOF 13
ENDMDL
MODEL 2
REMARK VINA RESULT:     -13.7      0.372      1.546
REMARK SMILES Cc1nc(S[C@@H](C(=O)NCCCNC(=O)c2ccc(-c3c4nc(c(-c5c(F)c(F)c(F)c(F)c5F)c5ccc([nH]5)c(-c5c(F)c(F)c(F)c(F)c5F)c5nc(c(-c6c(F)c(F)c(F)c(F)c6F)c6ccc3[nH]6)C=C5)C=C4)cc2)c2ccccc2)nc2ccccc12
REMARK SMILES IDX 11 1 10 2 9 3 7 4 8 5 6 7 5 8 4 9 1 10 2 11 3 12 91 13 86 14
REMARK SMILES IDX 90 15 85 16 87 17 89 18 88 19 79 20 80 21 84 22 81 23 83 24
REMARK SMILES IDX 82 25 12 26 13 27 14 28 15 30 16 31 17 32 78 33 18 34 77 35
REMARK SMILES IDX 19 36 20 37 21 38 71 39 22 40 76 41 70 42 72 43 23 44 75 45
REMARK SMILES IDX 69 46 68 47 24 49 56 50 36 51 55 52 37 53 40 54 54 55 73 56
REMARK SMILES IDX 38 57 39 58 53 60 74 61 41 62 25 63 26 64 34 65 27 66 28 67
REMARK SMILES IDX 32 68 35 69 29 70 30 71 33 72 31 73 57 74 58 75 66 76 59 77
REMARK SMILES IDX 60 78 64 79 67 80 61 81 62 82 65 83 63 84 42 85 43 86 51 87
REMARK SMILES IDX 44 88 45 89 49 90 52 91 46 92 47 93 50 94 48 95
REMARK H PARENT 9 6 13 29 72 48 40 59
REMARK Flexibility Score: inf
ROOT
ATOM      1  C   UNL A   1      32.456  29.820  25.438  1.00  0.00     0.042 C 
ENDROOT
BRANCH   1   2
ATOM      2  C   UNL A   1      33.489  28.726  25.189  1.00  0.00     0.117 C 
BRANCH   2   3
ATOM      3  N   UNL A   1      34.006  28.747  23.831  1.00  0.00    -0.355 N 
ATOM      4  C   UNL A   1      33.630  28.046  22.711  1.00  0.00     0.238 C 
ATOM      5  O   UNL A   1      34.229  28.339  21.672  1.00  0.00    -0.273 OA
ATOM      6  H   UNL A   1      34.754  29.371  23.689  1.00  0.00     0.163 HD
BRANCH   4   7
ATOM      7  C   UNL A   1      32.451  27.058  22.764  1.00  0.00     0.174 C 
BRANCH   7   8
ATOM      8  S   UNL A   1      32.666  25.579  21.704  1.00  0.00    -0.068 SA
BRANCH   8   9
ATOM      9  C   UNL A   1      33.345  24.352  22.785  1.00  0.00     0.189 A 
ATOM     10  C   UNL A   1      36.641  22.971  23.437  1.00  0.00     0.067 C 
ATOM     11  C   UNL A   1      35.149  23.126  23.504  1.00  0.00     0.050 A 
ATOM     12  N   UNL A   1      34.666  24.238  22.909  1.00  0.00    -0.227 NA
ATOM     13  C   UNL A   1      34.313  22.138  24.033  1.00  0.00     0.022 A 
ATOM     14  C   UNL A   1      32.942  22.419  23.945  1.00  0.00     0.075 A 
ATOM     15  C   UNL A   1      34.745  20.919  24.610  1.00  0.00     0.012 A 
ATOM     16  N   UNL A   1      32.462  23.507  23.332  1.00  0.00    -0.222 NA
ATOM     17  C   UNL A   1      32.045  21.504  24.479  1.00  0.00     0.029 A 
ATOM     18  C   UNL A   1      33.823  20.007  25.114  1.00  0.00     0.001 A 
ATOM     19  C   UNL A   1      32.468  20.306  25.061  1.00  0.00     0.002 A 
ENDBRANCH   8   9
ENDBRANCH   7   8
BRANCH   7  20
ATOM     20  C   UNL A   1      31.069  27.717  22.729  1.00  0.00    -0.025 A 
ATOM     21  C   UNL A   1      30.827  28.993  22.197  1.00  0.00     0.005 A 
ATOM     22  C   UNL A   1      29.981  27.053  23.327  1.00  0.00     0.005 A 
ATOM     23  C   UNL A   1      29.564  29.587  22.261  1.00  0.00     0.000 A 
ATOM     24  C   UNL A   1      28.714  27.642  23.388  1.00  0.00     0.000 A 
ATOM     25  C   UNL A   1      28.507  28.912  22.859  1.00  0.00     0.000 A 
ENDBRANCH   7  20
ENDBRANCH   4   7
ENDBRANCH   2   3
ENDBRANCH   1   2
BRANCH   1  26
ATOM     26  C   UNL A   1      32.382  30.303  26.884  1.00  0.00     0.118 C 
BRANCH  26  27
ATOM     27  N   UNL A   1      32.407  31.753  27.012  1.00  0.00    -0.352 N 
ATOM     28  C   UNL A   1      33.364  32.579  27.555  1.00  0.00     0.251 C 
ATOM     29  H   UNL A   1      31.615  32.216  26.656  1.00  0.00     0.163 HD
ATOM     30  O   UNL A   1      33.133  33.779  27.681  1.00  0.00    -0.269 OA
BRANCH  28  31
ATOM     31  C   UNL A   1      34.657  32.030  28.027  1.00  0.00     0.039 A 
ATOM     32  C   UNL A   1      34.810  30.671  28.307  1.00  0.00     0.014 A 
ATOM     33  C   UNL A   1      35.739  32.900  28.198  1.00  0.00     0.014 A 
ATOM     34  C   UNL A   1      35.974  30.218  28.924  1.00  0.00     0.010 A 
ATOM     35  C   UNL A   1      36.938  32.428  28.740  1.00  0.00     0.010 A 
ATOM     36  C   UNL A   1      37.046  31.095  29.163  1.00  0.00    -0.014 A 
BRANCH  36  37
ATOM     37  C   UNL A   1      38.247  30.603  29.888  1.00  0.00     0.031 A 
ATOM     38  C   UNL A   1      38.494  31.001  31.320  1.00  0.00     0.074 A 
ATOM     39  C   UNL A   1      39.080  29.734  29.285  1.00  0.00     0.049 A 
ATOM     40  N   UNL A   1      39.460  30.638  32.126  1.00  0.00    -0.248 NA
ATOM     41  C   UNL A   1      37.527  31.929  31.928  1.00  0.00     0.031 C 
ATOM     42  C   UNL A   1      38.939  29.251  27.912  1.00  0.00     0.029 A 
ATOM     43  N   UNL A   1      40.188  29.076  29.758  1.00  0.00    -0.354 N 
ATOM     44  C   UNL A   1      39.222  31.294  33.327  1.00  0.00     0.074 A 
ATOM     45  C   UNL A   1      38.045  32.111  33.134  1.00  0.00     0.031 C 
ATOM     46  C   UNL A   1      39.880  28.325  27.674  1.00  0.00     0.029 A 
ATOM     47  C   UNL A   1      40.726  28.191  28.856  1.00  0.00     0.049 A 
ATOM     48  H   UNL A   1      40.561  29.224  30.657  1.00  0.00     0.167 HD
ATOM     49  C   UNL A   1      39.911  31.208  34.491  1.00  0.00     0.037 A 
ATOM     50  C   UNL A   1      41.782  27.363  28.968  1.00  0.00     0.037 A 
ATOM     51  C   UNL A   1      41.076  30.386  34.690  1.00  0.00     0.049 A 
ATOM     52  C   UNL A   1      42.570  27.339  30.247  1.00  0.00     0.074 A 
ATOM     53  C   UNL A   1      41.841  30.237  35.835  1.00  0.00     0.029 A 
ATOM     54  N   UNL A   1      41.641  29.570  33.723  1.00  0.00    -0.354 N 
ATOM     55  N   UNL A   1      42.343  27.976  31.369  1.00  0.00    -0.248 NA
ATOM     56  C   UNL A   1      43.772  26.493  30.268  1.00  0.00     0.031 C 
ATOM     57  C   UNL A   1      42.891  29.357  35.548  1.00  0.00     0.029 A 
ATOM     58  C   UNL A   1      42.755  28.927  34.238  1.00  0.00     0.049 A 
ATOM     59  H   UNL A   1      41.300  29.463  32.805  1.00  0.00     0.167 HD
ATOM     60  C   UNL A   1      43.362  27.601  32.233  1.00  0.00     0.074 A 
ATOM     61  C   UNL A   1      44.201  26.666  31.510  1.00  0.00     0.031 C 
ATOM     62  C   UNL A   1      43.584  28.001  33.508  1.00  0.00     0.037 A 
BRANCH  49  63
ATOM     63  C   UNL A   1      39.423  32.032  35.647  1.00  0.00     0.064 A 
ATOM     64  C   UNL A   1      38.525  31.509  36.589  1.00  0.00     0.173 A 
ATOM     65  C   UNL A   1      39.893  33.339  35.844  1.00  0.00     0.173 A 
ATOM     66  F   UNL A   1      38.037  30.267  36.440  1.00  0.00    -0.203 F 
ATOM     67  C   UNL A   1      38.097  32.272  37.673  1.00  0.00     0.198 A 
ATOM     68  C   UNL A   1      39.483  34.090  36.942  1.00  0.00     0.198 A 
ATOM     69  F   UNL A   1      40.759  33.884  34.977  1.00  0.00    -0.203 F 
ATOM     70  F   UNL A   1      37.208  31.765  38.538  1.00  0.00    -0.200 F 
ATOM     71  C   UNL A   1      38.582  33.559  37.852  1.00  0.00     0.200 A 
ATOM     72  F   UNL A   1      39.962  35.330  37.122  1.00  0.00    -0.200 F 
ATOM     73  F   UNL A   1      38.177  34.289  38.901  1.00  0.00    -0.200 F 
ENDBRANCH  49  63
BRANCH  50  74
ATOM     74  C   UNL A   1      42.134  26.471  27.834  1.00  0.00     0.064 A 
ATOM     75  C   UNL A   1      41.492  25.236  27.672  1.00  0.00     0.173 A 
ATOM     76  C   UNL A   1      43.084  26.848  26.874  1.00  0.00     0.173 A 
ATOM     77  F   UNL A   1      40.593  24.825  28.578  1.00  0.00    -0.203 F 
ATOM     78  C   UNL A   1      41.786  24.412  26.589  1.00  0.00     0.198 A 
ATOM     79  C   UNL A   1      43.358  26.034  25.778  1.00  0.00     0.198 A 
ATOM     80  F   UNL A   1      43.724  28.020  26.987  1.00  0.00    -0.203 F 
ATOM     81  F   UNL A   1      41.173  23.226  26.467  1.00  0.00    -0.200 F 
ATOM     82  C   UNL A   1      42.710  24.815  25.637  1.00  0.00     0.200 A 
ATOM     83  F   UNL A   1      44.241  26.433  24.854  1.00  0.00    -0.200 F 
ATOM     84  F   UNL A   1      42.978  24.029  24.585  1.00  0.00    -0.200 F 
ENDBRANCH  50  74
BRANCH  62  85
ATOM     85  C   UNL A   1      44.775  27.429  34.215  1.00  0.00     0.064 A 
ATOM     86  C   UNL A   1      46.001  28.110  34.248  1.00  0.00     0.173 A 
ATOM     87  C   UNL A   1      44.675  26.218  34.917  1.00  0.00     0.173 A 
ATOM     88  F   UNL A   1      46.150  29.263  33.580  1.00  0.00    -0.203 F 
ATOM     89  C   UNL A   1      47.086  27.593  34.950  1.00  0.00     0.198 A 
ATOM     90  C   UNL A   1      45.755  25.718  35.638  1.00  0.00     0.198 A 
ATOM     91  F   UNL A   1      43.522  25.532  34.920  1.00  0.00    -0.203 F 
ATOM     92  F   UNL A   1      48.258  28.245  34.943  1.00  0.00    -0.200 F 
ATOM     93  C   UNL A   1      46.961  26.403  35.650  1.00  0.00     0.200 A 
ATOM     94  F   UNL A   1      45.628  24.573  36.324  1.00  0.00    -0.200 F 
ATOM     95  F   UNL A   1      48.003  25.914  36.336  1.00  0.00    -0.200 F 
ENDBRANCH  62  85
ENDBRANCH  36  37
ENDBRANCH  28  31
ENDBRANCH  26  27
ENDBRANCH   1  26
TORSDOF 13
ENDMDL
MODEL 3
REMARK VINA RESULT:     -13.6      0.195      1.587
REMARK SMILES Cc1nc(S[C@@H](C(=O)NCCCNC(=O)c2ccc(-c3c4nc(c(-c5c(F)c(F)c(F)c(F)c5F)c5ccc([nH]5)c(-c5c(F)c(F)c(F)c(F)c5F)c5nc(c(-c6c(F)c(F)c(F)c(F)c6F)c6ccc3[nH]6)C=C5)C=C4)cc2)c2ccccc2)nc2ccccc12
REMARK SMILES IDX 11 1 10 2 9 3 7 4 8 5 6 7 5 8 4 9 1 10 2 11 3 12 91 13 86 14
REMARK SMILES IDX 90 15 85 16 87 17 89 18 88 19 79 20 80 21 84 22 81 23 83 24
REMARK SMILES IDX 82 25 12 26 13 27 14 28 15 30 16 31 17 32 78 33 18 34 77 35
REMARK SMILES IDX 19 36 20 37 21 38 71 39 22 40 76 41 70 42 72 43 23 44 75 45
REMARK SMILES IDX 69 46 68 47 24 49 56 50 36 51 55 52 37 53 40 54 54 55 73 56
REMARK SMILES IDX 38 57 39 58 53 60 74 61 41 62 25 63 26 64 34 65 27 66 28 67
REMARK SMILES IDX 32 68 35 69 29 70 30 71 33 72 31 73 57 74 58 75 66 76 59 77
REMARK SMILES IDX 60 78 64 79 67 80 61 81 62 82 65 83 63 84 42 85 43 86 51 87
REMARK SMILES IDX 44 88 45 89 49 90 52 91 46 92 47 93 50 94 48 95
REMARK H PARENT 9 6 13 29 72 48 40 59
REMARK Flexibility Score: inf
ROOT
ATOM      1  C   UNL A   1      32.400  29.754  25.367  1.00  0.00     0.042 C 
ENDROOT
BRANCH   1   2
ATOM      2  C   UNL A   1      33.355  28.589  25.124  1.00  0.00     0.117 C 
BRANCH   2   3
ATOM      3  N   UNL A   1      33.925  28.605  23.787  1.00  0.00    -0.355 N 
ATOM      4  C   UNL A   1      33.575  27.918  22.650  1.00  0.00     0.238 C 
ATOM      5  O   UNL A   1      34.221  28.201  21.636  1.00  0.00    -0.273 OA
ATOM      6  H   UNL A   1      34.692  29.211  23.678  1.00  0.00     0.163 HD
BRANCH   4   7
ATOM      7  C   UNL A   1      32.372  26.957  22.652  1.00  0.00     0.174 C 
BRANCH   7   8
ATOM      8  S   UNL A   1      32.515  25.577  21.456  1.00  0.00    -0.068 SA
BRANCH   8   9
ATOM      9  C   UNL A   1      33.088  24.208  22.423  1.00  0.00     0.189 A 
ATOM     10  C   UNL A   1      31.768  22.187  25.139  1.00  0.00     0.067 C 
ATOM     11  C   UNL A   1      32.759  22.728  24.148  1.00  0.00     0.050 A 
ATOM     12  N   UNL A   1      32.240  23.565  23.223  1.00  0.00    -0.227 NA
ATOM     13  C   UNL A   1      34.132  22.483  24.247  1.00  0.00     0.022 A 
ATOM     14  C   UNL A   1      34.916  23.129  23.281  1.00  0.00     0.075 A 
ATOM     15  C   UNL A   1      34.753  21.673  25.229  1.00  0.00     0.012 A 
ATOM     16  N   UNL A   1      34.405  23.979  22.382  1.00  0.00    -0.222 NA
ATOM     17  C   UNL A   1      36.287  22.910  23.288  1.00  0.00     0.029 A 
ATOM     18  C   UNL A   1      36.134  21.491  25.230  1.00  0.00     0.001 A 
ATOM     19  C   UNL A   1      36.902  22.102  24.248  1.00  0.00     0.002 A 
ENDBRANCH   8   9
ENDBRANCH   7   8
BRANCH   7  20
ATOM     20  C   UNL A   1      31.008  27.650  22.722  1.00  0.00    -0.025 A 
ATOM     21  C   UNL A   1      30.773  28.956  22.266  1.00  0.00     0.005 A 
ATOM     22  C   UNL A   1      29.936  26.983  23.344  1.00  0.00     0.005 A 
ATOM     23  C   UNL A   1      29.530  29.575  22.425  1.00  0.00     0.000 A 
ATOM     24  C   UNL A   1      28.689  27.598  23.501  1.00  0.00     0.000 A 
ATOM     25  C   UNL A   1      28.488  28.897  23.045  1.00  0.00     0.000 A 
ENDBRANCH   7  20
ENDBRANCH   4   7
ENDBRANCH   2   3
ENDBRANCH   1   2
BRANCH   1  26
ATOM     26  C   UNL A   1      32.330  30.223  26.816  1.00  0.00     0.118 C 
BRANCH  26  27
ATOM     27  N   UNL A   1      32.360  31.673  26.958  1.00  0.00    -0.352 N 
ATOM     28  C   UNL A   1      33.318  32.490  27.512  1.00  0.00     0.251 C 
ATOM     29  H   UNL A   1      31.571  32.141  26.603  1.00  0.00     0.163 HD
ATOM     30  O   UNL A   1      33.091  33.689  27.648  1.00  0.00    -0.269 OA
BRANCH  28  31
ATOM     31  C   UNL A   1      34.607  31.932  27.984  1.00  0.00     0.039 A 
ATOM     32  C   UNL A   1      34.743  30.577  28.290  1.00  0.00     0.014 A 
ATOM     33  C   UNL A   1      35.703  32.790  28.126  1.00  0.00     0.014 A 
ATOM     34  C   UNL A   1      35.907  30.121  28.906  1.00  0.00     0.010 A 
ATOM     35  C   UNL A   1      36.901  32.311  28.667  1.00  0.00     0.010 A 
ATOM     36  C   UNL A   1      36.993  30.986  29.117  1.00  0.00    -0.014 A 
BRANCH  36  37
ATOM     37  C   UNL A   1      38.194  30.492  29.841  1.00  0.00     0.031 A 
ATOM     38  C   UNL A   1      38.438  30.883  31.275  1.00  0.00     0.074 A 
ATOM     39  C   UNL A   1      39.030  29.629  29.234  1.00  0.00     0.049 A 
ATOM     40  N   UNL A   1      39.404  30.516  32.081  1.00  0.00    -0.248 NA
ATOM     41  C   UNL A   1      37.468  31.805  31.887  1.00  0.00     0.031 C 
ATOM     42  C   UNL A   1      38.892  29.154  27.857  1.00  0.00     0.029 A 
ATOM     43  N   UNL A   1      40.138  28.969  29.705  1.00  0.00    -0.354 N 
ATOM     44  C   UNL A   1      39.163  31.165  33.285  1.00  0.00     0.074 A 
ATOM     45  C   UNL A   1      37.984  31.981  33.096  1.00  0.00     0.031 C 
ATOM     46  C   UNL A   1      39.835  28.230  27.616  1.00  0.00     0.029 A 
ATOM     47  C   UNL A   1      40.679  28.091  28.799  1.00  0.00     0.049 A 
ATOM     48  H   UNL A   1      40.509  29.113  30.606  1.00  0.00     0.167 HD
ATOM     49  C   UNL A   1      39.849  31.073  34.449  1.00  0.00     0.037 A 
ATOM     50  C   UNL A   1      41.736  27.265  28.907  1.00  0.00     0.037 A 
ATOM     51  C   UNL A   1      41.015  30.252  34.646  1.00  0.00     0.049 A 
ATOM     52  C   UNL A   1      42.522  27.234  30.187  1.00  0.00     0.074 A 
ATOM     53  C   UNL A   1      41.779  30.097  35.791  1.00  0.00     0.029 A 
ATOM     54  N   UNL A   1      41.584  29.442  33.675  1.00  0.00    -0.354 N 
ATOM     55  N   UNL A   1      42.293  27.864  31.313  1.00  0.00    -0.248 NA
ATOM     56  C   UNL A   1      43.726  26.390  30.205  1.00  0.00     0.031 C 
ATOM     57  C   UNL A   1      42.831  29.221  35.501  1.00  0.00     0.029 A 
ATOM     58  C   UNL A   1      42.698  28.799  34.188  1.00  0.00     0.049 A 
ATOM     59  H   UNL A   1      41.245  29.340  32.755  1.00  0.00     0.167 HD
ATOM     60  C   UNL A   1      43.311  27.486  32.176  1.00  0.00     0.074 A 
ATOM     61  C   UNL A   1      44.152  26.557  31.449  1.00  0.00     0.031 C 
ATOM     62  C   UNL A   1      43.530  27.879  33.454  1.00  0.00     0.037 A 
BRANCH  49  63
ATOM     63  C   UNL A   1      39.358  31.889  35.610  1.00  0.00     0.064 A 
ATOM     64  C   UNL A   1      39.769  33.217  35.797  1.00  0.00     0.173 A 
ATOM     65  C   UNL A   1      38.429  31.356  36.517  1.00  0.00     0.173 A 
ATOM     66  F   UNL A   1      40.664  33.769  34.963  1.00  0.00    -0.203 F 
ATOM     67  C   UNL A   1      39.289  33.974  36.862  1.00  0.00     0.198 A 
ATOM     68  C   UNL A   1      37.930  32.124  37.566  1.00  0.00     0.198 A 
ATOM     69  F   UNL A   1      37.997  30.095  36.379  1.00  0.00    -0.203 F 
ATOM     70  F   UNL A   1      39.727  35.227  37.043  1.00  0.00    -0.200 F 
ATOM     71  C   UNL A   1      38.364  33.429  37.741  1.00  0.00     0.200 A 
ATOM     72  F   UNL A   1      37.027  31.601  38.408  1.00  0.00    -0.200 F 
ATOM     73  F   UNL A   1      37.895  34.163  38.761  1.00  0.00    -0.200 F 
ENDBRANCH  49  63
BRANCH  50  74
ATOM     74  C   UNL A   1      42.092  26.380  27.769  1.00  0.00     0.064 A 
ATOM     75  C   UNL A   1      43.091  26.754  26.860  1.00  0.00     0.173 A 
ATOM     76  C   UNL A   1      41.474  25.135  27.588  1.00  0.00     0.173 A 
ATOM     77  F   UNL A   1      43.694  27.946  26.981  1.00  0.00    -0.203 F 
ATOM     78  C   UNL A   1      43.460  25.912  25.814  1.00  0.00     0.198 A 
ATOM     79  C   UNL A   1      41.862  24.284  26.557  1.00  0.00     0.198 A 
ATOM     80  F   UNL A   1      40.513  24.733  28.433  1.00  0.00    -0.203 F 
ATOM     81  F   UNL A   1      44.404  26.301  24.946  1.00  0.00    -0.200 F 
ATOM     82  C   UNL A   1      42.854  24.673  25.669  1.00  0.00     0.200 A 
ATOM     83  F   UNL A   1      41.283  23.082  26.429  1.00  0.00    -0.200 F 
ATOM     84  F   UNL A   1      43.223  23.857  24.673  1.00  0.00    -0.200 F 
ENDBRANCH  50  74
BRANCH  62  85
ATOM     85  C   UNL A   1      44.721  27.304  34.159  1.00  0.00     0.064 A 
ATOM     86  C   UNL A   1      44.644  26.083  34.844  1.00  0.00     0.173 A 
ATOM     87  C   UNL A   1      45.966  27.949  34.099  1.00  0.00     0.173 A 
ATOM     88  F   UNL A   1      43.474  25.437  34.943  1.00  0.00    -0.203 F 
ATOM     89  C   UNL A   1      45.769  25.534  35.454  1.00  0.00     0.198 A 
ATOM     90  C   UNL A   1      47.094  27.385  34.687  1.00  0.00     0.198 A 
ATOM     91  F   UNL A   1      46.091  29.117  33.450  1.00  0.00    -0.203 F 
ATOM     92  F   UNL A   1      45.667  24.381  36.130  1.00  0.00    -0.200 F 
ATOM     93  C   UNL A   1      46.994  26.180  35.368  1.00  0.00     0.200 A 
ATOM     94  F   UNL A   1      48.278  28.004  34.594  1.00  0.00    -0.200 F 
ATOM     95  F   UNL A   1      48.078  25.643  35.944  1.00  0.00    -0.200 F 
ENDBRANCH  62  85
ENDBRANCH  36  37
ENDBRANCH  28  31
ENDBRANCH  26  27
ENDBRANCH   1  26
TORSDOF 13
ENDMDL
