MODEL 1
REMARK VINA RESULT:     -12.0      0.000      0.000
REMARK SMILES C[NH+](C)[C@@H]1CC[N@@H+](Cc2ccc(C(=O)NCCCNC(=O)c3ccc(-c4c5nc(c(-c6c(F)c(F)c(F)c(F)c6F)c6ccc([nH]6)c(-c6c(F)c(F)c(F)c(F)c6F)c6nc(c(-c7c(F)c(F)c(F)c(F)c7F)c7ccc4[nH]7)C=C6)C=C5)cc3)cn2)C1
REMARK SMILES IDX 16 1 15 2 13 3 14 4 12 6 9 7 10 8 86 9 11 10 85 11 8 12 7 13
REMARK SMILES IDX 4 14 5 15 87 16 6 17 2 19 1 20 3 21 17 23 18 24 19 25 20 26
REMARK SMILES IDX 21 28 22 29 23 30 84 31 24 32 83 33 25 34 26 35 27 36 77 37
REMARK SMILES IDX 28 38 82 39 76 40 78 41 29 42 81 43 75 44 74 45 30 47 62 48
REMARK SMILES IDX 42 49 61 50 43 51 46 52 60 53 79 54 44 55 45 56 59 58 80 59
REMARK SMILES IDX 47 60 31 61 32 62 40 63 33 64 34 65 38 66 41 67 35 68 36 69
REMARK SMILES IDX 39 70 37 71 63 72 64 73 72 74 65 75 66 76 70 77 73 78 67 79
REMARK SMILES IDX 68 80 71 81 69 82 48 83 49 84 57 85 50 86 51 87 55 88 58 89
REMARK SMILES IDX 52 90 53 91 56 92 54 93
REMARK H PARENT 15 5 7 18 2 22 19 27 78 46 46 57
REMARK Flexibility Score: inf
ROOT
ATOM      1  C   UNL A   1      31.433  30.830  26.320  1.00  0.00     0.118 C 
ENDROOT
BRANCH   1   2
ATOM      2  N   UNL A   1      31.035  30.470  24.970  1.00  0.00    -0.352 N 
ATOM      3  C   UNL A   1      31.130  29.284  24.286  1.00  0.00     0.252 C 
ATOM      4  O   UNL A   1      30.613  29.206  23.173  1.00  0.00    -0.269 OA
ATOM      5  H   UNL A   1      30.628  31.204  24.456  1.00  0.00     0.163 HD
BRANCH   3   6
ATOM      6  C   UNL A   1      31.778  28.089  24.863  1.00  0.00     0.058 A 
ATOM      7  C   UNL A   1      33.167  25.863  25.721  1.00  0.00     0.095 A 
ATOM      8  C   UNL A   1      31.831  26.006  26.078  1.00  0.00     0.030 A 
ATOM      9  N   UNL A   1      33.833  26.823  25.029  1.00  0.00    -0.255 NA
ATOM     10  C   UNL A   1      31.137  27.137  25.654  1.00  0.00     0.017 A 
ATOM     11  C   UNL A   1      33.132  27.910  24.624  1.00  0.00     0.125 A 
BRANCH   7  12
ATOM     12  C   UNL A   1      33.909  24.574  26.021  1.00  0.00     0.319 C 
BRANCH  12  13
ATOM     13  N   UNL A   1      33.143  23.319  25.930  1.00  0.00    -0.325 N 
ATOM     14  C   UNL A   1      34.273  21.152  25.896  1.00  0.00     0.245 C 
ATOM     15  C   UNL A   1      33.977  21.570  27.338  1.00  0.00     0.132 C 
ATOM     16  C   UNL A   1      33.697  22.300  25.031  1.00  0.00     0.328 C 
ATOM     17  C   UNL A   1      32.921  22.657  27.220  1.00  0.00     0.269 C 
ATOM     18  H   UNL A   1      32.265  23.663  25.543  1.00  0.00     0.348 HD
BRANCH  14  19
ATOM     19  N   UNL A   1      33.837  19.773  25.583  1.00  0.00    -0.333 N 
ATOM     20  C   UNL A   1      32.490  19.683  25.018  1.00  0.00     0.332 C 
ATOM     21  C   UNL A   1      34.794  19.082  24.719  1.00  0.00     0.332 C 
ATOM     22  H   UNL A   1      33.805  19.302  26.487  1.00  0.00     0.348 HD
ENDBRANCH  14  19
ENDBRANCH  12  13
ENDBRANCH   7  12
ENDBRANCH   3   6
ENDBRANCH   1   2
BRANCH   1  23
ATOM     23  C   UNL A   1      31.400  32.343  26.530  1.00  0.00     0.042 C 
BRANCH  23  24
ATOM     24  C   UNL A   1      32.648  32.900  27.201  1.00  0.00     0.118 C 
BRANCH  24  25
ATOM     25  N   UNL A   1      32.483  34.286  27.603  1.00  0.00    -0.352 N 
ATOM     26  C   UNL A   1      33.047  34.977  28.644  1.00  0.00     0.251 C 
ATOM     27  H   UNL A   1      31.870  34.811  27.040  1.00  0.00     0.163 HD
ATOM     28  O   UNL A   1      32.613  36.092  28.923  1.00  0.00    -0.269 OA
BRANCH  26  29
ATOM     29  C   UNL A   1      34.162  34.409  29.440  1.00  0.00     0.039 A 
ATOM     30  C   UNL A   1      35.467  34.581  28.967  1.00  0.00     0.014 A 
ATOM     31  C   UNL A   1      33.941  33.641  30.588  1.00  0.00     0.014 A 
ATOM     32  C   UNL A   1      36.542  33.999  29.644  1.00  0.00     0.010 A 
ATOM     33  C   UNL A   1      35.019  33.131  31.309  1.00  0.00     0.010 A 
ATOM     34  C   UNL A   1      36.327  33.273  30.825  1.00  0.00    -0.014 A 
BRANCH  34  35
ATOM     35  C   UNL A   1      37.454  32.600  31.519  1.00  0.00     0.031 A 
ATOM     36  C   UNL A   1      38.178  31.462  30.849  1.00  0.00     0.074 A 
ATOM     37  C   UNL A   1      37.810  32.989  32.757  1.00  0.00     0.049 A 
ATOM     38  N   UNL A   1      39.176  30.737  31.290  1.00  0.00    -0.248 NA
ATOM     39  C   UNL A   1      37.695  31.066  29.517  1.00  0.00     0.031 C 
ATOM     40  C   UNL A   1      37.153  34.041  33.533  1.00  0.00     0.029 A 
ATOM     41  N   UNL A   1      38.811  32.542  33.581  1.00  0.00    -0.354 N 
ATOM     42  C   UNL A   1      39.422  29.791  30.304  1.00  0.00     0.074 A 
ATOM     43  C   UNL A   1      38.435  29.996  29.266  1.00  0.00     0.031 C 
ATOM     44  C   UNL A   1      37.783  34.176  34.710  1.00  0.00     0.029 A 
ATOM     45  C   UNL A   1      38.874  33.207  34.781  1.00  0.00     0.049 A 
ATOM     46  H   UNL A   1      39.426  31.813  33.336  1.00  0.00     0.167 HD
ATOM     47  C   UNL A   1      40.396  28.852  30.253  1.00  0.00     0.037 A 
ATOM     48  C   UNL A   1      39.722  33.055  35.816  1.00  0.00     0.037 A 
ATOM     49  C   UNL A   1      41.400  28.675  31.270  1.00  0.00     0.049 A 
ATOM     50  C   UNL A   1      40.827  32.041  35.716  1.00  0.00     0.074 A 
ATOM     51  C   UNL A   1      42.467  27.794  31.290  1.00  0.00     0.029 A 
ATOM     52  N   UNL A   1      41.460  29.402  32.450  1.00  0.00    -0.354 N 
ATOM     53  N   UNL A   1      41.094  31.198  34.747  1.00  0.00    -0.248 NA
ATOM     54  C   UNL A   1      41.765  31.973  36.845  1.00  0.00     0.031 C 
ATOM     55  C   UNL A   1      43.152  27.964  32.499  1.00  0.00     0.029 A 
ATOM     56  C   UNL A   1      42.541  28.984  33.210  1.00  0.00     0.049 A 
ATOM     57  H   UNL A   1      40.828  30.111  32.710  1.00  0.00     0.167 HD
ATOM     58  C   UNL A   1      42.244  30.522  35.135  1.00  0.00     0.074 A 
ATOM     59  C   UNL A   1      42.631  31.065  36.420  1.00  0.00     0.031 C 
ATOM     60  C   UNL A   1      42.918  29.543  34.484  1.00  0.00     0.037 A 
BRANCH  47  61
ATOM     61  C   UNL A   1      40.423  27.946  29.054  1.00  0.00     0.064 A 
ATOM     62  C   UNL A   1      41.194  28.245  27.920  1.00  0.00     0.173 A 
ATOM     63  C   UNL A   1      39.676  26.759  29.042  1.00  0.00     0.173 A 
ATOM     64  F   UNL A   1      41.917  29.374  27.874  1.00  0.00    -0.203 F 
ATOM     65  C   UNL A   1      41.184  27.411  26.805  1.00  0.00     0.198 A 
ATOM     66  C   UNL A   1      39.694  25.910  27.938  1.00  0.00     0.198 A 
ATOM     67  F   UNL A   1      38.925  26.420  30.101  1.00  0.00    -0.203 F 
ATOM     68  F   UNL A   1      41.880  27.750  25.711  1.00  0.00    -0.200 F 
ATOM     69  C   UNL A   1      40.439  26.241  26.817  1.00  0.00     0.200 A 
ATOM     70  F   UNL A   1      38.982  24.774  27.955  1.00  0.00    -0.200 F 
ATOM     71  F   UNL A   1      40.432  25.440  25.743  1.00  0.00    -0.200 F 
ENDBRANCH  47  61
BRANCH  48  72
ATOM     72  C   UNL A   1      39.587  33.927  37.011  1.00  0.00     0.064 A 
ATOM     73  C   UNL A   1      40.192  35.191  37.050  1.00  0.00     0.173 A 
ATOM     74  C   UNL A   1      38.844  33.523  38.129  1.00  0.00     0.173 A 
ATOM     75  F   UNL A   1      40.927  35.613  36.011  1.00  0.00    -0.203 F 
ATOM     76  C   UNL A   1      40.073  36.011  38.169  1.00  0.00     0.198 A 
ATOM     77  C   UNL A   1      38.704  34.355  39.238  1.00  0.00     0.198 A 
ATOM     78  F   UNL A   1      38.238  32.326  38.136  1.00  0.00    -0.203 F 
ATOM     79  F   UNL A   1      40.694  37.199  38.196  1.00  0.00    -0.200 F 
ATOM     80  C   UNL A   1      39.324  35.596  39.260  1.00  0.00     0.200 A 
ATOM     81  F   UNL A   1      37.967  33.957  40.283  1.00  0.00    -0.200 F 
ATOM     82  F   UNL A   1      39.204  36.387  40.334  1.00  0.00    -0.200 F 
ENDBRANCH  48  72
BRANCH  60  83
ATOM     83  C   UNL A   1      44.170  29.027  35.131  1.00  0.00     0.064 A 
ATOM     84  C   UNL A   1      44.149  27.942  36.019  1.00  0.00     0.173 A 
ATOM     85  C   UNL A   1      45.409  29.618  34.842  1.00  0.00     0.173 A 
ATOM     86  F   UNL A   1      42.987  27.352  36.338  1.00  0.00    -0.203 F 
ATOM     87  C   UNL A   1      45.320  27.488  36.621  1.00  0.00     0.198 A 
ATOM     88  C   UNL A   1      46.582  29.143  35.423  1.00  0.00     0.198 A 
ATOM     89  F   UNL A   1      45.485  30.654  33.994  1.00  0.00    -0.203 F 
ATOM     90  F   UNL A   1      45.269  26.486  37.509  1.00  0.00    -0.200 F 
ATOM     91  C   UNL A   1      46.535  28.086  36.319  1.00  0.00     0.200 A 
ATOM     92  F   UNL A   1      47.757  29.712  35.120  1.00  0.00    -0.200 F 
ATOM     93  F   UNL A   1      47.661  27.648  36.901  1.00  0.00    -0.200 F 
ENDBRANCH  60  83
ENDBRANCH  34  35
ENDBRANCH  26  29
ENDBRANCH  24  25
ENDBRANCH  23  24
ENDBRANCH   1  23
TORSDOF 13
ENDMDL
MODEL 2
REMARK VINA RESULT:     -11.9      0.800      7.603
REMARK SMILES C[NH+](C)[C@@H]1CC[N@@H+](Cc2ccc(C(=O)NCCCNC(=O)c3ccc(-c4c5nc(c(-c6c(F)c(F)c(F)c(F)c6F)c6ccc([nH]6)c(-c6c(F)c(F)c(F)c(F)c6F)c6nc(c(-c7c(F)c(F)c(F)c(F)c7F)c7ccc4[nH]7)C=C6)C=C5)cc3)cn2)C1
REMARK SMILES IDX 16 1 15 2 13 3 14 4 12 6 9 7 10 8 86 9 11 10 85 11 8 12 7 13
REMARK SMILES IDX 4 14 5 15 87 16 6 17 2 19 1 20 3 21 17 23 18 24 19 25 20 26
REMARK SMILES IDX 21 28 22 29 23 30 84 31 24 32 83 33 25 34 26 35 27 36 77 37
REMARK SMILES IDX 28 38 82 39 76 40 78 41 29 42 81 43 75 44 74 45 30 47 62 48
REMARK SMILES IDX 42 49 61 50 43 51 46 52 60 53 79 54 44 55 45 56 59 58 80 59
REMARK SMILES IDX 47 60 31 61 32 62 40 63 33 64 34 65 38 66 41 67 35 68 36 69
REMARK SMILES IDX 39 70 37 71 63 72 64 73 72 74 65 75 66 76 70 77 73 78 67 79
REMARK SMILES IDX 68 80 71 81 69 82 48 83 49 84 57 85 50 86 51 87 55 88 58 89
REMARK SMILES IDX 52 90 53 91 56 92 54 93
REMARK H PARENT 15 5 7 18 2 22 19 27 78 46 46 57
REMARK Flexibility Score: inf
ROOT
ATOM      1  C   UNL A   1      31.405  30.792  26.332  1.00  0.00     0.118 C 
ENDROOT
BRANCH   1   2
ATOM      2  N   UNL A   1      31.025  30.438  24.976  1.00  0.00    -0.352 N 
ATOM      3  C   UNL A   1      31.127  29.254  24.288  1.00  0.00     0.252 C 
ATOM      4  O   UNL A   1      30.625  29.181  23.169  1.00  0.00    -0.269 OA
ATOM      5  H   UNL A   1      30.625  31.174  24.459  1.00  0.00     0.163 HD
BRANCH   3   6
ATOM      6  C   UNL A   1      31.766  28.056  24.869  1.00  0.00     0.058 A 
ATOM      7  C   UNL A   1      33.142  25.826  25.736  1.00  0.00     0.095 A 
ATOM      8  C   UNL A   1      31.801  25.967  26.074  1.00  0.00     0.030 A 
ATOM      9  N   UNL A   1      33.819  26.789  25.059  1.00  0.00    -0.255 NA
ATOM     10  C   UNL A   1      31.114  27.101  25.646  1.00  0.00     0.017 A 
ATOM     11  C   UNL A   1      33.123  27.878  24.649  1.00  0.00     0.125 A 
BRANCH   7  12
ATOM     12  C   UNL A   1      33.880  24.535  26.041  1.00  0.00     0.319 C 
BRANCH  12  13
ATOM     13  N   UNL A   1      33.121  23.279  25.910  1.00  0.00    -0.325 N 
ATOM     14  C   UNL A   1      34.264  21.122  25.793  1.00  0.00     0.245 C 
ATOM     15  C   UNL A   1      33.975  21.487  27.250  1.00  0.00     0.132 C 
ATOM     16  C   UNL A   1      33.676  22.296  24.972  1.00  0.00     0.328 C 
ATOM     17  C   UNL A   1      32.911  22.571  27.177  1.00  0.00     0.269 C 
ATOM     18  H   UNL A   1      32.239  23.631  25.541  1.00  0.00     0.348 HD
BRANCH  14  19
ATOM     19  N   UNL A   1      33.836  19.752  25.433  1.00  0.00    -0.333 N 
ATOM     20  C   UNL A   1      32.527  19.684  24.782  1.00  0.00     0.332 C 
ATOM     21  C   UNL A   1      34.839  19.061  24.624  1.00  0.00     0.332 C 
ATOM     22  H   UNL A   1      33.740  19.270  26.328  1.00  0.00     0.348 HD
ENDBRANCH  14  19
ENDBRANCH  12  13
ENDBRANCH   7  12
ENDBRANCH   3   6
ENDBRANCH   1   2
BRANCH   1  23
ATOM     23  C   UNL A   1      31.380  32.304  26.545  1.00  0.00     0.042 C 
BRANCH  23  24
ATOM     24  C   UNL A   1      32.686  32.874  27.082  1.00  0.00     0.118 C 
BRANCH  24  25
ATOM     25  N   UNL A   1      32.519  34.207  27.632  1.00  0.00    -0.352 N 
ATOM     26  C   UNL A   1      33.111  34.795  28.720  1.00  0.00     0.251 C 
ATOM     27  H   UNL A   1      31.880  34.778  27.148  1.00  0.00     0.163 HD
ATOM     28  O   UNL A   1      32.673  35.868  29.129  1.00  0.00    -0.269 OA
BRANCH  26  29
ATOM     29  C   UNL A   1      34.259  34.164  29.415  1.00  0.00     0.039 A 
ATOM     30  C   UNL A   1      35.551  34.486  28.984  1.00  0.00     0.014 A 
ATOM     31  C   UNL A   1      34.086  33.203  30.416  1.00  0.00     0.014 A 
ATOM     32  C   UNL A   1      36.659  33.859  29.558  1.00  0.00     0.010 A 
ATOM     33  C   UNL A   1      35.195  32.640  31.046  1.00  0.00     0.010 A 
ATOM     34  C   UNL A   1      36.490  32.935  30.600  1.00  0.00    -0.014 A 
BRANCH  34  35
ATOM     35  C   UNL A   1      37.656  32.219  31.176  1.00  0.00     0.031 A 
ATOM     36  C   UNL A   1      38.127  32.545  32.569  1.00  0.00     0.074 A 
ATOM     37  C   UNL A   1      38.310  31.299  30.442  1.00  0.00     0.049 A 
ATOM     38  N   UNL A   1      39.129  32.044  33.247  1.00  0.00    -0.248 NA
ATOM     39  C   UNL A   1      37.389  33.597  33.285  1.00  0.00     0.031 C 
ATOM     40  C   UNL A   1      37.987  30.933  29.063  1.00  0.00     0.029 A 
ATOM     41  N   UNL A   1      39.385  30.505  30.755  1.00  0.00    -0.354 N 
ATOM     42  C   UNL A   1      39.154  32.733  34.452  1.00  0.00     0.074 A 
ATOM     43  C   UNL A   1      38.103  33.726  34.392  1.00  0.00     0.031 C 
ATOM     44  C   UNL A   1      38.828  29.970  28.657  1.00  0.00     0.029 A 
ATOM     45  C   UNL A   1      39.763  29.666  29.737  1.00  0.00     0.049 A 
ATOM     46  H   UNL A   1      39.842  30.536  31.627  1.00  0.00     0.167 HD
ATOM     47  C   UNL A   1      39.961  32.542  35.522  1.00  0.00     0.037 A 
ATOM     48  C   UNL A   1      40.748  28.749  29.686  1.00  0.00     0.037 A 
ATOM     49  C   UNL A   1      40.982  31.528  35.592  1.00  0.00     0.049 A 
ATOM     50  C   UNL A   1      41.599  28.518  30.904  1.00  0.00     0.074 A 
ATOM     51  C   UNL A   1      41.816  31.211  36.650  1.00  0.00     0.029 A 
ATOM     52  N   UNL A   1      41.302  30.663  34.557  1.00  0.00    -0.354 N 
ATOM     53  N   UNL A   1      41.568  29.129  32.064  1.00  0.00    -0.248 NA
ATOM     54  C   UNL A   1      42.608  27.455  30.812  1.00  0.00     0.031 C 
ATOM     55  C   UNL A   1      42.665  30.176  36.242  1.00  0.00     0.029 A 
ATOM     56  C   UNL A   1      42.328  29.816  34.947  1.00  0.00     0.049 A 
ATOM     57  H   UNL A   1      40.866  30.652  33.674  1.00  0.00     0.167 HD
ATOM     58  C   UNL A   1      42.529  28.505  32.850  1.00  0.00     0.074 A 
ATOM     59  C   UNL A   1      43.115  27.459  32.037  1.00  0.00     0.031 C 
ATOM     60  C   UNL A   1      42.892  28.773  34.128  1.00  0.00     0.037 A 
BRANCH  47  61
ATOM     61  C   UNL A   1      39.770  33.449  36.705  1.00  0.00     0.064 A 
ATOM     62  C   UNL A   1      38.872  33.135  37.738  1.00  0.00     0.173 A 
ATOM     63  C   UNL A   1      40.498  34.643  36.812  1.00  0.00     0.173 A 
ATOM     64  F   UNL A   1      38.141  32.011  37.679  1.00  0.00    -0.203 F 
ATOM     65  C   UNL A   1      38.683  34.001  38.812  1.00  0.00     0.198 A 
ATOM     66  C   UNL A   1      40.330  35.491  37.905  1.00  0.00     0.198 A 
ATOM     67  F   UNL A   1      41.373  34.990  35.857  1.00  0.00    -0.203 F 
ATOM     68  F   UNL A   1      37.776  33.707  39.754  1.00  0.00    -0.200 F 
ATOM     69  C   UNL A   1      39.416  35.175  38.898  1.00  0.00     0.200 A 
ATOM     70  F   UNL A   1      41.047  36.620  37.993  1.00  0.00    -0.200 F 
ATOM     71  F   UNL A   1      39.233  36.005  39.933  1.00  0.00    -0.200 F 
ENDBRANCH  47  61
BRANCH  48  72
ATOM     72  C   UNL A   1      40.940  27.944  28.453  1.00  0.00     0.064 A 
ATOM     73  C   UNL A   1      40.254  26.735  28.269  1.00  0.00     0.173 A 
ATOM     74  C   UNL A   1      41.800  28.368  27.431  1.00  0.00     0.173 A 
ATOM     75  F   UNL A   1      39.433  26.280  29.227  1.00  0.00    -0.203 F 
ATOM     76  C   UNL A   1      40.433  25.973  27.117  1.00  0.00     0.198 A 
ATOM     77  C   UNL A   1      41.960  27.619  26.267  1.00  0.00     0.198 A 
ATOM     78  F   UNL A   1      42.474  29.522  27.555  1.00  0.00    -0.203 F 
ATOM     79  F   UNL A   1      39.794  24.803  26.984  1.00  0.00    -0.200 F 
ATOM     80  C   UNL A   1      41.282  26.418  26.114  1.00  0.00     0.200 A 
ATOM     81  F   UNL A   1      42.768  28.059  25.294  1.00  0.00    -0.200 F 
ATOM     82  F   UNL A   1      41.449  25.689  25.003  1.00  0.00    -0.200 F 
ENDBRANCH  48  72
BRANCH  60  83
ATOM     83  C   UNL A   1      43.941  27.892  34.741  1.00  0.00     0.064 A 
ATOM     84  C   UNL A   1      45.304  28.216  34.682  1.00  0.00     0.173 A 
ATOM     85  C   UNL A   1      43.571  26.717  35.413  1.00  0.00     0.173 A 
ATOM     86  F   UNL A   1      45.709  29.321  34.038  1.00  0.00    -0.203 F 
ATOM     87  C   UNL A   1      46.263  27.376  35.244  1.00  0.00     0.198 A 
ATOM     88  C   UNL A   1      44.531  25.896  35.999  1.00  0.00     0.198 A 
ATOM     89  F   UNL A   1      42.280  26.366  35.504  1.00  0.00    -0.203 F 
ATOM     90  F   UNL A   1      47.564  27.676  35.126  1.00  0.00    -0.200 F 
ATOM     91  C   UNL A   1      45.875  26.221  35.906  1.00  0.00     0.200 A 
ATOM     92  F   UNL A   1      44.153  24.786  36.650  1.00  0.00    -0.200 F 
ATOM     93  F   UNL A   1      46.800  25.413  36.445  1.00  0.00    -0.200 F 
ENDBRANCH  60  83
ENDBRANCH  34  35
ENDBRANCH  26  29
ENDBRANCH  24  25
ENDBRANCH  23  24
ENDBRANCH   1  23
TORSDOF 13
ENDMDL
MODEL 3
REMARK VINA RESULT:     -11.8      0.914      7.466
REMARK SMILES C[NH+](C)[C@@H]1CC[N@@H+](Cc2ccc(C(=O)NCCCNC(=O)c3ccc(-c4c5nc(c(-c6c(F)c(F)c(F)c(F)c6F)c6ccc([nH]6)c(-c6c(F)c(F)c(F)c(F)c6F)c6nc(c(-c7c(F)c(F)c(F)c(F)c7F)c7ccc4[nH]7)C=C6)C=C5)cc3)cn2)C1
REMARK SMILES IDX 16 1 15 2 13 3 14 4 12 6 9 7 10 8 86 9 11 10 85 11 8 12 7 13
REMARK SMILES IDX 4 14 5 15 87 16 6 17 2 19 1 20 3 21 17 23 18 24 19 25 20 26
REMARK SMILES IDX 21 28 22 29 23 30 84 31 24 32 83 33 25 34 26 35 27 36 77 37
REMARK SMILES IDX 28 38 82 39 76 40 78 41 29 42 81 43 75 44 74 45 30 47 62 48
REMARK SMILES IDX 42 49 61 50 43 51 46 52 60 53 79 54 44 55 45 56 59 58 80 59
REMARK SMILES IDX 47 60 31 61 32 62 40 63 33 64 34 65 38 66 41 67 35 68 36 69
REMARK SMILES IDX 39 70 37 71 63 72 64 73 72 74 65 75 66 76 70 77 73 78 67 79
REMARK SMILES IDX 68 80 71 81 69 82 48 83 49 84 57 85 50 86 51 87 55 88 58 89
REMARK SMILES IDX 52 90 53 91 56 92 54 93
REMARK H PARENT 15 5 7 18 2 22 19 27 78 46 46 57
REMARK Flexibility Score: inf
ROOT
ATOM      1  C   UNL A   1      31.532  30.788  26.150  1.00  0.00     0.118 C 
ENDROOT
BRANCH   1   2
ATOM      2  N   UNL A   1      30.965  30.515  24.840  1.00  0.00    -0.352 N 
ATOM      3  C   UNL A   1      30.975  29.379  24.070  1.00  0.00     0.252 C 
ATOM      4  O   UNL A   1      30.319  29.370  23.030  1.00  0.00    -0.269 OA
ATOM      5  H   UNL A   1      30.492  31.277  24.435  1.00  0.00     0.163 HD
BRANCH   3   6
ATOM      6  C   UNL A   1      31.696  28.155  24.476  1.00  0.00     0.058 A 
ATOM      7  C   UNL A   1      32.855  25.848  25.451  1.00  0.00     0.095 A 
ATOM      8  C   UNL A   1      33.639  26.752  24.742  1.00  0.00     0.030 A 
ATOM      9  N   UNL A   1      31.519  26.026  25.613  1.00  0.00    -0.255 NA
ATOM     10  C   UNL A   1      33.046  27.908  24.240  1.00  0.00     0.017 A 
ATOM     11  C   UNL A   1      30.971  27.164  25.120  1.00  0.00     0.125 A 
BRANCH   7  12
ATOM     12  C   UNL A   1      33.493  24.663  26.152  1.00  0.00     0.319 C 
BRANCH  12  13
ATOM     13  N   UNL A   1      33.881  23.514  25.315  1.00  0.00    -0.325 N 
ATOM     14  C   UNL A   1      33.550  21.220  26.093  1.00  0.00     0.245 C 
ATOM     15  C   UNL A   1      32.303  21.712  25.354  1.00  0.00     0.132 C 
ATOM     16  C   UNL A   1      34.540  22.409  26.020  1.00  0.00     0.328 C 
ATOM     17  C   UNL A   1      32.771  22.921  24.561  1.00  0.00     0.269 C 
ATOM     18  H   UNL A   1      34.550  23.957  24.688  1.00  0.00     0.348 HD
BRANCH  14  19
ATOM     19  N   UNL A   1      34.028  19.900  25.626  1.00  0.00    -0.333 N 
ATOM     20  C   UNL A   1      33.093  19.203  24.740  1.00  0.00     0.332 C 
ATOM     21  C   UNL A   1      35.347  19.987  25.000  1.00  0.00     0.332 C 
ATOM     22  H   UNL A   1      34.098  19.337  26.474  1.00  0.00     0.348 HD
ENDBRANCH  14  19
ENDBRANCH  12  13
ENDBRANCH   7  12
ENDBRANCH   3   6
ENDBRANCH   1   2
BRANCH   1  23
ATOM     23  C   UNL A   1      31.403  32.264  26.520  1.00  0.00     0.042 C 
BRANCH  23  24
ATOM     24  C   UNL A   1      32.697  32.889  27.024  1.00  0.00     0.118 C 
BRANCH  24  25
ATOM     25  N   UNL A   1      32.479  34.193  27.626  1.00  0.00    -0.352 N 
ATOM     26  C   UNL A   1      33.034  34.752  28.747  1.00  0.00     0.251 C 
ATOM     27  H   UNL A   1      31.831  34.764  27.154  1.00  0.00     0.163 HD
ATOM     28  O   UNL A   1      32.557  35.793  29.192  1.00  0.00    -0.269 OA
BRANCH  26  29
ATOM     29  C   UNL A   1      34.190  34.128  29.436  1.00  0.00     0.039 A 
ATOM     30  C   UNL A   1      35.477  34.451  28.992  1.00  0.00     0.014 A 
ATOM     31  C   UNL A   1      34.028  33.172  30.444  1.00  0.00     0.014 A 
ATOM     32  C   UNL A   1      36.592  33.829  29.561  1.00  0.00     0.010 A 
ATOM     33  C   UNL A   1      35.143  32.615  31.067  1.00  0.00     0.010 A 
ATOM     34  C   UNL A   1      36.434  32.910  30.608  1.00  0.00    -0.014 A 
BRANCH  34  35
ATOM     35  C   UNL A   1      37.607  32.200  31.179  1.00  0.00     0.031 A 
ATOM     36  C   UNL A   1      38.086  32.532  32.567  1.00  0.00     0.074 A 
ATOM     37  C   UNL A   1      38.258  31.280  30.444  1.00  0.00     0.049 A 
ATOM     38  N   UNL A   1      39.095  32.037  33.240  1.00  0.00    -0.248 NA
ATOM     39  C   UNL A   1      37.350  33.584  33.285  1.00  0.00     0.031 C 
ATOM     40  C   UNL A   1      37.927  30.908  29.068  1.00  0.00     0.029 A 
ATOM     41  N   UNL A   1      39.338  30.491  30.751  1.00  0.00    -0.354 N 
ATOM     42  C   UNL A   1      39.126  32.731  34.442  1.00  0.00     0.074 A 
ATOM     43  C   UNL A   1      38.071  33.720  34.387  1.00  0.00     0.031 C 
ATOM     44  C   UNL A   1      38.768  29.947  28.659  1.00  0.00     0.029 A 
ATOM     45  C   UNL A   1      39.712  29.649  29.734  1.00  0.00     0.049 A 
ATOM     46  H   UNL A   1      39.801  30.527  31.620  1.00  0.00     0.167 HD
ATOM     47  C   UNL A   1      39.942  32.546  35.508  1.00  0.00     0.037 A 
ATOM     48  C   UNL A   1      40.699  28.736  29.679  1.00  0.00     0.037 A 
ATOM     49  C   UNL A   1      40.966  31.536  35.573  1.00  0.00     0.049 A 
ATOM     50  C   UNL A   1      41.560  28.512  30.891  1.00  0.00     0.074 A 
ATOM     51  C   UNL A   1      41.809  31.225  36.627  1.00  0.00     0.029 A 
ATOM     52  N   UNL A   1      41.282  30.668  34.539  1.00  0.00    -0.354 N 
ATOM     53  N   UNL A   1      41.536  29.127  32.050  1.00  0.00    -0.248 NA
ATOM     54  C   UNL A   1      42.573  27.452  30.796  1.00  0.00     0.031 C 
ATOM     55  C   UNL A   1      42.659  30.191  36.216  1.00  0.00     0.029 A 
ATOM     56  C   UNL A   1      42.313  29.827  34.925  1.00  0.00     0.049 A 
ATOM     57  H   UNL A   1      40.840  30.653  33.660  1.00  0.00     0.167 HD
ATOM     58  C   UNL A   1      42.504  28.509  32.830  1.00  0.00     0.074 A 
ATOM     59  C   UNL A   1      43.088  27.462  32.017  1.00  0.00     0.031 C 
ATOM     60  C   UNL A   1      42.875  28.783  34.105  1.00  0.00     0.037 A 
BRANCH  47  61
ATOM     61  C   UNL A   1      39.755  33.456  36.689  1.00  0.00     0.064 A 
ATOM     62  C   UNL A   1      40.447  34.673  36.799  1.00  0.00     0.173 A 
ATOM     63  C   UNL A   1      38.867  33.114  37.718  1.00  0.00     0.173 A 
ATOM     64  F   UNL A   1      41.319  35.042  35.848  1.00  0.00    -0.203 F 
ATOM     65  C   UNL A   1      40.287  35.491  37.914  1.00  0.00     0.198 A 
ATOM     66  C   UNL A   1      38.685  33.951  38.817  1.00  0.00     0.198 A 
ATOM     67  F   UNL A   1      38.175  31.967  37.662  1.00  0.00    -0.203 F 
ATOM     68  F   UNL A   1      41.006  36.617  38.025  1.00  0.00    -0.200 F 
ATOM     69  C   UNL A   1      39.402  35.133  38.920  1.00  0.00     0.200 A 
ATOM     70  F   UNL A   1      37.819  33.609  39.782  1.00  0.00    -0.200 F 
ATOM     71  F   UNL A   1      39.248  35.922  39.991  1.00  0.00    -0.200 F 
ENDBRANCH  47  61
BRANCH  48  72
ATOM     72  C   UNL A   1      40.886  27.927  28.447  1.00  0.00     0.064 A 
ATOM     73  C   UNL A   1      40.233  26.697  28.289  1.00  0.00     0.173 A 
ATOM     74  C   UNL A   1      41.708  28.370  27.401  1.00  0.00     0.173 A 
ATOM     75  F   UNL A   1      39.450  26.225  29.270  1.00  0.00    -0.203 F 
ATOM     76  C   UNL A   1      40.407  25.932  27.138  1.00  0.00     0.198 A 
ATOM     77  C   UNL A   1      41.861  27.616  26.239  1.00  0.00     0.198 A 
ATOM     78  F   UNL A   1      42.348  29.544  27.500  1.00  0.00    -0.203 F 
ATOM     79  F   UNL A   1      39.801  24.742  27.029  1.00  0.00    -0.200 F 
ATOM     80  C   UNL A   1      41.217  26.394  26.111  1.00  0.00     0.200 A 
ATOM     81  F   UNL A   1      42.632  28.073  25.243  1.00  0.00    -0.200 F 
ATOM     82  F   UNL A   1      41.379  25.662  25.001  1.00  0.00    -0.200 F 
ENDBRANCH  48  72
BRANCH  60  83
ATOM     83  C   UNL A   1      43.931  27.907  34.713  1.00  0.00     0.064 A 
ATOM     84  C   UNL A   1      43.610  26.716  35.380  1.00  0.00     0.173 A 
ATOM     85  C   UNL A   1      45.286  28.259  34.610  1.00  0.00     0.173 A 
ATOM     86  F   UNL A   1      42.329  26.344  35.518  1.00  0.00    -0.203 F 
ATOM     87  C   UNL A   1      44.605  25.926  35.951  1.00  0.00     0.198 A 
ATOM     88  C   UNL A   1      46.279  27.451  35.156  1.00  0.00     0.198 A 
ATOM     89  F   UNL A   1      45.647  29.385  33.976  1.00  0.00    -0.203 F 
ATOM     90  F   UNL A   1      44.270  24.821  36.632  1.00  0.00    -0.200 F 
ATOM     91  C   UNL A   1      45.938  26.291  35.834  1.00  0.00     0.200 A 
ATOM     92  F   UNL A   1      47.568  27.799  35.031  1.00  0.00    -0.200 F 
ATOM     93  F   UNL A   1      46.893  25.530  36.386  1.00  0.00    -0.200 F 
ENDBRANCH  60  83
ENDBRANCH  34  35
ENDBRANCH  26  29
ENDBRANCH  24  25
ENDBRANCH  23  24
ENDBRANCH   1  23
TORSDOF 13
ENDMDL
