MODEL 1
REMARK VINA RESULT:     -12.8      0.000      0.000
REMARK SMILES O=C(NCCCNC(=O)c1cc2cnc(Cl)cc2[nH]1)c1ccc(-c2c3nc(c(-c4c(F)c(F)c(F)c(F)c4F)c4ccc([nH]4)c(-c4c(F)c(F)c(F)c(F)c4F)c4nc(c(-c5c(F)c(F)c(F)c(F)c5F)c5ccc2[nH]5)C=C4)C=C3)cc1
REMARK SMILES IDX 4 1 3 2 1 3 2 4 20 6 21 7 82 8 22 9 81 10 23 11 24 12 25 13
REMARK SMILES IDX 75 14 26 15 80 16 74 17 76 18 27 19 79 20 73 21 72 22 28 24
REMARK SMILES IDX 60 25 40 26 59 27 41 28 44 29 58 30 77 31 42 32 43 33 57 35
REMARK SMILES IDX 78 36 45 37 29 38 30 39 38 40 31 41 32 42 36 43 39 44 33 45
REMARK SMILES IDX 34 46 37 47 35 48 61 49 62 50 70 51 63 52 64 53 68 54 71 55
REMARK SMILES IDX 65 56 66 57 69 58 67 59 46 60 47 61 55 62 48 63 49 64 53 65
REMARK SMILES IDX 56 66 50 67 51 68 54 69 52 70 5 71 6 72 7 73 8 74 9 76 10 77
REMARK SMILES IDX 11 78 19 79 12 80 18 81 13 83 17 84 14 85 15 86 16 87
REMARK H PARENT 3 5 76 23 44 34 7 75 19 82
REMARK Flexibility Score: inf
ROOT
ATOM      1  C   UNL A   1      35.456  33.744  28.015  1.00  0.00     0.118 C 
ENDROOT
BRANCH   1   2
ATOM      2  N   UNL A   1      34.602  32.538  28.026  1.00  0.00    -0.352 N 
ATOM      3  O   UNL A   1      34.196  30.306  27.722  1.00  0.00    -0.269 OA
ATOM      4  C   UNL A   1      34.996  31.201  27.949  1.00  0.00     0.251 C 
ATOM      5  H   UNL A   1      33.633  32.697  28.098  1.00  0.00     0.163 HD
BRANCH   4   6
ATOM      6  C   UNL A   1      36.422  30.898  28.170  1.00  0.00     0.039 A 
ATOM      7  C   UNL A   1      37.282  31.608  29.009  1.00  0.00     0.014 A 
ATOM      8  C   UNL A   1      36.838  29.714  27.606  1.00  0.00     0.014 A 
ATOM      9  C   UNL A   1      38.524  31.033  29.288  1.00  0.00     0.010 A 
ATOM     10  C   UNL A   1      37.718  28.987  28.328  1.00  0.00     0.010 A 
ATOM     11  C   UNL A   1      38.728  29.692  28.928  1.00  0.00    -0.014 A 
BRANCH  11  12
ATOM     12  C   UNL A   1      39.947  28.932  29.146  1.00  0.00     0.031 A 
ATOM     13  C   UNL A   1      40.252  28.681  30.567  1.00  0.00     0.074 A 
ATOM     14  C   UNL A   1      40.646  28.351  28.139  1.00  0.00     0.049 A 
ATOM     15  N   UNL A   1      41.192  29.225  31.259  1.00  0.00    -0.248 NA
ATOM     16  C   UNL A   1      39.312  27.871  31.353  1.00  0.00     0.031 C 
ATOM     17  C   UNL A   1      40.338  28.243  26.701  1.00  0.00     0.029 A 
ATOM     18  N   UNL A   1      41.807  27.647  28.224  1.00  0.00    -0.354 N 
ATOM     19  C   UNL A   1      41.090  28.682  32.531  1.00  0.00     0.074 A 
ATOM     20  C   UNL A   1      39.822  27.999  32.580  1.00  0.00     0.031 C 
ATOM     21  C   UNL A   1      41.145  27.332  26.115  1.00  0.00     0.029 A 
ATOM     22  C   UNL A   1      42.153  26.940  27.076  1.00  0.00     0.049 A 
ATOM     23  H   UNL A   1      42.362  27.637  29.038  1.00  0.00     0.167 HD
ATOM     24  C   UNL A   1      42.170  28.655  33.357  1.00  0.00     0.037 A 
ATOM     25  C   UNL A   1      43.196  26.083  26.950  1.00  0.00     0.037 A 
ATOM     26  C   UNL A   1      43.203  29.549  32.890  1.00  0.00     0.049 A 
ATOM     27  C   UNL A   1      44.161  26.436  28.027  1.00  0.00     0.074 A 
ATOM     28  C   UNL A   1      43.261  30.913  32.674  1.00  0.00     0.029 A 
ATOM     29  N   UNL A   1      44.238  29.014  32.157  1.00  0.00    -0.354 N 
ATOM     30  N   UNL A   1      44.811  27.568  28.064  1.00  0.00    -0.248 NA
ATOM     31  C   UNL A   1      43.995  25.765  29.309  1.00  0.00     0.031 C 
ATOM     32  C   UNL A   1      43.973  31.060  31.446  1.00  0.00     0.029 A 
ATOM     33  C   UNL A   1      44.388  29.792  31.034  1.00  0.00     0.049 A 
ATOM     34  H   UNL A   1      44.772  28.222  32.394  1.00  0.00     0.167 HD
ATOM     35  C   UNL A   1      44.767  27.960  29.394  1.00  0.00     0.074 A 
ATOM     36  C   UNL A   1      44.291  26.783  30.122  1.00  0.00     0.031 C 
ATOM     37  C   UNL A   1      44.820  29.276  29.754  1.00  0.00     0.037 A 
BRANCH  24  38
ATOM     38  C   UNL A   1      42.432  27.577  34.370  1.00  0.00     0.064 A 
ATOM     39  C   UNL A   1      43.033  26.375  33.955  1.00  0.00     0.173 A 
ATOM     40  C   UNL A   1      41.860  27.564  35.660  1.00  0.00     0.173 A 
ATOM     41  F   UNL A   1      43.586  26.274  32.736  1.00  0.00    -0.203 F 
ATOM     42  C   UNL A   1      43.002  25.225  34.747  1.00  0.00     0.198 A 
ATOM     43  C   UNL A   1      41.878  26.431  36.470  1.00  0.00     0.198 A 
ATOM     44  F   UNL A   1      41.164  28.601  36.143  1.00  0.00    -0.203 F 
ATOM     45  F   UNL A   1      43.479  24.071  34.263  1.00  0.00    -0.200 F 
ATOM     46  C   UNL A   1      42.420  25.253  36.001  1.00  0.00     0.200 A 
ATOM     47  F   UNL A   1      41.290  26.474  37.674  1.00  0.00    -0.200 F 
ATOM     48  F   UNL A   1      42.336  24.138  36.739  1.00  0.00    -0.200 F 
ENDBRANCH  24  38
BRANCH  25  49
ATOM     49  C   UNL A   1      43.200  24.764  26.265  1.00  0.00     0.064 A 
ATOM     50  C   UNL A   1      44.108  24.491  25.229  1.00  0.00     0.173 A 
ATOM     51  C   UNL A   1      42.522  23.654  26.808  1.00  0.00     0.173 A 
ATOM     52  F   UNL A   1      44.823  25.484  24.682  1.00  0.00    -0.203 F 
ATOM     53  C   UNL A   1      44.352  23.183  24.791  1.00  0.00     0.198 A 
ATOM     54  C   UNL A   1      42.764  22.351  26.369  1.00  0.00     0.198 A 
ATOM     55  F   UNL A   1      41.684  23.798  27.843  1.00  0.00    -0.203 F 
ATOM     56  F   UNL A   1      45.277  22.955  23.846  1.00  0.00    -0.200 F 
ATOM     57  C   UNL A   1      43.691  22.113  25.371  1.00  0.00     0.200 A 
ATOM     58  F   UNL A   1      42.146  21.321  26.966  1.00  0.00    -0.200 F 
ATOM     59  F   UNL A   1      43.977  20.856  25.003  1.00  0.00    -0.200 F 
ENDBRANCH  25  49
BRANCH  37  60
ATOM     60  C   UNL A   1      45.138  30.295  28.689  1.00  0.00     0.064 A 
ATOM     61  C   UNL A   1      44.174  30.903  27.863  1.00  0.00     0.173 A 
ATOM     62  C   UNL A   1      46.441  30.805  28.629  1.00  0.00     0.173 A 
ATOM     63  F   UNL A   1      42.887  30.542  27.924  1.00  0.00    -0.203 F 
ATOM     64  C   UNL A   1      44.509  31.948  27.000  1.00  0.00     0.198 A 
ATOM     65  C   UNL A   1      46.766  31.871  27.793  1.00  0.00     0.198 A 
ATOM     66  F   UNL A   1      47.393  30.305  29.432  1.00  0.00    -0.203 F 
ATOM     67  F   UNL A   1      43.568  32.509  26.225  1.00  0.00    -0.200 F 
ATOM     68  C   UNL A   1      45.803  32.437  26.973  1.00  0.00     0.200 A 
ATOM     69  F   UNL A   1      48.009  32.372  27.808  1.00  0.00    -0.200 F 
ATOM     70  F   UNL A   1      46.117  33.472  26.181  1.00  0.00    -0.200 F 
ENDBRANCH  37  60
ENDBRANCH  11  12
ENDBRANCH   4   6
ENDBRANCH   1   2
BRANCH   1  71
ATOM     71  C   UNL A   1      34.774  35.019  28.460  1.00  0.00     0.042 C 
BRANCH  71  72
ATOM     72  C   UNL A   1      33.381  34.739  29.023  1.00  0.00     0.118 C 
BRANCH  72  73
ATOM     73  N   UNL A   1      32.919  35.728  29.996  1.00  0.00    -0.351 N 
ATOM     74  C   UNL A   1      33.194  35.881  31.338  1.00  0.00     0.267 C 
ATOM     75  H   UNL A   1      32.305  36.403  29.628  1.00  0.00     0.163 HD
ATOM     76  O   UNL A   1      32.545  36.699  31.975  1.00  0.00    -0.268 OA
BRANCH  74  77
ATOM     77  C   UNL A   1      34.195  35.029  31.927  1.00  0.00     0.105 A 
ATOM     78  C   UNL A   1      34.065  33.739  32.421  1.00  0.00     0.043 A 
ATOM     79  N   UNL A   1      35.499  35.385  32.168  1.00  0.00    -0.350 N 
ATOM     80  C   UNL A   1      35.379  33.215  32.592  1.00  0.00     0.019 A 
ATOM     81  C   UNL A   1      36.263  34.261  32.335  1.00  0.00     0.051 A 
ATOM     82  H   UNL A   1      35.835  36.309  32.213  1.00  0.00     0.167 HD
ATOM     83  C   UNL A   1      35.910  31.952  32.879  1.00  0.00     0.123 A 
ATOM     84  C   UNL A   1      37.642  34.084  32.282  1.00  0.00     0.067 A 
ATOM     85  N   UNL A   1      37.249  31.744  32.819  1.00  0.00    -0.244 NA
ATOM     86  C   UNL A   1      38.054  32.783  32.512  1.00  0.00     0.131 A 
ATOM     87  Cl  UNL A   1      39.718  32.380  32.382  1.00  0.00    -0.062 Cl
ENDBRANCH  74  77
ENDBRANCH  72  73
ENDBRANCH  71  72
ENDBRANCH   1  71
TORSDOF 10
ENDMDL
MODEL 2
REMARK VINA RESULT:     -12.7      3.815     11.153
REMARK SMILES O=C(NCCCNC(=O)c1cc2cnc(Cl)cc2[nH]1)c1ccc(-c2c3nc(c(-c4c(F)c(F)c(F)c(F)c4F)c4ccc([nH]4)c(-c4c(F)c(F)c(F)c(F)c4F)c4nc(c(-c5c(F)c(F)c(F)c(F)c5F)c5ccc2[nH]5)C=C4)C=C3)cc1
REMARK SMILES IDX 4 1 3 2 1 3 2 4 20 6 21 7 82 8 22 9 81 10 23 11 24 12 25 13
REMARK SMILES IDX 75 14 26 15 80 16 74 17 76 18 27 19 79 20 73 21 72 22 28 24
REMARK SMILES IDX 60 25 40 26 59 27 41 28 44 29 58 30 77 31 42 32 43 33 57 35
REMARK SMILES IDX 78 36 45 37 29 38 30 39 38 40 31 41 32 42 36 43 39 44 33 45
REMARK SMILES IDX 34 46 37 47 35 48 61 49 62 50 70 51 63 52 64 53 68 54 71 55
REMARK SMILES IDX 65 56 66 57 69 58 67 59 46 60 47 61 55 62 48 63 49 64 53 65
REMARK SMILES IDX 56 66 50 67 51 68 54 69 52 70 5 71 6 72 7 73 8 74 9 76 10 77
REMARK SMILES IDX 11 78 19 79 12 80 18 81 13 83 17 84 14 85 15 86 16 87
REMARK H PARENT 3 5 76 23 44 34 7 75 19 82
REMARK Flexibility Score: inf
ROOT
ATOM      1  C   UNL A   1      41.551  21.158  27.600  1.00  0.00     0.118 C 
ENDROOT
BRANCH   1   2
ATOM      2  N   UNL A   1      40.453  21.496  26.670  1.00  0.00    -0.352 N 
ATOM      3  O   UNL A   1      38.620  22.694  26.005  1.00  0.00    -0.269 OA
ATOM      4  C   UNL A   1      39.647  22.636  26.664  1.00  0.00     0.251 C 
ATOM      5  H   UNL A   1      40.268  20.834  25.965  1.00  0.00     0.163 HD
BRANCH   4   6
ATOM      6  C   UNL A   1      40.089  23.786  27.473  1.00  0.00     0.039 A 
ATOM      7  C   UNL A   1      41.409  24.070  27.826  1.00  0.00     0.014 A 
ATOM      8  C   UNL A   1      39.097  24.704  27.734  1.00  0.00     0.014 A 
ATOM      9  C   UNL A   1      41.668  25.328  28.379  1.00  0.00     0.010 A 
ATOM     10  C   UNL A   1      39.466  26.003  27.706  1.00  0.00     0.010 A 
ATOM     11  C   UNL A   1      40.658  26.301  28.310  1.00  0.00    -0.014 A 
BRANCH  11  12
ATOM     12  C   UNL A   1      40.753  27.657  28.822  1.00  0.00     0.031 A 
ATOM     13  C   UNL A   1      41.859  28.442  28.243  1.00  0.00     0.074 A 
ATOM     14  C   UNL A   1      39.809  28.213  29.623  1.00  0.00     0.049 A 
ATOM     15  N   UNL A   1      42.946  28.793  28.838  1.00  0.00    -0.248 NA
ATOM     16  C   UNL A   1      41.839  28.723  26.802  1.00  0.00     0.031 C 
ATOM     17  C   UNL A   1      38.501  27.690  30.061  1.00  0.00     0.029 A 
ATOM     18  N   UNL A   1      39.808  29.453  30.180  1.00  0.00    -0.354 N 
ATOM     19  C   UNL A   1      43.675  29.512  27.903  1.00  0.00     0.074 A 
ATOM     20  C   UNL A   1      43.035  29.288  26.631  1.00  0.00     0.031 C 
ATOM     21  C   UNL A   1      37.756  28.680  30.599  1.00  0.00     0.029 A 
ATOM     22  C   UNL A   1      38.593  29.852  30.729  1.00  0.00     0.049 A 
ATOM     23  H   UNL A   1      40.609  30.027  30.193  1.00  0.00     0.167 HD
ATOM     24  C   UNL A   1      44.610  30.414  28.304  1.00  0.00     0.037 A 
ATOM     25  C   UNL A   1      38.312  31.077  31.240  1.00  0.00     0.037 A 
ATOM     26  C   UNL A   1      44.958  30.219  29.692  1.00  0.00     0.049 A 
ATOM     27  C   UNL A   1      39.620  31.699  31.583  1.00  0.00     0.074 A 
ATOM     28  C   UNL A   1      45.505  29.166  30.401  1.00  0.00     0.029 A 
ATOM     29  N   UNL A   1      44.347  31.018  30.630  1.00  0.00    -0.354 N 
ATOM     30  N   UNL A   1      40.405  31.245  32.523  1.00  0.00    -0.248 NA
ATOM     31  C   UNL A   1      40.274  32.480  30.542  1.00  0.00     0.031 C 
ATOM     32  C   UNL A   1      44.762  29.118  31.618  1.00  0.00     0.029 A 
ATOM     33  C   UNL A   1      43.873  30.194  31.623  1.00  0.00     0.049 A 
ATOM     34  H   UNL A   1      44.265  31.999  30.597  1.00  0.00     0.167 HD
ATOM     35  C   UNL A   1      41.682  31.314  31.985  1.00  0.00     0.074 A 
ATOM     36  C   UNL A   1      41.542  32.129  30.777  1.00  0.00     0.031 C 
ATOM     37  C   UNL A   1      42.672  30.463  32.383  1.00  0.00     0.037 A 
BRANCH  24  38
ATOM     38  C   UNL A   1      44.943  31.676  27.559  1.00  0.00     0.064 A 
ATOM     39  C   UNL A   1      46.215  31.813  26.973  1.00  0.00     0.173 A 
ATOM     40  C   UNL A   1      44.175  32.857  27.644  1.00  0.00     0.173 A 
ATOM     41  F   UNL A   1      47.034  30.756  26.865  1.00  0.00    -0.203 F 
ATOM     42  C   UNL A   1      46.707  33.055  26.567  1.00  0.00     0.198 A 
ATOM     43  C   UNL A   1      44.648  34.085  27.188  1.00  0.00     0.198 A 
ATOM     44  F   UNL A   1      42.994  32.895  28.271  1.00  0.00    -0.203 F 
ATOM     45  F   UNL A   1      47.967  33.159  26.126  1.00  0.00    -0.200 F 
ATOM     46  C   UNL A   1      45.925  34.190  26.679  1.00  0.00     0.200 A 
ATOM     47  F   UNL A   1      43.882  35.176  27.326  1.00  0.00    -0.200 F 
ATOM     48  F   UNL A   1      46.414  35.391  26.345  1.00  0.00    -0.200 F 
ENDBRANCH  24  38
BRANCH  25  49
ATOM     49  C   UNL A   1      37.069  31.869  31.046  1.00  0.00     0.064 A 
ATOM     50  C   UNL A   1      36.260  32.221  32.139  1.00  0.00     0.173 A 
ATOM     51  C   UNL A   1      36.811  32.544  29.837  1.00  0.00     0.173 A 
ATOM     52  F   UNL A   1      36.463  31.655  33.337  1.00  0.00    -0.203 F 
ATOM     53  C   UNL A   1      35.279  33.216  32.037  1.00  0.00     0.198 A 
ATOM     54  C   UNL A   1      35.831  33.535  29.736  1.00  0.00     0.198 A 
ATOM     55  F   UNL A   1      37.568  32.329  28.752  1.00  0.00    -0.203 F 
ATOM     56  F   UNL A   1      34.573  33.573  33.120  1.00  0.00    -0.200 F 
ATOM     57  C   UNL A   1      35.076  33.882  30.840  1.00  0.00     0.200 A 
ATOM     58  F   UNL A   1      35.672  34.198  28.581  1.00  0.00    -0.200 F 
ATOM     59  F   UNL A   1      34.190  34.884  30.761  1.00  0.00    -0.200 F 
ENDBRANCH  25  49
BRANCH  37  60
ATOM     60  C   UNL A   1      42.415  29.575  33.573  1.00  0.00     0.064 A 
ATOM     61  C   UNL A   1      41.814  28.304  33.497  1.00  0.00     0.173 A 
ATOM     62  C   UNL A   1      42.961  29.948  34.808  1.00  0.00     0.173 A 
ATOM     63  F   UNL A   1      41.350  27.829  32.336  1.00  0.00    -0.203 F 
ATOM     64  C   UNL A   1      41.739  27.466  34.611  1.00  0.00     0.198 A 
ATOM     65  C   UNL A   1      42.916  29.096  35.910  1.00  0.00     0.198 A 
ATOM     66  F   UNL A   1      43.596  31.123  34.931  1.00  0.00    -0.203 F 
ATOM     67  F   UNL A   1      41.161  26.259  34.509  1.00  0.00    -0.200 F 
ATOM     68  C   UNL A   1      42.299  27.860  35.814  1.00  0.00     0.200 A 
ATOM     69  F   UNL A   1      43.503  29.462  37.057  1.00  0.00    -0.200 F 
ATOM     70  F   UNL A   1      42.271  27.037  36.872  1.00  0.00    -0.200 F 
ENDBRANCH  37  60
ENDBRANCH  11  12
ENDBRANCH   4   6
ENDBRANCH   1   2
BRANCH   1  71
ATOM     71  C   UNL A   1      42.319  19.901  27.259  1.00  0.00     0.042 C 
BRANCH  71  72
ATOM     72  C   UNL A   1      42.277  19.612  25.758  1.00  0.00     0.118 C 
BRANCH  72  73
ATOM     73  N   UNL A   1      43.492  18.988  25.235  1.00  0.00    -0.351 N 
ATOM     74  C   UNL A   1      44.699  19.530  24.848  1.00  0.00     0.267 C 
ATOM     75  H   UNL A   1      43.439  18.010  25.143  1.00  0.00     0.163 HD
ATOM     76  O   UNL A   1      45.507  18.807  24.282  1.00  0.00    -0.268 OA
BRANCH  74  77
ATOM     77  C   UNL A   1      44.918  20.934  25.084  1.00  0.00     0.105 A 
ATOM     78  C   UNL A   1      44.525  22.022  24.319  1.00  0.00     0.043 A 
ATOM     79  N   UNL A   1      45.642  21.460  26.126  1.00  0.00    -0.350 N 
ATOM     80  C   UNL A   1      44.689  23.188  25.121  1.00  0.00     0.019 A 
ATOM     81  C   UNL A   1      45.318  22.780  26.295  1.00  0.00     0.051 A 
ATOM     82  H   UNL A   1      46.296  20.964  26.669  1.00  0.00     0.167 HD
ATOM     83  C   UNL A   1      44.318  24.532  24.999  1.00  0.00     0.123 A 
ATOM     84  C   UNL A   1      45.525  23.634  27.374  1.00  0.00     0.067 A 
ATOM     85  N   UNL A   1      44.491  25.387  26.039  1.00  0.00    -0.244 NA
ATOM     86  C   UNL A   1      45.057  24.921  27.173  1.00  0.00     0.131 A 
ATOM     87  Cl  UNL A   1      45.146  26.069  28.447  1.00  0.00    -0.062 Cl
ENDBRANCH  74  77
ENDBRANCH  72  73
ENDBRANCH  71  72
ENDBRANCH   1  71
TORSDOF 10
ENDMDL
MODEL 3
REMARK VINA RESULT:     -12.4      5.171     10.892
REMARK SMILES O=C(NCCCNC(=O)c1cc2cnc(Cl)cc2[nH]1)c1ccc(-c2c3nc(c(-c4c(F)c(F)c(F)c(F)c4F)c4ccc([nH]4)c(-c4c(F)c(F)c(F)c(F)c4F)c4nc(c(-c5c(F)c(F)c(F)c(F)c5F)c5ccc2[nH]5)C=C4)C=C3)cc1
REMARK SMILES IDX 4 1 3 2 1 3 2 4 20 6 21 7 82 8 22 9 81 10 23 11 24 12 25 13
REMARK SMILES IDX 75 14 26 15 80 16 74 17 76 18 27 19 79 20 73 21 72 22 28 24
REMARK SMILES IDX 60 25 40 26 59 27 41 28 44 29 58 30 77 31 42 32 43 33 57 35
REMARK SMILES IDX 78 36 45 37 29 38 30 39 38 40 31 41 32 42 36 43 39 44 33 45
REMARK SMILES IDX 34 46 37 47 35 48 61 49 62 50 70 51 63 52 64 53 68 54 71 55
REMARK SMILES IDX 65 56 66 57 69 58 67 59 46 60 47 61 55 62 48 63 49 64 53 65
REMARK SMILES IDX 56 66 50 67 51 68 54 69 52 70 5 71 6 72 7 73 8 74 9 76 10 77
REMARK SMILES IDX 11 78 19 79 12 80 18 81 13 83 17 84 14 85 15 86 16 87
REMARK H PARENT 3 5 76 23 44 34 7 75 19 82
REMARK Flexibility Score: inf
ROOT
ATOM      1  C   UNL A   1      40.282  22.096  26.844  1.00  0.00     0.118 C 
ENDROOT
BRANCH   1   2
ATOM      2  N   UNL A   1      41.484  22.341  26.019  1.00  0.00    -0.352 N 
ATOM      3  O   UNL A   1      43.043  23.677  25.008  1.00  0.00    -0.269 OA
ATOM      4  C   UNL A   1      42.221  23.521  25.898  1.00  0.00     0.251 C 
ATOM      5  H   UNL A   1      41.806  21.576  25.489  1.00  0.00     0.163 HD
BRANCH   4   6
ATOM      6  C   UNL A   1      41.987  24.576  26.901  1.00  0.00     0.039 A 
ATOM      7  C   UNL A   1      42.668  24.711  28.111  1.00  0.00     0.014 A 
ATOM      8  C   UNL A   1      41.132  25.569  26.481  1.00  0.00     0.014 A 
ATOM      9  C   UNL A   1      42.491  25.904  28.816  1.00  0.00     0.010 A 
ATOM     10  C   UNL A   1      41.447  26.826  26.862  1.00  0.00     0.010 A 
ATOM     11  C   UNL A   1      41.860  26.973  28.159  1.00  0.00    -0.014 A 
BRANCH  11  12
ATOM     12  C   UNL A   1      41.600  28.283  28.731  1.00  0.00     0.031 A 
ATOM     13  C   UNL A   1      42.588  29.311  28.352  1.00  0.00     0.074 A 
ATOM     14  C   UNL A   1      40.461  28.583  29.404  1.00  0.00     0.049 A 
ATOM     15  N   UNL A   1      43.486  29.831  29.113  1.00  0.00    -0.248 NA
ATOM     16  C   UNL A   1      42.706  29.678  26.935  1.00  0.00     0.031 C 
ATOM     17  C   UNL A   1      39.243  27.781  29.625  1.00  0.00     0.029 A 
ATOM     18  N   UNL A   1      40.127  29.758  30.001  1.00  0.00    -0.354 N 
ATOM     19  C   UNL A   1      44.171  30.744  28.323  1.00  0.00     0.074 A 
ATOM     20  C   UNL A   1      43.771  30.482  26.963  1.00  0.00     0.031 C 
ATOM     21  C   UNL A   1      38.242  28.563  30.084  1.00  0.00     0.029 A 
ATOM     22  C   UNL A   1      38.792  29.868  30.380  1.00  0.00     0.049 A 
ATOM     23  H   UNL A   1      40.781  30.479  30.154  1.00  0.00     0.167 HD
ATOM     24  C   UNL A   1      44.834  31.785  28.892  1.00  0.00     0.037 A 
ATOM     25  C   UNL A   1      38.195  30.974  30.890  1.00  0.00     0.037 A 
ATOM     26  C   UNL A   1      45.022  31.571  30.308  1.00  0.00     0.049 A 
ATOM     27  C   UNL A   1      39.286  31.822  31.445  1.00  0.00     0.074 A 
ATOM     28  C   UNL A   1      45.674  30.604  31.049  1.00  0.00     0.029 A 
ATOM     29  N   UNL A   1      44.136  32.166  31.175  1.00  0.00    -0.354 N 
ATOM     30  N   UNL A   1      40.012  31.472  32.473  1.00  0.00    -0.248 NA
ATOM     31  C   UNL A   1      39.899  32.786  30.542  1.00  0.00     0.031 C 
ATOM     32  C   UNL A   1      44.798  30.326  32.141  1.00  0.00     0.029 A 
ATOM     33  C   UNL A   1      43.713  31.200  32.056  1.00  0.00     0.049 A 
ATOM     34  H   UNL A   1      43.857  33.111  31.167  1.00  0.00     0.167 HD
ATOM     35  C   UNL A   1      41.308  31.831  32.132  1.00  0.00     0.074 A 
ATOM     36  C   UNL A   1      41.168  32.681  30.948  1.00  0.00     0.031 C 
ATOM     37  C   UNL A   1      42.390  31.171  32.639  1.00  0.00     0.037 A 
BRANCH  24  38
ATOM     38  C   UNL A   1      44.996  33.135  28.252  1.00  0.00     0.064 A 
ATOM     39  C   UNL A   1      46.286  33.590  27.923  1.00  0.00     0.173 A 
ATOM     40  C   UNL A   1      43.975  34.108  28.216  1.00  0.00     0.173 A 
ATOM     41  F   UNL A   1      47.333  32.750  27.949  1.00  0.00    -0.203 F 
ATOM     42  C   UNL A   1      46.544  34.934  27.645  1.00  0.00     0.198 A 
ATOM     43  C   UNL A   1      44.225  35.437  27.886  1.00  0.00     0.198 A 
ATOM     44  F   UNL A   1      42.722  33.842  28.607  1.00  0.00    -0.203 F 
ATOM     45  F   UNL A   1      47.805  35.344  27.455  1.00  0.00    -0.200 F 
ATOM     46  C   UNL A   1      45.514  35.857  27.632  1.00  0.00     0.200 A 
ATOM     47  F   UNL A   1      43.217  36.320  27.900  1.00  0.00    -0.200 F 
ATOM     48  F   UNL A   1      45.766  37.156  27.425  1.00  0.00    -0.200 F 
ENDBRANCH  24  38
BRANCH  25  49
ATOM     49  C   UNL A   1      36.853  31.513  30.545  1.00  0.00     0.064 A 
ATOM     50  C   UNL A   1      35.941  31.877  31.550  1.00  0.00     0.173 A 
ATOM     51  C   UNL A   1      36.554  31.956  29.241  1.00  0.00     0.173 A 
ATOM     52  F   UNL A   1      36.170  31.529  32.824  1.00  0.00    -0.203 F 
ATOM     53  C   UNL A   1      34.821  32.670  31.273  1.00  0.00     0.198 A 
ATOM     54  C   UNL A   1      35.435  32.746  28.966  1.00  0.00     0.198 A 
ATOM     55  F   UNL A   1      37.392  31.718  28.223  1.00  0.00    -0.203 F 
ATOM     56  F   UNL A   1      34.010  33.055  32.270  1.00  0.00    -0.200 F 
ATOM     57  C   UNL A   1      34.577  33.116  29.985  1.00  0.00     0.200 A 
ATOM     58  F   UNL A   1      35.232  33.202  27.722  1.00  0.00    -0.200 F 
ATOM     59  F   UNL A   1      33.546  33.935  29.732  1.00  0.00    -0.200 F 
ENDBRANCH  25  49
BRANCH  37  60
ATOM     60  C   UNL A   1      42.162  30.171  33.744  1.00  0.00     0.064 A 
ATOM     61  C   UNL A   1      41.895  28.805  33.532  1.00  0.00     0.173 A 
ATOM     62  C   UNL A   1      42.404  30.575  35.063  1.00  0.00     0.173 A 
ATOM     63  F   UNL A   1      41.744  28.315  32.297  1.00  0.00    -0.203 F 
ATOM     64  C   UNL A   1      41.843  27.900  34.595  1.00  0.00     0.198 A 
ATOM     65  C   UNL A   1      42.386  29.665  36.117  1.00  0.00     0.198 A 
ATOM     66  F   UNL A   1      42.720  31.853  35.324  1.00  0.00    -0.203 F 
ATOM     67  F   UNL A   1      41.586  26.603  34.363  1.00  0.00    -0.200 F 
ATOM     68  C   UNL A   1      42.098  28.330  35.885  1.00  0.00     0.200 A 
ATOM     69  F   UNL A   1      42.683  30.078  37.357  1.00  0.00    -0.200 F 
ATOM     70  F   UNL A   1      42.097  27.454  36.900  1.00  0.00    -0.200 F 
ENDBRANCH  37  60
ENDBRANCH  11  12
ENDBRANCH   4   6
ENDBRANCH   1   2
BRANCH   1  71
ATOM     71  C   UNL A   1      39.042  21.706  26.072  1.00  0.00     0.042 C 
BRANCH  71  72
ATOM     72  C   UNL A   1      38.054  22.869  25.979  1.00  0.00     0.118 C 
BRANCH  72  73
ATOM     73  N   UNL A   1      37.685  23.233  24.612  1.00  0.00    -0.351 N 
ATOM     74  C   UNL A   1      36.673  22.780  23.791  1.00  0.00     0.267 C 
ATOM     75  H   UNL A   1      38.259  23.922  24.206  1.00  0.00     0.163 HD
ATOM     76  O   UNL A   1      36.677  23.125  22.618  1.00  0.00    -0.268 OA
BRANCH  74  77
ATOM     77  C   UNL A   1      35.698  21.880  24.352  1.00  0.00     0.105 A 
ATOM     78  C   UNL A   1      34.384  22.133  24.718  1.00  0.00     0.043 A 
ATOM     79  N   UNL A   1      35.930  20.571  24.693  1.00  0.00    -0.350 N 
ATOM     80  C   UNL A   1      33.747  20.873  24.910  1.00  0.00     0.019 A 
ATOM     81  C   UNL A   1      34.739  19.902  24.799  1.00  0.00     0.051 A 
ATOM     82  H   UNL A   1      36.818  20.173  24.841  1.00  0.00     0.167 HD
ATOM     83  C   UNL A   1      32.427  20.453  25.109  1.00  0.00     0.123 A 
ATOM     84  C   UNL A   1      34.462  18.539  24.802  1.00  0.00     0.067 A 
ATOM     85  N   UNL A   1      32.121  19.131  25.102  1.00  0.00    -0.244 NA
ATOM     86  C   UNL A   1      33.118  18.236  24.935  1.00  0.00     0.131 A 
ATOM     87  Cl  UNL A   1      32.600  16.601  24.857  1.00  0.00    -0.062 Cl
ENDBRANCH  74  77
ENDBRANCH  72  73
ENDBRANCH  71  72
ENDBRANCH   1  71
TORSDOF 10
ENDMDL
