MODEL 1
REMARK VINA RESULT:     -11.7      0.000      0.000
REMARK SMILES O=C(NCCCNC(=O)c1ccc(-c2c3nc(c(-c4c(F)c(F)c(F)c(F)c4F)c4ccc([nH]4)c(-c4c(F)c(F)c(F)c(F)c4F)c4nc(c(-c5c(F)c(F)c(F)c(F)c5F)c5ccc2[nH]5)C=C4)C=C3)cc1)C1=Cc2cc(Cl)c(Cl)c(Cl)c2O[C@@H]1C(F)(F)F
REMARK SMILES IDX 5 1 4 2 3 3 1 4 2 5 73 7 74 8 85 9 75 10 84 11 76 12 83 13
REMARK SMILES IDX 77 14 81 15 78 16 79 17 82 18 80 19 86 20 87 21 88 22 89 23
REMARK SMILES IDX 6 24 7 25 8 26 9 28 10 29 11 30 72 31 12 32 71 33 13 34
REMARK SMILES IDX 14 35 15 36 65 37 16 38 70 39 64 40 66 41 17 42 69 43 63 44
REMARK SMILES IDX 62 45 18 47 50 48 30 49 49 50 31 51 34 52 48 53 67 54 32 55
REMARK SMILES IDX 33 56 47 58 68 59 35 60 19 61 20 62 28 63 21 64 22 65 26 66
REMARK SMILES IDX 29 67 23 68 24 69 27 70 25 71 51 72 52 73 60 74 53 75 54 76
REMARK SMILES IDX 58 77 61 78 55 79 56 80 59 81 57 82 36 83 37 84 45 85 38 86
REMARK SMILES IDX 39 87 43 88 46 89 40 90 41 91 44 92 42 93
REMARK H PARENT 3 6 7 27 66 46 34 57
REMARK Flexibility Score: inf
ROOT
ATOM      1  C   UNL A   1      41.757  21.854  25.940  1.00  0.00     0.042 C 
ENDROOT
BRANCH   1   2
ATOM      2  C   UNL A   1      43.017  21.838  26.799  1.00  0.00     0.118 C 
BRANCH   2   3
ATOM      3  N   UNL A   1      44.189  21.317  26.089  1.00  0.00    -0.352 N 
ATOM      4  O   UNL A   1      46.340  21.283  25.366  1.00  0.00    -0.270 OA
ATOM      5  C   UNL A   1      45.391  21.918  25.801  1.00  0.00     0.251 C 
ATOM      6  H   UNL A   1      44.101  20.390  25.769  1.00  0.00     0.163 HD
BRANCH   5   7
ATOM      7  C   UNL A   1      45.488  23.362  26.070  1.00  0.00     0.067 C 
ATOM      8  C   UNL A   1      46.226  23.713  27.130  1.00  0.00     0.025 C 
ATOM      9  C   UNL A   1      45.139  24.298  24.958  1.00  0.00     0.314 C 
ATOM     10  C   UNL A   1      47.160  24.808  26.859  1.00  0.00     0.020 A 
ATOM     11  O   UNL A   1      46.229  25.196  24.636  1.00  0.00    -0.474 OA
ATOM     12  C   UNL A   1      48.238  24.948  27.736  1.00  0.00     0.034 A 
ATOM     13  C   UNL A   1      47.222  25.376  25.573  1.00  0.00     0.148 A 
ATOM     14  C   UNL A   1      49.427  25.530  27.291  1.00  0.00     0.062 A 
ATOM     15  C   UNL A   1      48.412  25.989  25.138  1.00  0.00     0.103 A 
ATOM     16  Cl  UNL A   1      50.773  25.463  28.379  1.00  0.00    -0.083 Cl
ATOM     17  C   UNL A   1      49.533  26.030  25.985  1.00  0.00     0.082 A 
ATOM     18  Cl  UNL A   1      48.514  26.527  23.487  1.00  0.00    -0.079 Cl
ATOM     19  Cl  UNL A   1      51.065  26.598  25.397  1.00  0.00    -0.081 Cl
BRANCH   9  20
ATOM     20  C   UNL A   1      43.854  25.084  25.263  1.00  0.00     0.429 C 
ATOM     21  F   UNL A   1      42.815  24.625  24.524  1.00  0.00    -0.167 F 
ATOM     22  F   UNL A   1      43.490  24.977  26.561  1.00  0.00    -0.167 F 
ATOM     23  F   UNL A   1      43.991  26.403  24.988  1.00  0.00    -0.167 F 
ENDBRANCH   9  20
ENDBRANCH   5   7
ENDBRANCH   2   3
ENDBRANCH   1   2
BRANCH   1  24
ATOM     24  C   UNL A   1      40.487  21.682  26.765  1.00  0.00     0.118 C 
BRANCH  24  25
ATOM     25  N   UNL A   1      39.276  22.149  26.100  1.00  0.00    -0.352 N 
ATOM     26  C   UNL A   1      38.697  23.403  26.074  1.00  0.00     0.251 C 
ATOM     27  H   UNL A   1      38.793  21.460  25.588  1.00  0.00     0.163 HD
ATOM     28  O   UNL A   1      37.637  23.572  25.494  1.00  0.00    -0.269 OA
BRANCH  26  29
ATOM     29  C   UNL A   1      39.337  24.535  26.786  1.00  0.00     0.039 A 
ATOM     30  C   UNL A   1      40.102  25.453  26.058  1.00  0.00     0.014 A 
ATOM     31  C   UNL A   1      39.165  24.711  28.157  1.00  0.00     0.014 A 
ATOM     32  C   UNL A   1      40.602  26.598  26.689  1.00  0.00     0.010 A 
ATOM     33  C   UNL A   1      39.556  25.904  28.753  1.00  0.00     0.010 A 
ATOM     34  C   UNL A   1      40.283  26.861  28.030  1.00  0.00    -0.014 A 
BRANCH  34  35
ATOM     35  C   UNL A   1      40.704  28.110  28.722  1.00  0.00     0.031 A 
ATOM     36  C   UNL A   1      42.125  28.248  29.201  1.00  0.00     0.074 A 
ATOM     37  C   UNL A   1      39.795  29.059  29.025  1.00  0.00     0.049 A 
ATOM     38  N   UNL A   1      42.654  29.147  29.993  1.00  0.00    -0.248 NA
ATOM     39  C   UNL A   1      43.068  27.200  28.776  1.00  0.00     0.031 C 
ATOM     40  C   UNL A   1      38.374  29.020  28.675  1.00  0.00     0.029 A 
ATOM     41  N   UNL A   1      39.931  30.236  29.718  1.00  0.00    -0.354 N 
ATOM     42  C   UNL A   1      43.967  28.741  30.200  1.00  0.00     0.074 A 
ATOM     43  C   UNL A   1      44.139  27.488  29.500  1.00  0.00     0.031 C 
ATOM     44  C   UNL A   1      37.777  30.133  29.129  1.00  0.00     0.029 A 
ATOM     45  C   UNL A   1      38.758  30.943  29.843  1.00  0.00     0.049 A 
ATOM     46  H   UNL A   1      40.788  30.546  30.090  1.00  0.00     0.167 HD
ATOM     47  C   UNL A   1      44.949  29.371  30.886  1.00  0.00     0.037 A 
ATOM     48  C   UNL A   1      38.505  32.108  30.469  1.00  0.00     0.037 A 
ATOM     49  C   UNL A   1      44.793  30.655  31.514  1.00  0.00     0.049 A 
ATOM     50  C   UNL A   1      39.628  32.819  31.174  1.00  0.00     0.074 A 
ATOM     51  C   UNL A   1      45.747  31.422  32.160  1.00  0.00     0.029 A 
ATOM     52  N   UNL A   1      43.607  31.371  31.553  1.00  0.00    -0.354 N 
ATOM     53  N   UNL A   1      40.878  32.451  31.319  1.00  0.00    -0.248 NA
ATOM     54  C   UNL A   1      39.308  34.110  31.798  1.00  0.00     0.031 C 
ATOM     55  C   UNL A   1      45.129  32.591  32.617  1.00  0.00     0.029 A 
ATOM     56  C   UNL A   1      43.802  32.571  32.218  1.00  0.00     0.049 A 
ATOM     57  H   UNL A   1      42.752  31.072  31.167  1.00  0.00     0.167 HD
ATOM     58  C   UNL A   1      41.500  33.476  32.020  1.00  0.00     0.074 A 
ATOM     59  C   UNL A   1      40.492  34.487  32.262  1.00  0.00     0.031 C 
ATOM     60  C   UNL A   1      42.788  33.572  32.427  1.00  0.00     0.037 A 
BRANCH  47  61
ATOM     61  C   UNL A   1      46.284  28.688  30.975  1.00  0.00     0.064 A 
ATOM     62  C   UNL A   1      46.609  27.841  32.047  1.00  0.00     0.173 A 
ATOM     63  C   UNL A   1      47.242  28.863  29.965  1.00  0.00     0.173 A 
ATOM     64  F   UNL A   1      45.733  27.650  33.046  1.00  0.00    -0.203 F 
ATOM     65  C   UNL A   1      47.855  27.227  32.123  1.00  0.00     0.198 A 
ATOM     66  C   UNL A   1      48.476  28.218  30.028  1.00  0.00     0.198 A 
ATOM     67  F   UNL A   1      46.983  29.656  28.916  1.00  0.00    -0.203 F 
ATOM     68  F   UNL A   1      48.163  26.471  33.187  1.00  0.00    -0.200 F 
ATOM     69  C   UNL A   1      48.785  27.409  31.111  1.00  0.00     0.200 A 
ATOM     70  F   UNL A   1      49.368  28.387  29.043  1.00  0.00    -0.200 F 
ATOM     71  F   UNL A   1      49.983  26.813  31.184  1.00  0.00    -0.200 F 
ENDBRANCH  47  61
BRANCH  48  72
ATOM     72  C   UNL A   1      37.140  32.694  30.429  1.00  0.00     0.064 A 
ATOM     73  C   UNL A   1      36.748  33.522  29.367  1.00  0.00     0.173 A 
ATOM     74  C   UNL A   1      36.202  32.448  31.442  1.00  0.00     0.173 A 
ATOM     75  F   UNL A   1      37.616  33.803  28.384  1.00  0.00    -0.203 F 
ATOM     76  C   UNL A   1      35.480  34.099  29.331  1.00  0.00     0.198 A 
ATOM     77  C   UNL A   1      34.924  33.004  31.392  1.00  0.00     0.198 A 
ATOM     78  F   UNL A   1      36.523  31.659  32.477  1.00  0.00    -0.203 F 
ATOM     79  F   UNL A   1      35.150  34.923  28.327  1.00  0.00    -0.200 F 
ATOM     80  C   UNL A   1      34.568  33.836  30.341  1.00  0.00     0.200 A 
ATOM     81  F   UNL A   1      34.041  32.738  32.362  1.00  0.00    -0.200 F 
ATOM     82  F   UNL A   1      33.348  34.390  30.305  1.00  0.00    -0.200 F 
ENDBRANCH  48  72
BRANCH  60  83
ATOM     83  C   UNL A   1      43.196  34.829  33.133  1.00  0.00     0.064 A 
ATOM     84  C   UNL A   1      43.574  35.980  32.428  1.00  0.00     0.173 A 
ATOM     85  C   UNL A   1      43.153  34.897  34.535  1.00  0.00     0.173 A 
ATOM     86  F   UNL A   1      43.643  35.957  31.089  1.00  0.00    -0.203 F 
ATOM     87  C   UNL A   1      43.913  37.149  33.101  1.00  0.00     0.198 A 
ATOM     88  C   UNL A   1      43.466  36.076  35.203  1.00  0.00     0.198 A 
ATOM     89  F   UNL A   1      42.790  33.824  35.254  1.00  0.00    -0.203 F 
ATOM     90  F   UNL A   1      44.309  38.227  32.410  1.00  0.00    -0.200 F 
ATOM     91  C   UNL A   1      43.852  37.200  34.487  1.00  0.00     0.200 A 
ATOM     92  F   UNL A   1      43.393  36.127  36.540  1.00  0.00    -0.200 F 
ATOM     93  F   UNL A   1      44.168  38.330  35.132  1.00  0.00    -0.200 F 
ENDBRANCH  60  83
ENDBRANCH  34  35
ENDBRANCH  26  29
ENDBRANCH  24  25
ENDBRANCH   1  24
TORSDOF 11
ENDMDL
MODEL 2
REMARK VINA RESULT:     -11.6      5.460     11.146
REMARK SMILES O=C(NCCCNC(=O)c1ccc(-c2c3nc(c(-c4c(F)c(F)c(F)c(F)c4F)c4ccc([nH]4)c(-c4c(F)c(F)c(F)c(F)c4F)c4nc(c(-c5c(F)c(F)c(F)c(F)c5F)c5ccc2[nH]5)C=C4)C=C3)cc1)C1=Cc2cc(Cl)c(Cl)c(Cl)c2O[C@@H]1C(F)(F)F
REMARK SMILES IDX 5 1 4 2 3 3 1 4 2 5 73 7 74 8 85 9 75 10 84 11 76 12 83 13
REMARK SMILES IDX 77 14 81 15 78 16 79 17 82 18 80 19 86 20 87 21 88 22 89 23
REMARK SMILES IDX 6 24 7 25 8 26 9 28 10 29 11 30 72 31 12 32 71 33 13 34
REMARK SMILES IDX 14 35 15 36 65 37 16 38 70 39 64 40 66 41 17 42 69 43 63 44
REMARK SMILES IDX 62 45 18 47 50 48 30 49 49 50 31 51 34 52 48 53 67 54 32 55
REMARK SMILES IDX 33 56 47 58 68 59 35 60 19 61 20 62 28 63 21 64 22 65 26 66
REMARK SMILES IDX 29 67 23 68 24 69 27 70 25 71 51 72 52 73 60 74 53 75 54 76
REMARK SMILES IDX 58 77 61 78 55 79 56 80 59 81 57 82 36 83 37 84 45 85 38 86
REMARK SMILES IDX 39 87 43 88 46 89 40 90 41 91 44 92 42 93
REMARK H PARENT 3 6 7 27 66 46 34 57
REMARK Flexibility Score: inf
ROOT
ATOM      1  C   UNL A   1      31.403  32.651  26.452  1.00  0.00     0.042 C 
ENDROOT
BRANCH   1   2
ATOM      2  C   UNL A   1      31.275  31.133  26.495  1.00  0.00     0.118 C 
BRANCH   2   3
ATOM      3  N   UNL A   1      31.181  30.527  25.164  1.00  0.00    -0.352 N 
ATOM      4  O   UNL A   1      31.161  28.848  23.637  1.00  0.00    -0.270 OA
ATOM      5  C   UNL A   1      31.475  29.251  24.747  1.00  0.00     0.251 C 
ATOM      6  H   UNL A   1      30.855  31.129  24.457  1.00  0.00     0.163 HD
BRANCH   5   7
ATOM      7  C   UNL A   1      32.161  28.382  25.717  1.00  0.00     0.067 C 
ATOM      8  C   UNL A   1      31.403  27.452  26.312  1.00  0.00     0.025 C 
ATOM      9  C   UNL A   1      33.653  28.315  25.652  1.00  0.00     0.314 C 
ATOM     10  C   UNL A   1      32.014  26.121  26.335  1.00  0.00     0.020 A 
ATOM     11  O   UNL A   1      34.132  26.962  25.457  1.00  0.00    -0.474 OA
ATOM     12  C   UNL A   1      31.157  25.038  26.530  1.00  0.00     0.034 A 
ATOM     13  C   UNL A   1      33.281  25.920  25.754  1.00  0.00     0.148 A 
ATOM     14  C   UNL A   1      31.496  23.780  26.026  1.00  0.00     0.062 A 
ATOM     15  C   UNL A   1      33.633  24.646  25.274  1.00  0.00     0.103 A 
ATOM     16  Cl  UNL A   1      30.278  22.554  26.126  1.00  0.00    -0.083 Cl
ATOM     17  C   UNL A   1      32.722  23.580  25.372  1.00  0.00     0.082 A 
ATOM     18  Cl  UNL A   1      35.130  24.468  24.408  1.00  0.00    -0.079 Cl
ATOM     19  Cl  UNL A   1      33.056  22.057  24.607  1.00  0.00    -0.081 Cl
BRANCH   9  20
ATOM     20  C   UNL A   1      34.302  28.952  26.889  1.00  0.00     0.429 C 
ATOM     21  F   UNL A   1      34.342  30.302  26.778  1.00  0.00    -0.167 F 
ATOM     22  F   UNL A   1      33.620  28.671  28.022  1.00  0.00    -0.167 F 
ATOM     23  F   UNL A   1      35.576  28.527  27.068  1.00  0.00    -0.167 F 
ENDBRANCH   9  20
ENDBRANCH   5   7
ENDBRANCH   2   3
ENDBRANCH   1   2
BRANCH   1  24
ATOM     24  C   UNL A   1      32.546  33.165  27.321  1.00  0.00     0.118 C 
BRANCH  24  25
ATOM     25  N   UNL A   1      32.385  34.545  27.764  1.00  0.00    -0.352 N 
ATOM     26  C   UNL A   1      33.073  35.260  28.725  1.00  0.00     0.251 C 
ATOM     27  H   UNL A   1      31.672  35.046  27.307  1.00  0.00     0.163 HD
ATOM     28  O   UNL A   1      32.740  36.405  28.987  1.00  0.00    -0.269 OA
BRANCH  26  29
ATOM     29  C   UNL A   1      34.187  34.628  29.472  1.00  0.00     0.039 A 
ATOM     30  C   UNL A   1      33.919  33.992  30.689  1.00  0.00     0.014 A 
ATOM     31  C   UNL A   1      35.485  34.636  28.966  1.00  0.00     0.014 A 
ATOM     32  C   UNL A   1      34.931  33.278  31.340  1.00  0.00     0.010 A 
ATOM     33  C   UNL A   1      36.455  33.828  29.547  1.00  0.00     0.010 A 
ATOM     34  C   UNL A   1      36.194  33.142  30.743  1.00  0.00    -0.014 A 
BRANCH  34  35
ATOM     35  C   UNL A   1      37.276  32.313  31.341  1.00  0.00     0.031 A 
ATOM     36  C   UNL A   1      37.773  32.631  32.726  1.00  0.00     0.074 A 
ATOM     37  C   UNL A   1      37.888  31.362  30.607  1.00  0.00     0.049 A 
ATOM     38  N   UNL A   1      38.828  32.179  33.357  1.00  0.00    -0.248 NA
ATOM     39  C   UNL A   1      37.013  33.639  33.483  1.00  0.00     0.031 C 
ATOM     40  C   UNL A   1      37.545  30.995  29.232  1.00  0.00     0.029 A 
ATOM     41  N   UNL A   1      38.946  30.541  30.912  1.00  0.00    -0.354 N 
ATOM     42  C   UNL A   1      38.882  32.885  34.554  1.00  0.00     0.074 A 
ATOM     43  C   UNL A   1      37.791  33.833  34.536  1.00  0.00     0.031 C 
ATOM     44  C   UNL A   1      38.357  30.007  28.823  1.00  0.00     0.029 A 
ATOM     45  C   UNL A   1      39.307  29.700  29.886  1.00  0.00     0.049 A 
ATOM     46  H   UNL A   1      39.403  30.553  31.784  1.00  0.00     0.167 HD
ATOM     47  C   UNL A   1      39.744  32.734  35.586  1.00  0.00     0.037 A 
ATOM     48  C   UNL A   1      40.298  28.791  29.812  1.00  0.00     0.037 A 
ATOM     49  C   UNL A   1      40.778  31.735  35.630  1.00  0.00     0.049 A 
ATOM     50  C   UNL A   1      41.206  28.601  30.997  1.00  0.00     0.074 A 
ATOM     51  C   UNL A   1      41.650  31.440  36.663  1.00  0.00     0.029 A 
ATOM     52  N   UNL A   1      41.062  30.854  34.598  1.00  0.00    -0.354 N 
ATOM     53  N   UNL A   1      41.215  29.237  32.143  1.00  0.00    -0.248 NA
ATOM     54  C   UNL A   1      42.238  27.561  30.882  1.00  0.00     0.031 C 
ATOM     55  C   UNL A   1      42.483  30.397  36.245  1.00  0.00     0.029 A 
ATOM     56  C   UNL A   1      42.101  30.015  34.968  1.00  0.00     0.049 A 
ATOM     57  H   UNL A   1      40.596  30.827  33.732  1.00  0.00     0.167 HD
ATOM     58  C   UNL A   1      42.228  28.657  32.895  1.00  0.00     0.074 A 
ATOM     59  C   UNL A   1      42.805  27.608  32.079  1.00  0.00     0.031 C 
ATOM     60  C   UNL A   1      42.643  28.963  34.147  1.00  0.00     0.037 A 
BRANCH  47  61
ATOM     61  C   UNL A   1      39.592  33.658  36.760  1.00  0.00     0.064 A 
ATOM     62  C   UNL A   1      40.251  34.897  36.814  1.00  0.00     0.173 A 
ATOM     63  C   UNL A   1      38.759  33.313  37.836  1.00  0.00     0.173 A 
ATOM     64  F   UNL A   1      41.069  35.270  35.817  1.00  0.00    -0.203 F 
ATOM     65  C   UNL A   1      40.111  35.737  37.915  1.00  0.00     0.198 A 
ATOM     66  C   UNL A   1      38.595  34.171  38.920  1.00  0.00     0.198 A 
ATOM     67  F   UNL A   1      38.101  32.145  37.834  1.00  0.00    -0.203 F 
ATOM     68  F   UNL A   1      40.798  36.887  37.969  1.00  0.00    -0.200 F 
ATOM     69  C   UNL A   1      39.278  35.378  38.964  1.00  0.00     0.200 A 
ATOM     70  F   UNL A   1      37.781  33.828  39.927  1.00  0.00    -0.200 F 
ATOM     71  F   UNL A   1      39.142  36.190  40.021  1.00  0.00    -0.200 F 
ENDBRANCH  47  61
BRANCH  48  72
ATOM     72  C   UNL A   1      40.463  27.966  28.587  1.00  0.00     0.064 A 
ATOM     73  C   UNL A   1      39.847  26.710  28.482  1.00  0.00     0.173 A 
ATOM     74  C   UNL A   1      41.234  28.405  27.502  1.00  0.00     0.173 A 
ATOM     75  F   UNL A   1      39.115  26.238  29.502  1.00  0.00    -0.203 F 
ATOM     76  C   UNL A   1      40.015  25.916  27.350  1.00  0.00     0.198 A 
ATOM     77  C   UNL A   1      41.380  27.621  26.358  1.00  0.00     0.198 A 
ATOM     78  F   UNL A   1      41.839  29.600  27.547  1.00  0.00    -0.203 F 
ATOM     79  F   UNL A   1      39.454  24.700  27.298  1.00  0.00    -0.200 F 
ATOM     80  C   UNL A   1      40.778  26.374  26.287  1.00  0.00     0.200 A 
ATOM     81  F   UNL A   1      42.106  28.072  25.327  1.00  0.00    -0.200 F 
ATOM     82  F   UNL A   1      40.938  25.610  25.197  1.00  0.00    -0.200 F 
ENDBRANCH  48  72
BRANCH  60  83
ATOM     83  C   UNL A   1      43.741  28.129  34.733  1.00  0.00     0.064 A 
ATOM     84  C   UNL A   1      45.086  28.513  34.642  1.00  0.00     0.173 A 
ATOM     85  C   UNL A   1      43.435  26.956  35.441  1.00  0.00     0.173 A 
ATOM     86  F   UNL A   1      45.427  29.618  33.963  1.00  0.00    -0.203 F 
ATOM     87  C   UNL A   1      46.089  27.744  35.225  1.00  0.00     0.198 A 
ATOM     88  C   UNL A   1      44.438  26.204  36.046  1.00  0.00     0.198 A 
ATOM     89  F   UNL A   1      42.162  26.550  35.561  1.00  0.00    -0.203 F 
ATOM     90  F   UNL A   1      47.372  28.108  35.095  1.00  0.00    -0.200 F 
ATOM     91  C   UNL A   1      45.764  26.595  35.933  1.00  0.00     0.200 A 
ATOM     92  F   UNL A   1      44.121  25.103  36.740  1.00  0.00    -0.200 F 
ATOM     93  F   UNL A   1      46.730  25.862  36.503  1.00  0.00    -0.200 F 
ENDBRANCH  60  83
ENDBRANCH  34  35
ENDBRANCH  26  29
ENDBRANCH  24  25
ENDBRANCH   1  24
TORSDOF 11
ENDMDL
MODEL 3
REMARK VINA RESULT:     -11.6      5.710     10.460
REMARK SMILES O=C(NCCCNC(=O)c1ccc(-c2c3nc(c(-c4c(F)c(F)c(F)c(F)c4F)c4ccc([nH]4)c(-c4c(F)c(F)c(F)c(F)c4F)c4nc(c(-c5c(F)c(F)c(F)c(F)c5F)c5ccc2[nH]5)C=C4)C=C3)cc1)C1=Cc2cc(Cl)c(Cl)c(Cl)c2O[C@@H]1C(F)(F)F
REMARK SMILES IDX 5 1 4 2 3 3 1 4 2 5 73 7 74 8 85 9 75 10 84 11 76 12 83 13
REMARK SMILES IDX 77 14 81 15 78 16 79 17 82 18 80 19 86 20 87 21 88 22 89 23
REMARK SMILES IDX 6 24 7 25 8 26 9 28 10 29 11 30 72 31 12 32 71 33 13 34
REMARK SMILES IDX 14 35 15 36 65 37 16 38 70 39 64 40 66 41 17 42 69 43 63 44
REMARK SMILES IDX 62 45 18 47 50 48 30 49 49 50 31 51 34 52 48 53 67 54 32 55
REMARK SMILES IDX 33 56 47 58 68 59 35 60 19 61 20 62 28 63 21 64 22 65 26 66
REMARK SMILES IDX 29 67 23 68 24 69 27 70 25 71 51 72 52 73 60 74 53 75 54 76
REMARK SMILES IDX 58 77 61 78 55 79 56 80 59 81 57 82 36 83 37 84 45 85 38 86
REMARK SMILES IDX 39 87 43 88 46 89 40 90 41 91 44 92 42 93
REMARK H PARENT 3 6 7 27 66 46 34 57
REMARK Flexibility Score: inf
ROOT
ATOM      1  C   UNL A   1      31.722  31.933  26.496  1.00  0.00     0.042 C 
ENDROOT
BRANCH   1   2
ATOM      2  C   UNL A   1      32.117  30.486  26.222  1.00  0.00     0.118 C 
BRANCH   2   3
ATOM      3  N   UNL A   1      31.745  29.575  27.308  1.00  0.00    -0.352 N 
ATOM      4  O   UNL A   1      31.591  27.592  28.401  1.00  0.00    -0.270 OA
ATOM      5  C   UNL A   1      31.748  28.201  27.354  1.00  0.00     0.251 C 
ATOM      6  H   UNL A   1      31.447  30.016  28.136  1.00  0.00     0.163 HD
BRANCH   5   7
ATOM      7  C   UNL A   1      31.982  27.500  26.081  1.00  0.00     0.067 C 
ATOM      8  C   UNL A   1      33.255  27.197  25.801  1.00  0.00     0.025 C 
ATOM      9  C   UNL A   1      30.812  26.828  25.437  1.00  0.00     0.314 C 
ATOM     10  C   UNL A   1      33.446  25.821  25.339  1.00  0.00     0.020 A 
ATOM     11  O   UNL A   1      31.041  25.413  25.225  1.00  0.00    -0.474 OA
ATOM     12  C   UNL A   1      34.735  25.296  25.439  1.00  0.00     0.034 A 
ATOM     13  C   UNL A   1      32.340  24.955  25.237  1.00  0.00     0.148 A 
ATOM     14  C   UNL A   1      34.919  23.918  25.575  1.00  0.00     0.062 A 
ATOM     15  C   UNL A   1      32.530  23.565  25.344  1.00  0.00     0.103 A 
ATOM     16  Cl  UNL A   1      36.531  23.383  25.909  1.00  0.00    -0.083 Cl
ATOM     17  C   UNL A   1      33.819  23.045  25.556  1.00  0.00     0.082 A 
ATOM     18  Cl  UNL A   1      31.130  22.535  25.387  1.00  0.00    -0.079 Cl
ATOM     19  Cl  UNL A   1      34.048  21.357  25.891  1.00  0.00    -0.081 Cl
BRANCH   9  20
ATOM     20  C   UNL A   1      30.414  27.520  24.124  1.00  0.00     0.429 C 
ATOM     21  F   UNL A   1      30.387  28.866  24.272  1.00  0.00    -0.167 F 
ATOM     22  F   UNL A   1      31.285  27.251  23.125  1.00  0.00    -0.167 F 
ATOM     23  F   UNL A   1      29.185  27.137  23.703  1.00  0.00    -0.167 F 
ENDBRANCH   9  20
ENDBRANCH   5   7
ENDBRANCH   2   3
ENDBRANCH   1   2
BRANCH   1  24
ATOM     24  C   UNL A   1      32.779  32.684  27.299  1.00  0.00     0.118 C 
BRANCH  24  25
ATOM     25  N   UNL A   1      32.409  34.053  27.638  1.00  0.00    -0.352 N 
ATOM     26  C   UNL A   1      32.969  34.930  28.547  1.00  0.00     0.251 C 
ATOM     27  H   UNL A   1      31.638  34.409  27.141  1.00  0.00     0.163 HD
ATOM     28  O   UNL A   1      32.467  36.029  28.721  1.00  0.00    -0.269 OA
BRANCH  26  29
ATOM     29  C   UNL A   1      34.152  34.526  29.345  1.00  0.00     0.039 A 
ATOM     30  C   UNL A   1      33.961  33.982  30.620  1.00  0.00     0.014 A 
ATOM     31  C   UNL A   1      35.441  34.654  28.832  1.00  0.00     0.014 A 
ATOM     32  C   UNL A   1      35.055  33.474  31.330  1.00  0.00     0.010 A 
ATOM     33  C   UNL A   1      36.505  34.041  29.483  1.00  0.00     0.010 A 
ATOM     34  C   UNL A   1      36.328  33.446  30.742  1.00  0.00    -0.014 A 
BRANCH  34  35
ATOM     35  C   UNL A   1      37.505  32.829  31.411  1.00  0.00     0.031 A 
ATOM     36  C   UNL A   1      38.222  31.685  30.742  1.00  0.00     0.074 A 
ATOM     37  C   UNL A   1      37.856  33.208  32.656  1.00  0.00     0.049 A 
ATOM     38  N   UNL A   1      39.131  30.875  31.224  1.00  0.00    -0.248 NA
ATOM     39  C   UNL A   1      37.820  31.375  29.361  1.00  0.00     0.031 C 
ATOM     40  C   UNL A   1      37.207  34.259  33.441  1.00  0.00     0.029 A 
ATOM     41  N   UNL A   1      38.837  32.733  33.492  1.00  0.00    -0.354 N 
ATOM     42  C   UNL A   1      39.365  29.935  30.227  1.00  0.00     0.074 A 
ATOM     43  C   UNL A   1      38.464  30.239  29.139  1.00  0.00     0.031 C 
ATOM     44  C   UNL A   1      37.822  34.368  34.629  1.00  0.00     0.029 A 
ATOM     45  C   UNL A   1      38.880  33.366  34.711  1.00  0.00     0.049 A 
ATOM     46  H   UNL A   1      39.453  32.008  33.241  1.00  0.00     0.167 HD
ATOM     47  C   UNL A   1      40.270  28.929  30.210  1.00  0.00     0.037 A 
ATOM     48  C   UNL A   1      39.676  33.155  35.776  1.00  0.00     0.037 A 
ATOM     49  C   UNL A   1      41.217  28.681  31.263  1.00  0.00     0.049 A 
ATOM     50  C   UNL A   1      40.716  32.068  35.707  1.00  0.00     0.074 A 
ATOM     51  C   UNL A   1      42.233  27.744  31.308  1.00  0.00     0.029 A 
ATOM     52  N   UNL A   1      41.273  29.394  32.451  1.00  0.00    -0.354 N 
ATOM     53  N   UNL A   1      40.963  31.220  34.739  1.00  0.00    -0.248 NA
ATOM     54  C   UNL A   1      41.592  31.913  36.877  1.00  0.00     0.031 C 
ATOM     55  C   UNL A   1      42.888  27.870  32.537  1.00  0.00     0.029 A 
ATOM     56  C   UNL A   1      42.306  28.914  33.239  1.00  0.00     0.049 A 
ATOM     57  H   UNL A   1      40.670  30.132  32.698  1.00  0.00     0.167 HD
ATOM     58  C   UNL A   1      42.039  30.454  35.167  1.00  0.00     0.074 A 
ATOM     59  C   UNL A   1      42.406  30.946  36.479  1.00  0.00     0.031 C 
ATOM     60  C   UNL A   1      42.667  29.435  34.533  1.00  0.00     0.037 A 
BRANCH  47  61
ATOM     61  C   UNL A   1      40.291  28.035  29.003  1.00  0.00     0.064 A 
ATOM     62  C   UNL A   1      41.046  28.352  27.863  1.00  0.00     0.173 A 
ATOM     63  C   UNL A   1      39.567  26.832  28.995  1.00  0.00     0.173 A 
ATOM     64  F   UNL A   1      41.747  29.496  27.814  1.00  0.00    -0.203 F 
ATOM     65  C   UNL A   1      41.045  27.519  26.747  1.00  0.00     0.198 A 
ATOM     66  C   UNL A   1      39.597  25.985  27.890  1.00  0.00     0.198 A 
ATOM     67  F   UNL A   1      38.834  26.476  30.060  1.00  0.00    -0.203 F 
ATOM     68  F   UNL A   1      41.726  27.875  25.648  1.00  0.00    -0.200 F 
ATOM     69  C   UNL A   1      40.328  26.334  26.763  1.00  0.00     0.200 A 
ATOM     70  F   UNL A   1      38.911  24.834  27.912  1.00  0.00    -0.200 F 
ATOM     71  F   UNL A   1      40.331  25.531  25.690  1.00  0.00    -0.200 F 
ENDBRANCH  47  61
BRANCH  48  72
ATOM     72  C   UNL A   1      39.549  34.011  36.984  1.00  0.00     0.064 A 
ATOM     73  C   UNL A   1      38.782  33.590  38.080  1.00  0.00     0.173 A 
ATOM     74  C   UNL A   1      40.181  35.259  37.073  1.00  0.00     0.173 A 
ATOM     75  F   UNL A   1      38.141  32.413  38.035  1.00  0.00    -0.203 F 
ATOM     76  C   UNL A   1      38.633  34.395  39.209  1.00  0.00     0.198 A 
ATOM     77  C   UNL A   1      40.054  36.052  38.213  1.00  0.00     0.198 A 
ATOM     78  F   UNL A   1      40.932  35.705  36.056  1.00  0.00    -0.203 F 
ATOM     79  F   UNL A   1      37.855  33.988  40.221  1.00  0.00    -0.200 F 
ATOM     80  C   UNL A   1      39.272  35.623  39.276  1.00  0.00     0.200 A 
ATOM     81  F   UNL A   1      40.684  37.231  38.280  1.00  0.00    -0.200 F 
ATOM     82  F   UNL A   1      39.131  36.395  40.361  1.00  0.00    -0.200 F 
ENDBRANCH  48  72
BRANCH  60  83
ATOM     83  C   UNL A   1      43.843  28.814  35.222  1.00  0.00     0.064 A 
ATOM     84  C   UNL A   1      43.692  27.746  36.117  1.00  0.00     0.173 A 
ATOM     85  C   UNL A   1      45.144  29.262  34.940  1.00  0.00     0.173 A 
ATOM     86  F   UNL A   1      42.468  27.294  36.427  1.00  0.00    -0.203 F 
ATOM     87  C   UNL A   1      44.800  27.157  36.719  1.00  0.00     0.198 A 
ATOM     88  C   UNL A   1      46.251  28.653  35.524  1.00  0.00     0.198 A 
ATOM     89  F   UNL A   1      45.340  30.277  34.086  1.00  0.00    -0.203 F 
ATOM     90  F   UNL A   1      44.632  26.162  37.600  1.00  0.00    -0.200 F 
ATOM     91  C   UNL A   1      46.079  27.605  36.417  1.00  0.00     0.200 A 
ATOM     92  F   UNL A   1      47.485  29.078  35.220  1.00  0.00    -0.200 F 
ATOM     93  F   UNL A   1      47.144  27.030  36.989  1.00  0.00    -0.200 F 
ENDBRANCH  60  83
ENDBRANCH  34  35
ENDBRANCH  26  29
ENDBRANCH  24  25
ENDBRANCH   1  24
TORSDOF 11
ENDMDL
