MODEL 1
REMARK VINA RESULT:     -12.4      0.000      0.000
REMARK SMILES O=C(CC1CCN(C(=O)NCc2ccccn2)CC1)NCCCNC(=O)c1ccc(-c2c3nc(c(-c4c(F)c(F)c(F)c(F)c4F)c4ccc([nH]4)c(-c4c(F)c(F)c(F)c(F)c4F)c4nc(c(-c5c(F)c(F)c(F)c(F)c5F)c5ccc2[nH]5)C=C4)C=C3)cc1
REMARK SMILES IDX 21 1 20 2 1 3 2 4 3 6 4 7 5 8 19 9 6 10 18 11 7 12 8 13 9 14
REMARK SMILES IDX 10 15 11 17 12 18 13 19 17 20 14 21 16 22 15 23 22 24 23 25
REMARK SMILES IDX 24 26 25 27 26 29 27 30 28 31 89 32 29 33 88 34 30 35 31 36
REMARK SMILES IDX 32 37 82 38 33 39 87 40 81 41 83 42 34 43 86 44 80 45 79 46
REMARK SMILES IDX 35 48 67 49 47 50 66 51 48 52 51 53 65 54 84 55 49 56 50 57
REMARK SMILES IDX 64 59 85 60 52 61 36 62 37 63 45 64 38 65 39 66 43 67 46 68
REMARK SMILES IDX 40 69 41 70 44 71 42 72 68 73 69 74 77 75 70 76 71 77 75 78
REMARK SMILES IDX 78 79 72 80 73 81 76 82 74 83 53 84 54 85 62 86 55 87 56 88
REMARK SMILES IDX 60 89 63 90 57 91 58 92 61 93 59 94
REMARK H PARENT 20 5 10 16 24 28 83 47 51 58
REMARK Flexibility Score: inf
ROOT
ATOM      1  C   UNL A   1      41.077  21.176  26.430  1.00  0.00     0.117 C 
ENDROOT
BRANCH   1   2
ATOM      2  N   UNL A   1      39.863  21.731  25.864  1.00  0.00    -0.356 N 
ATOM      3  O   UNL A   1      39.653  23.388  27.431  1.00  0.00    -0.275 OA
ATOM      4  C   UNL A   1      39.244  22.824  26.420  1.00  0.00     0.220 C 
ATOM      5  H   UNL A   1      39.473  21.316  25.061  1.00  0.00     0.163 HD
BRANCH   4   6
ATOM      6  C   UNL A   1      37.945  23.250  25.764  1.00  0.00     0.103 C 
BRANCH   6   7
ATOM      7  C   UNL A   1      37.292  22.281  24.760  1.00  0.00     0.002 C 
ATOM      8  C   UNL A   1      36.653  22.953  23.524  1.00  0.00     0.026 C 
ATOM      9  C   UNL A   1      36.244  21.412  25.503  1.00  0.00     0.026 C 
ATOM     10  C   UNL A   1      35.275  23.569  23.790  1.00  0.00     0.121 C 
ATOM     11  C   UNL A   1      34.952  22.193  25.754  1.00  0.00     0.121 C 
ATOM     12  N   UNL A   1      34.411  22.599  24.468  1.00  0.00    -0.325 N 
ATOM     13  C   UNL A   1      33.330  22.112  23.797  1.00  0.00     0.317 C 
ATOM     14  O   UNL A   1      32.996  22.559  22.694  1.00  0.00    -0.249 OA
ATOM     15  N   UNL A   1      32.559  21.108  24.234  1.00  0.00    -0.332 N 
ATOM     16  H   UNL A   1      31.823  20.927  23.605  1.00  0.00     0.165 HD
BRANCH  15  17
ATOM     17  C   UNL A   1      32.501  20.208  25.376  1.00  0.00     0.174 C 
BRANCH  17  18
ATOM     18  C   UNL A   1      32.897  18.786  25.033  1.00  0.00     0.060 A 
ATOM     19  C   UNL A   1      34.031  18.550  24.251  1.00  0.00     0.026 A 
ATOM     20  N   UNL A   1      32.153  17.773  25.547  1.00  0.00    -0.259 NA
ATOM     21  C   UNL A   1      34.416  17.238  23.988  1.00  0.00     0.004 A 
ATOM     22  C   UNL A   1      32.549  16.508  25.266  1.00  0.00     0.111 A 
ATOM     23  C   UNL A   1      33.661  16.194  24.504  1.00  0.00     0.020 A 
ENDBRANCH  17  18
ENDBRANCH  15  17
ENDBRANCH   6   7
ENDBRANCH   4   6
ENDBRANCH   1   2
BRANCH   1  24
ATOM     24  C   UNL A   1      41.230  19.689  26.125  1.00  0.00     0.042 C 
BRANCH  24  25
ATOM     25  C   UNL A   1      42.580  19.101  26.524  1.00  0.00     0.118 C 
BRANCH  25  26
ATOM     26  N   UNL A   1      43.402  18.733  25.380  1.00  0.00    -0.352 N 
ATOM     27  C   UNL A   1      44.244  19.490  24.605  1.00  0.00     0.251 C 
ATOM     28  H   UNL A   1      43.347  17.784  25.122  1.00  0.00     0.163 HD
ATOM     29  O   UNL A   1      44.726  19.006  23.585  1.00  0.00    -0.269 OA
BRANCH  27  30
ATOM     30  C   UNL A   1      44.556  20.891  24.965  1.00  0.00     0.039 A 
ATOM     31  C   UNL A   1      44.152  21.910  24.098  1.00  0.00     0.014 A 
ATOM     32  C   UNL A   1      45.267  21.206  26.126  1.00  0.00     0.014 A 
ATOM     33  C   UNL A   1      44.397  23.245  24.429  1.00  0.00     0.010 A 
ATOM     34  C   UNL A   1      45.443  22.540  26.493  1.00  0.00     0.010 A 
ATOM     35  C   UNL A   1      45.010  23.573  25.649  1.00  0.00    -0.014 A 
BRANCH  35  36
ATOM     36  C   UNL A   1      45.191  24.989  26.061  1.00  0.00     0.031 A 
ATOM     37  C   UNL A   1      46.543  25.641  25.977  1.00  0.00     0.074 A 
ATOM     38  C   UNL A   1      44.147  25.671  26.571  1.00  0.00     0.049 A 
ATOM     39  N   UNL A   1      46.911  26.841  26.353  1.00  0.00    -0.248 NA
ATOM     40  C   UNL A   1      47.635  24.829  25.418  1.00  0.00     0.031 C 
ATOM     41  C   UNL A   1      42.794  25.140  26.745  1.00  0.00     0.029 A 
ATOM     42  N   UNL A   1      44.062  26.957  27.047  1.00  0.00    -0.354 N 
ATOM     43  C   UNL A   1      48.271  26.922  26.089  1.00  0.00     0.074 A 
ATOM     44  C   UNL A   1      48.677  25.633  25.570  1.00  0.00     0.031 C 
ATOM     45  C   UNL A   1      42.010  26.096  27.268  1.00  0.00     0.029 A 
ATOM     46  C   UNL A   1      42.811  27.292  27.508  1.00  0.00     0.049 A 
ATOM     47  H   UNL A   1      44.825  27.579  27.059  1.00  0.00     0.167 HD
ATOM     48  C   UNL A   1      49.102  27.981  26.242  1.00  0.00     0.037 A 
ATOM     49  C   UNL A   1      42.364  28.431  28.071  1.00  0.00     0.037 A 
ATOM     50  C   UNL A   1      48.691  29.268  26.740  1.00  0.00     0.049 A 
ATOM     51  C   UNL A   1      43.314  29.585  28.251  1.00  0.00     0.074 A 
ATOM     52  C   UNL A   1      49.445  30.421  26.876  1.00  0.00     0.029 A 
ATOM     53  N   UNL A   1      47.414  29.572  27.192  1.00  0.00    -0.354 N 
ATOM     54  N   UNL A   1      44.582  29.673  27.931  1.00  0.00    -0.248 NA
ATOM     55  C   UNL A   1      42.766  30.801  28.867  1.00  0.00     0.031 C 
ATOM     56  C   UNL A   1      48.640  31.405  27.460  1.00  0.00     0.029 A 
ATOM     57  C   UNL A   1      47.368  30.885  27.634  1.00  0.00     0.049 A 
ATOM     58  H   UNL A   1      46.654  28.946  27.197  1.00  0.00     0.167 HD
ATOM     59  C   UNL A   1      44.976  30.957  28.281  1.00  0.00     0.074 A 
ATOM     60  C   UNL A   1      43.806  31.619  28.820  1.00  0.00     0.031 C 
ATOM     61  C   UNL A   1      46.197  31.534  28.166  1.00  0.00     0.037 A 
BRANCH  48  62
ATOM     62  C   UNL A   1      50.545  27.795  25.868  1.00  0.00     0.064 A 
ATOM     63  C   UNL A   1      51.519  27.473  26.825  1.00  0.00     0.173 A 
ATOM     64  C   UNL A   1      50.953  27.901  24.529  1.00  0.00     0.173 A 
ATOM     65  F   UNL A   1      51.185  27.368  28.121  1.00  0.00    -0.203 F 
ATOM     66  C   UNL A   1      52.852  27.293  26.461  1.00  0.00     0.198 A 
ATOM     67  C   UNL A   1      52.280  27.689  24.164  1.00  0.00     0.198 A 
ATOM     68  F   UNL A   1      50.062  28.200  23.572  1.00  0.00    -0.203 F 
ATOM     69  F   UNL A   1      53.772  27.037  27.401  1.00  0.00    -0.200 F 
ATOM     70  C   UNL A   1      53.229  27.394  25.131  1.00  0.00     0.200 A 
ATOM     71  F   UNL A   1      52.641  27.772  22.876  1.00  0.00    -0.200 F 
ATOM     72  F   UNL A   1      54.510  27.215  24.782  1.00  0.00    -0.200 F 
ENDBRANCH  48  62
BRANCH  49  73
ATOM     73  C   UNL A   1      40.943  28.542  28.493  1.00  0.00     0.064 A 
ATOM     74  C   UNL A   1      39.958  28.986  27.600  1.00  0.00     0.173 A 
ATOM     75  C   UNL A   1      40.541  28.220  29.798  1.00  0.00     0.173 A 
ATOM     76  F   UNL A   1      40.296  29.328  26.347  1.00  0.00    -0.203 F 
ATOM     77  C   UNL A   1      38.631  29.126  28.001  1.00  0.00     0.198 A 
ATOM     78  C   UNL A   1      39.208  28.329  30.190  1.00  0.00     0.198 A 
ATOM     79  F   UNL A   1      41.443  27.786  30.691  1.00  0.00    -0.203 F 
ATOM     80  F   UNL A   1      37.721  29.602  27.141  1.00  0.00    -0.200 F 
ATOM     81  C   UNL A   1      38.256  28.792  29.293  1.00  0.00     0.200 A 
ATOM     82  F   UNL A   1      38.847  27.991  31.435  1.00  0.00    -0.200 F 
ATOM     83  F   UNL A   1      36.980  28.924  29.677  1.00  0.00    -0.200 F 
ENDBRANCH  49  73
BRANCH  61  84
ATOM     84  C   UNL A   1      46.325  32.966  28.603  1.00  0.00     0.064 A 
ATOM     85  C   UNL A   1      46.701  33.307  29.911  1.00  0.00     0.173 A 
ATOM     86  C   UNL A   1      46.106  34.010  27.690  1.00  0.00     0.173 A 
ATOM     87  F   UNL A   1      46.908  32.348  30.826  1.00  0.00    -0.203 F 
ATOM     88  C   UNL A   1      46.824  34.640  30.296  1.00  0.00     0.198 A 
ATOM     89  C   UNL A   1      46.263  35.339  28.070  1.00  0.00     0.198 A 
ATOM     90  F   UNL A   1      45.751  33.739  26.426  1.00  0.00    -0.203 F 
ATOM     91  F   UNL A   1      47.133  34.942  31.564  1.00  0.00    -0.200 F 
ATOM     92  C   UNL A   1      46.613  35.654  29.374  1.00  0.00     0.200 A 
ATOM     93  F   UNL A   1      46.074  36.318  27.173  1.00  0.00    -0.200 F 
ATOM     94  F   UNL A   1      46.740  36.936  29.745  1.00  0.00    -0.200 F 
ENDBRANCH  61  84
ENDBRANCH  35  36
ENDBRANCH  27  30
ENDBRANCH  25  26
ENDBRANCH  24  25
ENDBRANCH   1  24
TORSDOF 13
ENDMDL
MODEL 2
REMARK VINA RESULT:     -12.4      7.702     13.001
REMARK SMILES O=C(CC1CCN(C(=O)NCc2ccccn2)CC1)NCCCNC(=O)c1ccc(-c2c3nc(c(-c4c(F)c(F)c(F)c(F)c4F)c4ccc([nH]4)c(-c4c(F)c(F)c(F)c(F)c4F)c4nc(c(-c5c(F)c(F)c(F)c(F)c5F)c5ccc2[nH]5)C=C4)C=C3)cc1
REMARK SMILES IDX 21 1 20 2 1 3 2 4 3 6 4 7 5 8 19 9 6 10 18 11 7 12 8 13 9 14
REMARK SMILES IDX 10 15 11 17 12 18 13 19 17 20 14 21 16 22 15 23 22 24 23 25
REMARK SMILES IDX 24 26 25 27 26 29 27 30 28 31 89 32 29 33 88 34 30 35 31 36
REMARK SMILES IDX 32 37 82 38 33 39 87 40 81 41 83 42 34 43 86 44 80 45 79 46
REMARK SMILES IDX 35 48 67 49 47 50 66 51 48 52 51 53 65 54 84 55 49 56 50 57
REMARK SMILES IDX 64 59 85 60 52 61 36 62 37 63 45 64 38 65 39 66 43 67 46 68
REMARK SMILES IDX 40 69 41 70 44 71 42 72 68 73 69 74 77 75 70 76 71 77 75 78
REMARK SMILES IDX 78 79 72 80 73 81 76 82 74 83 53 84 54 85 62 86 55 87 56 88
REMARK SMILES IDX 60 89 63 90 57 91 58 92 61 93 59 94
REMARK H PARENT 20 5 10 16 24 28 83 47 51 58
REMARK Flexibility Score: inf
ROOT
ATOM      1  C   UNL A   1      34.137  33.621  28.256  1.00  0.00     0.117 C 
ENDROOT
BRANCH   1   2
ATOM      2  N   UNL A   1      33.707  32.319  27.785  1.00  0.00    -0.356 N 
ATOM      3  O   UNL A   1      35.681  31.268  28.275  1.00  0.00    -0.275 OA
ATOM      4  C   UNL A   1      34.532  31.222  27.846  1.00  0.00     0.220 C 
ATOM      5  H   UNL A   1      32.801  32.217  27.414  1.00  0.00     0.163 HD
BRANCH   4   6
ATOM      6  C   UNL A   1      33.974  29.944  27.252  1.00  0.00     0.103 C 
BRANCH   6   7
ATOM      7  C   UNL A   1      32.458  29.875  26.983  1.00  0.00     0.002 C 
ATOM      8  C   UNL A   1      31.763  28.590  27.487  1.00  0.00     0.026 C 
ATOM      9  C   UNL A   1      32.204  30.065  25.465  1.00  0.00     0.026 C 
ATOM     10  C   UNL A   1      31.957  27.375  26.572  1.00  0.00     0.121 C 
ATOM     11  C   UNL A   1      32.510  28.785  24.685  1.00  0.00     0.121 C 
ATOM     12  N   UNL A   1      31.644  27.732  25.186  1.00  0.00    -0.325 N 
ATOM     13  C   UNL A   1      30.551  27.164  24.602  1.00  0.00     0.317 C 
ATOM     14  O   UNL A   1      29.903  26.274  25.163  1.00  0.00    -0.249 OA
ATOM     15  N   UNL A   1      30.062  27.524  23.407  1.00  0.00    -0.332 N 
ATOM     16  H   UNL A   1      29.281  26.975  23.165  1.00  0.00     0.165 HD
BRANCH  15  17
ATOM     17  C   UNL A   1      30.359  28.495  22.366  1.00  0.00     0.174 C 
BRANCH  17  18
ATOM     18  C   UNL A   1      29.442  29.701  22.399  1.00  0.00     0.060 A 
ATOM     19  C   UNL A   1      29.311  30.442  23.577  1.00  0.00     0.026 A 
ATOM     20  N   UNL A   1      28.808  30.056  21.251  1.00  0.00    -0.259 NA
ATOM     21  C   UNL A   1      28.508  31.579  23.581  1.00  0.00     0.004 A 
ATOM     22  C   UNL A   1      28.028  31.162  21.290  1.00  0.00     0.111 A 
ATOM     23  C   UNL A   1      27.852  31.950  22.415  1.00  0.00     0.020 A 
ENDBRANCH  17  18
ENDBRANCH  15  17
ENDBRANCH   6   7
ENDBRANCH   4   6
ENDBRANCH   1   2
BRANCH   1  24
ATOM     24  C   UNL A   1      32.964  34.502  28.674  1.00  0.00     0.042 C 
BRANCH  24  25
ATOM     25  C   UNL A   1      33.367  35.789  29.386  1.00  0.00     0.118 C 
BRANCH  25  26
ATOM     26  N   UNL A   1      32.521  36.096  30.531  1.00  0.00    -0.352 N 
ATOM     27  C   UNL A   1      32.643  35.745  31.852  1.00  0.00     0.251 C 
ATOM     28  H   UNL A   1      31.732  36.649  30.323  1.00  0.00     0.163 HD
ATOM     29  O   UNL A   1      31.723  35.986  32.629  1.00  0.00    -0.269 OA
BRANCH  27  30
ATOM     30  C   UNL A   1      33.855  35.057  32.347  1.00  0.00     0.039 A 
ATOM     31  C   UNL A   1      33.723  33.769  32.876  1.00  0.00     0.014 A 
ATOM     32  C   UNL A   1      35.108  35.674  32.326  1.00  0.00     0.014 A 
ATOM     33  C   UNL A   1      34.854  33.077  33.316  1.00  0.00     0.010 A 
ATOM     34  C   UNL A   1      36.244  34.956  32.692  1.00  0.00     0.010 A 
ATOM     35  C   UNL A   1      36.130  33.649  33.191  1.00  0.00    -0.014 A 
BRANCH  35  36
ATOM     36  C   UNL A   1      37.352  32.890  33.563  1.00  0.00     0.031 A 
ATOM     37  C   UNL A   1      38.070  33.185  34.851  1.00  0.00     0.074 A 
ATOM     38  C   UNL A   1      37.852  31.976  32.709  1.00  0.00     0.049 A 
ATOM     39  N   UNL A   1      39.186  32.677  35.313  1.00  0.00    -0.248 NA
ATOM     40  C   UNL A   1      37.468  34.203  35.726  1.00  0.00     0.031 C 
ATOM     41  C   UNL A   1      37.274  31.627  31.411  1.00  0.00     0.029 A 
ATOM     42  N   UNL A   1      38.966  31.178  32.801  1.00  0.00    -0.354 N 
ATOM     43  C   UNL A   1      39.423  33.319  36.520  1.00  0.00     0.074 A 
ATOM     44  C   UNL A   1      38.365  34.292  36.695  1.00  0.00     0.031 C 
ATOM     45  C   UNL A   1      38.024  30.674  30.836  1.00  0.00     0.029 A 
ATOM     46  C   UNL A   1      39.159  30.373  31.703  1.00  0.00     0.049 A 
ATOM     47  H   UNL A   1      39.570  31.183  33.577  1.00  0.00     0.167 HD
ATOM     48  C   UNL A   1      40.419  33.103  37.414  1.00  0.00     0.037 A 
ATOM     49  C   UNL A   1      40.145  29.500  31.423  1.00  0.00     0.037 A 
ATOM     50  C   UNL A   1      41.458  32.121  37.246  1.00  0.00     0.049 A 
ATOM     51  C   UNL A   1      41.252  29.295  32.422  1.00  0.00     0.074 A 
ATOM     52  C   UNL A   1      42.477  31.785  38.121  1.00  0.00     0.029 A 
ATOM     53  N   UNL A   1      41.618  31.320  36.123  1.00  0.00    -0.354 N 
ATOM     54  N   UNL A   1      41.427  29.858  33.593  1.00  0.00    -0.248 NA
ATOM     55  C   UNL A   1      42.297  28.327  32.060  1.00  0.00     0.031 C 
ATOM     56  C   UNL A   1      43.283  30.821  37.507  1.00  0.00     0.029 A 
ATOM     57  C   UNL A   1      42.735  30.513  36.272  1.00  0.00     0.049 A 
ATOM     58  H   UNL A   1      41.024  31.325  35.338  1.00  0.00     0.167 HD
ATOM     59  C   UNL A   1      42.583  29.296  34.118  1.00  0.00     0.074 A 
ATOM     60  C   UNL A   1      43.057  28.333  33.146  1.00  0.00     0.031 C 
ATOM     61  C   UNL A   1      43.195  29.555  35.299  1.00  0.00     0.037 A 
BRANCH  48  62
ATOM     62  C   UNL A   1      40.435  33.946  38.657  1.00  0.00     0.064 A 
ATOM     63  C   UNL A   1      41.147  35.153  38.720  1.00  0.00     0.173 A 
ATOM     64  C   UNL A   1      39.698  33.561  39.788  1.00  0.00     0.173 A 
ATOM     65  F   UNL A   1      41.876  35.563  37.671  1.00  0.00    -0.203 F 
ATOM     66  C   UNL A   1      41.144  35.929  39.877  1.00  0.00     0.198 A 
ATOM     67  C   UNL A   1      39.671  34.354  40.932  1.00  0.00     0.198 A 
ATOM     68  F   UNL A   1      38.994  32.419  39.781  1.00  0.00    -0.203 F 
ATOM     69  F   UNL A   1      41.874  37.052  39.930  1.00  0.00    -0.200 F 
ATOM     70  C   UNL A   1      40.401  35.532  40.979  1.00  0.00     0.200 A 
ATOM     71  F   UNL A   1      38.940  33.978  41.990  1.00  0.00    -0.200 F 
ATOM     72  F   UNL A   1      40.395  36.283  42.089  1.00  0.00    -0.200 F 
ENDBRANCH  48  62
BRANCH  49  73
ATOM     73  C   UNL A   1      40.125  28.742  30.144  1.00  0.00     0.064 A 
ATOM     74  C   UNL A   1      40.731  29.260  28.990  1.00  0.00     0.173 A 
ATOM     75  C   UNL A   1      39.493  27.495  30.044  1.00  0.00     0.173 A 
ATOM     76  F   UNL A   1      41.329  30.460  29.030  1.00  0.00    -0.203 F 
ATOM     77  C   UNL A   1      40.684  28.570  27.781  1.00  0.00     0.198 A 
ATOM     78  C   UNL A   1      39.475  26.790  28.842  1.00  0.00     0.198 A 
ATOM     79  F   UNL A   1      38.902  26.952  31.119  1.00  0.00    -0.203 F 
ATOM     80  F   UNL A   1      41.227  29.112  26.682  1.00  0.00    -0.200 F 
ATOM     81  C   UNL A   1      40.062  27.333  27.708  1.00  0.00     0.200 A 
ATOM     82  F   UNL A   1      38.885  25.588  28.780  1.00  0.00    -0.200 F 
ATOM     83  F   UNL A   1      40.021  26.668  26.546  1.00  0.00    -0.200 F 
ENDBRANCH  49  73
BRANCH  61  84
ATOM     84  C   UNL A   1      44.431  28.763  35.623  1.00  0.00     0.064 A 
ATOM     85  C   UNL A   1      44.363  27.535  36.298  1.00  0.00     0.173 A 
ATOM     86  C   UNL A   1      45.694  29.221  35.218  1.00  0.00     0.173 A 
ATOM     87  F   UNL A   1      43.182  27.060  36.719  1.00  0.00    -0.203 F 
ATOM     88  C   UNL A   1      45.518  26.810  36.582  1.00  0.00     0.198 A 
ATOM     89  C   UNL A   1      46.842  28.477  35.474  1.00  0.00     0.198 A 
ATOM     90  F   UNL A   1      45.814  30.385  34.563  1.00  0.00    -0.203 F 
ATOM     91  F   UNL A   1      45.435  25.667  37.275  1.00  0.00    -0.200 F 
ATOM     92  C   UNL A   1      46.755  27.278  36.163  1.00  0.00     0.200 A 
ATOM     93  F   UNL A   1      48.035  28.923  35.054  1.00  0.00    -0.200 F 
ATOM     94  F   UNL A   1      47.864  26.574  36.430  1.00  0.00    -0.200 F 
ENDBRANCH  61  84
ENDBRANCH  35  36
ENDBRANCH  27  30
ENDBRANCH  25  26
ENDBRANCH  24  25
ENDBRANCH   1  24
TORSDOF 13
ENDMDL
MODEL 3
REMARK VINA RESULT:     -12.3      0.139      1.598
REMARK SMILES O=C(CC1CCN(C(=O)NCc2ccccn2)CC1)NCCCNC(=O)c1ccc(-c2c3nc(c(-c4c(F)c(F)c(F)c(F)c4F)c4ccc([nH]4)c(-c4c(F)c(F)c(F)c(F)c4F)c4nc(c(-c5c(F)c(F)c(F)c(F)c5F)c5ccc2[nH]5)C=C4)C=C3)cc1
REMARK SMILES IDX 21 1 20 2 1 3 2 4 3 6 4 7 5 8 19 9 6 10 18 11 7 12 8 13 9 14
REMARK SMILES IDX 10 15 11 17 12 18 13 19 17 20 14 21 16 22 15 23 22 24 23 25
REMARK SMILES IDX 24 26 25 27 26 29 27 30 28 31 89 32 29 33 88 34 30 35 31 36
REMARK SMILES IDX 32 37 82 38 33 39 87 40 81 41 83 42 34 43 86 44 80 45 79 46
REMARK SMILES IDX 35 48 67 49 47 50 66 51 48 52 51 53 65 54 84 55 49 56 50 57
REMARK SMILES IDX 64 59 85 60 52 61 36 62 37 63 45 64 38 65 39 66 43 67 46 68
REMARK SMILES IDX 40 69 41 70 44 71 42 72 68 73 69 74 77 75 70 76 71 77 75 78
REMARK SMILES IDX 78 79 72 80 73 81 76 82 74 83 53 84 54 85 62 86 55 87 56 88
REMARK SMILES IDX 60 89 63 90 57 91 58 92 61 93 59 94
REMARK H PARENT 20 5 10 16 24 28 83 47 51 58
REMARK Flexibility Score: inf
ROOT
ATOM      1  C   UNL A   1      41.023  21.171  26.336  1.00  0.00     0.117 C 
ENDROOT
BRANCH   1   2
ATOM      2  N   UNL A   1      39.757  21.661  25.823  1.00  0.00    -0.356 N 
ATOM      3  O   UNL A   1      39.636  23.440  27.260  1.00  0.00    -0.275 OA
ATOM      4  C   UNL A   1      39.161  22.788  26.334  1.00  0.00     0.220 C 
ATOM      5  H   UNL A   1      39.315  21.174  25.091  1.00  0.00     0.163 HD
BRANCH   4   6
ATOM      6  C   UNL A   1      37.807  23.139  25.750  1.00  0.00     0.103 C 
BRANCH   6   7
ATOM      7  C   UNL A   1      37.184  22.163  24.734  1.00  0.00     0.002 C 
ATOM      8  C   UNL A   1      36.627  22.822  23.452  1.00  0.00     0.026 C 
ATOM      9  C   UNL A   1      36.078  21.336  25.439  1.00  0.00     0.026 C 
ATOM     10  C   UNL A   1      35.253  23.475  23.631  1.00  0.00     0.121 C 
ATOM     11  C   UNL A   1      34.793  22.152  25.604  1.00  0.00     0.121 C 
ATOM     12  N   UNL A   1      34.331  22.541  24.283  1.00  0.00    -0.325 N 
ATOM     13  C   UNL A   1      33.275  22.065  23.566  1.00  0.00     0.317 C 
ATOM     14  O   UNL A   1      33.010  22.494  22.437  1.00  0.00    -0.249 OA
ATOM     15  N   UNL A   1      32.458  21.088  23.983  1.00  0.00    -0.332 N 
ATOM     16  H   UNL A   1      31.752  20.910  23.320  1.00  0.00     0.165 HD
BRANCH  15  17
ATOM     17  C   UNL A   1      32.318  20.217  25.139  1.00  0.00     0.174 C 
BRANCH  17  18
ATOM     18  C   UNL A   1      32.711  18.782  24.852  1.00  0.00     0.060 A 
ATOM     19  C   UNL A   1      33.660  18.505  23.865  1.00  0.00     0.026 A 
ATOM     20  N   UNL A   1      32.155  17.802  25.611  1.00  0.00    -0.259 NA
ATOM     21  C   UNL A   1      34.053  17.187  23.647  1.00  0.00     0.004 A 
ATOM     22  C   UNL A   1      32.552  16.529  25.369  1.00  0.00     0.111 A 
ATOM     23  C   UNL A   1      33.489  16.176  24.413  1.00  0.00     0.020 A 
ENDBRANCH  17  18
ENDBRANCH  15  17
ENDBRANCH   6   7
ENDBRANCH   4   6
ENDBRANCH   1   2
BRANCH   1  24
ATOM     24  C   UNL A   1      41.191  19.671  26.123  1.00  0.00     0.042 C 
BRANCH  24  25
ATOM     25  C   UNL A   1      42.553  19.125  26.540  1.00  0.00     0.118 C 
BRANCH  25  26
ATOM     26  N   UNL A   1      43.386  18.743  25.409  1.00  0.00    -0.352 N 
ATOM     27  C   UNL A   1      44.237  19.489  24.633  1.00  0.00     0.251 C 
ATOM     28  H   UNL A   1      43.330  17.791  25.160  1.00  0.00     0.163 HD
ATOM     29  O   UNL A   1      44.728  18.992  23.624  1.00  0.00    -0.269 OA
BRANCH  27  30
ATOM     30  C   UNL A   1      44.551  20.892  24.982  1.00  0.00     0.039 A 
ATOM     31  C   UNL A   1      44.006  21.913  24.197  1.00  0.00     0.014 A 
ATOM     32  C   UNL A   1      45.396  21.211  26.047  1.00  0.00     0.014 A 
ATOM     33  C   UNL A   1      44.251  23.249  24.523  1.00  0.00     0.010 A 
ATOM     34  C   UNL A   1      45.577  22.542  26.418  1.00  0.00     0.010 A 
ATOM     35  C   UNL A   1      45.006  23.576  25.660  1.00  0.00    -0.014 A 
BRANCH  35  36
ATOM     36  C   UNL A   1      45.195  24.990  26.077  1.00  0.00     0.031 A 
ATOM     37  C   UNL A   1      46.549  25.637  25.985  1.00  0.00     0.074 A 
ATOM     38  C   UNL A   1      44.158  25.673  26.600  1.00  0.00     0.049 A 
ATOM     39  N   UNL A   1      46.923  26.834  26.363  1.00  0.00    -0.248 NA
ATOM     40  C   UNL A   1      47.633  24.824  25.412  1.00  0.00     0.031 C 
ATOM     41  C   UNL A   1      42.805  25.145  26.783  1.00  0.00     0.029 A 
ATOM     42  N   UNL A   1      44.081  26.956  27.083  1.00  0.00    -0.354 N 
ATOM     43  C   UNL A   1      48.281  26.912  26.087  1.00  0.00     0.074 A 
ATOM     44  C   UNL A   1      48.678  25.624  25.558  1.00  0.00     0.031 C 
ATOM     45  C   UNL A   1      42.029  26.100  27.317  1.00  0.00     0.029 A 
ATOM     46  C   UNL A   1      42.836  27.293  27.556  1.00  0.00     0.049 A 
ATOM     47  H   UNL A   1      44.846  27.576  27.090  1.00  0.00     0.167 HD
ATOM     48  C   UNL A   1      49.117  27.968  26.237  1.00  0.00     0.037 A 
ATOM     49  C   UNL A   1      42.397  28.431  28.127  1.00  0.00     0.037 A 
ATOM     50  C   UNL A   1      48.714  29.254  26.745  1.00  0.00     0.049 A 
ATOM     51  C   UNL A   1      43.352  29.581  28.304  1.00  0.00     0.074 A 
ATOM     52  C   UNL A   1      49.473  30.404  26.879  1.00  0.00     0.029 A 
ATOM     53  N   UNL A   1      47.442  29.560  27.209  1.00  0.00    -0.354 N 
ATOM     54  N   UNL A   1      44.617  29.666  27.973  1.00  0.00    -0.248 NA
ATOM     55  C   UNL A   1      42.813  30.796  28.931  1.00  0.00     0.031 C 
ATOM     56  C   UNL A   1      48.677  31.388  27.475  1.00  0.00     0.029 A 
ATOM     57  C   UNL A   1      47.405  30.871  27.657  1.00  0.00     0.049 A 
ATOM     58  H   UNL A   1      46.681  28.937  27.218  1.00  0.00     0.167 HD
ATOM     59  C   UNL A   1      45.018  30.948  28.326  1.00  0.00     0.074 A 
ATOM     60  C   UNL A   1      43.856  31.611  28.878  1.00  0.00     0.031 C 
ATOM     61  C   UNL A   1      46.240  31.522  28.203  1.00  0.00     0.037 A 
BRANCH  48  62
ATOM     62  C   UNL A   1      50.556  27.779  25.849  1.00  0.00     0.064 A 
ATOM     63  C   UNL A   1      50.987  27.924  24.521  1.00  0.00     0.173 A 
ATOM     64  C   UNL A   1      51.524  27.487  26.823  1.00  0.00     0.173 A 
ATOM     65  F   UNL A   1      50.102  28.193  23.550  1.00  0.00    -0.203 F 
ATOM     66  C   UNL A   1      52.326  27.756  24.179  1.00  0.00     0.198 A 
ATOM     67  C   UNL A   1      52.867  27.351  26.482  1.00  0.00     0.198 A 
ATOM     68  F   UNL A   1      51.169  27.344  28.108  1.00  0.00    -0.203 F 
ATOM     69  F   UNL A   1      52.704  27.849  22.896  1.00  0.00    -0.200 F 
ATOM     70  C   UNL A   1      53.265  27.477  25.159  1.00  0.00     0.200 A 
ATOM     71  F   UNL A   1      53.776  27.097  27.433  1.00  0.00    -0.200 F 
ATOM     72  F   UNL A   1      54.555  27.321  24.829  1.00  0.00    -0.200 F 
ENDBRANCH  48  62
BRANCH  49  73
ATOM     73  C   UNL A   1      40.980  28.545  28.563  1.00  0.00     0.064 A 
ATOM     74  C   UNL A   1      40.598  28.204  29.868  1.00  0.00     0.173 A 
ATOM     75  C   UNL A   1      39.979  28.984  27.685  1.00  0.00     0.173 A 
ATOM     76  F   UNL A   1      41.516  27.758  30.739  1.00  0.00    -0.203 F 
ATOM     77  C   UNL A   1      39.266  28.276  30.271  1.00  0.00     0.198 A 
ATOM     78  C   UNL A   1      38.651  29.086  28.098  1.00  0.00     0.198 A 
ATOM     79  F   UNL A   1      40.291  29.326  26.426  1.00  0.00    -0.203 F 
ATOM     80  F   UNL A   1      38.922  27.895  31.509  1.00  0.00    -0.200 F 
ATOM     81  C   UNL A   1      38.295  28.722  29.388  1.00  0.00     0.200 A 
ATOM     82  F   UNL A   1      37.719  29.532  27.246  1.00  0.00    -0.200 F 
ATOM     83  F   UNL A   1      37.015  28.794  29.777  1.00  0.00    -0.200 F 
ENDBRANCH  49  73
BRANCH  61  84
ATOM     84  C   UNL A   1      46.377  32.951  28.645  1.00  0.00     0.064 A 
ATOM     85  C   UNL A   1      46.767  33.285  29.951  1.00  0.00     0.173 A 
ATOM     86  C   UNL A   1      46.152  34.000  27.739  1.00  0.00     0.173 A 
ATOM     87  F   UNL A   1      46.980  32.321  30.859  1.00  0.00    -0.203 F 
ATOM     88  C   UNL A   1      46.897  34.616  30.341  1.00  0.00     0.198 A 
ATOM     89  C   UNL A   1      46.317  35.327  28.123  1.00  0.00     0.198 A 
ATOM     90  F   UNL A   1      45.785  33.736  26.476  1.00  0.00    -0.203 F 
ATOM     91  F   UNL A   1      47.219  34.912  31.607  1.00  0.00    -0.200 F 
ATOM     92  C   UNL A   1      46.680  35.635  29.425  1.00  0.00     0.200 A 
ATOM     93  F   UNL A   1      46.122  36.310  27.233  1.00  0.00    -0.200 F 
ATOM     94  F   UNL A   1      46.815  36.914  29.800  1.00  0.00    -0.200 F 
ENDBRANCH  61  84
ENDBRANCH  35  36
ENDBRANCH  27  30
ENDBRANCH  25  26
ENDBRANCH  24  25
ENDBRANCH   1  24
TORSDOF 13
ENDMDL
