MODEL 1
REMARK VINA RESULT:     -13.0      0.000      0.000
REMARK SMILES COc1ccc(Nc2c(C(=O)NCCCNC(=O)c3ccc(-c4c5nc(c(-c6c(F)c(F)c(F)c(F)c6F)c6ccc([nH]6)c(-c6c(F)c(F)c(F)c(F)c6F)c6nc(c(-c7c(F)c(F)c(F)c(F)c7F)c7ccc4[nH]7)C=C6)C=C5)cc3)[nH]c(=O)[nH]c2=O)cc1
REMARK SMILES IDX 13 1 12 2 10 3 11 4 9 6 8 7 86 8 82 9 85 10 87 11 83 12
REMARK SMILES IDX 84 15 7 16 6 18 3 19 4 20 89 21 5 22 88 23 2 24 1 25 14 26
REMARK SMILES IDX 15 27 16 28 17 29 18 31 19 32 20 33 81 34 21 35 80 36 22 37
REMARK SMILES IDX 23 38 24 39 74 40 25 41 79 42 73 43 75 44 26 45 78 46 72 47
REMARK SMILES IDX 71 48 27 50 59 51 39 52 58 53 40 54 43 55 57 56 76 57 41 58
REMARK SMILES IDX 42 59 56 61 77 62 44 63 28 64 29 65 37 66 30 67 31 68 35 69
REMARK SMILES IDX 38 70 32 71 33 72 36 73 34 74 60 75 61 76 69 77 62 78 63 79
REMARK SMILES IDX 67 80 70 81 64 82 65 83 68 84 66 85 45 86 46 87 54 88 47 89
REMARK SMILES IDX 48 90 52 91 55 92 49 93 50 94 53 95 51 96
REMARK H PARENT 12 5 82 13 85 14 7 17 16 30 75 49 43 60
REMARK Flexibility Score: inf
ROOT
ATOM      1  C   UNL A   1      31.496  27.400  26.462  1.00  0.00     0.118 C 
ENDROOT
BRANCH   1   2
ATOM      2  N   UNL A   1      31.107  26.022  26.377  1.00  0.00    -0.351 N 
ATOM      3  C   UNL A   1      31.154  25.196  25.301  1.00  0.00     0.270 C 
ATOM      4  O   UNL A   1      30.721  24.048  25.469  1.00  0.00    -0.268 OA
ATOM      5  H   UNL A   1      30.761  25.623  27.208  1.00  0.00     0.163 HD
BRANCH   3   6
ATOM      6  C   UNL A   1      31.576  25.584  23.888  1.00  0.00     0.137 A 
ATOM      7  C   UNL A   1      32.452  25.002  23.034  1.00  0.00     0.134 A 
ATOM      8  C   UNL A   1      32.531  25.617  21.643  1.00  0.00     0.278 A 
ATOM      9  N   UNL A   1      30.845  26.690  23.477  1.00  0.00    -0.301 N 
ATOM     10  N   UNL A   1      31.822  26.755  21.410  1.00  0.00    -0.272 N 
ATOM     11  O   UNL A   1      33.195  25.107  20.744  1.00  0.00    -0.267 OA
ATOM     12  C   UNL A   1      30.944  27.305  22.278  1.00  0.00     0.326 A 
ATOM     13  H   UNL A   1      30.193  27.058  24.117  1.00  0.00     0.172 HD
ATOM     14  H   UNL A   1      31.958  27.210  20.548  1.00  0.00     0.175 HD
ATOM     15  O   UNL A   1      30.268  28.293  21.989  1.00  0.00    -0.248 OA
BRANCH   7  16
ATOM     16  N   UNL A   1      33.260  23.885  23.220  1.00  0.00    -0.349 N 
ATOM     17  H   UNL A   1      32.900  23.022  22.912  1.00  0.00     0.167 HD
BRANCH  16  18
ATOM     18  C   UNL A   1      34.552  23.869  23.810  1.00  0.00     0.039 A 
ATOM     19  C   UNL A   1      36.998  23.343  25.142  1.00  0.00     0.119 A 
ATOM     20  C   UNL A   1      36.018  24.127  25.745  1.00  0.00     0.048 A 
ATOM     21  C   UNL A   1      36.761  22.811  23.877  1.00  0.00     0.048 A 
ATOM     22  C   UNL A   1      34.808  24.383  25.090  1.00  0.00     0.030 A 
ATOM     23  C   UNL A   1      35.552  23.081  23.215  1.00  0.00     0.030 A 
BRANCH  19  24
ATOM     24  O   UNL A   1      38.113  23.113  25.899  1.00  0.00    -0.497 OA
ATOM     25  C   UNL A   1      38.674  21.812  25.772  1.00  0.00     0.278 C 
ENDBRANCH  19  24
ENDBRANCH  16  18
ENDBRANCH   7  16
ENDBRANCH   3   6
ENDBRANCH   1   2
BRANCH   1  26
ATOM     26  C   UNL A   1      32.964  27.720  26.281  1.00  0.00     0.042 C 
BRANCH  26  27
ATOM     27  C   UNL A   1      33.254  28.933  25.424  1.00  0.00     0.118 C 
BRANCH  27  28
ATOM     28  N   UNL A   1      32.774  30.192  25.988  1.00  0.00    -0.352 N 
ATOM     29  C   UNL A   1      33.277  31.040  26.949  1.00  0.00     0.251 C 
ATOM     30  H   UNL A   1      31.921  30.496  25.603  1.00  0.00     0.163 HD
ATOM     31  O   UNL A   1      32.584  31.985  27.326  1.00  0.00    -0.269 OA
BRANCH  29  32
ATOM     32  C   UNL A   1      34.600  30.818  27.578  1.00  0.00     0.039 A 
ATOM     33  C   UNL A   1      35.502  31.886  27.685  1.00  0.00     0.014 A 
ATOM     34  C   UNL A   1      34.982  29.568  28.048  1.00  0.00     0.014 A 
ATOM     35  C   UNL A   1      36.721  31.715  28.356  1.00  0.00     0.010 A 
ATOM     36  C   UNL A   1      36.109  29.437  28.846  1.00  0.00     0.010 A 
ATOM     37  C   UNL A   1      37.007  30.502  28.996  1.00  0.00    -0.014 A 
BRANCH  37  38
ATOM     38  C   UNL A   1      38.245  30.267  29.788  1.00  0.00     0.031 A 
ATOM     39  C   UNL A   1      39.304  29.343  29.242  1.00  0.00     0.074 A 
ATOM     40  C   UNL A   1      38.363  30.767  31.034  1.00  0.00     0.049 A 
ATOM     41  N   UNL A   1      40.334  28.806  29.845  1.00  0.00    -0.248 NA
ATOM     42  C   UNL A   1      39.148  28.919  27.840  1.00  0.00     0.031 C 
ATOM     43  C   UNL A   1      37.393  31.638  31.699  1.00  0.00     0.029 A 
ATOM     44  N   UNL A   1      39.345  30.587  31.978  1.00  0.00    -0.354 N 
ATOM     45  C   UNL A   1      40.910  27.950  28.915  1.00  0.00     0.074 A 
ATOM     46  C   UNL A   1      40.081  27.987  27.732  1.00  0.00     0.031 C 
ATOM     47  C   UNL A   1      37.836  31.932  32.931  1.00  0.00     0.029 A 
ATOM     48  C   UNL A   1      39.089  31.224  33.168  1.00  0.00     0.049 A 
ATOM     49  H   UNL A   1      40.156  30.051  31.817  1.00  0.00     0.167 HD
ATOM     50  C   UNL A   1      42.045  27.218  29.025  1.00  0.00     0.037 A 
ATOM     51  C   UNL A   1      39.778  31.218  34.326  1.00  0.00     0.037 A 
ATOM     52  C   UNL A   1      42.895  27.231  30.184  1.00  0.00     0.049 A 
ATOM     53  C   UNL A   1      41.043  30.406  34.424  1.00  0.00     0.074 A 
ATOM     54  C   UNL A   1      44.102  26.584  30.375  1.00  0.00     0.029 A 
ATOM     55  N   UNL A   1      42.628  27.937  31.348  1.00  0.00    -0.354 N 
ATOM     56  N   UNL A   1      41.605  29.638  33.521  1.00  0.00    -0.248 NA
ATOM     57  C   UNL A   1      41.771  30.459  35.700  1.00  0.00     0.031 C 
ATOM     58  C   UNL A   1      44.542  26.859  31.673  1.00  0.00     0.029 A 
ATOM     59  C   UNL A   1      43.642  27.731  32.267  1.00  0.00     0.049 A 
ATOM     60  H   UNL A   1      41.835  28.502  31.498  1.00  0.00     0.167 HD
ATOM     61  C   UNL A   1      42.772  29.156  34.103  1.00  0.00     0.074 A 
ATOM     62  C   UNL A   1      42.836  29.716  35.435  1.00  0.00     0.031 C 
ATOM     63  C   UNL A   1      43.707  28.328  33.576  1.00  0.00     0.037 A 
BRANCH  50  64
ATOM     64  C   UNL A   1      42.436  26.352  27.860  1.00  0.00     0.064 A 
ATOM     65  C   UNL A   1      41.926  25.054  27.700  1.00  0.00     0.173 A 
ATOM     66  C   UNL A   1      43.310  26.836  26.875  1.00  0.00     0.173 A 
ATOM     67  F   UNL A   1      41.095  24.536  28.617  1.00  0.00    -0.203 F 
ATOM     68  C   UNL A   1      42.308  24.261  26.620  1.00  0.00     0.198 A 
ATOM     69  C   UNL A   1      43.659  26.055  25.777  1.00  0.00     0.198 A 
ATOM     70  F   UNL A   1      43.823  28.072  26.973  1.00  0.00    -0.203 F 
ATOM     71  F   UNL A   1      41.857  23.003  26.524  1.00  0.00    -0.200 F 
ATOM     72  C   UNL A   1      43.167  24.765  25.656  1.00  0.00     0.200 A 
ATOM     73  F   UNL A   1      44.476  26.550  24.836  1.00  0.00    -0.200 F 
ATOM     74  F   UNL A   1      43.526  24.003  24.614  1.00  0.00    -0.200 F 
ENDBRANCH  50  64
BRANCH  51  75
ATOM     75  C   UNL A   1      39.301  32.025  35.482  1.00  0.00     0.064 A 
ATOM     76  C   UNL A   1      38.472  31.456  36.459  1.00  0.00     0.173 A 
ATOM     77  C   UNL A   1      39.654  33.374  35.634  1.00  0.00     0.173 A 
ATOM     78  F   UNL A   1      38.091  30.174  36.349  1.00  0.00    -0.203 F 
ATOM     79  C   UNL A   1      37.994  32.210  37.528  1.00  0.00     0.198 A 
ATOM     80  C   UNL A   1      39.201  34.119  36.722  1.00  0.00     0.198 A 
ATOM     81  F   UNL A   1      40.450  33.967  34.733  1.00  0.00    -0.203 F 
ATOM     82  F   UNL A   1      37.162  31.652  38.419  1.00  0.00    -0.200 F 
ATOM     83  C   UNL A   1      38.364  33.539  37.663  1.00  0.00     0.200 A 
ATOM     84  F   UNL A   1      39.574  35.398  36.858  1.00  0.00    -0.200 F 
ATOM     85  F   UNL A   1      37.907  34.263  38.694  1.00  0.00    -0.200 F 
ENDBRANCH  51  75
BRANCH  63  86
ATOM     86  C   UNL A   1      44.925  28.034  34.401  1.00  0.00     0.064 A 
ATOM     87  C   UNL A   1      46.057  28.859  34.375  1.00  0.00     0.173 A 
ATOM     88  C   UNL A   1      44.917  26.953  35.297  1.00  0.00     0.173 A 
ATOM     89  F   UNL A   1      46.118  29.897  33.528  1.00  0.00    -0.203 F 
ATOM     90  C   UNL A   1      47.144  28.605  35.209  1.00  0.00     0.198 A 
ATOM     91  C   UNL A   1      45.991  26.721  36.150  1.00  0.00     0.198 A 
ATOM     92  F   UNL A   1      43.853  26.139  35.364  1.00  0.00    -0.203 F 
ATOM     93  F   UNL A   1      48.231  29.387  35.144  1.00  0.00    -0.200 F 
ATOM     94  C   UNL A   1      47.106  27.544  36.103  1.00  0.00     0.200 A 
ATOM     95  F   UNL A   1      45.943  25.708  37.026  1.00  0.00    -0.200 F 
ATOM     96  F   UNL A   1      48.143  27.317  36.919  1.00  0.00    -0.200 F 
ENDBRANCH  63  86
ENDBRANCH  37  38
ENDBRANCH  29  32
ENDBRANCH  27  28
ENDBRANCH  26  27
ENDBRANCH   1  26
TORSDOF 13
ENDMDL
MODEL 2
REMARK VINA RESULT:     -12.9      0.179      1.602
REMARK SMILES COc1ccc(Nc2c(C(=O)NCCCNC(=O)c3ccc(-c4c5nc(c(-c6c(F)c(F)c(F)c(F)c6F)c6ccc([nH]6)c(-c6c(F)c(F)c(F)c(F)c6F)c6nc(c(-c7c(F)c(F)c(F)c(F)c7F)c7ccc4[nH]7)C=C6)C=C5)cc3)[nH]c(=O)[nH]c2=O)cc1
REMARK SMILES IDX 13 1 12 2 10 3 11 4 9 6 8 7 86 8 82 9 85 10 87 11 83 12
REMARK SMILES IDX 84 15 7 16 6 18 3 19 4 20 89 21 5 22 88 23 2 24 1 25 14 26
REMARK SMILES IDX 15 27 16 28 17 29 18 31 19 32 20 33 81 34 21 35 80 36 22 37
REMARK SMILES IDX 23 38 24 39 74 40 25 41 79 42 73 43 75 44 26 45 78 46 72 47
REMARK SMILES IDX 71 48 27 50 59 51 39 52 58 53 40 54 43 55 57 56 76 57 41 58
REMARK SMILES IDX 42 59 56 61 77 62 44 63 28 64 29 65 37 66 30 67 31 68 35 69
REMARK SMILES IDX 38 70 32 71 33 72 36 73 34 74 60 75 61 76 69 77 62 78 63 79
REMARK SMILES IDX 67 80 70 81 64 82 65 83 68 84 66 85 45 86 46 87 54 88 47 89
REMARK SMILES IDX 48 90 52 91 55 92 49 93 50 94 53 95 51 96
REMARK H PARENT 12 5 82 13 85 14 7 17 16 30 75 49 43 60
REMARK Flexibility Score: inf
ROOT
ATOM      1  C   UNL A   1      31.149  27.428  26.498  1.00  0.00     0.118 C 
ENDROOT
BRANCH   1   2
ATOM      2  N   UNL A   1      30.889  26.020  26.418  1.00  0.00    -0.351 N 
ATOM      3  C   UNL A   1      31.072  25.186  25.362  1.00  0.00     0.270 C 
ATOM      4  O   UNL A   1      30.735  24.006  25.528  1.00  0.00    -0.268 OA
ATOM      5  H   UNL A   1      30.532  25.603  27.235  1.00  0.00     0.163 HD
BRANCH   3   6
ATOM      6  C   UNL A   1      31.540  25.591  23.968  1.00  0.00     0.137 A 
ATOM      7  C   UNL A   1      32.445  25.018  23.137  1.00  0.00     0.134 A 
ATOM      8  C   UNL A   1      32.569  25.649  21.757  1.00  0.00     0.278 A 
ATOM      9  N   UNL A   1      30.822  26.700  23.546  1.00  0.00    -0.301 N 
ATOM     10  N   UNL A   1      31.868  26.790  21.513  1.00  0.00    -0.272 N 
ATOM     11  O   UNL A   1      33.263  25.150  20.875  1.00  0.00    -0.267 OA
ATOM     12  C   UNL A   1      30.961  27.330  22.358  1.00  0.00     0.326 A 
ATOM     13  H   UNL A   1      30.150  27.061  24.168  1.00  0.00     0.172 HD
ATOM     14  H   UNL A   1      32.031  27.255  20.662  1.00  0.00     0.175 HD
ATOM     15  O   UNL A   1      30.294  28.320  22.058  1.00  0.00    -0.248 OA
BRANCH   7  16
ATOM     16  N   UNL A   1      33.247  23.900  23.337  1.00  0.00    -0.349 N 
ATOM     17  H   UNL A   1      32.871  23.031  23.068  1.00  0.00     0.167 HD
BRANCH  16  18
ATOM     18  C   UNL A   1      34.555  23.890  23.892  1.00  0.00     0.039 A 
ATOM     19  C   UNL A   1      37.070  23.351  25.083  1.00  0.00     0.119 A 
ATOM     20  C   UNL A   1      36.059  23.971  25.812  1.00  0.00     0.048 A 
ATOM     21  C   UNL A   1      36.829  22.988  23.760  1.00  0.00     0.048 A 
ATOM     22  C   UNL A   1      34.816  24.234  25.226  1.00  0.00     0.030 A 
ATOM     23  C   UNL A   1      35.586  23.265  23.169  1.00  0.00     0.030 A 
BRANCH  19  24
ATOM     24  O   UNL A   1      38.221  23.093  25.775  1.00  0.00    -0.497 OA
ATOM     25  C   UNL A   1      38.592  21.722  25.845  1.00  0.00     0.278 C 
ENDBRANCH  19  24
ENDBRANCH  16  18
ENDBRANCH   7  16
ENDBRANCH   3   6
ENDBRANCH   1   2
BRANCH   1  26
ATOM     26  C   UNL A   1      32.596  27.865  26.580  1.00  0.00     0.042 C 
BRANCH  26  27
ATOM     27  C   UNL A   1      32.976  28.997  25.650  1.00  0.00     0.118 C 
BRANCH  27  28
ATOM     28  N   UNL A   1      32.572  30.319  26.122  1.00  0.00    -0.352 N 
ATOM     29  C   UNL A   1      33.137  31.212  27.004  1.00  0.00     0.251 C 
ATOM     30  H   UNL A   1      31.726  30.635  25.730  1.00  0.00     0.163 HD
ATOM     31  O   UNL A   1      32.501  32.218  27.317  1.00  0.00    -0.269 OA
BRANCH  29  32
ATOM     32  C   UNL A   1      34.462  30.973  27.623  1.00  0.00     0.039 A 
ATOM     33  C   UNL A   1      35.366  32.036  27.754  1.00  0.00     0.014 A 
ATOM     34  C   UNL A   1      34.842  29.711  28.062  1.00  0.00     0.014 A 
ATOM     35  C   UNL A   1      36.586  31.847  28.417  1.00  0.00     0.010 A 
ATOM     36  C   UNL A   1      35.972  29.558  28.855  1.00  0.00     0.010 A 
ATOM     37  C   UNL A   1      36.872  30.618  29.028  1.00  0.00    -0.014 A 
BRANCH  37  38
ATOM     38  C   UNL A   1      38.112  30.362  29.810  1.00  0.00     0.031 A 
ATOM     39  C   UNL A   1      39.156  29.430  29.251  1.00  0.00     0.074 A 
ATOM     40  C   UNL A   1      38.243  30.850  31.059  1.00  0.00     0.049 A 
ATOM     41  N   UNL A   1      40.183  28.876  29.843  1.00  0.00    -0.248 NA
ATOM     42  C   UNL A   1      38.987  29.020  27.846  1.00  0.00     0.031 C 
ATOM     43  C   UNL A   1      37.286  31.727  31.737  1.00  0.00     0.029 A 
ATOM     44  N   UNL A   1      39.227  30.650  31.996  1.00  0.00    -0.354 N 
ATOM     45  C   UNL A   1      40.743  28.020  28.903  1.00  0.00     0.074 A 
ATOM     46  C   UNL A   1      39.909  28.077  27.725  1.00  0.00     0.031 C 
ATOM     47  C   UNL A   1      37.740  32.006  32.969  1.00  0.00     0.029 A 
ATOM     48  C   UNL A   1      38.986  31.281  33.193  1.00  0.00     0.049 A 
ATOM     49  H   UNL A   1      40.031  30.107  31.826  1.00  0.00     0.167 HD
ATOM     50  C   UNL A   1      41.870  27.274  29.000  1.00  0.00     0.037 A 
ATOM     51  C   UNL A   1      39.681  31.257  34.347  1.00  0.00     0.037 A 
ATOM     52  C   UNL A   1      42.726  27.268  30.154  1.00  0.00     0.049 A 
ATOM     53  C   UNL A   1      40.937  30.429  34.431  1.00  0.00     0.074 A 
ATOM     54  C   UNL A   1      43.927  26.604  30.334  1.00  0.00     0.029 A 
ATOM     55  N   UNL A   1      42.475  27.967  31.326  1.00  0.00    -0.354 N 
ATOM     56  N   UNL A   1      41.485  29.661  33.519  1.00  0.00    -0.248 NA
ATOM     57  C   UNL A   1      41.673  30.463  35.703  1.00  0.00     0.031 C 
ATOM     58  C   UNL A   1      44.377  26.863  31.631  1.00  0.00     0.029 A 
ATOM     59  C   UNL A   1      43.491  27.741  32.238  1.00  0.00     0.049 A 
ATOM     60  H   UNL A   1      41.689  28.539  31.485  1.00  0.00     0.167 HD
ATOM     61  C   UNL A   1      42.649  29.161  34.090  1.00  0.00     0.074 A 
ATOM     62  C   UNL A   1      42.727  29.709  35.427  1.00  0.00     0.031 C 
ATOM     63  C   UNL A   1      43.571  28.326  33.550  1.00  0.00     0.037 A 
BRANCH  50  64
ATOM     64  C   UNL A   1      42.244  26.413  27.826  1.00  0.00     0.064 A 
ATOM     65  C   UNL A   1      43.184  26.832  26.871  1.00  0.00     0.173 A 
ATOM     66  C   UNL A   1      41.677  25.139  27.669  1.00  0.00     0.173 A 
ATOM     67  F   UNL A   1      43.749  28.045  26.966  1.00  0.00    -0.203 F 
ATOM     68  C   UNL A   1      43.511  26.025  25.784  1.00  0.00     0.198 A 
ATOM     69  C   UNL A   1      42.035  24.319  26.602  1.00  0.00     0.198 A 
ATOM     70  F   UNL A   1      40.778  24.683  28.555  1.00  0.00    -0.203 F 
ATOM     71  F   UNL A   1      44.363  26.475  24.853  1.00  0.00    -0.200 F 
ATOM     72  C   UNL A   1      42.943  24.767  25.655  1.00  0.00     0.200 A 
ATOM     73  F   UNL A   1      41.498  23.097  26.488  1.00  0.00    -0.200 F 
ATOM     74  F   UNL A   1      43.265  23.990  24.612  1.00  0.00    -0.200 F 
ENDBRANCH  50  64
BRANCH  51  75
ATOM     75  C   UNL A   1      39.221  32.059  35.512  1.00  0.00     0.064 A 
ATOM     76  C   UNL A   1      39.590  33.406  35.645  1.00  0.00     0.173 A 
ATOM     77  C   UNL A   1      38.412  31.505  36.516  1.00  0.00     0.173 A 
ATOM     78  F   UNL A   1      40.379  33.978  34.723  1.00  0.00    -0.203 F 
ATOM     79  C   UNL A   1      39.192  34.158  36.748  1.00  0.00     0.198 A 
ATOM     80  C   UNL A   1      37.987  32.269  37.602  1.00  0.00     0.198 A 
ATOM     81  F   UNL A   1      38.023  30.225  36.435  1.00  0.00    -0.203 F 
ATOM     82  F   UNL A   1      39.603  35.428  36.874  1.00  0.00    -0.200 F 
ATOM     83  C   UNL A   1      38.385  33.592  37.722  1.00  0.00     0.200 A 
ATOM     84  F   UNL A   1      37.193  31.722  38.533  1.00  0.00    -0.200 F 
ATOM     85  F   UNL A   1      37.998  34.317  38.780  1.00  0.00    -0.200 F 
ENDBRANCH  51  75
BRANCH  63  86
ATOM     86  C   UNL A   1      44.790  28.011  34.366  1.00  0.00     0.064 A 
ATOM     87  C   UNL A   1      45.927  28.830  34.351  1.00  0.00     0.173 A 
ATOM     88  C   UNL A   1      44.779  26.914  35.243  1.00  0.00     0.173 A 
ATOM     89  F   UNL A   1      45.990  29.883  33.523  1.00  0.00    -0.203 F 
ATOM     90  C   UNL A   1      47.015  28.555  35.177  1.00  0.00     0.198 A 
ATOM     91  C   UNL A   1      45.855  26.661  36.088  1.00  0.00     0.198 A 
ATOM     92  F   UNL A   1      43.711  26.104  35.299  1.00  0.00    -0.203 F 
ATOM     93  F   UNL A   1      48.106  29.332  35.123  1.00  0.00    -0.200 F 
ATOM     94  C   UNL A   1      46.973  27.479  36.052  1.00  0.00     0.200 A 
ATOM     95  F   UNL A   1      45.803  25.633  36.946  1.00  0.00    -0.200 F 
ATOM     96  F   UNL A   1      48.012  27.231  36.861  1.00  0.00    -0.200 F 
ENDBRANCH  63  86
ENDBRANCH  37  38
ENDBRANCH  29  32
ENDBRANCH  27  28
ENDBRANCH  26  27
ENDBRANCH   1  26
TORSDOF 13
ENDMDL
MODEL 3
REMARK VINA RESULT:     -12.9      1.217      3.335
REMARK SMILES COc1ccc(Nc2c(C(=O)NCCCNC(=O)c3ccc(-c4c5nc(c(-c6c(F)c(F)c(F)c(F)c6F)c6ccc([nH]6)c(-c6c(F)c(F)c(F)c(F)c6F)c6nc(c(-c7c(F)c(F)c(F)c(F)c7F)c7ccc4[nH]7)C=C6)C=C5)cc3)[nH]c(=O)[nH]c2=O)cc1
REMARK SMILES IDX 13 1 12 2 10 3 11 4 9 6 8 7 86 8 82 9 85 10 87 11 83 12
REMARK SMILES IDX 84 15 7 16 6 18 3 19 4 20 89 21 5 22 88 23 2 24 1 25 14 26
REMARK SMILES IDX 15 27 16 28 17 29 18 31 19 32 20 33 81 34 21 35 80 36 22 37
REMARK SMILES IDX 23 38 24 39 74 40 25 41 79 42 73 43 75 44 26 45 78 46 72 47
REMARK SMILES IDX 71 48 27 50 59 51 39 52 58 53 40 54 43 55 57 56 76 57 41 58
REMARK SMILES IDX 42 59 56 61 77 62 44 63 28 64 29 65 37 66 30 67 31 68 35 69
REMARK SMILES IDX 38 70 32 71 33 72 36 73 34 74 60 75 61 76 69 77 62 78 63 79
REMARK SMILES IDX 67 80 70 81 64 82 65 83 68 84 66 85 45 86 46 87 54 88 47 89
REMARK SMILES IDX 48 90 52 91 55 92 49 93 50 94 53 95 51 96
REMARK H PARENT 12 5 82 13 85 14 7 17 16 30 75 49 43 60
REMARK Flexibility Score: inf
ROOT
ATOM      1  C   UNL A   1      32.160  26.453  26.222  1.00  0.00     0.118 C 
ENDROOT
BRANCH   1   2
ATOM      2  N   UNL A   1      31.357  25.453  26.865  1.00  0.00    -0.351 N 
ATOM      3  C   UNL A   1      31.318  24.118  26.623  1.00  0.00     0.270 C 
ATOM      4  O   UNL A   1      30.507  23.462  27.289  1.00  0.00    -0.268 OA
ATOM      5  H   UNL A   1      30.757  25.777  27.575  1.00  0.00     0.163 HD
BRANCH   3   6
ATOM      6  C   UNL A   1      32.088  23.380  25.533  1.00  0.00     0.137 A 
ATOM      7  C   UNL A   1      31.872  23.296  24.197  1.00  0.00     0.134 A 
ATOM      8  C   UNL A   1      32.933  22.550  23.400  1.00  0.00     0.278 A 
ATOM      9  N   UNL A   1      33.207  22.776  26.089  1.00  0.00    -0.301 N 
ATOM     10  N   UNL A   1      33.930  21.931  24.090  1.00  0.00    -0.272 N 
ATOM     11  O   UNL A   1      32.914  22.510  22.173  1.00  0.00    -0.267 OA
ATOM     12  C   UNL A   1      34.127  22.045  25.423  1.00  0.00     0.326 A 
ATOM     13  H   UNL A   1      33.344  22.893  27.057  1.00  0.00     0.172 HD
ATOM     14  H   UNL A   1      34.552  21.361  23.584  1.00  0.00     0.175 HD
ATOM     15  O   UNL A   1      35.091  21.528  25.988  1.00  0.00    -0.248 OA
BRANCH   7  16
ATOM     16  N   UNL A   1      30.846  23.838  23.432  1.00  0.00    -0.349 N 
ATOM     17  H   UNL A   1      30.204  23.204  23.038  1.00  0.00     0.167 HD
BRANCH  16  18
ATOM     18  C   UNL A   1      30.634  25.217  23.163  1.00  0.00     0.039 A 
ATOM     19  C   UNL A   1      30.563  28.047  23.018  1.00  0.00     0.119 A 
ATOM     20  C   UNL A   1      29.545  27.345  23.658  1.00  0.00     0.048 A 
ATOM     21  C   UNL A   1      31.625  27.343  22.455  1.00  0.00     0.048 A 
ATOM     22  C   UNL A   1      29.582  25.948  23.733  1.00  0.00     0.030 A 
ATOM     23  C   UNL A   1      31.653  25.941  22.520  1.00  0.00     0.030 A 
BRANCH  19  24
ATOM     24  O   UNL A   1      30.451  29.409  23.056  1.00  0.00    -0.497 OA
ATOM     25  C   UNL A   1      29.715  29.987  21.984  1.00  0.00     0.278 C 
ENDBRANCH  19  24
ENDBRANCH  16  18
ENDBRANCH   7  16
ENDBRANCH   3   6
ENDBRANCH   1   2
BRANCH   1  26
ATOM     26  C   UNL A   1      31.880  27.899  26.570  1.00  0.00     0.042 C 
BRANCH  26  27
ATOM     27  C   UNL A   1      32.801  28.905  25.915  1.00  0.00     0.118 C 
BRANCH  27  28
ATOM     28  N   UNL A   1      32.493  30.296  26.236  1.00  0.00    -0.352 N 
ATOM     29  C   UNL A   1      33.135  31.246  26.998  1.00  0.00     0.251 C 
ATOM     30  H   UNL A   1      31.659  30.619  25.825  1.00  0.00     0.163 HD
ATOM     31  O   UNL A   1      32.571  32.320  27.203  1.00  0.00    -0.269 OA
BRANCH  29  32
ATOM     32  C   UNL A   1      34.457  30.994  27.618  1.00  0.00     0.039 A 
ATOM     33  C   UNL A   1      35.372  32.048  27.748  1.00  0.00     0.014 A 
ATOM     34  C   UNL A   1      34.825  29.729  28.058  1.00  0.00     0.014 A 
ATOM     35  C   UNL A   1      36.590  31.847  28.411  1.00  0.00     0.010 A 
ATOM     36  C   UNL A   1      35.952  29.565  28.850  1.00  0.00     0.010 A 
ATOM     37  C   UNL A   1      36.863  30.615  29.022  1.00  0.00    -0.014 A 
BRANCH  37  38
ATOM     38  C   UNL A   1      38.100  30.348  29.805  1.00  0.00     0.031 A 
ATOM     39  C   UNL A   1      39.133  29.401  29.249  1.00  0.00     0.074 A 
ATOM     40  C   UNL A   1      38.238  30.839  31.053  1.00  0.00     0.049 A 
ATOM     41  N   UNL A   1      40.154  28.837  29.843  1.00  0.00    -0.248 NA
ATOM     42  C   UNL A   1      38.958  28.987  27.846  1.00  0.00     0.031 C 
ATOM     43  C   UNL A   1      37.293  31.730  31.727  1.00  0.00     0.029 A 
ATOM     44  N   UNL A   1      39.221  30.631  31.989  1.00  0.00    -0.354 N 
ATOM     45  C   UNL A   1      40.703  27.970  28.905  1.00  0.00     0.074 A 
ATOM     46  C   UNL A   1      39.868  28.033  27.728  1.00  0.00     0.031 C 
ATOM     47  C   UNL A   1      37.750  32.008  32.958  1.00  0.00     0.029 A 
ATOM     48  C   UNL A   1      38.988  31.269  33.184  1.00  0.00     0.049 A 
ATOM     49  H   UNL A   1      40.017  30.077  31.821  1.00  0.00     0.167 HD
ATOM     50  C   UNL A   1      41.820  27.211  29.005  1.00  0.00     0.037 A 
ATOM     51  C   UNL A   1      39.683  31.241  34.338  1.00  0.00     0.037 A 
ATOM     52  C   UNL A   1      42.677  27.199  30.159  1.00  0.00     0.049 A 
ATOM     53  C   UNL A   1      40.929  30.398  34.424  1.00  0.00     0.074 A 
ATOM     54  C   UNL A   1      43.870  26.522  30.340  1.00  0.00     0.029 A 
ATOM     55  N   UNL A   1      42.435  27.906  31.328  1.00  0.00    -0.354 N 
ATOM     56  N   UNL A   1      41.467  29.621  33.515  1.00  0.00    -0.248 NA
ATOM     57  C   UNL A   1      41.666  30.428  35.696  1.00  0.00     0.031 C 
ATOM     58  C   UNL A   1      44.324  26.780  31.636  1.00  0.00     0.029 A 
ATOM     59  C   UNL A   1      43.449  27.671  32.240  1.00  0.00     0.049 A 
ATOM     60  H   UNL A   1      41.657  28.488  31.485  1.00  0.00     0.167 HD
ATOM     61  C   UNL A   1      42.625  29.108  34.087  1.00  0.00     0.074 A 
ATOM     62  C   UNL A   1      42.711  29.660  35.421  1.00  0.00     0.031 C 
ATOM     63  C   UNL A   1      43.537  28.260  33.550  1.00  0.00     0.037 A 
BRANCH  50  64
ATOM     64  C   UNL A   1      42.183  26.341  27.834  1.00  0.00     0.064 A 
ATOM     65  C   UNL A   1      41.588  25.086  27.632  1.00  0.00     0.173 A 
ATOM     66  C   UNL A   1      43.119  26.780  26.885  1.00  0.00     0.173 A 
ATOM     67  F   UNL A   1      40.695  24.612  28.515  1.00  0.00    -0.203 F 
ATOM     68  C   UNL A   1      41.944  24.289  26.548  1.00  0.00     0.198 A 
ATOM     69  C   UNL A   1      43.444  25.997  25.780  1.00  0.00     0.198 A 
ATOM     70  F   UNL A   1      43.715  27.974  27.022  1.00  0.00    -0.203 F 
ATOM     71  F   UNL A   1      41.408  23.068  26.413  1.00  0.00    -0.200 F 
ATOM     72  C   UNL A   1      42.865  24.747  25.619  1.00  0.00     0.200 A 
ATOM     73  F   UNL A   1      44.321  26.450  24.874  1.00  0.00    -0.200 F 
ATOM     74  F   UNL A   1      43.199  23.982  24.572  1.00  0.00    -0.200 F 
ENDBRANCH  50  64
BRANCH  51  75
ATOM     75  C   UNL A   1      39.233  32.054  35.500  1.00  0.00     0.064 A 
ATOM     76  C   UNL A   1      39.608  33.400  35.621  1.00  0.00     0.173 A 
ATOM     77  C   UNL A   1      38.430  31.509  36.513  1.00  0.00     0.173 A 
ATOM     78  F   UNL A   1      40.392  33.962  34.689  1.00  0.00    -0.203 F 
ATOM     79  C   UNL A   1      39.220  34.161  36.720  1.00  0.00     0.198 A 
ATOM     80  C   UNL A   1      38.014  32.283  37.596  1.00  0.00     0.198 A 
ATOM     81  F   UNL A   1      38.036  30.230  36.444  1.00  0.00    -0.203 F 
ATOM     82  F   UNL A   1      39.636  35.431  36.834  1.00  0.00    -0.200 F 
ATOM     83  C   UNL A   1      38.417  33.605  37.704  1.00  0.00     0.200 A 
ATOM     84  F   UNL A   1      37.225  31.745  38.536  1.00  0.00    -0.200 F 
ATOM     85  F   UNL A   1      38.040  34.339  38.759  1.00  0.00    -0.200 F 
ENDBRANCH  51  75
BRANCH  63  86
ATOM     86  C   UNL A   1      44.752  27.933  34.366  1.00  0.00     0.064 A 
ATOM     87  C   UNL A   1      44.807  26.806  35.198  1.00  0.00     0.173 A 
ATOM     88  C   UNL A   1      45.910  28.718  34.242  1.00  0.00     0.173 A 
ATOM     89  F   UNL A   1      43.725  26.032  35.360  1.00  0.00    -0.203 F 
ATOM     90  C   UNL A   1      45.976  26.484  35.886  1.00  0.00     0.198 A 
ATOM     91  C   UNL A   1      47.084  28.374  34.905  1.00  0.00     0.198 A 
ATOM     92  F   UNL A   1      45.909  29.802  33.451  1.00  0.00    -0.203 F 
ATOM     93  F   UNL A   1      45.997  25.421  36.702  1.00  0.00    -0.200 F 
ATOM     94  C   UNL A   1      47.115  27.261  35.730  1.00  0.00     0.200 A 
ATOM     95  F   UNL A   1      48.187  29.116  34.736  1.00  0.00    -0.200 F 
ATOM     96  F   UNL A   1      48.243  26.935  36.374  1.00  0.00    -0.200 F 
ENDBRANCH  63  86
ENDBRANCH  37  38
ENDBRANCH  29  32
ENDBRANCH  27  28
ENDBRANCH  26  27
ENDBRANCH   1  26
TORSDOF 13
ENDMDL
