MODEL 1
REMARK VINA RESULT:     -12.1      0.000      0.000
REMARK SMILES CC(=O)N1CCC[C@@H](Cc2nccnc2C(=O)NCCCNC(=O)c2ccc(-c3c4nc(c(-c5c(F)c(F)c(F)c(F)c5F)c5ccc([nH]5)c(-c5c(F)c(F)c(F)c(F)c5F)c5nc(c(-c6c(F)c(F)c(F)c(F)c6F)c6ccc3[nH]6)C=C5)C=C4)cc2)C1
REMARK SMILES IDX 19 1 18 2 16 3 17 4 15 6 10 7 11 8 12 9 14 10 13 11 9 12
REMARK SMILES IDX 8 13 4 14 5 15 88 16 6 17 7 18 2 19 1 20 3 21 20 22 21 23
REMARK SMILES IDX 22 24 23 25 24 27 25 28 26 29 87 30 27 31 86 32 28 33 29 34
REMARK SMILES IDX 30 35 80 36 31 37 85 38 79 39 81 40 32 41 84 42 78 43 77 44
REMARK SMILES IDX 33 46 65 47 45 48 64 49 46 50 49 51 63 52 82 53 47 54 48 55
REMARK SMILES IDX 62 57 83 58 50 59 34 60 35 61 43 62 36 63 37 64 41 65 44 66
REMARK SMILES IDX 38 67 39 68 42 69 40 70 66 71 67 72 75 73 68 74 69 75 73 76
REMARK SMILES IDX 76 77 70 78 71 79 74 80 72 81 51 82 52 83 60 84 53 85 54 86
REMARK SMILES IDX 58 87 61 88 55 89 56 90 59 91 57 92
REMARK H PARENT 18 5 22 26 81 45 49 56
REMARK Flexibility Score: inf
ROOT
ATOM      1  C   UNL A   1      31.839  28.330  27.438  1.00  0.00     0.118 C 
ENDROOT
BRANCH   1   2
ATOM      2  N   UNL A   1      31.027  27.177  27.082  1.00  0.00    -0.351 N 
ATOM      3  C   UNL A   1      30.769  26.432  25.954  1.00  0.00     0.271 C 
ATOM      4  O   UNL A   1      29.904  25.564  26.133  1.00  0.00    -0.267 OA
ATOM      5  H   UNL A   1      30.525  26.838  27.859  1.00  0.00     0.163 HD
BRANCH   3   6
ATOM      6  C   UNL A   1      31.419  26.490  24.587  1.00  0.00     0.149 A 
ATOM      7  C   UNL A   1      31.476  27.543  23.660  1.00  0.00     0.072 A 
ATOM      8  N   UNL A   1      31.941  27.355  22.384  1.00  0.00    -0.257 NA
ATOM      9  C   UNL A   1      32.316  26.106  22.044  1.00  0.00     0.131 A 
ATOM     10  N   UNL A   1      31.843  25.239  24.211  1.00  0.00    -0.248 NA
ATOM     11  C   UNL A   1      32.273  25.068  22.944  1.00  0.00     0.132 A 
BRANCH   7  12
ATOM     12  C   UNL A   1      31.121  28.963  23.926  1.00  0.00     0.064 C 
BRANCH  12  13
ATOM     13  C   UNL A   1      29.817  29.544  23.379  1.00  0.00     0.015 C 
ATOM     14  N   UNL A   1      28.709  31.089  21.875  1.00  0.00    -0.343 N 
ATOM     15  C   UNL A   1      27.598  30.176  21.607  1.00  0.00     0.119 C 
ATOM     16  C   UNL A   1      29.993  30.434  22.146  1.00  0.00     0.123 C 
ATOM     17  C   UNL A   1      27.410  29.185  22.758  1.00  0.00     0.022 C 
ATOM     18  C   UNL A   1      28.727  28.492  23.123  1.00  0.00     0.007 C 
BRANCH  14  19
ATOM     19  C   UNL A   1      28.461  32.448  21.999  1.00  0.00     0.219 C 
ATOM     20  C   UNL A   1      29.152  33.176  23.126  1.00  0.00     0.114 C 
ATOM     21  O   UNL A   1      27.714  33.064  21.239  1.00  0.00    -0.275 OA
ENDBRANCH  14  19
ENDBRANCH  12  13
ENDBRANCH   7  12
ENDBRANCH   3   6
ENDBRANCH   1   2
BRANCH   1  22
ATOM     22  C   UNL A   1      33.305  28.081  27.038  1.00  0.00     0.042 C 
BRANCH  22  23
ATOM     23  C   UNL A   1      33.900  29.125  26.101  1.00  0.00     0.118 C 
BRANCH  23  24
ATOM     24  N   UNL A   1      33.862  30.453  26.688  1.00  0.00    -0.352 N 
ATOM     25  C   UNL A   1      34.621  31.013  27.683  1.00  0.00     0.251 C 
ATOM     26  H   UNL A   1      33.177  31.049  26.309  1.00  0.00     0.163 HD
ATOM     27  O   UNL A   1      34.222  32.062  28.202  1.00  0.00    -0.269 OA
BRANCH  25  28
ATOM     28  C   UNL A   1      35.894  30.414  28.163  1.00  0.00     0.039 A 
ATOM     29  C   UNL A   1      35.879  29.692  29.365  1.00  0.00     0.014 A 
ATOM     30  C   UNL A   1      37.117  30.635  27.524  1.00  0.00     0.014 A 
ATOM     31  C   UNL A   1      37.065  29.181  29.903  1.00  0.00     0.010 A 
ATOM     32  C   UNL A   1      38.291  30.059  28.020  1.00  0.00     0.010 A 
ATOM     33  C   UNL A   1      38.284  29.347  29.228  1.00  0.00    -0.014 A 
BRANCH  33  34
ATOM     34  C   UNL A   1      39.560  28.832  29.799  1.00  0.00     0.031 A 
ATOM     35  C   UNL A   1      40.199  29.525  30.975  1.00  0.00     0.074 A 
ATOM     36  C   UNL A   1      40.171  27.770  29.240  1.00  0.00     0.049 A 
ATOM     37  N   UNL A   1      41.343  29.276  31.567  1.00  0.00    -0.248 NA
ATOM     38  C   UNL A   1      39.470  30.667  31.546  1.00  0.00     0.031 C 
ATOM     39  C   UNL A   1      39.683  27.029  28.077  1.00  0.00     0.029 A 
ATOM     40  N   UNL A   1      41.344  27.135  29.571  1.00  0.00    -0.354 N 
ATOM     41  C   UNL A   1      41.478  30.243  32.555  1.00  0.00     0.074 A 
ATOM     42  C   UNL A   1      40.323  31.108  32.458  1.00  0.00     0.031 C 
ATOM     43  C   UNL A   1      40.538  26.029  27.803  1.00  0.00     0.029 A 
ATOM     44  C   UNL A   1      41.649  26.078  28.749  1.00  0.00     0.049 A 
ATOM     45  H   UNL A   1      41.912  27.413  30.326  1.00  0.00     0.167 HD
ATOM     46  C   UNL A   1      42.464  30.387  33.472  1.00  0.00     0.037 A 
ATOM     47  C   UNL A   1      42.707  25.245  28.754  1.00  0.00     0.037 A 
ATOM     48  C   UNL A   1      43.592  29.501  33.602  1.00  0.00     0.049 A 
ATOM     49  C   UNL A   1      43.777  25.409  29.799  1.00  0.00     0.074 A 
ATOM     50  C   UNL A   1      44.608  29.527  34.543  1.00  0.00     0.029 A 
ATOM     51  N   UNL A   1      43.849  28.424  32.766  1.00  0.00    -0.354 N 
ATOM     52  N   UNL A   1      43.867  26.297  30.759  1.00  0.00    -0.248 NA
ATOM     53  C   UNL A   1      44.892  24.451  29.763  1.00  0.00     0.031 C 
ATOM     54  C   UNL A   1      45.497  28.485  34.258  1.00  0.00     0.029 A 
ATOM     55  C   UNL A   1      45.014  27.787  33.162  1.00  0.00     0.049 A 
ATOM     56  H   UNL A   1      43.287  28.152  32.006  1.00  0.00     0.167 HD
ATOM     57  C   UNL A   1      45.031  25.994  31.451  1.00  0.00     0.074 A 
ATOM     58  C   UNL A   1      45.607  24.830  30.812  1.00  0.00     0.031 C 
ATOM     59  C   UNL A   1      45.574  26.626  32.521  1.00  0.00     0.037 A 
BRANCH  46  60
ATOM     60  C   UNL A   1      42.368  31.547  34.419  1.00  0.00     0.064 A 
ATOM     61  C   UNL A   1      42.946  32.790  34.119  1.00  0.00     0.173 A 
ATOM     62  C   UNL A   1      41.658  31.429  35.623  1.00  0.00     0.173 A 
ATOM     63  F   UNL A   1      43.645  32.954  32.985  1.00  0.00    -0.203 F 
ATOM     64  C   UNL A   1      42.842  33.861  35.002  1.00  0.00     0.198 A 
ATOM     65  C   UNL A   1      41.532  32.510  36.492  1.00  0.00     0.198 A 
ATOM     66  F   UNL A   1      41.079  30.264  35.955  1.00  0.00    -0.203 F 
ATOM     67  F   UNL A   1      43.443  35.024  34.717  1.00  0.00    -0.200 F 
ATOM     68  C   UNL A   1      42.131  33.721  36.185  1.00  0.00     0.200 A 
ATOM     69  F   UNL A   1      40.834  32.376  37.628  1.00  0.00    -0.200 F 
ATOM     70  F   UNL A   1      42.027  34.755  37.032  1.00  0.00    -0.200 F 
ENDBRANCH  46  60
BRANCH  47  71
ATOM     71  C   UNL A   1      42.793  24.155  27.748  1.00  0.00     0.064 A 
ATOM     72  C   UNL A   1      42.370  22.856  28.061  1.00  0.00     0.173 A 
ATOM     73  C   UNL A   1      43.295  24.388  26.461  1.00  0.00     0.173 A 
ATOM     74  F   UNL A   1      41.907  22.580  29.290  1.00  0.00    -0.203 F 
ATOM     75  C   UNL A   1      42.461  21.826  27.127  1.00  0.00     0.198 A 
ATOM     76  C   UNL A   1      43.365  23.363  25.520  1.00  0.00     0.198 A 
ATOM     77  F   UNL A   1      43.714  25.614  26.116  1.00  0.00    -0.203 F 
ATOM     78  F   UNL A   1      42.091  20.584  27.466  1.00  0.00    -0.200 F 
ATOM     79  C   UNL A   1      42.953  22.081  25.855  1.00  0.00     0.200 A 
ATOM     80  F   UNL A   1      43.838  23.613  24.292  1.00  0.00    -0.200 F 
ATOM     81  F   UNL A   1      43.042  21.090  24.960  1.00  0.00    -0.200 F 
ENDBRANCH  47  71
BRANCH  59  82
ATOM     82  C   UNL A   1      46.842  26.057  33.084  1.00  0.00     0.064 A 
ATOM     83  C   UNL A   1      46.824  25.010  34.017  1.00  0.00     0.173 A 
ATOM     84  C   UNL A   1      48.088  26.536  32.654  1.00  0.00     0.173 A 
ATOM     85  F   UNL A   1      45.656  24.529  34.468  1.00  0.00    -0.203 F 
ATOM     86  C   UNL A   1      48.010  24.478  34.517  1.00  0.00     0.198 A 
ATOM     87  C   UNL A   1      49.272  25.986  33.138  1.00  0.00     0.198 A 
ATOM     88  F   UNL A   1      48.158  27.532  31.758  1.00  0.00    -0.203 F 
ATOM     89  F   UNL A   1      47.970  23.506  35.438  1.00  0.00    -0.200 F 
ATOM     90  C   UNL A   1      49.231  24.962  34.072  1.00  0.00     0.200 A 
ATOM     91  F   UNL A   1      50.451  26.447  32.700  1.00  0.00    -0.200 F 
ATOM     92  F   UNL A   1      50.372  24.445  34.550  1.00  0.00    -0.200 F 
ENDBRANCH  59  82
ENDBRANCH  33  34
ENDBRANCH  25  28
ENDBRANCH  23  24
ENDBRANCH  22  23
ENDBRANCH   1  22
TORSDOF 13
ENDMDL
MODEL 2
REMARK VINA RESULT:     -12.0      2.195      4.404
REMARK SMILES CC(=O)N1CCC[C@@H](Cc2nccnc2C(=O)NCCCNC(=O)c2ccc(-c3c4nc(c(-c5c(F)c(F)c(F)c(F)c5F)c5ccc([nH]5)c(-c5c(F)c(F)c(F)c(F)c5F)c5nc(c(-c6c(F)c(F)c(F)c(F)c6F)c6ccc3[nH]6)C=C5)C=C4)cc2)C1
REMARK SMILES IDX 19 1 18 2 16 3 17 4 15 6 10 7 11 8 12 9 14 10 13 11 9 12
REMARK SMILES IDX 8 13 4 14 5 15 88 16 6 17 7 18 2 19 1 20 3 21 20 22 21 23
REMARK SMILES IDX 22 24 23 25 24 27 25 28 26 29 87 30 27 31 86 32 28 33 29 34
REMARK SMILES IDX 30 35 80 36 31 37 85 38 79 39 81 40 32 41 84 42 78 43 77 44
REMARK SMILES IDX 33 46 65 47 45 48 64 49 46 50 49 51 63 52 82 53 47 54 48 55
REMARK SMILES IDX 62 57 83 58 50 59 34 60 35 61 43 62 36 63 37 64 41 65 44 66
REMARK SMILES IDX 38 67 39 68 42 69 40 70 66 71 67 72 75 73 68 74 69 75 73 76
REMARK SMILES IDX 76 77 70 78 71 79 74 80 72 81 51 82 52 83 60 84 53 85 54 86
REMARK SMILES IDX 58 87 61 88 55 89 56 90 59 91 57 92
REMARK H PARENT 18 5 22 26 81 45 49 56
REMARK Flexibility Score: inf
ROOT
ATOM      1  C   UNL A   1      33.073  28.741  23.334  1.00  0.00     0.118 C 
ENDROOT
BRANCH   1   2
ATOM      2  N   UNL A   1      33.258  27.704  22.331  1.00  0.00    -0.351 N 
ATOM      3  C   UNL A   1      33.062  26.346  22.233  1.00  0.00     0.271 C 
ATOM      4  O   UNL A   1      33.467  25.873  21.162  1.00  0.00    -0.267 OA
ATOM      5  H   UNL A   1      33.623  28.075  21.494  1.00  0.00     0.163 HD
BRANCH   3   6
ATOM      6  C   UNL A   1      32.391  25.393  23.200  1.00  0.00     0.149 A 
ATOM      7  C   UNL A   1      32.911  24.738  24.328  1.00  0.00     0.072 A 
ATOM      8  N   UNL A   1      32.210  23.754  24.977  1.00  0.00    -0.257 NA
ATOM      9  C   UNL A   1      31.008  23.420  24.471  1.00  0.00     0.131 A 
ATOM     10  N   UNL A   1      31.146  25.046  22.737  1.00  0.00    -0.248 NA
ATOM     11  C   UNL A   1      30.483  24.059  23.373  1.00  0.00     0.132 A 
BRANCH   7  12
ATOM     12  C   UNL A   1      34.207  25.039  24.994  1.00  0.00     0.064 C 
BRANCH  12  13
ATOM     13  C   UNL A   1      35.437  24.178  24.706  1.00  0.00     0.015 C 
ATOM     14  N   UNL A   1      37.130  22.648  25.524  1.00  0.00    -0.343 N 
ATOM     15  C   UNL A   1      37.166  21.877  24.280  1.00  0.00     0.119 C 
ATOM     16  C   UNL A   1      35.825  23.234  25.848  1.00  0.00     0.123 C 
ATOM     17  C   UNL A   1      36.701  22.726  23.095  1.00  0.00     0.022 C 
ATOM     18  C   UNL A   1      35.358  23.405  23.382  1.00  0.00     0.007 C 
BRANCH  14  19
ATOM     19  C   UNL A   1      38.311  22.891  26.211  1.00  0.00     0.219 C 
ATOM     20  C   UNL A   1      39.357  21.804  26.193  1.00  0.00     0.114 C 
ATOM     21  O   UNL A   1      38.527  23.939  26.820  1.00  0.00    -0.275 OA
ENDBRANCH  14  19
ENDBRANCH  12  13
ENDBRANCH   7  12
ENDBRANCH   3   6
ENDBRANCH   1   2
BRANCH   1  22
ATOM     22  C   UNL A   1      34.197  28.660  24.384  1.00  0.00     0.042 C 
BRANCH  22  23
ATOM     23  C   UNL A   1      33.724  28.685  25.833  1.00  0.00     0.118 C 
BRANCH  23  24
ATOM     24  N   UNL A   1      33.603  30.044  26.330  1.00  0.00    -0.352 N 
ATOM     25  C   UNL A   1      34.296  30.702  27.314  1.00  0.00     0.251 C 
ATOM     26  H   UNL A   1      32.908  30.583  25.887  1.00  0.00     0.163 HD
ATOM     27  O   UNL A   1      33.830  31.763  27.747  1.00  0.00    -0.269 OA
BRANCH  25  28
ATOM     28  C   UNL A   1      35.574  30.195  27.879  1.00  0.00     0.039 A 
ATOM     29  C   UNL A   1      35.559  29.637  29.165  1.00  0.00     0.014 A 
ATOM     30  C   UNL A   1      36.800  30.352  27.226  1.00  0.00     0.014 A 
ATOM     31  C   UNL A   1      36.748  29.224  29.776  1.00  0.00     0.010 A 
ATOM     32  C   UNL A   1      37.978  29.868  27.804  1.00  0.00     0.010 A 
ATOM     33  C   UNL A   1      37.971  29.322  29.095  1.00  0.00    -0.014 A 
BRANCH  33  34
ATOM     34  C   UNL A   1      39.250  28.910  29.739  1.00  0.00     0.031 A 
ATOM     35  C   UNL A   1      39.750  29.633  30.963  1.00  0.00     0.074 A 
ATOM     36  C   UNL A   1      39.987  27.917  29.206  1.00  0.00     0.049 A 
ATOM     37  N   UNL A   1      40.871  29.474  31.624  1.00  0.00    -0.248 NA
ATOM     38  C   UNL A   1      38.886  30.695  31.502  1.00  0.00     0.031 C 
ATOM     39  C   UNL A   1      39.641  27.159  28.004  1.00  0.00     0.029 A 
ATOM     40  N   UNL A   1      41.189  27.381  29.602  1.00  0.00    -0.354 N 
ATOM     41  C   UNL A   1      40.858  30.429  32.632  1.00  0.00     0.074 A 
ATOM     42  C   UNL A   1      39.638  31.192  32.474  1.00  0.00     0.031 C 
ATOM     43  C   UNL A   1      40.596  26.243  27.771  1.00  0.00     0.029 A 
ATOM     44  C   UNL A   1      41.637  26.372  28.787  1.00  0.00     0.049 A 
ATOM     45  H   UNL A   1      41.681  27.693  30.396  1.00  0.00     0.167 HD
ATOM     46  C   UNL A   1      41.768  30.642  33.613  1.00  0.00     0.037 A 
ATOM     47  C   UNL A   1      42.763  25.635  28.848  1.00  0.00     0.037 A 
ATOM     48  C   UNL A   1      42.960  29.857  33.802  1.00  0.00     0.049 A 
ATOM     49  C   UNL A   1      43.747  25.872  29.962  1.00  0.00     0.074 A 
ATOM     50  C   UNL A   1      43.908  29.953  34.807  1.00  0.00     0.029 A 
ATOM     51  N   UNL A   1      43.363  28.823  32.970  1.00  0.00    -0.354 N 
ATOM     52  N   UNL A   1      43.696  26.746  30.938  1.00  0.00    -0.248 NA
ATOM     53  C   UNL A   1      44.942  25.017  29.983  1.00  0.00     0.031 C 
ATOM     54  C   UNL A   1      44.902  29.000  34.564  1.00  0.00     0.029 A 
ATOM     55  C   UNL A   1      44.553  28.283  33.430  1.00  0.00     0.049 A 
ATOM     56  H   UNL A   1      42.876  28.518  32.171  1.00  0.00     0.167 HD
ATOM     57  C   UNL A   1      44.837  26.533  31.699  1.00  0.00     0.074 A 
ATOM     58  C   UNL A   1      45.554  25.437  31.082  1.00  0.00     0.031 C 
ATOM     59  C   UNL A   1      45.253  27.189  32.810  1.00  0.00     0.037 A 
BRANCH  46  60
ATOM     60  C   UNL A   1      41.509  31.771  34.568  1.00  0.00     0.064 A 
ATOM     61  C   UNL A   1      42.067  33.043  34.369  1.00  0.00     0.173 A 
ATOM     62  C   UNL A   1      40.664  31.590  35.673  1.00  0.00     0.173 A 
ATOM     63  F   UNL A   1      42.891  33.265  33.334  1.00  0.00    -0.203 F 
ATOM     64  C   UNL A   1      41.813  34.083  35.258  1.00  0.00     0.198 A 
ATOM     65  C   UNL A   1      40.389  32.641  36.545  1.00  0.00     0.198 A 
ATOM     66  F   UNL A   1      40.099  30.395  35.904  1.00  0.00    -0.203 F 
ATOM     67  F   UNL A   1      42.394  35.277  35.075  1.00  0.00    -0.200 F 
ATOM     68  C   UNL A   1      40.969  33.883  36.341  1.00  0.00     0.200 A 
ATOM     69  F   UNL A   1      39.565  32.449  37.583  1.00  0.00    -0.200 F 
ATOM     70  F   UNL A   1      40.721  34.888  37.193  1.00  0.00    -0.200 F 
ENDBRANCH  46  60
BRANCH  47  71
ATOM     71  C   UNL A   1      43.008  24.577  27.835  1.00  0.00     0.064 A 
ATOM     72  C   UNL A   1      43.635  24.880  26.619  1.00  0.00     0.173 A 
ATOM     73  C   UNL A   1      42.623  23.248  28.059  1.00  0.00     0.173 A 
ATOM     74  F   UNL A   1      43.997  26.144  26.350  1.00  0.00    -0.203 F 
ATOM     75  C   UNL A   1      43.855  23.896  25.658  1.00  0.00     0.198 A 
ATOM     76  C   UNL A   1      42.864  22.259  27.107  1.00  0.00     0.198 A 
ATOM     77  F   UNL A   1      42.016  22.909  29.206  1.00  0.00    -0.203 F 
ATOM     78  F   UNL A   1      44.418  24.221  24.487  1.00  0.00    -0.200 F 
ATOM     79  C   UNL A   1      43.474  22.585  25.904  1.00  0.00     0.200 A 
ATOM     80  F   UNL A   1      42.496  20.994  27.349  1.00  0.00    -0.200 F 
ATOM     81  F   UNL A   1      43.684  21.640  24.979  1.00  0.00    -0.200 F 
ENDBRANCH  47  71
BRANCH  59  82
ATOM     82  C   UNL A   1      46.529  26.723  33.445  1.00  0.00     0.064 A 
ATOM     83  C   UNL A   1      46.535  25.727  34.434  1.00  0.00     0.173 A 
ATOM     84  C   UNL A   1      47.763  27.248  33.031  1.00  0.00     0.173 A 
ATOM     85  F   UNL A   1      45.379  25.206  34.871  1.00  0.00    -0.203 F 
ATOM     86  C   UNL A   1      47.729  25.291  35.001  1.00  0.00     0.198 A 
ATOM     87  C   UNL A   1      48.956  26.791  33.584  1.00  0.00     0.198 A 
ATOM     88  F   UNL A   1      47.810  28.197  32.085  1.00  0.00    -0.203 F 
ATOM     89  F   UNL A   1      47.709  24.368  35.972  1.00  0.00    -0.200 F 
ATOM     90  C   UNL A   1      48.938  25.818  34.571  1.00  0.00     0.200 A 
ATOM     91  F   UNL A   1      50.124  27.294  33.160  1.00  0.00    -0.200 F 
ATOM     92  F   UNL A   1      50.087  25.392  35.114  1.00  0.00    -0.200 F 
ENDBRANCH  59  82
ENDBRANCH  33  34
ENDBRANCH  25  28
ENDBRANCH  23  24
ENDBRANCH  22  23
ENDBRANCH   1  22
TORSDOF 13
ENDMDL
MODEL 3
REMARK VINA RESULT:     -11.9      2.638      4.900
REMARK SMILES CC(=O)N1CCC[C@@H](Cc2nccnc2C(=O)NCCCNC(=O)c2ccc(-c3c4nc(c(-c5c(F)c(F)c(F)c(F)c5F)c5ccc([nH]5)c(-c5c(F)c(F)c(F)c(F)c5F)c5nc(c(-c6c(F)c(F)c(F)c(F)c6F)c6ccc3[nH]6)C=C5)C=C4)cc2)C1
REMARK SMILES IDX 19 1 18 2 16 3 17 4 15 6 10 7 11 8 12 9 14 10 13 11 9 12
REMARK SMILES IDX 8 13 4 14 5 15 88 16 6 17 7 18 2 19 1 20 3 21 20 22 21 23
REMARK SMILES IDX 22 24 23 25 24 27 25 28 26 29 87 30 27 31 86 32 28 33 29 34
REMARK SMILES IDX 30 35 80 36 31 37 85 38 79 39 81 40 32 41 84 42 78 43 77 44
REMARK SMILES IDX 33 46 65 47 45 48 64 49 46 50 49 51 63 52 82 53 47 54 48 55
REMARK SMILES IDX 62 57 83 58 50 59 34 60 35 61 43 62 36 63 37 64 41 65 44 66
REMARK SMILES IDX 38 67 39 68 42 69 40 70 66 71 67 72 75 73 68 74 69 75 73 76
REMARK SMILES IDX 76 77 70 78 71 79 74 80 72 81 51 82 52 83 60 84 53 85 54 86
REMARK SMILES IDX 58 87 61 88 55 89 56 90 59 91 57 92
REMARK H PARENT 18 5 22 26 81 45 49 56
REMARK Flexibility Score: inf
ROOT
ATOM      1  C   UNL A   1      32.954  28.814  23.029  1.00  0.00     0.118 C 
ENDROOT
BRANCH   1   2
ATOM      2  N   UNL A   1      33.244  27.691  22.151  1.00  0.00    -0.351 N 
ATOM      3  C   UNL A   1      33.125  26.322  22.190  1.00  0.00     0.271 C 
ATOM      4  O   UNL A   1      33.607  25.764  21.195  1.00  0.00    -0.267 OA
ATOM      5  H   UNL A   1      33.630  27.994  21.297  1.00  0.00     0.163 HD
BRANCH   3   6
ATOM      6  C   UNL A   1      32.457  25.437  23.222  1.00  0.00     0.149 A 
ATOM      7  C   UNL A   1      32.994  24.820  24.364  1.00  0.00     0.072 A 
ATOM      8  N   UNL A   1      32.285  23.891  25.081  1.00  0.00    -0.257 NA
ATOM      9  C   UNL A   1      31.058  23.571  24.629  1.00  0.00     0.131 A 
ATOM     10  N   UNL A   1      31.188  25.107  22.815  1.00  0.00    -0.248 NA
ATOM     11  C   UNL A   1      30.517  24.173  23.518  1.00  0.00     0.132 A 
BRANCH   7  12
ATOM     12  C   UNL A   1      34.319  25.112  24.974  1.00  0.00     0.064 C 
BRANCH  12  13
ATOM     13  C   UNL A   1      35.511  24.195  24.698  1.00  0.00     0.015 C 
ATOM     14  N   UNL A   1      37.206  22.689  25.555  1.00  0.00    -0.343 N 
ATOM     15  C   UNL A   1      37.158  21.818  24.380  1.00  0.00     0.119 C 
ATOM     16  C   UNL A   1      35.935  23.337  25.894  1.00  0.00     0.123 C 
ATOM     17  C   UNL A   1      36.652  22.578  23.152  1.00  0.00     0.022 C 
ATOM     18  C   UNL A   1      35.343  23.318  23.449  1.00  0.00     0.007 C 
BRANCH  14  19
ATOM     19  C   UNL A   1      38.427  22.953  26.159  1.00  0.00     0.219 C 
ATOM     20  C   UNL A   1      39.435  21.831  26.199  1.00  0.00     0.114 C 
ATOM     21  O   UNL A   1      38.706  24.047  26.651  1.00  0.00    -0.275 OA
ENDBRANCH  14  19
ENDBRANCH  12  13
ENDBRANCH   7  12
ENDBRANCH   3   6
ENDBRANCH   1   2
BRANCH   1  22
ATOM     22  C   UNL A   1      33.984  28.865  24.172  1.00  0.00     0.042 C 
BRANCH  22  23
ATOM     23  C   UNL A   1      33.388  28.992  25.569  1.00  0.00     0.118 C 
BRANCH  23  24
ATOM     24  N   UNL A   1      33.101  30.376  25.901  1.00  0.00    -0.352 N 
ATOM     25  C   UNL A   1      33.550  31.160  26.933  1.00  0.00     0.251 C 
ATOM     26  H   UNL A   1      32.481  30.827  25.284  1.00  0.00     0.163 HD
ATOM     27  O   UNL A   1      32.954  32.218  27.165  1.00  0.00    -0.269 OA
BRANCH  25  28
ATOM     28  C   UNL A   1      34.715  30.791  27.780  1.00  0.00     0.039 A 
ATOM     29  C   UNL A   1      35.874  31.575  27.697  1.00  0.00     0.014 A 
ATOM     30  C   UNL A   1      34.736  29.637  28.568  1.00  0.00     0.014 A 
ATOM     31  C   UNL A   1      37.026  31.221  28.409  1.00  0.00     0.010 A 
ATOM     32  C   UNL A   1      35.860  29.325  29.340  1.00  0.00     0.010 A 
ATOM     33  C   UNL A   1      37.027  30.098  29.251  1.00  0.00    -0.014 A 
BRANCH  33  34
ATOM     34  C   UNL A   1      38.250  29.692  29.996  1.00  0.00     0.031 A 
ATOM     35  C   UNL A   1      38.500  30.217  31.387  1.00  0.00     0.074 A 
ATOM     36  C   UNL A   1      39.161  28.887  29.417  1.00  0.00     0.049 A 
ATOM     37  N   UNL A   1      39.538  30.042  32.169  1.00  0.00    -0.248 NA
ATOM     38  C   UNL A   1      37.457  31.077  31.966  1.00  0.00     0.031 C 
ATOM     39  C   UNL A   1      39.064  28.337  28.064  1.00  0.00     0.029 A 
ATOM     40  N   UNL A   1      40.356  28.400  29.888  1.00  0.00    -0.354 N 
ATOM     41  C   UNL A   1      39.283  30.788  33.313  1.00  0.00     0.074 A 
ATOM     42  C   UNL A   1      38.013  31.451  33.109  1.00  0.00     0.031 C 
ATOM     43  C   UNL A   1      40.142  27.573  27.822  1.00  0.00     0.029 A 
ATOM     44  C   UNL A   1      41.021  27.605  28.988  1.00  0.00     0.049 A 
ATOM     45  H   UNL A   1      40.702  28.602  30.788  1.00  0.00     0.167 HD
ATOM     46  C   UNL A   1      40.028  30.897  34.439  1.00  0.00     0.037 A 
ATOM     47  C   UNL A   1      42.207  26.976  29.088  1.00  0.00     0.037 A 
ATOM     48  C   UNL A   1      41.269  30.202  34.665  1.00  0.00     0.049 A 
ATOM     49  C   UNL A   1      43.005  27.091  30.359  1.00  0.00     0.074 A 
ATOM     50  C   UNL A   1      42.062  30.197  35.801  1.00  0.00     0.029 A 
ATOM     51  N   UNL A   1      41.894  29.383  33.737  1.00  0.00    -0.354 N 
ATOM     52  N   UNL A   1      42.727  27.760  31.452  1.00  0.00    -0.248 NA
ATOM     53  C   UNL A   1      44.279  26.360  30.410  1.00  0.00     0.031 C 
ATOM     54  C   UNL A   1      43.184  29.400  35.549  1.00  0.00     0.029 A 
ATOM     55  C   UNL A   1      43.070  28.878  34.270  1.00  0.00     0.049 A 
ATOM     56  H   UNL A   1      41.554  29.188  32.835  1.00  0.00     0.167 HD
ATOM     57  C   UNL A   1      43.777  27.514  32.326  1.00  0.00     0.074 A 
ATOM     58  C   UNL A   1      44.691  26.622  31.643  1.00  0.00     0.031 C 
ATOM     59  C   UNL A   1      43.967  27.988  33.582  1.00  0.00     0.037 A 
BRANCH  46  60
ATOM     60  C   UNL A   1      39.518  31.800  35.525  1.00  0.00     0.064 A 
ATOM     61  C   UNL A   1      38.568  31.361  36.459  1.00  0.00     0.173 A 
ATOM     62  C   UNL A   1      40.013  33.106  35.656  1.00  0.00     0.173 A 
ATOM     63  F   UNL A   1      38.055  30.124  36.371  1.00  0.00    -0.203 F 
ATOM     64  C   UNL A   1      38.110  32.206  37.466  1.00  0.00     0.198 A 
ATOM     65  C   UNL A   1      39.573  33.940  36.681  1.00  0.00     0.198 A 
ATOM     66  F   UNL A   1      40.929  33.572  34.793  1.00  0.00    -0.203 F 
ATOM     67  F   UNL A   1      37.167  31.782  38.318  1.00  0.00    -0.200 F 
ATOM     68  C   UNL A   1      38.617  33.492  37.579  1.00  0.00     0.200 A 
ATOM     69  F   UNL A   1      40.073  35.177  36.796  1.00  0.00    -0.200 F 
ATOM     70  F   UNL A   1      38.179  34.303  38.553  1.00  0.00    -0.200 F 
ENDBRANCH  46  60
BRANCH  47  71
ATOM     71  C   UNL A   1      42.703  26.151  27.956  1.00  0.00     0.064 A 
ATOM     72  C   UNL A   1      42.327  24.808  27.828  1.00  0.00     0.173 A 
ATOM     73  C   UNL A   1      43.559  26.687  26.983  1.00  0.00     0.173 A 
ATOM     74  F   UNL A   1      41.531  24.245  28.751  1.00  0.00    -0.203 F 
ATOM     75  C   UNL A   1      42.800  24.025  26.777  1.00  0.00     0.198 A 
ATOM     76  C   UNL A   1      44.013  25.910  25.919  1.00  0.00     0.198 A 
ATOM     77  F   UNL A   1      43.949  27.967  27.064  1.00  0.00    -0.203 F 
ATOM     78  F   UNL A   1      42.459  22.732  26.703  1.00  0.00    -0.200 F 
ATOM     79  C   UNL A   1      43.638  24.578  25.820  1.00  0.00     0.200 A 
ATOM     80  F   UNL A   1      44.821  26.448  24.995  1.00  0.00    -0.200 F 
ATOM     81  F   UNL A   1      44.094  23.824  24.811  1.00  0.00    -0.200 F 
ENDBRANCH  47  71
BRANCH  59  82
ATOM     82  C   UNL A   1      45.196  27.530  34.309  1.00  0.00     0.064 A 
ATOM     83  C   UNL A   1      45.197  26.359  35.081  1.00  0.00     0.173 A 
ATOM     84  C   UNL A   1      46.396  28.249  34.199  1.00  0.00     0.173 A 
ATOM     85  F   UNL A   1      44.070  25.646  35.227  1.00  0.00    -0.203 F 
ATOM     86  C   UNL A   1      46.351  25.936  35.735  1.00  0.00     0.198 A 
ATOM     87  C   UNL A   1      47.553  27.810  34.836  1.00  0.00     0.198 A 
ATOM     88  F   UNL A   1      46.447  29.372  33.467  1.00  0.00    -0.203 F 
ATOM     89  F   UNL A   1      46.320  24.836  36.501  1.00  0.00    -0.200 F 
ATOM     90  C   UNL A   1      47.529  26.658  35.607  1.00  0.00     0.200 A 
ATOM     91  F   UNL A   1      48.693  28.502  34.702  1.00  0.00    -0.200 F 
ATOM     92  F   UNL A   1      48.640  26.246  36.233  1.00  0.00    -0.200 F 
ENDBRANCH  59  82
ENDBRANCH  33  34
ENDBRANCH  25  28
ENDBRANCH  23  24
ENDBRANCH  22  23
ENDBRANCH   1  22
TORSDOF 13
ENDMDL
