MODEL 1
REMARK VINA RESULT:     -12.3      0.000      0.000
REMARK SMILES Cc1cc(CNS(=O)(=O)c2ccc(C(=O)NCCCNC(=O)c3ccc(-c4c5nc(c(-c6c(F)c(F)c(F)c(F)c6F)c6ccc([nH]6)c(-c6c(F)c(F)c(F)c(F)c6F)c6nc(c(-c7c(F)c(F)c(F)c(F)c7F)c7ccc4[nH]7)C=C6)C=C5)cc3)cc2F)no1
REMARK SMILES IDX 17 1 16 2 14 3 15 4 13 6 10 7 11 8 87 9 12 10 86 11 88 12
REMARK SMILES IDX 7 13 8 14 9 15 6 16 5 18 4 19 1 20 2 21 3 22 90 23 89 24
REMARK SMILES IDX 18 25 19 26 20 27 21 28 22 30 23 31 24 32 85 33 25 34 84 35
REMARK SMILES IDX 26 36 27 37 28 38 78 39 29 40 83 41 77 42 79 43 30 44 82 45
REMARK SMILES IDX 76 46 75 47 31 49 63 50 43 51 62 52 44 53 47 54 61 55 80 56
REMARK SMILES IDX 45 57 46 58 60 60 81 61 48 62 32 63 33 64 41 65 34 66 35 67
REMARK SMILES IDX 39 68 42 69 36 70 37 71 40 72 38 73 64 74 65 75 73 76 66 77
REMARK SMILES IDX 67 78 71 79 74 80 68 81 69 82 72 83 70 84 49 85 50 86 58 87
REMARK SMILES IDX 51 88 52 89 56 90 59 91 53 92 54 93 57 94 55 95
REMARK H PARENT 16 5 6 17 20 29 79 48 47 59
REMARK Flexibility Score: inf
ROOT
ATOM      1  C   UNL A   1      31.764  30.740  26.855  1.00  0.00     0.118 C 
ENDROOT
BRANCH   1   2
ATOM      2  N   UNL A   1      33.088  30.431  27.363  1.00  0.00    -0.352 N 
ATOM      3  C   UNL A   1      34.027  29.495  27.022  1.00  0.00     0.251 C 
ATOM      4  O   UNL A   1      35.097  29.524  27.631  1.00  0.00    -0.269 OA
ATOM      5  H   UNL A   1      33.369  31.015  28.105  1.00  0.00     0.163 HD
BRANCH   3   6
ATOM      6  C   UNL A   1      33.842  28.471  25.956  1.00  0.00     0.042 A 
ATOM      7  C   UNL A   1      33.384  26.414  24.098  1.00  0.00     0.118 A 
ATOM      8  C   UNL A   1      33.362  26.124  25.461  1.00  0.00     0.026 A 
ATOM      9  C   UNL A   1      33.632  27.709  23.668  1.00  0.00     0.144 A 
ATOM     10  C   UNL A   1      33.600  27.149  26.382  1.00  0.00     0.015 A 
ATOM     11  C   UNL A   1      33.827  28.739  24.587  1.00  0.00     0.054 A 
ATOM     12  F   UNL A   1      33.649  28.013  22.363  1.00  0.00    -0.205 F 
BRANCH   7  13
ATOM     13  S   UNL A   1      33.030  25.155  22.917  1.00  0.00     0.243 S 
ATOM     14  O   UNL A   1      32.939  23.905  23.644  1.00  0.00    -0.207 OA
ATOM     15  O   UNL A   1      33.949  25.334  21.821  1.00  0.00    -0.207 OA
BRANCH  13  16
ATOM     16  N   UNL A   1      31.492  25.499  22.358  1.00  0.00    -0.205 NA
ATOM     17  H   UNL A   1      31.570  26.296  21.727  1.00  0.00     0.141 HD
BRANCH  16  18
ATOM     18  C   UNL A   1      30.457  25.822  23.344  1.00  0.00     0.158 C 
BRANCH  18  19
ATOM     19  C   UNL A   1      29.842  27.132  22.979  1.00  0.00     0.099 A 
ATOM     20  C   UNL A   1      27.620  30.045  22.875  1.00  0.00     0.091 C 
ATOM     21  C   UNL A   1      28.572  28.923  22.835  1.00  0.00     0.133 A 
ATOM     22  C   UNL A   1      28.678  27.731  23.508  1.00  0.00     0.073 A 
ATOM     23  O   UNL A   1      29.602  29.032  21.953  1.00  0.00    -0.361 OA
ATOM     24  N   UNL A   1      30.408  27.910  22.043  1.00  0.00    -0.083 NA
ENDBRANCH  18  19
ENDBRANCH  16  18
ENDBRANCH  13  16
ENDBRANCH   7  13
ENDBRANCH   3   6
ENDBRANCH   1   2
BRANCH   1  25
ATOM     25  C   UNL A   1      31.475  32.240  26.935  1.00  0.00     0.042 C 
BRANCH  25  26
ATOM     26  C   UNL A   1      32.737  33.100  27.000  1.00  0.00     0.118 C 
BRANCH  26  27
ATOM     27  N   UNL A   1      32.492  34.375  27.656  1.00  0.00    -0.352 N 
ATOM     28  C   UNL A   1      33.044  34.900  28.797  1.00  0.00     0.251 C 
ATOM     29  H   UNL A   1      31.829  34.952  27.212  1.00  0.00     0.163 HD
ATOM     30  O   UNL A   1      32.549  35.903  29.303  1.00  0.00    -0.269 OA
BRANCH  28  31
ATOM     31  C   UNL A   1      34.223  34.269  29.432  1.00  0.00     0.039 A 
ATOM     32  C   UNL A   1      35.494  34.569  28.931  1.00  0.00     0.014 A 
ATOM     33  C   UNL A   1      34.082  33.342  30.468  1.00  0.00     0.014 A 
ATOM     34  C   UNL A   1      36.625  33.976  29.499  1.00  0.00     0.010 A 
ATOM     35  C   UNL A   1      35.213  32.791  31.069  1.00  0.00     0.010 A 
ATOM     36  C   UNL A   1      36.495  33.101  30.588  1.00  0.00    -0.014 A 
BRANCH  36  37
ATOM     37  C   UNL A   1      37.684  32.494  31.236  1.00  0.00     0.031 A 
ATOM     38  C   UNL A   1      38.436  31.389  30.552  1.00  0.00     0.074 A 
ATOM     39  C   UNL A   1      38.050  32.898  32.468  1.00  0.00     0.049 A 
ATOM     40  N   UNL A   1      39.426  30.660  31.002  1.00  0.00    -0.248 NA
ATOM     41  C   UNL A   1      38.005  31.041  29.189  1.00  0.00     0.031 C 
ATOM     42  C   UNL A   1      37.386  33.947  33.243  1.00  0.00     0.029 A 
ATOM     43  N   UNL A   1      39.060  32.465  33.289  1.00  0.00    -0.354 N 
ATOM     44  C   UNL A   1      39.722  29.758  29.989  1.00  0.00     0.074 A 
ATOM     45  C   UNL A   1      38.787  30.007  28.913  1.00  0.00     0.031 C 
ATOM     46  C   UNL A   1      38.016  34.087  34.420  1.00  0.00     0.029 A 
ATOM     47  C   UNL A   1      39.101  33.113  34.498  1.00  0.00     0.049 A 
ATOM     48  H   UNL A   1      39.694  31.755  33.035  1.00  0.00     0.167 HD
ATOM     49  C   UNL A   1      40.697  28.819  29.955  1.00  0.00     0.037 A 
ATOM     50  C   UNL A   1      39.916  32.936  35.556  1.00  0.00     0.037 A 
ATOM     51  C   UNL A   1      41.648  28.597  31.013  1.00  0.00     0.049 A 
ATOM     52  C   UNL A   1      40.988  31.885  35.495  1.00  0.00     0.074 A 
ATOM     53  C   UNL A   1      42.703  27.702  31.048  1.00  0.00     0.029 A 
ATOM     54  N   UNL A   1      41.664  29.283  32.217  1.00  0.00    -0.354 N 
ATOM     55  N   UNL A   1      41.274  31.055  34.522  1.00  0.00    -0.248 NA
ATOM     56  C   UNL A   1      41.848  31.742  36.679  1.00  0.00     0.031 C 
ATOM     57  C   UNL A   1      43.337  27.823  32.288  1.00  0.00     0.029 A 
ATOM     58  C   UNL A   1      42.702  28.821  33.009  1.00  0.00     0.049 A 
ATOM     59  H   UNL A   1      41.031  29.993  32.472  1.00  0.00     0.167 HD
ATOM     60  C   UNL A   1      42.357  30.308  34.965  1.00  0.00     0.074 A 
ATOM     61  C   UNL A   1      42.683  30.786  36.291  1.00  0.00     0.031 C 
ATOM     62  C   UNL A   1      43.018  29.314  34.324  1.00  0.00     0.037 A 
BRANCH  49  63
ATOM     63  C   UNL A   1      40.796  27.958  28.731  1.00  0.00     0.064 A 
ATOM     64  C   UNL A   1      41.576  28.362  27.637  1.00  0.00     0.173 A 
ATOM     65  C   UNL A   1      40.068  26.765  28.615  1.00  0.00     0.173 A 
ATOM     66  F   UNL A   1      42.287  29.498  27.697  1.00  0.00    -0.203 F 
ATOM     67  C   UNL A   1      41.616  27.607  26.468  1.00  0.00     0.198 A 
ATOM     68  C   UNL A   1      40.130  26.000  27.453  1.00  0.00     0.198 A 
ATOM     69  F   UNL A   1      39.316  26.331  29.638  1.00  0.00    -0.203 F 
ATOM     70  F   UNL A   1      42.348  28.025  25.426  1.00  0.00    -0.200 F 
ATOM     71  C   UNL A   1      40.896  26.425  26.379  1.00  0.00     0.200 A 
ATOM     72  F   UNL A   1      39.451  24.847  27.376  1.00  0.00    -0.200 F 
ATOM     73  F   UNL A   1      40.944  25.694  25.257  1.00  0.00    -0.200 F 
ENDBRANCH  49  63
BRANCH  50  74
ATOM     74  C   UNL A   1      39.759  33.802  36.752  1.00  0.00     0.064 A 
ATOM     75  C   UNL A   1      38.934  33.429  37.823  1.00  0.00     0.173 A 
ATOM     76  C   UNL A   1      40.411  35.040  36.829  1.00  0.00     0.173 A 
ATOM     77  F   UNL A   1      38.287  32.254  37.794  1.00  0.00    -0.203 F 
ATOM     78  C   UNL A   1      38.751  34.271  38.917  1.00  0.00     0.198 A 
ATOM     79  C   UNL A   1      40.244  35.872  37.933  1.00  0.00     0.198 A 
ATOM     80  F   UNL A   1      41.226  35.429  35.838  1.00  0.00    -0.203 F 
ATOM     81  F   UNL A   1      37.935  33.905  39.914  1.00  0.00    -0.200 F 
ATOM     82  C   UNL A   1      39.409  35.491  38.973  1.00  0.00     0.200 A 
ATOM     83  F   UNL A   1      40.898  37.041  37.993  1.00  0.00    -0.200 F 
ATOM     84  F   UNL A   1      39.240  36.298  40.029  1.00  0.00    -0.200 F 
ENDBRANCH  50  74
BRANCH  62  85
ATOM     85  C   UNL A   1      44.179  28.684  35.033  1.00  0.00     0.064 A 
ATOM     86  C   UNL A   1      43.979  27.590  35.889  1.00  0.00     0.173 A 
ATOM     87  C   UNL A   1      45.472  29.216  34.931  1.00  0.00     0.173 A 
ATOM     88  F   UNL A   1      42.758  27.052  36.024  1.00  0.00    -0.203 F 
ATOM     89  C   UNL A   1      45.031  27.064  36.633  1.00  0.00     0.198 A 
ATOM     90  C   UNL A   1      46.525  28.672  35.660  1.00  0.00     0.198 A 
ATOM     91  F   UNL A   1      45.712  30.252  34.115  1.00  0.00    -0.203 F 
ATOM     92  F   UNL A   1      44.812  26.040  37.470  1.00  0.00    -0.200 F 
ATOM     93  C   UNL A   1      46.303  27.605  36.518  1.00  0.00     0.200 A 
ATOM     94  F   UNL A   1      47.759  29.182  35.533  1.00  0.00    -0.200 F 
ATOM     95  F   UNL A   1      47.315  27.095  37.232  1.00  0.00    -0.200 F 
ENDBRANCH  62  85
ENDBRANCH  36  37
ENDBRANCH  28  31
ENDBRANCH  26  27
ENDBRANCH  25  26
ENDBRANCH   1  25
TORSDOF 14
ENDMDL
MODEL 2
REMARK VINA RESULT:     -12.2      2.254      3.362
REMARK SMILES Cc1cc(CNS(=O)(=O)c2ccc(C(=O)NCCCNC(=O)c3ccc(-c4c5nc(c(-c6c(F)c(F)c(F)c(F)c6F)c6ccc([nH]6)c(-c6c(F)c(F)c(F)c(F)c6F)c6nc(c(-c7c(F)c(F)c(F)c(F)c7F)c7ccc4[nH]7)C=C6)C=C5)cc3)cc2F)no1
REMARK SMILES IDX 17 1 16 2 14 3 15 4 13 6 10 7 11 8 87 9 12 10 86 11 88 12
REMARK SMILES IDX 7 13 8 14 9 15 6 16 5 18 4 19 1 20 2 21 3 22 90 23 89 24
REMARK SMILES IDX 18 25 19 26 20 27 21 28 22 30 23 31 24 32 85 33 25 34 84 35
REMARK SMILES IDX 26 36 27 37 28 38 78 39 29 40 83 41 77 42 79 43 30 44 82 45
REMARK SMILES IDX 76 46 75 47 31 49 63 50 43 51 62 52 44 53 47 54 61 55 80 56
REMARK SMILES IDX 45 57 46 58 60 60 81 61 48 62 32 63 33 64 41 65 34 66 35 67
REMARK SMILES IDX 39 68 42 69 36 70 37 71 40 72 38 73 64 74 65 75 73 76 66 77
REMARK SMILES IDX 67 78 71 79 74 80 68 81 69 82 72 83 70 84 49 85 50 86 58 87
REMARK SMILES IDX 51 88 52 89 56 90 59 91 53 92 54 93 57 94 55 95
REMARK H PARENT 16 5 6 17 20 29 79 48 47 59
REMARK Flexibility Score: inf
ROOT
ATOM      1  C   UNL A   1      31.439  30.379  26.178  1.00  0.00     0.118 C 
ENDROOT
BRANCH   1   2
ATOM      2  N   UNL A   1      31.250  30.067  24.773  1.00  0.00    -0.352 N 
ATOM      3  C   UNL A   1      31.181  28.890  24.076  1.00  0.00     0.251 C 
ATOM      4  O   UNL A   1      30.960  28.964  22.867  1.00  0.00    -0.269 OA
ATOM      5  H   UNL A   1      31.150  30.865  24.204  1.00  0.00     0.163 HD
BRANCH   3   6
ATOM      6  C   UNL A   1      31.331  27.541  24.691  1.00  0.00     0.042 A 
ATOM      7  C   UNL A   1      31.436  24.932  25.727  1.00  0.00     0.118 A 
ATOM      8  C   UNL A   1      30.238  25.412  25.201  1.00  0.00     0.026 A 
ATOM      9  C   UNL A   1      32.563  25.740  25.738  1.00  0.00     0.144 A 
ATOM     10  C   UNL A   1      30.189  26.716  24.695  1.00  0.00     0.015 A 
ATOM     11  C   UNL A   1      32.525  27.023  25.194  1.00  0.00     0.054 A 
ATOM     12  F   UNL A   1      33.727  25.295  26.230  1.00  0.00    -0.205 F 
BRANCH   7  13
ATOM     13  S   UNL A   1      31.543  23.276  26.319  1.00  0.00     0.243 S 
ATOM     14  O   UNL A   1      30.281  22.633  26.014  1.00  0.00    -0.207 OA
ATOM     15  O   UNL A   1      32.062  23.340  27.663  1.00  0.00    -0.207 OA
BRANCH  13  16
ATOM     16  N   UNL A   1      32.699  22.542  25.358  1.00  0.00    -0.205 NA
ATOM     17  H   UNL A   1      32.213  22.112  24.572  1.00  0.00     0.141 HD
BRANCH  16  18
ATOM     18  C   UNL A   1      33.543  21.509  25.966  1.00  0.00     0.158 C 
BRANCH  18  19
ATOM     19  C   UNL A   1      33.310  20.220  25.251  1.00  0.00     0.099 A 
ATOM     20  C   UNL A   1      33.841  17.095  23.410  1.00  0.00     0.091 C 
ATOM     21  C   UNL A   1      33.518  18.328  24.147  1.00  0.00     0.133 A 
ATOM     22  C   UNL A   1      34.261  19.369  24.644  1.00  0.00     0.073 A 
ATOM     23  O   UNL A   1      32.204  18.539  24.430  1.00  0.00    -0.361 OA
ATOM     24  N   UNL A   1      32.068  19.726  25.129  1.00  0.00    -0.083 NA
ENDBRANCH  18  19
ENDBRANCH  16  18
ENDBRANCH  13  16
ENDBRANCH   7  13
ENDBRANCH   3   6
ENDBRANCH   1   2
BRANCH   1  25
ATOM     25  C   UNL A   1      31.402  31.889  26.419  1.00  0.00     0.042 C 
BRANCH  25  26
ATOM     26  C   UNL A   1      32.646  32.423  27.128  1.00  0.00     0.118 C 
BRANCH  26  27
ATOM     27  N   UNL A   1      32.492  33.815  27.523  1.00  0.00    -0.352 N 
ATOM     28  C   UNL A   1      33.135  34.531  28.500  1.00  0.00     0.251 C 
ATOM     29  H   UNL A   1      31.823  34.322  27.008  1.00  0.00     0.163 HD
ATOM     30  O   UNL A   1      32.711  35.638  28.818  1.00  0.00    -0.269 OA
BRANCH  28  31
ATOM     31  C   UNL A   1      34.329  33.984  29.183  1.00  0.00     0.039 A 
ATOM     32  C   UNL A   1      34.148  33.015  30.176  1.00  0.00     0.014 A 
ATOM     33  C   UNL A   1      35.611  34.462  28.900  1.00  0.00     0.014 A 
ATOM     34  C   UNL A   1      35.254  32.492  30.850  1.00  0.00     0.010 A 
ATOM     35  C   UNL A   1      36.719  33.903  29.536  1.00  0.00     0.010 A 
ATOM     36  C   UNL A   1      36.551  32.915  30.519  1.00  0.00    -0.014 A 
BRANCH  36  37
ATOM     37  C   UNL A   1      37.744  32.342  31.189  1.00  0.00     0.031 A 
ATOM     38  C   UNL A   1      38.538  31.257  30.520  1.00  0.00     0.074 A 
ATOM     39  C   UNL A   1      38.075  32.754  32.428  1.00  0.00     0.049 A 
ATOM     40  N   UNL A   1      39.539  30.555  30.988  1.00  0.00    -0.248 NA
ATOM     41  C   UNL A   1      38.142  30.899  29.149  1.00  0.00     0.031 C 
ATOM     42  C   UNL A   1      37.368  33.785  33.190  1.00  0.00     0.029 A 
ATOM     43  N   UNL A   1      39.081  32.348  33.267  1.00  0.00    -0.354 N 
ATOM     44  C   UNL A   1      39.878  29.662  29.981  1.00  0.00     0.074 A 
ATOM     45  C   UNL A   1      38.957  29.886  28.887  1.00  0.00     0.031 C 
ATOM     46  C   UNL A   1      37.973  33.941  34.379  1.00  0.00     0.029 A 
ATOM     47  C   UNL A   1      39.083  32.997  34.477  1.00  0.00     0.049 A 
ATOM     48  H   UNL A   1      39.739  31.657  33.026  1.00  0.00     0.167 HD
ATOM     49  C   UNL A   1      40.878  28.750  29.965  1.00  0.00     0.037 A 
ATOM     50  C   UNL A   1      39.882  32.842  35.550  1.00  0.00     0.037 A 
ATOM     51  C   UNL A   1      41.815  28.553  31.040  1.00  0.00     0.049 A 
ATOM     52  C   UNL A   1      40.983  31.820  35.509  1.00  0.00     0.074 A 
ATOM     53  C   UNL A   1      42.894  27.687  31.094  1.00  0.00     0.029 A 
ATOM     54  N   UNL A   1      41.791  29.239  32.244  1.00  0.00    -0.354 N 
ATOM     55  N   UNL A   1      41.310  30.999  34.541  1.00  0.00    -0.248 NA
ATOM     56  C   UNL A   1      41.825  31.700  36.709  1.00  0.00     0.031 C 
ATOM     57  C   UNL A   1      43.501  27.825  32.346  1.00  0.00     0.029 A 
ATOM     58  C   UNL A   1      42.826  28.805  33.055  1.00  0.00     0.049 A 
ATOM     59  H   UNL A   1      41.134  29.932  32.487  1.00  0.00     0.167 HD
ATOM     60  C   UNL A   1      42.404  30.281  35.004  1.00  0.00     0.074 A 
ATOM     61  C   UNL A   1      42.693  30.767  36.337  1.00  0.00     0.031 C 
ATOM     62  C   UNL A   1      43.104  29.306  34.376  1.00  0.00     0.037 A 
BRANCH  49  63
ATOM     63  C   UNL A   1      41.024  27.892  28.743  1.00  0.00     0.064 A 
ATOM     64  C   UNL A   1      41.896  28.267  27.710  1.00  0.00     0.173 A 
ATOM     65  C   UNL A   1      40.252  26.735  28.565  1.00  0.00     0.173 A 
ATOM     66  F   UNL A   1      42.652  29.369  27.829  1.00  0.00    -0.203 F 
ATOM     67  C   UNL A   1      41.983  27.518  26.539  1.00  0.00     0.198 A 
ATOM     68  C   UNL A   1      40.360  25.975  27.404  1.00  0.00     0.198 A 
ATOM     69  F   UNL A   1      39.411  26.330  29.529  1.00  0.00    -0.203 F 
ATOM     70  F   UNL A   1      42.804  27.908  25.555  1.00  0.00    -0.200 F 
ATOM     71  C   UNL A   1      41.218  26.370  26.390  1.00  0.00     0.200 A 
ATOM     72  F   UNL A   1      39.636  24.854  27.269  1.00  0.00    -0.200 F 
ATOM     73  F   UNL A   1      41.310  25.644  25.266  1.00  0.00    -0.200 F 
ENDBRANCH  49  63
BRANCH  50  74
ATOM     74  C   UNL A   1      39.680  33.703  36.743  1.00  0.00     0.064 A 
ATOM     75  C   UNL A   1      38.852  33.303  37.802  1.00  0.00     0.173 A 
ATOM     76  C   UNL A   1      40.289  34.962  36.827  1.00  0.00     0.173 A 
ATOM     77  F   UNL A   1      38.245  32.108  37.764  1.00  0.00    -0.203 F 
ATOM     78  C   UNL A   1      38.625  34.140  38.892  1.00  0.00     0.198 A 
ATOM     79  C   UNL A   1      40.079  35.789  37.928  1.00  0.00     0.198 A 
ATOM     80  F   UNL A   1      41.105  35.377  35.848  1.00  0.00    -0.203 F 
ATOM     81  F   UNL A   1      37.808  33.747  39.878  1.00  0.00    -0.200 F 
ATOM     82  C   UNL A   1      39.243  35.380  38.956  1.00  0.00     0.200 A 
ATOM     83  F   UNL A   1      40.693  36.978  37.997  1.00  0.00    -0.200 F 
ATOM     84  F   UNL A   1      39.031  36.182  40.009  1.00  0.00    -0.200 F 
ENDBRANCH  50  74
BRANCH  62  85
ATOM     85  C   UNL A   1      44.268  28.707  35.106  1.00  0.00     0.064 A 
ATOM     86  C   UNL A   1      44.075  27.637  35.994  1.00  0.00     0.173 A 
ATOM     87  C   UNL A   1      45.556  29.248  34.993  1.00  0.00     0.173 A 
ATOM     88  F   UNL A   1      42.859  27.092  36.140  1.00  0.00    -0.203 F 
ATOM     89  C   UNL A   1      45.130  27.142  36.755  1.00  0.00     0.198 A 
ATOM     90  C   UNL A   1      46.612  28.735  35.740  1.00  0.00     0.198 A 
ATOM     91  F   UNL A   1      45.790  30.262  34.147  1.00  0.00    -0.203 F 
ATOM     92  F   UNL A   1      44.917  26.141  37.621  1.00  0.00    -0.200 F 
ATOM     93  C   UNL A   1      46.397  27.691  36.628  1.00  0.00     0.200 A 
ATOM     94  F   UNL A   1      47.842  29.253  35.602  1.00  0.00    -0.200 F 
ATOM     95  F   UNL A   1      47.412  27.211  37.359  1.00  0.00    -0.200 F 
ENDBRANCH  62  85
ENDBRANCH  36  37
ENDBRANCH  28  31
ENDBRANCH  26  27
ENDBRANCH  25  26
ENDBRANCH   1  25
TORSDOF 14
ENDMDL
MODEL 3
REMARK VINA RESULT:     -12.2      2.923      4.444
REMARK SMILES Cc1cc(CNS(=O)(=O)c2ccc(C(=O)NCCCNC(=O)c3ccc(-c4c5nc(c(-c6c(F)c(F)c(F)c(F)c6F)c6ccc([nH]6)c(-c6c(F)c(F)c(F)c(F)c6F)c6nc(c(-c7c(F)c(F)c(F)c(F)c7F)c7ccc4[nH]7)C=C6)C=C5)cc3)cc2F)no1
REMARK SMILES IDX 17 1 16 2 14 3 15 4 13 6 10 7 11 8 87 9 12 10 86 11 88 12
REMARK SMILES IDX 7 13 8 14 9 15 6 16 5 18 4 19 1 20 2 21 3 22 90 23 89 24
REMARK SMILES IDX 18 25 19 26 20 27 21 28 22 30 23 31 24 32 85 33 25 34 84 35
REMARK SMILES IDX 26 36 27 37 28 38 78 39 29 40 83 41 77 42 79 43 30 44 82 45
REMARK SMILES IDX 76 46 75 47 31 49 63 50 43 51 62 52 44 53 47 54 61 55 80 56
REMARK SMILES IDX 45 57 46 58 60 60 81 61 48 62 32 63 33 64 41 65 34 66 35 67
REMARK SMILES IDX 39 68 42 69 36 70 37 71 40 72 38 73 64 74 65 75 73 76 66 77
REMARK SMILES IDX 67 78 71 79 74 80 68 81 69 82 72 83 70 84 49 85 50 86 58 87
REMARK SMILES IDX 51 88 52 89 56 90 59 91 53 92 54 93 57 94 55 95
REMARK H PARENT 16 5 6 17 20 29 79 48 47 59
REMARK Flexibility Score: inf
ROOT
ATOM      1  C   UNL A   1      32.822  28.690  22.876  1.00  0.00     0.118 C 
ENDROOT
BRANCH   1   2
ATOM      2  N   UNL A   1      33.070  27.686  21.857  1.00  0.00    -0.352 N 
ATOM      3  C   UNL A   1      33.006  26.318  21.855  1.00  0.00     0.251 C 
ATOM      4  O   UNL A   1      33.237  25.746  20.789  1.00  0.00    -0.269 OA
ATOM      5  H   UNL A   1      33.339  28.066  20.989  1.00  0.00     0.163 HD
BRANCH   3   6
ATOM      6  C   UNL A   1      32.655  25.492  23.045  1.00  0.00     0.042 A 
ATOM      7  C   UNL A   1      31.830  23.843  25.164  1.00  0.00     0.118 A 
ATOM      8  C   UNL A   1      30.933  24.144  24.140  1.00  0.00     0.026 A 
ATOM      9  C   UNL A   1      33.118  24.357  25.132  1.00  0.00     0.144 A 
ATOM     10  C   UNL A   1      31.346  24.973  23.092  1.00  0.00     0.015 A 
ATOM     11  C   UNL A   1      33.542  25.149  24.066  1.00  0.00     0.054 A 
ATOM     12  F   UNL A   1      33.999  24.073  26.100  1.00  0.00    -0.205 F 
BRANCH   7  13
ATOM     13  S   UNL A   1      31.356  22.754  26.466  1.00  0.00     0.243 S 
ATOM     14  O   UNL A   1      29.918  22.858  26.604  1.00  0.00    -0.207 OA
ATOM     15  O   UNL A   1      32.249  23.004  27.570  1.00  0.00    -0.207 OA
BRANCH  13  16
ATOM     16  N   UNL A   1      31.673  21.217  25.888  1.00  0.00    -0.205 NA
ATOM     17  H   UNL A   1      31.130  20.563  26.451  1.00  0.00     0.141 HD
BRANCH  16  18
ATOM     18  C   UNL A   1      33.063  20.751  25.899  1.00  0.00     0.158 C 
BRANCH  18  19
ATOM     19  C   UNL A   1      33.119  19.402  25.263  1.00  0.00     0.099 A 
ATOM     20  C   UNL A   1      34.229  16.483  23.343  1.00  0.00     0.091 C 
ATOM     21  C   UNL A   1      33.690  17.599  24.140  1.00  0.00     0.133 A 
ATOM     22  C   UNL A   1      34.131  18.864  24.437  1.00  0.00     0.073 A 
ATOM     23  O   UNL A   1      32.489  17.388  24.742  1.00  0.00    -0.361 OA
ATOM     24  N   UNL A   1      32.127  18.519  25.455  1.00  0.00    -0.083 NA
ENDBRANCH  18  19
ENDBRANCH  16  18
ENDBRANCH  13  16
ENDBRANCH   7  13
ENDBRANCH   3   6
ENDBRANCH   1   2
BRANCH   1  25
ATOM     25  C   UNL A   1      34.069  28.933  23.728  1.00  0.00     0.042 C 
BRANCH  25  26
ATOM     26  C   UNL A   1      33.797  28.883  25.232  1.00  0.00     0.118 C 
BRANCH  26  27
ATOM     27  N   UNL A   1      33.164  30.102  25.710  1.00  0.00    -0.352 N 
ATOM     28  C   UNL A   1      33.446  30.869  26.812  1.00  0.00     0.251 C 
ATOM     29  H   UNL A   1      32.417  30.428  25.158  1.00  0.00     0.163 HD
ATOM     30  O   UNL A   1      32.658  31.744  27.159  1.00  0.00    -0.269 OA
BRANCH  28  31
ATOM     31  C   UNL A   1      34.684  30.651  27.593  1.00  0.00     0.039 A 
ATOM     32  C   UNL A   1      34.828  29.454  28.302  1.00  0.00     0.014 A 
ATOM     33  C   UNL A   1      35.670  31.638  27.684  1.00  0.00     0.014 A 
ATOM     34  C   UNL A   1      35.978  29.227  29.063  1.00  0.00     0.010 A 
ATOM     35  C   UNL A   1      36.840  31.391  28.400  1.00  0.00     0.010 A 
ATOM     36  C   UNL A   1      37.004  30.184  29.098  1.00  0.00    -0.014 A 
BRANCH  36  37
ATOM     37  C   UNL A   1      38.254  29.946  29.862  1.00  0.00     0.031 A 
ATOM     38  C   UNL A   1      39.320  29.048  29.304  1.00  0.00     0.074 A 
ATOM     39  C   UNL A   1      38.401  30.489  31.085  1.00  0.00     0.049 A 
ATOM     40  N   UNL A   1      40.427  28.629  29.865  1.00  0.00    -0.248 NA
ATOM     41  C   UNL A   1      39.106  28.535  27.942  1.00  0.00     0.031 C 
ATOM     42  C   UNL A   1      37.426  31.360  31.744  1.00  0.00     0.029 A 
ATOM     43  N   UNL A   1      39.420  30.379  31.997  1.00  0.00    -0.354 N 
ATOM     44  C   UNL A   1      41.028  27.791  28.936  1.00  0.00     0.074 A 
ATOM     45  C   UNL A   1      40.150  27.732  27.787  1.00  0.00     0.031 C 
ATOM     46  C   UNL A   1      37.902  31.718  32.947  1.00  0.00     0.029 A 
ATOM     47  C   UNL A   1      39.194  31.071  33.161  1.00  0.00     0.049 A 
ATOM     48  H   UNL A   1      40.236  29.852  31.834  1.00  0.00     0.167 HD
ATOM     49  C   UNL A   1      42.213  27.143  29.028  1.00  0.00     0.037 A 
ATOM     50  C   UNL A   1      39.939  31.167  34.279  1.00  0.00     0.037 A 
ATOM     51  C   UNL A   1      43.101  27.232  30.157  1.00  0.00     0.049 A 
ATOM     52  C   UNL A   1      41.249  30.435  34.358  1.00  0.00     0.074 A 
ATOM     53  C   UNL A   1      44.347  26.651  30.321  1.00  0.00     0.029 A 
ATOM     54  N   UNL A   1      42.841  27.954  31.312  1.00  0.00    -0.354 N 
ATOM     55  N   UNL A   1      41.819  29.666  33.463  1.00  0.00    -0.248 NA
ATOM     56  C   UNL A   1      42.019  30.581  35.602  1.00  0.00     0.031 C 
ATOM     57  C   UNL A   1      44.825  26.993  31.588  1.00  0.00     0.029 A 
ATOM     58  C   UNL A   1      43.897  27.821  32.199  1.00  0.00     0.049 A 
ATOM     59  H   UNL A   1      42.026  28.482  31.477  1.00  0.00     0.167 HD
ATOM     60  C   UNL A   1      43.019  29.253  34.024  1.00  0.00     0.074 A 
ATOM     61  C   UNL A   1      43.102  29.863  35.335  1.00  0.00     0.031 C 
ATOM     62  C   UNL A   1      43.966  28.441  33.496  1.00  0.00     0.037 A 
BRANCH  49  63
ATOM     63  C   UNL A   1      42.632  26.283  27.873  1.00  0.00     0.064 A 
ATOM     64  C   UNL A   1      43.494  26.784  26.887  1.00  0.00     0.173 A 
ATOM     65  C   UNL A   1      42.128  24.984  27.708  1.00  0.00     0.173 A 
ATOM     66  F   UNL A   1      43.998  28.023  26.996  1.00  0.00    -0.203 F 
ATOM     67  C   UNL A   1      43.829  26.020  25.772  1.00  0.00     0.198 A 
ATOM     68  C   UNL A   1      42.485  24.214  26.605  1.00  0.00     0.198 A 
ATOM     69  F   UNL A   1      41.308  24.456  28.630  1.00  0.00    -0.203 F 
ATOM     70  F   UNL A   1      44.635  26.529  24.830  1.00  0.00    -0.200 F 
ATOM     71  C   UNL A   1      43.328  24.734  25.635  1.00  0.00     0.200 A 
ATOM     72  F   UNL A   1      42.017  22.963  26.484  1.00  0.00    -0.200 F 
ATOM     73  F   UNL A   1      43.659  23.995  24.567  1.00  0.00    -0.200 F 
ENDBRANCH  49  63
BRANCH  50  74
ATOM     74  C   UNL A   1      39.466  32.015  35.402  1.00  0.00     0.064 A 
ATOM     75  C   UNL A   1      38.583  31.520  36.373  1.00  0.00     0.173 A 
ATOM     76  C   UNL A   1      39.866  33.355  35.503  1.00  0.00     0.173 A 
ATOM     77  F   UNL A   1      38.170  30.245  36.316  1.00  0.00    -0.203 F 
ATOM     78  C   UNL A   1      38.103  32.339  37.392  1.00  0.00     0.198 A 
ATOM     79  C   UNL A   1      39.402  34.166  36.535  1.00  0.00     0.198 A 
ATOM     80  F   UNL A   1      40.725  33.865  34.609  1.00  0.00    -0.203 F 
ATOM     81  F   UNL A   1      37.239  31.850  38.291  1.00  0.00    -0.200 F 
ATOM     82  C   UNL A   1      38.516  33.661  37.475  1.00  0.00     0.200 A 
ATOM     83  F   UNL A   1      39.819  35.437  36.624  1.00  0.00    -0.200 F 
ATOM     84  F   UNL A   1      38.061  34.446  38.460  1.00  0.00    -0.200 F 
ENDBRANCH  50  74
BRANCH  62  85
ATOM     85  C   UNL A   1      45.190  28.175  34.319  1.00  0.00     0.064 A 
ATOM     86  C   UNL A   1      45.215  27.108  35.230  1.00  0.00     0.173 A 
ATOM     87  C   UNL A   1      46.302  29.028  34.269  1.00  0.00     0.173 A 
ATOM     88  F   UNL A   1      44.172  26.270  35.318  1.00  0.00    -0.203 F 
ATOM     89  C   UNL A   1      46.305  26.914  36.073  1.00  0.00     0.198 A 
ATOM     90  C   UNL A   1      47.399  28.817  35.100  1.00  0.00     0.198 A 
ATOM     91  F   UNL A   1      46.328  30.053  33.405  1.00  0.00    -0.203 F 
ATOM     92  F   UNL A   1      46.295  25.908  36.959  1.00  0.00    -0.200 F 
ATOM     93  C   UNL A   1      47.396  27.768  36.008  1.00  0.00     0.200 A 
ATOM     94  F   UNL A   1      48.462  29.631  35.022  1.00  0.00    -0.200 F 
ATOM     95  F   UNL A   1      48.445  27.579  36.819  1.00  0.00    -0.200 F 
ENDBRANCH  62  85
ENDBRANCH  36  37
ENDBRANCH  28  31
ENDBRANCH  26  27
ENDBRANCH  25  26
ENDBRANCH   1  25
TORSDOF 14
ENDMDL
