MODEL 1
REMARK VINA RESULT:     -12.3      0.000      0.000
REMARK SMILES C[C@@](NC(=O)CSc1ccc(Cl)cc1)(C(=O)NCCCNC(=O)c1ccc(-c2c3nc(c(-c4c(F)c(F)c(F)c(F)c4F)c4ccc([nH]4)c(-c4c(F)c(F)c(F)c(F)c4F)c4nc(c(-c5c(F)c(F)c(F)c(F)c5F)c5ccc2[nH]5)C=C4)C=C3)cc1)C1CC1
REMARK SMILES IDX 18 1 17 2 15 3 16 4 2 6 1 7 3 8 4 9 5 11 6 12 7 13 8 14 9 15
REMARK SMILES IDX 14 16 10 17 13 18 11 19 12 20 87 21 88 22 89 23 19 24 20 25
REMARK SMILES IDX 21 26 22 27 23 29 24 30 25 31 86 32 26 33 85 34 27 35 28 36
REMARK SMILES IDX 29 37 79 38 30 39 84 40 78 41 80 42 31 43 83 44 77 45 76 46
REMARK SMILES IDX 32 48 64 49 44 50 63 51 45 52 48 53 62 54 81 55 46 56 47 57
REMARK SMILES IDX 61 59 82 60 49 61 33 62 34 63 42 64 35 65 36 66 40 67 43 68
REMARK SMILES IDX 37 69 38 70 41 71 39 72 65 73 66 74 74 75 67 76 68 77 72 78
REMARK SMILES IDX 75 79 69 80 70 81 73 82 71 83 50 84 51 85 59 86 52 87 53 88
REMARK SMILES IDX 57 89 60 90 54 91 55 92 58 93 56 94
REMARK H PARENT 17 5 3 10 21 28 80 47 48 58
REMARK Flexibility Score: inf
ROOT
ATOM      1  C   UNL A   1      31.747  30.490  26.249  1.00  0.00     0.117 C 
ENDROOT
BRANCH   1   2
ATOM      2  N   UNL A   1      32.924  29.926  26.860  1.00  0.00    -0.354 N 
ATOM      3  C   UNL A   1      33.585  28.777  26.554  1.00  0.00     0.245 C 
ATOM      4  O   UNL A   1      34.730  28.716  27.013  1.00  0.00    -0.272 OA
ATOM      5  H   UNL A   1      33.304  30.446  27.604  1.00  0.00     0.163 HD
BRANCH   3   6
ATOM      6  C   UNL A   1      32.945  27.641  25.681  1.00  0.00     0.119 C 
ATOM      7  C   UNL A   1      33.953  26.447  25.619  1.00  0.00     0.046 C 
BRANCH   6   8
ATOM      8  N   UNL A   1      31.688  27.079  26.249  1.00  0.00    -0.341 N 
ATOM      9  C   UNL A   1      30.649  26.325  25.798  1.00  0.00     0.231 C 
ATOM     10  H   UNL A   1      31.580  27.315  27.199  1.00  0.00     0.164 HD
ATOM     11  O   UNL A   1      29.942  25.807  26.671  1.00  0.00    -0.274 OA
BRANCH   9  12
ATOM     12  C   UNL A   1      30.315  26.123  24.340  1.00  0.00     0.174 C 
BRANCH  12  13
ATOM     13  S   UNL A   1      28.597  26.542  23.833  1.00  0.00    -0.116 SA
BRANCH  13  14
ATOM     14  C   UNL A   1      28.593  28.143  23.017  1.00  0.00     0.008 A 
ATOM     15  C   UNL A   1      29.736  28.711  22.456  1.00  0.00     0.016 A 
ATOM     16  C   UNL A   1      27.475  28.976  23.189  1.00  0.00     0.016 A 
ATOM     17  C   UNL A   1      29.748  30.070  22.084  1.00  0.00     0.021 A 
ATOM     18  C   UNL A   1      27.471  30.321  22.815  1.00  0.00     0.021 A 
ATOM     19  C   UNL A   1      28.620  30.868  22.271  1.00  0.00     0.041 A 
ATOM     20  Cl  UNL A   1      28.653  32.544  21.881  1.00  0.00    -0.084 Cl
ENDBRANCH  13  14
ENDBRANCH  12  13
ENDBRANCH   9  12
ENDBRANCH   6   8
BRANCH   6  21
ATOM     21  C   UNL A   1      32.724  27.990  24.199  1.00  0.00     0.024 C 
ATOM     22  C   UNL A   1      33.542  28.903  23.318  1.00  0.00     0.007 C 
ATOM     23  C   UNL A   1      33.654  27.413  23.143  1.00  0.00     0.007 C 
ENDBRANCH   6  21
ENDBRANCH   3   6
ENDBRANCH   1   2
BRANCH   1  24
ATOM     24  C   UNL A   1      31.498  31.945  26.612  1.00  0.00     0.042 C 
BRANCH  24  25
ATOM     25  C   UNL A   1      32.673  32.706  27.218  1.00  0.00     0.118 C 
BRANCH  25  26
ATOM     26  N   UNL A   1      32.396  34.074  27.635  1.00  0.00    -0.352 N 
ATOM     27  C   UNL A   1      32.994  34.901  28.565  1.00  0.00     0.251 C 
ATOM     28  H   UNL A   1      31.638  34.488  27.165  1.00  0.00     0.163 HD
ATOM     29  O   UNL A   1      32.532  36.011  28.793  1.00  0.00    -0.269 OA
BRANCH  27  30
ATOM     30  C   UNL A   1      34.161  34.441  29.340  1.00  0.00     0.039 A 
ATOM     31  C   UNL A   1      33.966  33.819  30.579  1.00  0.00     0.014 A 
ATOM     32  C   UNL A   1      35.450  34.630  28.856  1.00  0.00     0.014 A 
ATOM     33  C   UNL A   1      35.064  33.309  31.278  1.00  0.00     0.010 A 
ATOM     34  C   UNL A   1      36.515  33.993  29.469  1.00  0.00     0.010 A 
ATOM     35  C   UNL A   1      36.342  33.349  30.702  1.00  0.00    -0.014 A 
BRANCH  35  36
ATOM     36  C   UNL A   1      37.541  32.773  31.358  1.00  0.00     0.031 A 
ATOM     37  C   UNL A   1      38.276  31.642  30.685  1.00  0.00     0.074 A 
ATOM     38  C   UNL A   1      37.885  33.170  32.597  1.00  0.00     0.049 A 
ATOM     39  N   UNL A   1      39.215  30.863  31.158  1.00  0.00    -0.248 NA
ATOM     40  C   UNL A   1      37.858  31.308  29.313  1.00  0.00     0.031 C 
ATOM     41  C   UNL A   1      37.214  34.216  33.372  1.00  0.00     0.029 A 
ATOM     42  N   UNL A   1      38.873  32.720  33.436  1.00  0.00    -0.354 N 
ATOM     43  C   UNL A   1      39.466  29.930  30.158  1.00  0.00     0.074 A 
ATOM     44  C   UNL A   1      38.534  30.194  29.085  1.00  0.00     0.031 C 
ATOM     45  C   UNL A   1      37.822  34.341  34.562  1.00  0.00     0.029 A 
ATOM     46  C   UNL A   1      38.891  33.354  34.654  1.00  0.00     0.049 A 
ATOM     47  H   UNL A   1      39.508  32.011  33.188  1.00  0.00     0.167 HD
ATOM     48  C   UNL A   1      40.410  28.961  30.125  1.00  0.00     0.037 A 
ATOM     49  C   UNL A   1      39.675  33.147  35.729  1.00  0.00     0.037 A 
ATOM     50  C   UNL A   1      41.360  28.737  31.182  1.00  0.00     0.049 A 
ATOM     51  C   UNL A   1      40.730  32.075  35.662  1.00  0.00     0.074 A 
ATOM     52  C   UNL A   1      42.405  27.833  31.227  1.00  0.00     0.029 A 
ATOM     53  N   UNL A   1      41.381  29.435  32.383  1.00  0.00    -0.354 N 
ATOM     54  N   UNL A   1      41.001  31.238  34.690  1.00  0.00    -0.248 NA
ATOM     55  C   UNL A   1      41.593  31.925  36.841  1.00  0.00     0.031 C 
ATOM     56  C   UNL A   1      43.026  27.947  32.476  1.00  0.00     0.029 A 
ATOM     57  C   UNL A   1      42.409  28.968  33.184  1.00  0.00     0.049 A 
ATOM     58  H   UNL A   1      40.757  30.157  32.627  1.00  0.00     0.167 HD
ATOM     59  C   UNL A   1      42.085  30.488  35.122  1.00  0.00     0.074 A 
ATOM     60  C   UNL A   1      42.432  30.981  36.439  1.00  0.00     0.031 C 
ATOM     61  C   UNL A   1      42.738  29.480  34.489  1.00  0.00     0.037 A 
BRANCH  48  62
ATOM     62  C   UNL A   1      40.465  28.079  28.909  1.00  0.00     0.064 A 
ATOM     63  C   UNL A   1      39.753  26.872  28.837  1.00  0.00     0.173 A 
ATOM     64  C   UNL A   1      41.220  28.458  27.788  1.00  0.00     0.173 A 
ATOM     65  F   UNL A   1      39.025  26.452  29.884  1.00  0.00    -0.203 F 
ATOM     66  C   UNL A   1      39.823  26.060  27.707  1.00  0.00     0.198 A 
ATOM     67  C   UNL A   1      41.258  27.662  26.645  1.00  0.00     0.198 A 
ATOM     68  F   UNL A   1      41.919  29.602  27.798  1.00  0.00    -0.203 F 
ATOM     69  F   UNL A   1      39.184  24.882  27.689  1.00  0.00    -0.200 F 
ATOM     70  C   UNL A   1      40.568  26.460  26.609  1.00  0.00     0.200 A 
ATOM     71  F   UNL A   1      41.967  28.059  25.579  1.00  0.00    -0.200 F 
ATOM     72  F   UNL A   1      40.628  25.683  25.519  1.00  0.00    -0.200 F 
ENDBRANCH  48  62
BRANCH  49  73
ATOM     73  C   UNL A   1      39.517  33.993  36.941  1.00  0.00     0.064 A 
ATOM     74  C   UNL A   1      40.128  35.253  37.021  1.00  0.00     0.173 A 
ATOM     75  C   UNL A   1      38.756  33.570  38.041  1.00  0.00     0.173 A 
ATOM     76  F   UNL A   1      40.880  35.697  36.003  1.00  0.00    -0.203 F 
ATOM     77  C   UNL A   1      40.007  36.043  38.162  1.00  0.00     0.198 A 
ATOM     78  C   UNL A   1      38.609  34.375  39.169  1.00  0.00     0.198 A 
ATOM     79  F   UNL A   1      38.142  32.378  38.014  1.00  0.00    -0.203 F 
ATOM     80  F   UNL A   1      40.645  37.220  38.230  1.00  0.00    -0.200 F 
ATOM     81  C   UNL A   1      39.242  35.606  39.232  1.00  0.00     0.200 A 
ATOM     82  F   UNL A   1      37.854  33.957  40.194  1.00  0.00    -0.200 F 
ATOM     83  F   UNL A   1      39.122  36.369  40.328  1.00  0.00    -0.200 F 
ENDBRANCH  49  73
BRANCH  61  84
ATOM     84  C   UNL A   1      43.918  28.880  35.198  1.00  0.00     0.064 A 
ATOM     85  C   UNL A   1      45.224  29.348  34.989  1.00  0.00     0.173 A 
ATOM     86  C   UNL A   1      43.733  27.836  36.118  1.00  0.00     0.173 A 
ATOM     87  F   UNL A   1      45.455  30.336  34.111  1.00  0.00    -0.203 F 
ATOM     88  C   UNL A   1      46.305  28.766  35.645  1.00  0.00     0.198 A 
ATOM     89  C   UNL A   1      44.813  27.283  36.800  1.00  0.00     0.198 A 
ATOM     90  F   UNL A   1      42.505  27.358  36.362  1.00  0.00    -0.203 F 
ATOM     91  F   UNL A   1      47.551  29.185  35.381  1.00  0.00    -0.200 F 
ATOM     92  C   UNL A   1      46.098  27.739  36.553  1.00  0.00     0.200 A 
ATOM     93  F   UNL A   1      44.609  26.303  37.690  1.00  0.00    -0.200 F 
ATOM     94  F   UNL A   1      47.141  27.182  37.186  1.00  0.00    -0.200 F 
ENDBRANCH  61  84
ENDBRANCH  35  36
ENDBRANCH  27  30
ENDBRANCH  25  26
ENDBRANCH  24  25
ENDBRANCH   1  24
TORSDOF 15
ENDMDL
MODEL 2
REMARK VINA RESULT:     -12.3      2.160      3.568
REMARK SMILES C[C@@](NC(=O)CSc1ccc(Cl)cc1)(C(=O)NCCCNC(=O)c1ccc(-c2c3nc(c(-c4c(F)c(F)c(F)c(F)c4F)c4ccc([nH]4)c(-c4c(F)c(F)c(F)c(F)c4F)c4nc(c(-c5c(F)c(F)c(F)c(F)c5F)c5ccc2[nH]5)C=C4)C=C3)cc1)C1CC1
REMARK SMILES IDX 18 1 17 2 15 3 16 4 2 6 1 7 3 8 4 9 5 11 6 12 7 13 8 14 9 15
REMARK SMILES IDX 14 16 10 17 13 18 11 19 12 20 87 21 88 22 89 23 19 24 20 25
REMARK SMILES IDX 21 26 22 27 23 29 24 30 25 31 86 32 26 33 85 34 27 35 28 36
REMARK SMILES IDX 29 37 79 38 30 39 84 40 78 41 80 42 31 43 83 44 77 45 76 46
REMARK SMILES IDX 32 48 64 49 44 50 63 51 45 52 48 53 62 54 81 55 46 56 47 57
REMARK SMILES IDX 61 59 82 60 49 61 33 62 34 63 42 64 35 65 36 66 40 67 43 68
REMARK SMILES IDX 37 69 38 70 41 71 39 72 65 73 66 74 74 75 67 76 68 77 72 78
REMARK SMILES IDX 75 79 69 80 70 81 73 82 71 83 50 84 51 85 59 86 52 87 53 88
REMARK SMILES IDX 57 89 60 90 54 91 55 92 58 93 56 94
REMARK H PARENT 17 5 3 10 21 28 80 47 48 58
REMARK Flexibility Score: inf
ROOT
ATOM      1  C   UNL A   1      31.716  30.085  26.116  1.00  0.00     0.117 C 
ENDROOT
BRANCH   1   2
ATOM      2  N   UNL A   1      32.616  29.802  25.027  1.00  0.00    -0.354 N 
ATOM      3  C   UNL A   1      32.381  29.125  23.870  1.00  0.00     0.245 C 
ATOM      4  O   UNL A   1      33.225  29.322  22.990  1.00  0.00    -0.272 OA
ATOM      5  H   UNL A   1      33.531  30.147  25.135  1.00  0.00     0.163 HD
BRANCH   3   6
ATOM      6  C   UNL A   1      31.136  28.190  23.677  1.00  0.00     0.119 C 
ATOM      7  C   UNL A   1      31.401  27.274  22.437  1.00  0.00     0.046 C 
BRANCH   6   8
ATOM      8  N   UNL A   1      30.893  27.263  24.818  1.00  0.00    -0.341 N 
ATOM      9  C   UNL A   1      31.650  26.487  25.640  1.00  0.00     0.231 C 
ATOM     10  H   UNL A   1      29.935  27.194  25.033  1.00  0.00     0.164 HD
ATOM     11  O   UNL A   1      31.092  26.095  26.673  1.00  0.00    -0.274 OA
BRANCH   9  12
ATOM     12  C   UNL A   1      33.071  26.072  25.348  1.00  0.00     0.174 C 
BRANCH  12  13
ATOM     13  S   UNL A   1      33.283  24.601  24.264  1.00  0.00    -0.116 SA
BRANCH  13  14
ATOM     14  C   UNL A   1      34.952  23.960  24.453  1.00  0.00     0.008 A 
ATOM     15  C   UNL A   1      35.528  23.067  23.550  1.00  0.00     0.016 A 
ATOM     16  C   UNL A   1      35.599  24.139  25.687  1.00  0.00     0.016 A 
ATOM     17  C   UNL A   1      36.714  22.383  23.883  1.00  0.00     0.021 A 
ATOM     18  C   UNL A   1      36.779  23.474  26.024  1.00  0.00     0.021 A 
ATOM     19  C   UNL A   1      37.328  22.584  25.118  1.00  0.00     0.041 A 
ATOM     20  Cl  UNL A   1      38.737  21.698  25.555  1.00  0.00    -0.084 Cl
ENDBRANCH  13  14
ENDBRANCH  12  13
ENDBRANCH   9  12
ENDBRANCH   6   8
BRANCH   6  21
ATOM     21  C   UNL A   1      29.823  28.903  23.310  1.00  0.00     0.024 C 
ATOM     22  C   UNL A   1      29.459  30.355  23.503  1.00  0.00     0.007 C 
ATOM     23  C   UNL A   1      29.788  29.853  22.123  1.00  0.00     0.007 C 
ENDBRANCH   6  21
ENDBRANCH   3   6
ENDBRANCH   1   2
BRANCH   1  24
ATOM     24  C   UNL A   1      31.516  31.567  26.385  1.00  0.00     0.042 C 
BRANCH  24  25
ATOM     25  C   UNL A   1      32.661  32.293  27.084  1.00  0.00     0.118 C 
BRANCH  25  26
ATOM     26  N   UNL A   1      32.399  33.674  27.466  1.00  0.00    -0.352 N 
ATOM     27  C   UNL A   1      33.011  34.521  28.368  1.00  0.00     0.251 C 
ATOM     28  H   UNL A   1      31.639  34.081  26.991  1.00  0.00     0.163 HD
ATOM     29  O   UNL A   1      32.559  35.640  28.569  1.00  0.00    -0.269 OA
BRANCH  27  30
ATOM     30  C   UNL A   1      34.181  34.073  29.145  1.00  0.00     0.039 A 
ATOM     31  C   UNL A   1      33.999  33.210  30.232  1.00  0.00     0.014 A 
ATOM     32  C   UNL A   1      35.458  34.509  28.814  1.00  0.00     0.014 A 
ATOM     33  C   UNL A   1      35.112  32.718  30.920  1.00  0.00     0.010 A 
ATOM     34  C   UNL A   1      36.562  33.907  29.393  1.00  0.00     0.010 A 
ATOM     35  C   UNL A   1      36.405  33.025  30.471  1.00  0.00    -0.014 A 
BRANCH  35  36
ATOM     36  C   UNL A   1      37.630  32.491  31.114  1.00  0.00     0.031 A 
ATOM     37  C   UNL A   1      38.394  31.383  30.435  1.00  0.00     0.074 A 
ATOM     38  C   UNL A   1      37.975  32.903  32.349  1.00  0.00     0.049 A 
ATOM     39  N   UNL A   1      39.363  30.635  30.899  1.00  0.00    -0.248 NA
ATOM     40  C   UNL A   1      37.970  31.031  29.069  1.00  0.00     0.031 C 
ATOM     41  C   UNL A   1      37.280  33.928  33.129  1.00  0.00     0.029 A 
ATOM     42  N   UNL A   1      38.988  32.487  33.177  1.00  0.00    -0.354 N 
ATOM     43  C   UNL A   1      39.632  29.708  29.899  1.00  0.00     0.074 A 
ATOM     44  C   UNL A   1      38.679  29.939  28.836  1.00  0.00     0.031 C 
ATOM     45  C   UNL A   1      37.898  34.077  34.310  1.00  0.00     0.029 A 
ATOM     46  C   UNL A   1      39.000  33.124  34.393  1.00  0.00     0.049 A 
ATOM     47  H   UNL A   1      39.643  31.798  32.922  1.00  0.00     0.167 HD
ATOM     48  C   UNL A   1      40.606  28.770  29.857  1.00  0.00     0.037 A 
ATOM     49  C   UNL A   1      39.803  32.947  35.459  1.00  0.00     0.037 A 
ATOM     50  C   UNL A   1      41.576  28.580  30.903  1.00  0.00     0.049 A 
ATOM     51  C   UNL A   1      40.891  31.909  35.381  1.00  0.00     0.074 A 
ATOM     52  C   UNL A   1      42.651  27.711  30.937  1.00  0.00     0.029 A 
ATOM     53  N   UNL A   1      41.588  29.283  32.101  1.00  0.00    -0.354 N 
ATOM     54  N   UNL A   1      41.178  31.079  34.408  1.00  0.00    -0.248 NA
ATOM     55  C   UNL A   1      41.773  31.791  36.550  1.00  0.00     0.031 C 
ATOM     56  C   UNL A   1      43.282  27.849  32.178  1.00  0.00     0.029 A 
ATOM     57  C   UNL A   1      42.640  28.851  32.891  1.00  0.00     0.049 A 
ATOM     58  H   UNL A   1      40.944  29.984  32.351  1.00  0.00     0.167 HD
ATOM     59  C   UNL A   1      42.291  30.365  34.829  1.00  0.00     0.074 A 
ATOM     60  C   UNL A   1      42.637  30.874  36.141  1.00  0.00     0.031 C 
ATOM     61  C   UNL A   1      42.969  29.378  34.191  1.00  0.00     0.037 A 
BRANCH  48  62
ATOM     62  C   UNL A   1      40.675  27.887  28.642  1.00  0.00     0.064 A 
ATOM     63  C   UNL A   1      40.005  26.655  28.583  1.00  0.00     0.173 A 
ATOM     64  C   UNL A   1      41.401  28.289  27.509  1.00  0.00     0.173 A 
ATOM     65  F   UNL A   1      39.308  26.214  29.641  1.00  0.00    -0.203 F 
ATOM     66  C   UNL A   1      40.088  25.843  27.454  1.00  0.00     0.198 A 
ATOM     67  C   UNL A   1      41.451  27.492  26.368  1.00  0.00     0.198 A 
ATOM     68  F   UNL A   1      42.059  29.457  27.507  1.00  0.00    -0.203 F 
ATOM     69  F   UNL A   1      39.491  24.644  27.448  1.00  0.00    -0.200 F 
ATOM     70  C   UNL A   1      40.804  26.266  26.345  1.00  0.00     0.200 A 
ATOM     71  F   UNL A   1      42.131  27.910  25.292  1.00  0.00    -0.200 F 
ATOM     72  F   UNL A   1      40.876  25.488  25.256  1.00  0.00    -0.200 F 
ENDBRANCH  48  62
BRANCH  49  73
ATOM     73  C   UNL A   1      39.631  33.791  36.671  1.00  0.00     0.064 A 
ATOM     74  C   UNL A   1      40.256  35.043  36.766  1.00  0.00     0.173 A 
ATOM     75  C   UNL A   1      38.845  33.373  37.754  1.00  0.00     0.173 A 
ATOM     76  F   UNL A   1      41.032  35.481  35.764  1.00  0.00    -0.203 F 
ATOM     77  C   UNL A   1      40.123  35.831  37.907  1.00  0.00     0.198 A 
ATOM     78  C   UNL A   1      38.686  34.176  38.882  1.00  0.00     0.198 A 
ATOM     79  F   UNL A   1      38.217  32.188  37.711  1.00  0.00    -0.203 F 
ATOM     80  F   UNL A   1      40.773  37.000  37.991  1.00  0.00    -0.200 F 
ATOM     81  C   UNL A   1      39.333  35.399  38.962  1.00  0.00     0.200 A 
ATOM     82  F   UNL A   1      37.907  33.763  39.891  1.00  0.00    -0.200 F 
ATOM     83  F   UNL A   1      39.201  36.159  40.057  1.00  0.00    -0.200 F 
ENDBRANCH  49  73
BRANCH  61  84
ATOM     84  C   UNL A   1      44.176  28.819  34.887  1.00  0.00     0.064 A 
ATOM     85  C   UNL A   1      44.093  27.705  35.735  1.00  0.00     0.173 A 
ATOM     86  C   UNL A   1      45.440  29.395  34.680  1.00  0.00     0.173 A 
ATOM     87  F   UNL A   1      42.907  27.125  35.975  1.00  0.00    -0.203 F 
ATOM     88  C   UNL A   1      45.223  27.214  36.383  1.00  0.00     0.198 A 
ATOM     89  C   UNL A   1      46.573  28.877  35.300  1.00  0.00     0.198 A 
ATOM     90  F   UNL A   1      45.576  30.455  33.870  1.00  0.00    -0.203 F 
ATOM     91  F   UNL A   1      45.109  26.189  37.240  1.00  0.00    -0.200 F 
ATOM     92  C   UNL A   1      46.462  27.796  36.160  1.00  0.00     0.200 A 
ATOM     93  F   UNL A   1      47.772  29.429  35.069  1.00  0.00    -0.200 F 
ATOM     94  F   UNL A   1      47.550  27.319  36.782  1.00  0.00    -0.200 F 
ENDBRANCH  61  84
ENDBRANCH  35  36
ENDBRANCH  27  30
ENDBRANCH  25  26
ENDBRANCH  24  25
ENDBRANCH   1  24
TORSDOF 15
ENDMDL
MODEL 3
REMARK VINA RESULT:     -12.2      6.506     11.576
REMARK SMILES C[C@@](NC(=O)CSc1ccc(Cl)cc1)(C(=O)NCCCNC(=O)c1ccc(-c2c3nc(c(-c4c(F)c(F)c(F)c(F)c4F)c4ccc([nH]4)c(-c4c(F)c(F)c(F)c(F)c4F)c4nc(c(-c5c(F)c(F)c(F)c(F)c5F)c5ccc2[nH]5)C=C4)C=C3)cc1)C1CC1
REMARK SMILES IDX 18 1 17 2 15 3 16 4 2 6 1 7 3 8 4 9 5 11 6 12 7 13 8 14 9 15
REMARK SMILES IDX 14 16 10 17 13 18 11 19 12 20 87 21 88 22 89 23 19 24 20 25
REMARK SMILES IDX 21 26 22 27 23 29 24 30 25 31 86 32 26 33 85 34 27 35 28 36
REMARK SMILES IDX 29 37 79 38 30 39 84 40 78 41 80 42 31 43 83 44 77 45 76 46
REMARK SMILES IDX 32 48 64 49 44 50 63 51 45 52 48 53 62 54 81 55 46 56 47 57
REMARK SMILES IDX 61 59 82 60 49 61 33 62 34 63 42 64 35 65 36 66 40 67 43 68
REMARK SMILES IDX 37 69 38 70 41 71 39 72 65 73 66 74 74 75 67 76 68 77 72 78
REMARK SMILES IDX 75 79 69 80 70 81 73 82 71 83 50 84 51 85 59 86 52 87 53 88
REMARK SMILES IDX 57 89 60 90 54 91 55 92 58 93 56 94
REMARK H PARENT 17 5 3 10 21 28 80 47 48 58
REMARK Flexibility Score: inf
ROOT
ATOM      1  C   UNL A   1      36.592  20.805  24.803  1.00  0.00     0.117 C 
ENDROOT
BRANCH   1   2
ATOM      2  N   UNL A   1      35.852  21.195  25.976  1.00  0.00    -0.354 N 
ATOM      3  C   UNL A   1      35.160  22.341  26.216  1.00  0.00     0.245 C 
ATOM      4  O   UNL A   1      34.362  22.261  27.156  1.00  0.00    -0.272 OA
ATOM      5  H   UNL A   1      35.847  20.538  26.709  1.00  0.00     0.163 HD
BRANCH   3   6
ATOM      6  C   UNL A   1      35.354  23.639  25.357  1.00  0.00     0.119 C 
ATOM      7  C   UNL A   1      36.874  24.012  25.373  1.00  0.00     0.046 C 
BRANCH   6   8
ATOM      8  N   UNL A   1      34.995  23.473  23.920  1.00  0.00    -0.341 N 
ATOM      9  C   UNL A   1      33.913  23.050  23.214  1.00  0.00     0.231 C 
ATOM     10  H   UNL A   1      35.736  23.737  23.327  1.00  0.00     0.164 HD
ATOM     11  O   UNL A   1      33.902  23.353  22.015  1.00  0.00    -0.274 OA
BRANCH   9  12
ATOM     12  C   UNL A   1      32.783  22.236  23.796  1.00  0.00     0.174 C 
BRANCH  12  13
ATOM     13  S   UNL A   1      32.195  20.818  22.781  1.00  0.00    -0.116 SA
BRANCH  13  14
ATOM     14  C   UNL A   1      32.704  19.280  23.560  1.00  0.00     0.008 A 
ATOM     15  C   UNL A   1      32.953  18.112  22.840  1.00  0.00     0.016 A 
ATOM     16  C   UNL A   1      32.579  19.166  24.955  1.00  0.00     0.016 A 
ATOM     17  C   UNL A   1      33.072  16.876  23.506  1.00  0.00     0.021 A 
ATOM     18  C   UNL A   1      32.705  17.949  25.626  1.00  0.00     0.021 A 
ATOM     19  C   UNL A   1      32.940  16.800  24.892  1.00  0.00     0.041 A 
ATOM     20  Cl  UNL A   1      33.016  15.283  25.702  1.00  0.00    -0.084 Cl
ENDBRANCH  13  14
ENDBRANCH  12  13
ENDBRANCH   9  12
ENDBRANCH   6   8
BRANCH   6  21
ATOM     21  C   UNL A   1      34.678  24.906  25.909  1.00  0.00     0.024 C 
ATOM     22  C   UNL A   1      33.941  25.983  25.149  1.00  0.00     0.007 C 
ATOM     23  C   UNL A   1      33.160  24.987  25.964  1.00  0.00     0.007 C 
ENDBRANCH   6  21
ENDBRANCH   3   6
ENDBRANCH   1   2
BRANCH   1  24
ATOM     24  C   UNL A   1      37.641  19.735  25.059  1.00  0.00     0.042 C 
BRANCH  24  25
ATOM     25  C   UNL A   1      38.985  20.214  25.599  1.00  0.00     0.118 C 
BRANCH  25  26
ATOM     26  N   UNL A   1      40.000  19.185  25.781  1.00  0.00    -0.352 N 
ATOM     27  C   UNL A   1      41.335  19.247  26.124  1.00  0.00     0.251 C 
ATOM     28  H   UNL A   1      39.670  18.270  25.630  1.00  0.00     0.163 HD
ATOM     29  O   UNL A   1      42.015  18.230  26.150  1.00  0.00    -0.269 OA
BRANCH  27  30
ATOM     30  C   UNL A   1      41.978  20.543  26.408  1.00  0.00     0.039 A 
ATOM     31  C   UNL A   1      42.275  21.413  25.353  1.00  0.00     0.014 A 
ATOM     32  C   UNL A   1      42.302  20.901  27.711  1.00  0.00     0.014 A 
ATOM     33  C   UNL A   1      42.810  22.676  25.625  1.00  0.00     0.010 A 
ATOM     34  C   UNL A   1      42.686  22.201  27.993  1.00  0.00     0.010 A 
ATOM     35  C   UNL A   1      42.971  23.096  26.953  1.00  0.00    -0.014 A 
BRANCH  35  36
ATOM     36  C   UNL A   1      43.475  24.444  27.317  1.00  0.00     0.031 A 
ATOM     37  C   UNL A   1      42.515  25.462  27.876  1.00  0.00     0.074 A 
ATOM     38  C   UNL A   1      44.744  24.787  27.026  1.00  0.00     0.049 A 
ATOM     39  N   UNL A   1      42.684  26.744  28.074  1.00  0.00    -0.248 NA
ATOM     40  C   UNL A   1      41.161  24.981  28.204  1.00  0.00     0.031 C 
ATOM     41  C   UNL A   1      45.750  23.905  26.432  1.00  0.00     0.029 A 
ATOM     42  N   UNL A   1      45.398  25.985  27.170  1.00  0.00    -0.354 N 
ATOM     43  C   UNL A   1      41.454  27.222  28.509  1.00  0.00     0.074 A 
ATOM     44  C   UNL A   1      40.530  26.111  28.477  1.00  0.00     0.031 C 
ATOM     45  C   UNL A   1      46.897  24.583  26.281  1.00  0.00     0.029 A 
ATOM     46  C   UNL A   1      46.695  25.960  26.720  1.00  0.00     0.049 A 
ATOM     47  H   UNL A   1      44.977  26.786  27.557  1.00  0.00     0.167 HD
ATOM     48  C   UNL A   1      41.132  28.468  28.928  1.00  0.00     0.037 A 
ATOM     49  C   UNL A   1      47.612  26.944  26.657  1.00  0.00     0.037 A 
ATOM     50  C   UNL A   1      42.073  29.554  28.997  1.00  0.00     0.049 A 
ATOM     51  C   UNL A   1      47.236  28.317  27.146  1.00  0.00     0.074 A 
ATOM     52  C   UNL A   1      41.878  30.838  29.471  1.00  0.00     0.029 A 
ATOM     53  N   UNL A   1      43.396  29.476  28.581  1.00  0.00    -0.354 N 
ATOM     54  N   UNL A   1      46.088  28.746  27.613  1.00  0.00    -0.248 NA
ATOM     55  C   UNL A   1      48.287  29.342  27.105  1.00  0.00     0.031 C 
ATOM     56  C   UNL A   1      43.067  31.553  29.294  1.00  0.00     0.029 A 
ATOM     57  C   UNL A   1      44.023  30.696  28.769  1.00  0.00     0.049 A 
ATOM     58  H   UNL A   1      43.824  28.672  28.208  1.00  0.00     0.167 HD
ATOM     59  C   UNL A   1      46.286  30.076  27.954  1.00  0.00     0.074 A 
ATOM     60  C   UNL A   1      47.672  30.378  27.655  1.00  0.00     0.031 C 
ATOM     61  C   UNL A   1      45.405  30.971  28.469  1.00  0.00     0.037 A 
BRANCH  48  62
ATOM     62  C   UNL A   1      39.711  28.718  29.350  1.00  0.00     0.064 A 
ATOM     63  C   UNL A   1      39.282  28.502  30.669  1.00  0.00     0.173 A 
ATOM     64  C   UNL A   1      38.769  29.205  28.430  1.00  0.00     0.173 A 
ATOM     65  F   UNL A   1      40.135  28.024  31.588  1.00  0.00    -0.203 F 
ATOM     66  C   UNL A   1      37.959  28.728  31.042  1.00  0.00     0.198 A 
ATOM     67  C   UNL A   1      37.456  29.466  28.815  1.00  0.00     0.198 A 
ATOM     68  F   UNL A   1      39.123  29.432  27.156  1.00  0.00    -0.203 F 
ATOM     69  F   UNL A   1      37.560  28.454  32.291  1.00  0.00    -0.200 F 
ATOM     70  C   UNL A   1      37.050  29.218  30.117  1.00  0.00     0.200 A 
ATOM     71  F   UNL A   1      36.583  29.953  27.923  1.00  0.00    -0.200 F 
ATOM     72  F   UNL A   1      35.779  29.443  30.478  1.00  0.00    -0.200 F 
ENDBRANCH  48  62
BRANCH  49  73
ATOM     73  C   UNL A   1      48.979  26.658  26.147  1.00  0.00     0.064 A 
ATOM     74  C   UNL A   1      49.331  26.970  24.825  1.00  0.00     0.173 A 
ATOM     75  C   UNL A   1      49.961  26.073  26.959  1.00  0.00     0.173 A 
ATOM     76  F   UNL A   1      48.422  27.516  24.003  1.00  0.00    -0.203 F 
ATOM     77  C   UNL A   1      50.600  26.684  24.329  1.00  0.00     0.198 A 
ATOM     78  C   UNL A   1      51.241  25.816  26.472  1.00  0.00     0.198 A 
ATOM     79  F   UNL A   1      49.682  25.763  28.234  1.00  0.00    -0.203 F 
ATOM     80  F   UNL A   1      50.891  26.946  23.047  1.00  0.00    -0.200 F 
ATOM     81  C   UNL A   1      51.557  26.113  25.155  1.00  0.00     0.200 A 
ATOM     82  F   UNL A   1      52.168  25.281  27.278  1.00  0.00    -0.200 F 
ATOM     83  F   UNL A   1      52.779  25.841  24.678  1.00  0.00    -0.200 F 
ENDBRANCH  49  73
BRANCH  61  84
ATOM     84  C   UNL A   1      45.929  32.343  28.782  1.00  0.00     0.064 A 
ATOM     85  C   UNL A   1      46.500  32.653  30.024  1.00  0.00     0.173 A 
ATOM     86  C   UNL A   1      45.878  33.356  27.811  1.00  0.00     0.173 A 
ATOM     87  F   UNL A   1      46.562  31.723  30.990  1.00  0.00    -0.203 F 
ATOM     88  C   UNL A   1      46.964  33.937  30.298  1.00  0.00     0.198 A 
ATOM     89  C   UNL A   1      46.378  34.627  28.075  1.00  0.00     0.198 A 
ATOM     90  F   UNL A   1      45.351  33.110  26.603  1.00  0.00    -0.203 F 
ATOM     91  F   UNL A   1      47.447  34.227  31.514  1.00  0.00    -0.200 F 
ATOM     92  C   UNL A   1      46.908  34.920  29.321  1.00  0.00     0.200 A 
ATOM     93  F   UNL A   1      46.339  35.571  27.125  1.00  0.00    -0.200 F 
ATOM     94  F   UNL A   1      47.359  36.155  29.586  1.00  0.00    -0.200 F 
ENDBRANCH  61  84
ENDBRANCH  35  36
ENDBRANCH  27  30
ENDBRANCH  25  26
ENDBRANCH  24  25
ENDBRANCH   1  24
TORSDOF 15
ENDMDL
