MODEL 1
REMARK VINA RESULT:     -12.1      0.000      0.000
REMARK SMILES O=C(CSc1nc2ncccc2[nH]1)NCCCNC(=O)c1ccc(-c2c3nc(c(-c4c(F)c(F)c(F)c(F)c4F)c4ccc([nH]4)c(-c4c(F)c(F)c(F)c(F)c4F)c4nc(c(-c5c(F)c(F)c(F)c(F)c5F)c5ccc2[nH]5)C=C4)C=C3)cc1
REMARK SMILES IDX 16 1 15 2 14 3 1 4 2 5 3 7 4 8 5 9 6 10 13 11 7 12 12 13
REMARK SMILES IDX 8 15 11 16 9 17 10 18 17 19 18 20 19 21 20 23 21 24 22 25
REMARK SMILES IDX 83 26 23 27 82 28 24 29 25 30 26 31 76 32 27 33 81 34 75 35
REMARK SMILES IDX 77 36 28 37 80 38 74 39 73 40 29 42 61 43 41 44 60 45 42 46
REMARK SMILES IDX 45 47 59 48 78 49 43 50 44 51 58 53 79 54 46 55 30 56 31 57
REMARK SMILES IDX 39 58 32 59 33 60 37 61 40 62 34 63 35 64 38 65 36 66 62 67
REMARK SMILES IDX 63 68 71 69 64 70 65 71 69 72 72 73 66 74 67 75 70 76 68 77
REMARK SMILES IDX 47 78 48 79 56 80 49 81 50 82 54 83 57 84 51 85 52 86 55 87
REMARK SMILES IDX 53 88
REMARK H PARENT 14 6 13 14 18 22 77 41 45 52
REMARK Flexibility Score: inf
ROOT
ATOM      1  C   UNL A   1      33.901  30.621  27.571  1.00  0.00     0.042 C 
ENDROOT
BRANCH   1   2
ATOM      2  C   UNL A   1      34.447  29.295  27.038  1.00  0.00     0.117 C 
BRANCH   2   3
ATOM      3  N   UNL A   1      34.167  29.059  25.629  1.00  0.00    -0.355 N 
ATOM      4  O   UNL A   1      33.481  26.890  25.895  1.00  0.00    -0.274 OA
ATOM      5  C   UNL A   1      33.653  27.861  25.164  1.00  0.00     0.230 C 
ATOM      6  H   UNL A   1      34.349  29.778  24.982  1.00  0.00     0.163 HD
BRANCH   5   7
ATOM      7  C   UNL A   1      33.299  27.827  23.686  1.00  0.00     0.178 C 
BRANCH   7   8
ATOM      8  S   UNL A   1      31.771  26.891  23.385  1.00  0.00    -0.078 SA
BRANCH   8   9
ATOM      9  C   UNL A   1      30.623  28.151  23.105  1.00  0.00     0.168 A 
ATOM     10  N   UNL A   1      29.946  28.354  22.001  1.00  0.00    -0.203 NA
ATOM     11  N   UNL A   1      30.443  29.152  24.016  1.00  0.00    -0.332 N 
ATOM     12  C   UNL A   1      29.320  29.558  22.198  1.00  0.00     0.178 A 
ATOM     13  C   UNL A   1      29.621  30.088  23.449  1.00  0.00     0.086 A 
ATOM     14  H   UNL A   1      30.834  29.194  24.918  1.00  0.00     0.169 HD
ATOM     15  N   UNL A   1      28.534  30.193  21.302  1.00  0.00    -0.235 NA
ATOM     16  C   UNL A   1      29.137  31.319  23.877  1.00  0.00     0.032 A 
ATOM     17  C   UNL A   1      28.072  31.393  21.720  1.00  0.00     0.114 A 
ATOM     18  C   UNL A   1      28.334  31.984  22.953  1.00  0.00     0.022 A 
ENDBRANCH   8   9
ENDBRANCH   7   8
ENDBRANCH   5   7
ENDBRANCH   2   3
ENDBRANCH   1   2
BRANCH   1  19
ATOM     19  C   UNL A   1      34.985  31.659  27.809  1.00  0.00     0.118 C 
BRANCH  19  20
ATOM     20  N   UNL A   1      34.873  32.343  29.100  1.00  0.00    -0.352 N 
ATOM     21  C   UNL A   1      35.471  32.014  30.299  1.00  0.00     0.251 C 
ATOM     22  H   UNL A   1      34.296  33.140  29.114  1.00  0.00     0.163 HD
ATOM     23  O   UNL A   1      35.025  32.461  31.360  1.00  0.00    -0.269 OA
BRANCH  21  24
ATOM     24  C   UNL A   1      36.659  31.144  30.312  1.00  0.00     0.039 A 
ATOM     25  C   UNL A   1      36.559  29.752  30.426  1.00  0.00     0.014 A 
ATOM     26  C   UNL A   1      37.912  31.752  30.250  1.00  0.00     0.014 A 
ATOM     27  C   UNL A   1      37.728  28.994  30.454  1.00  0.00     0.010 A 
ATOM     28  C   UNL A   1      39.041  31.006  30.078  1.00  0.00     0.010 A 
ATOM     29  C   UNL A   1      38.961  29.640  30.285  1.00  0.00    -0.014 A 
BRANCH  29  30
ATOM     30  C   UNL A   1      40.216  28.917  30.250  1.00  0.00     0.031 A 
ATOM     31  C   UNL A   1      40.827  28.726  31.583  1.00  0.00     0.074 A 
ATOM     32  C   UNL A   1      40.643  28.270  29.145  1.00  0.00     0.049 A 
ATOM     33  N   UNL A   1      41.894  29.291  32.031  1.00  0.00    -0.248 NA
ATOM     34  C   UNL A   1      40.086  27.954  32.595  1.00  0.00     0.031 C 
ATOM     35  C   UNL A   1      39.960  28.104  27.857  1.00  0.00     0.029 A 
ATOM     36  N   UNL A   1      41.774  27.533  28.976  1.00  0.00    -0.354 N 
ATOM     37  C   UNL A   1      42.081  28.784  33.311  1.00  0.00     0.074 A 
ATOM     38  C   UNL A   1      40.843  28.150  33.677  1.00  0.00     0.031 C 
ATOM     39  C   UNL A   1      40.588  27.153  27.128  1.00  0.00     0.029 A 
ATOM     40  C   UNL A   1      41.795  26.751  27.826  1.00  0.00     0.049 A 
ATOM     41  H   UNL A   1      42.519  27.552  29.619  1.00  0.00     0.167 HD
ATOM     42  C   UNL A   1      43.331  28.705  33.845  1.00  0.00     0.037 A 
ATOM     43  C   UNL A   1      42.730  25.820  27.505  1.00  0.00     0.037 A 
ATOM     44  C   UNL A   1      44.261  29.504  33.082  1.00  0.00     0.049 A 
ATOM     45  C   UNL A   1      43.942  26.128  28.312  1.00  0.00     0.074 A 
ATOM     46  C   UNL A   1      44.340  30.846  32.761  1.00  0.00     0.029 A 
ATOM     47  N   UNL A   1      45.065  28.855  32.175  1.00  0.00    -0.354 N 
ATOM     48  N   UNL A   1      44.664  27.202  28.142  1.00  0.00    -0.248 NA
ATOM     49  C   UNL A   1      44.049  25.504  29.624  1.00  0.00     0.031 C 
ATOM     50  C   UNL A   1      44.776  30.875  31.404  1.00  0.00     0.029 A 
ATOM     51  C   UNL A   1      45.027  29.563  31.000  1.00  0.00     0.049 A 
ATOM     52  H   UNL A   1      45.578  28.030  32.339  1.00  0.00     0.167 HD
ATOM     53  C   UNL A   1      44.958  27.635  29.426  1.00  0.00     0.074 A 
ATOM     54  C   UNL A   1      44.613  26.511  30.296  1.00  0.00     0.031 C 
ATOM     55  C   UNL A   1      45.159  28.958  29.694  1.00  0.00     0.037 A 
BRANCH  42  56
ATOM     56  C   UNL A   1      43.794  27.633  34.797  1.00  0.00     0.064 A 
ATOM     57  C   UNL A   1      43.687  26.283  34.401  1.00  0.00     0.173 A 
ATOM     58  C   UNL A   1      44.060  27.843  36.167  1.00  0.00     0.173 A 
ATOM     59  F   UNL A   1      43.420  25.966  33.126  1.00  0.00    -0.203 F 
ATOM     60  C   UNL A   1      43.757  25.235  35.321  1.00  0.00     0.198 A 
ATOM     61  C   UNL A   1      44.186  26.791  37.073  1.00  0.00     0.198 A 
ATOM     62  F   UNL A   1      44.095  29.063  36.714  1.00  0.00    -0.203 F 
ATOM     63  F   UNL A   1      43.517  23.981  34.918  1.00  0.00    -0.200 F 
ATOM     64  C   UNL A   1      44.001  25.491  36.657  1.00  0.00     0.200 A 
ATOM     65  F   UNL A   1      44.404  27.062  38.367  1.00  0.00    -0.200 F 
ATOM     66  F   UNL A   1      44.009  24.494  37.552  1.00  0.00    -0.200 F 
ENDBRANCH  42  56
BRANCH  43  67
ATOM     67  C   UNL A   1      42.536  24.519  26.814  1.00  0.00     0.064 A 
ATOM     68  C   UNL A   1      43.129  24.256  25.566  1.00  0.00     0.173 A 
ATOM     69  C   UNL A   1      41.997  23.407  27.490  1.00  0.00     0.173 A 
ATOM     70  F   UNL A   1      43.713  25.245  24.876  1.00  0.00    -0.203 F 
ATOM     71  C   UNL A   1      43.196  22.959  25.041  1.00  0.00     0.198 A 
ATOM     72  C   UNL A   1      42.060  22.115  26.964  1.00  0.00     0.198 A 
ATOM     73  F   UNL A   1      41.485  23.535  28.723  1.00  0.00    -0.203 F 
ATOM     74  F   UNL A   1      43.824  22.739  23.876  1.00  0.00    -0.200 F 
ATOM     75  C   UNL A   1      42.671  21.888  25.745  1.00  0.00     0.200 A 
ATOM     76  F   UNL A   1      41.586  21.083  27.677  1.00  0.00    -0.200 F 
ATOM     77  F   UNL A   1      42.790  20.639  25.273  1.00  0.00    -0.200 F 
ENDBRANCH  43  67
BRANCH  55  78
ATOM     78  C   UNL A   1      45.302  29.908  28.533  1.00  0.00     0.064 A 
ATOM     79  C   UNL A   1      44.228  30.596  27.939  1.00  0.00     0.173 A 
ATOM     80  C   UNL A   1      46.594  30.277  28.140  1.00  0.00     0.173 A 
ATOM     81  F   UNL A   1      42.967  30.373  28.322  1.00  0.00    -0.203 F 
ATOM     82  C   UNL A   1      44.444  31.586  26.980  1.00  0.00     0.198 A 
ATOM     83  C   UNL A   1      46.809  31.291  27.210  1.00  0.00     0.198 A 
ATOM     84  F   UNL A   1      47.661  29.693  28.710  1.00  0.00    -0.203 F 
ATOM     85  F   UNL A   1      43.401  32.229  26.432  1.00  0.00    -0.200 F 
ATOM     86  C   UNL A   1      45.734  31.941  26.627  1.00  0.00     0.200 A 
ATOM     87  F   UNL A   1      48.060  31.666  26.912  1.00  0.00    -0.200 F 
ATOM     88  F   UNL A   1      45.943  32.930  25.747  1.00  0.00    -0.200 F 
ENDBRANCH  55  78
ENDBRANCH  29  30
ENDBRANCH  21  24
ENDBRANCH  19  20
ENDBRANCH   1  19
TORSDOF 12
ENDMDL
MODEL 2
REMARK VINA RESULT:     -12.1      5.222     11.171
REMARK SMILES O=C(CSc1nc2ncccc2[nH]1)NCCCNC(=O)c1ccc(-c2c3nc(c(-c4c(F)c(F)c(F)c(F)c4F)c4ccc([nH]4)c(-c4c(F)c(F)c(F)c(F)c4F)c4nc(c(-c5c(F)c(F)c(F)c(F)c5F)c5ccc2[nH]5)C=C4)C=C3)cc1
REMARK SMILES IDX 16 1 15 2 14 3 1 4 2 5 3 7 4 8 5 9 6 10 13 11 7 12 12 13
REMARK SMILES IDX 8 15 11 16 9 17 10 18 17 19 18 20 19 21 20 23 21 24 22 25
REMARK SMILES IDX 83 26 23 27 82 28 24 29 25 30 26 31 76 32 27 33 81 34 75 35
REMARK SMILES IDX 77 36 28 37 80 38 74 39 73 40 29 42 61 43 41 44 60 45 42 46
REMARK SMILES IDX 45 47 59 48 78 49 43 50 44 51 58 53 79 54 46 55 30 56 31 57
REMARK SMILES IDX 39 58 32 59 33 60 37 61 40 62 34 63 35 64 38 65 36 66 62 67
REMARK SMILES IDX 63 68 71 69 64 70 65 71 69 72 72 73 66 74 67 75 70 76 68 77
REMARK SMILES IDX 47 78 48 79 56 80 49 81 50 82 54 83 57 84 51 85 52 86 55 87
REMARK SMILES IDX 53 88
REMARK H PARENT 14 6 13 14 18 22 77 41 45 52
REMARK Flexibility Score: inf
ROOT
ATOM      1  C   UNL A   1      43.987  21.691  25.343  1.00  0.00     0.042 C 
ENDROOT
BRANCH   1   2
ATOM      2  C   UNL A   1      45.053  22.025  24.297  1.00  0.00     0.117 C 
BRANCH   2   3
ATOM      3  N   UNL A   1      45.441  23.429  24.269  1.00  0.00    -0.355 N 
ATOM      4  O   UNL A   1      46.818  23.319  26.096  1.00  0.00    -0.274 OA
ATOM      5  C   UNL A   1      46.348  23.967  25.165  1.00  0.00     0.230 C 
ATOM      6  H   UNL A   1      45.043  24.017  23.587  1.00  0.00     0.163 HD
BRANCH   5   7
ATOM      7  C   UNL A   1      46.738  25.415  24.916  1.00  0.00     0.178 C 
BRANCH   7   8
ATOM      8  S   UNL A   1      45.456  26.563  25.500  1.00  0.00    -0.078 SA
BRANCH   8   9
ATOM      9  C   UNL A   1      45.655  26.486  27.215  1.00  0.00     0.168 A 
ATOM     10  N   UNL A   1      46.791  26.523  27.868  1.00  0.00    -0.203 NA
ATOM     11  N   UNL A   1      44.594  26.227  28.034  1.00  0.00    -0.332 N 
ATOM     12  C   UNL A   1      46.450  26.247  29.167  1.00  0.00     0.178 A 
ATOM     13  C   UNL A   1      45.080  26.047  29.300  1.00  0.00     0.086 A 
ATOM     14  H   UNL A   1      43.649  26.179  27.763  1.00  0.00     0.169 HD
ATOM     15  N   UNL A   1      47.312  26.142  30.202  1.00  0.00    -0.235 NA
ATOM     16  C   UNL A   1      44.486  25.719  30.514  1.00  0.00     0.032 A 
ATOM     17  C   UNL A   1      46.731  25.814  31.378  1.00  0.00     0.114 A 
ATOM     18  C   UNL A   1      45.371  25.598  31.584  1.00  0.00     0.022 A 
ENDBRANCH   8   9
ENDBRANCH   7   8
ENDBRANCH   5   7
ENDBRANCH   2   3
ENDBRANCH   1   2
BRANCH   1  19
ATOM     19  C   UNL A   1      42.837  22.684  25.358  1.00  0.00     0.118 C 
BRANCH  19  20
ATOM     20  N   UNL A   1      41.545  22.084  25.702  1.00  0.00    -0.352 N 
ATOM     21  C   UNL A   1      40.617  22.519  26.626  1.00  0.00     0.251 C 
ATOM     22  H   UNL A   1      41.309  21.265  25.212  1.00  0.00     0.163 HD
ATOM     23  O   UNL A   1      39.754  21.746  27.053  1.00  0.00    -0.269 OA
BRANCH  21  24
ATOM     24  C   UNL A   1      40.641  23.917  27.089  1.00  0.00     0.039 A 
ATOM     25  C   UNL A   1      39.943  24.932  26.423  1.00  0.00     0.014 A 
ATOM     26  C   UNL A   1      41.423  24.220  28.202  1.00  0.00     0.014 A 
ATOM     27  C   UNL A   1      40.029  26.236  26.907  1.00  0.00     0.010 A 
ATOM     28  C   UNL A   1      41.351  25.449  28.791  1.00  0.00     0.010 A 
ATOM     29  C   UNL A   1      40.745  26.476  28.089  1.00  0.00    -0.014 A 
BRANCH  29  30
ATOM     30  C   UNL A   1      40.838  27.793  28.684  1.00  0.00     0.031 A 
ATOM     31  C   UNL A   1      41.952  28.607  28.151  1.00  0.00     0.074 A 
ATOM     32  C   UNL A   1      39.855  28.307  29.454  1.00  0.00     0.049 A 
ATOM     33  N   UNL A   1      43.029  28.944  28.774  1.00  0.00    -0.248 NA
ATOM     34  C   UNL A   1      41.958  28.944  26.718  1.00  0.00     0.031 C 
ATOM     35  C   UNL A   1      38.546  27.727  29.779  1.00  0.00     0.029 A 
ATOM     36  N   UNL A   1      39.792  29.528  30.049  1.00  0.00    -0.354 N 
ATOM     37  C   UNL A   1      43.757  29.718  27.880  1.00  0.00     0.074 A 
ATOM     38  C   UNL A   1      43.163  29.502  26.587  1.00  0.00     0.031 C 
ATOM     39  C   UNL A   1      37.752  28.675  30.327  1.00  0.00     0.029 A 
ATOM     40  C   UNL A   1      38.535  29.880  30.528  1.00  0.00     0.049 A 
ATOM     41  H   UNL A   1      40.576  30.118  30.132  1.00  0.00     0.167 HD
ATOM     42  C   UNL A   1      44.615  30.671  28.334  1.00  0.00     0.037 A 
ATOM     43  C   UNL A   1      38.174  31.094  31.021  1.00  0.00     0.037 A 
ATOM     44  C   UNL A   1      44.884  30.485  29.741  1.00  0.00     0.049 A 
ATOM     45  C   UNL A   1      39.429  31.792  31.413  1.00  0.00     0.074 A 
ATOM     46  C   UNL A   1      45.422  29.456  30.491  1.00  0.00     0.029 A 
ATOM     47  N   UNL A   1      44.198  31.278  30.632  1.00  0.00    -0.354 N 
ATOM     48  N   UNL A   1      40.194  31.398  32.395  1.00  0.00    -0.248 NA
ATOM     49  C   UNL A   1      40.083  32.611  30.402  1.00  0.00     0.031 C 
ATOM     50  C   UNL A   1      44.631  29.413  31.676  1.00  0.00     0.029 A 
ATOM     51  C   UNL A   1      43.719  30.467  31.629  1.00  0.00     0.049 A 
ATOM     52  H   UNL A   1      44.075  32.252  30.566  1.00  0.00     0.167 HD
ATOM     53  C   UNL A   1      41.486  31.533  31.910  1.00  0.00     0.074 A 
ATOM     54  C   UNL A   1      41.357  32.351  30.705  1.00  0.00     0.031 C 
ATOM     55  C   UNL A   1      42.492  30.721  32.350  1.00  0.00     0.037 A 
BRANCH  42  56
ATOM     56  C   UNL A   1      44.907  31.972  27.631  1.00  0.00     0.064 A 
ATOM     57  C   UNL A   1      46.136  32.115  26.954  1.00  0.00     0.173 A 
ATOM     58  C   UNL A   1      44.182  33.167  27.830  1.00  0.00     0.173 A 
ATOM     59  F   UNL A   1      46.916  31.049  26.724  1.00  0.00    -0.203 F 
ATOM     60  C   UNL A   1      46.635  33.366  26.584  1.00  0.00     0.198 A 
ATOM     61  C   UNL A   1      44.657  34.407  27.407  1.00  0.00     0.198 A 
ATOM     62  F   UNL A   1      43.048  33.210  28.537  1.00  0.00    -0.203 F 
ATOM     63  F   UNL A   1      47.865  33.462  26.064  1.00  0.00    -0.200 F 
ATOM     64  C   UNL A   1      45.897  34.511  26.816  1.00  0.00     0.200 A 
ATOM     65  F   UNL A   1      43.934  35.508  27.659  1.00  0.00    -0.200 F 
ATOM     66  F   UNL A   1      46.397  35.717  26.517  1.00  0.00    -0.200 F 
ENDBRANCH  42  56
BRANCH  43  67
ATOM     67  C   UNL A   1      36.877  31.801  30.870  1.00  0.00     0.064 A 
ATOM     68  C   UNL A   1      35.990  31.947  31.953  1.00  0.00     0.173 A 
ATOM     69  C   UNL A   1      36.604  32.591  29.736  1.00  0.00     0.173 A 
ATOM     70  F   UNL A   1      36.202  31.274  33.092  1.00  0.00    -0.203 F 
ATOM     71  C   UNL A   1      34.915  32.843  31.909  1.00  0.00     0.198 A 
ATOM     72  C   UNL A   1      35.529  33.480  29.691  1.00  0.00     0.198 A 
ATOM     73  F   UNL A   1      37.434  32.591  28.683  1.00  0.00    -0.203 F 
ATOM     74  F   UNL A   1      34.127  32.999  32.984  1.00  0.00    -0.200 F 
ATOM     75  C   UNL A   1      34.690  33.615  30.782  1.00  0.00     0.200 A 
ATOM     76  F   UNL A   1      35.350  34.253  28.610  1.00  0.00    -0.200 F 
ATOM     77  F   UNL A   1      33.699  34.518  30.762  1.00  0.00    -0.200 F 
ENDBRANCH  43  67
BRANCH  55  78
ATOM     78  C   UNL A   1      42.230  29.845  33.547  1.00  0.00     0.064 A 
ATOM     79  C   UNL A   1      41.765  28.519  33.470  1.00  0.00     0.173 A 
ATOM     80  C   UNL A   1      42.650  30.304  34.802  1.00  0.00     0.173 A 
ATOM     81  F   UNL A   1      41.432  27.971  32.297  1.00  0.00    -0.203 F 
ATOM     82  C   UNL A   1      41.702  27.707  34.601  1.00  0.00     0.198 A 
ATOM     83  C   UNL A   1      42.621  29.478  35.923  1.00  0.00     0.198 A 
ATOM     84  F   UNL A   1      43.153  31.542  34.930  1.00  0.00    -0.203 F 
ATOM     85  F   UNL A   1      41.258  26.444  34.497  1.00  0.00    -0.200 F 
ATOM     86  C   UNL A   1      42.142  28.182  35.823  1.00  0.00     0.200 A 
ATOM     87  F   UNL A   1      43.097  29.928  37.092  1.00  0.00    -0.200 F 
ATOM     88  F   UNL A   1      42.134  27.384  36.900  1.00  0.00    -0.200 F 
ENDBRANCH  55  78
ENDBRANCH  29  30
ENDBRANCH  21  24
ENDBRANCH  19  20
ENDBRANCH   1  19
TORSDOF 12
ENDMDL
MODEL 3
REMARK VINA RESULT:     -12.1      4.596      9.711
REMARK SMILES O=C(CSc1nc2ncccc2[nH]1)NCCCNC(=O)c1ccc(-c2c3nc(c(-c4c(F)c(F)c(F)c(F)c4F)c4ccc([nH]4)c(-c4c(F)c(F)c(F)c(F)c4F)c4nc(c(-c5c(F)c(F)c(F)c(F)c5F)c5ccc2[nH]5)C=C4)C=C3)cc1
REMARK SMILES IDX 16 1 15 2 14 3 1 4 2 5 3 7 4 8 5 9 6 10 13 11 7 12 12 13
REMARK SMILES IDX 8 15 11 16 9 17 10 18 17 19 18 20 19 21 20 23 21 24 22 25
REMARK SMILES IDX 83 26 23 27 82 28 24 29 25 30 26 31 76 32 27 33 81 34 75 35
REMARK SMILES IDX 77 36 28 37 80 38 74 39 73 40 29 42 61 43 41 44 60 45 42 46
REMARK SMILES IDX 45 47 59 48 78 49 43 50 44 51 58 53 79 54 46 55 30 56 31 57
REMARK SMILES IDX 39 58 32 59 33 60 37 61 40 62 34 63 35 64 38 65 36 66 62 67
REMARK SMILES IDX 63 68 71 69 64 70 65 71 69 72 72 73 66 74 67 75 70 76 68 77
REMARK SMILES IDX 47 78 48 79 56 80 49 81 50 82 54 83 57 84 51 85 52 86 55 87
REMARK SMILES IDX 53 88
REMARK H PARENT 14 6 13 14 18 22 77 41 45 52
REMARK Flexibility Score: inf
ROOT
ATOM      1  C   UNL A   1      37.992  22.308  25.351  1.00  0.00     0.042 C 
ENDROOT
BRANCH   1   2
ATOM      2  C   UNL A   1      37.325  23.627  24.953  1.00  0.00     0.117 C 
BRANCH   2   3
ATOM      3  N   UNL A   1      35.872  23.562  24.880  1.00  0.00    -0.355 N 
ATOM      4  O   UNL A   1      35.776  23.182  22.623  1.00  0.00    -0.274 OA
ATOM      5  C   UNL A   1      35.199  23.295  23.701  1.00  0.00     0.230 C 
ATOM      6  H   UNL A   1      35.349  23.713  25.700  1.00  0.00     0.163 HD
BRANCH   5   7
ATOM      7  C   UNL A   1      33.692  23.136  23.827  1.00  0.00     0.178 C 
BRANCH   7   8
ATOM      8  S   UNL A   1      33.228  22.396  25.420  1.00  0.00    -0.078 SA
BRANCH   8   9
ATOM      9  C   UNL A   1      33.218  20.709  25.048  1.00  0.00     0.168 A 
ATOM     10  N   UNL A   1      32.213  19.884  25.209  1.00  0.00    -0.203 NA
ATOM     11  N   UNL A   1      34.363  20.066  24.674  1.00  0.00    -0.332 N 
ATOM     12  C   UNL A   1      32.741  18.644  24.953  1.00  0.00     0.178 A 
ATOM     13  C   UNL A   1      34.090  18.726  24.624  1.00  0.00     0.086 A 
ATOM     14  H   UNL A   1      35.229  20.489  24.475  1.00  0.00     0.169 HD
ATOM     15  N   UNL A   1      32.074  17.472  25.034  1.00  0.00    -0.235 NA
ATOM     16  C   UNL A   1      34.864  17.603  24.355  1.00  0.00     0.032 A 
ATOM     17  C   UNL A   1      32.833  16.383  24.778  1.00  0.00     0.114 A 
ATOM     18  C   UNL A   1      34.185  16.389  24.447  1.00  0.00     0.022 A 
ENDBRANCH   8   9
ENDBRANCH   7   8
ENDBRANCH   5   7
ENDBRANCH   2   3
ENDBRANCH   1   2
BRANCH   1  19
ATOM     19  C   UNL A   1      38.876  22.436  26.580  1.00  0.00     0.118 C 
BRANCH  19  20
ATOM     20  N   UNL A   1      40.277  22.083  26.337  1.00  0.00    -0.352 N 
ATOM     21  C   UNL A   1      41.366  22.924  26.230  1.00  0.00     0.251 C 
ATOM     22  H   UNL A   1      40.467  21.123  26.238  1.00  0.00     0.163 HD
ATOM     23  O   UNL A   1      42.405  22.530  25.691  1.00  0.00    -0.269 OA
BRANCH  21  24
ATOM     24  C   UNL A   1      41.298  24.288  26.779  1.00  0.00     0.039 A 
ATOM     25  C   UNL A   1      40.565  25.305  26.153  1.00  0.00     0.014 A 
ATOM     26  C   UNL A   1      42.026  24.562  27.935  1.00  0.00     0.014 A 
ATOM     27  C   UNL A   1      40.563  26.578  26.719  1.00  0.00     0.010 A 
ATOM     28  C   UNL A   1      41.868  25.746  28.596  1.00  0.00     0.010 A 
ATOM     29  C   UNL A   1      41.227  26.781  27.938  1.00  0.00    -0.014 A 
BRANCH  29  30
ATOM     30  C   UNL A   1      41.228  28.061  28.616  1.00  0.00     0.031 A 
ATOM     31  C   UNL A   1      42.352  28.938  28.224  1.00  0.00     0.074 A 
ATOM     32  C   UNL A   1      40.170  28.497  29.333  1.00  0.00     0.049 A 
ATOM     33  N   UNL A   1      43.364  29.267  28.951  1.00  0.00    -0.248 NA
ATOM     34  C   UNL A   1      42.459  29.363  26.819  1.00  0.00     0.031 C 
ATOM     35  C   UNL A   1      38.860  27.860  29.516  1.00  0.00     0.029 A 
ATOM     36  N   UNL A   1      40.019  29.677  29.992  1.00  0.00    -0.354 N 
ATOM     37  C   UNL A   1      44.133  30.117  28.166  1.00  0.00     0.074 A 
ATOM     38  C   UNL A   1      43.651  29.964  26.819  1.00  0.00     0.031 C 
ATOM     39  C   UNL A   1      37.993  28.749  30.053  1.00  0.00     0.029 A 
ATOM     40  C   UNL A   1      38.716  29.961  30.389  1.00  0.00     0.049 A 
ATOM     41  H   UNL A   1      40.773  30.283  30.173  1.00  0.00     0.167 HD
ATOM     42  C   UNL A   1      44.920  31.065  28.744  1.00  0.00     0.037 A 
ATOM     43  C   UNL A   1      38.276  31.131  30.922  1.00  0.00     0.037 A 
ATOM     44  C   UNL A   1      45.083  30.800  30.155  1.00  0.00     0.049 A 
ATOM     45  C   UNL A   1      39.472  31.840  31.455  1.00  0.00     0.074 A 
ATOM     46  C   UNL A   1      45.595  29.743  30.883  1.00  0.00     0.029 A 
ATOM     47  N   UNL A   1      44.302  31.515  31.033  1.00  0.00    -0.354 N 
ATOM     48  N   UNL A   1      40.169  31.408  32.470  1.00  0.00    -0.248 NA
ATOM     49  C   UNL A   1      40.174  32.739  30.550  1.00  0.00     0.031 C 
ATOM     50  C   UNL A   1      44.715  29.603  31.996  1.00  0.00     0.029 A 
ATOM     51  C   UNL A   1      43.774  30.631  31.938  1.00  0.00     0.049 A 
ATOM     52  H   UNL A   1      44.151  32.488  31.015  1.00  0.00     0.167 HD
ATOM     53  C   UNL A   1      41.491  31.611  32.100  1.00  0.00     0.074 A 
ATOM     54  C   UNL A   1      41.430  32.498  30.939  1.00  0.00     0.031 C 
ATOM     55  C   UNL A   1      42.486  30.804  32.571  1.00  0.00     0.037 A 
BRANCH  42  56
ATOM     56  C   UNL A   1      45.222  32.415  28.146  1.00  0.00     0.064 A 
ATOM     57  C   UNL A   1      44.165  33.333  27.979  1.00  0.00     0.173 A 
ATOM     58  C   UNL A   1      46.418  32.739  27.471  1.00  0.00     0.173 A 
ATOM     59  F   UNL A   1      42.975  33.119  28.560  1.00  0.00    -0.203 F 
ATOM     60  C   UNL A   1      44.274  34.440  27.134  1.00  0.00     0.198 A 
ATOM     61  C   UNL A   1      46.542  33.876  26.675  1.00  0.00     0.198 A 
ATOM     62  F   UNL A   1      47.477  31.923  27.453  1.00  0.00    -0.203 F 
ATOM     63  F   UNL A   1      43.201  35.208  26.905  1.00  0.00    -0.200 F 
ATOM     64  C   UNL A   1      45.461  34.707  26.479  1.00  0.00     0.200 A 
ATOM     65  F   UNL A   1      47.696  34.107  26.034  1.00  0.00    -0.200 F 
ATOM     66  F   UNL A   1      45.552  35.734  25.623  1.00  0.00    -0.200 F 
ENDBRANCH  42  56
BRANCH  43  67
ATOM     67  C   UNL A   1      36.971  31.808  30.709  1.00  0.00     0.064 A 
ATOM     68  C   UNL A   1      36.012  31.892  31.735  1.00  0.00     0.173 A 
ATOM     69  C   UNL A   1      36.750  32.629  29.586  1.00  0.00     0.173 A 
ATOM     70  F   UNL A   1      36.169  31.185  32.863  1.00  0.00    -0.203 F 
ATOM     71  C   UNL A   1      34.916  32.759  31.649  1.00  0.00     0.198 A 
ATOM     72  C   UNL A   1      35.655  33.490  29.499  1.00  0.00     0.198 A 
ATOM     73  F   UNL A   1      37.647  32.687  28.590  1.00  0.00    -0.203 F 
ATOM     74  F   UNL A   1      34.056  32.856  32.674  1.00  0.00    -0.200 F 
ATOM     75  C   UNL A   1      34.743  33.564  30.535  1.00  0.00     0.200 A 
ATOM     76  F   UNL A   1      35.524  34.294  28.434  1.00  0.00    -0.200 F 
ATOM     77  F   UNL A   1      33.729  34.440  30.479  1.00  0.00    -0.200 F 
ENDBRANCH  43  67
BRANCH  55  78
ATOM     78  C   UNL A   1      42.160  29.848  33.689  1.00  0.00     0.064 A 
ATOM     79  C   UNL A   1      41.716  28.527  33.495  1.00  0.00     0.173 A 
ATOM     80  C   UNL A   1      42.496  30.224  34.995  1.00  0.00     0.173 A 
ATOM     81  F   UNL A   1      41.463  28.055  32.270  1.00  0.00    -0.203 F 
ATOM     82  C   UNL A   1      41.592  27.640  34.564  1.00  0.00     0.198 A 
ATOM     83  C   UNL A   1      42.408  29.326  36.056  1.00  0.00     0.198 A 
ATOM     84  F   UNL A   1      42.976  31.455  35.236  1.00  0.00    -0.203 F 
ATOM     85  F   UNL A   1      41.170  26.384  34.349  1.00  0.00    -0.200 F 
ATOM     86  C   UNL A   1      41.951  28.036  35.840  1.00  0.00     0.200 A 
ATOM     87  F   UNL A   1      42.805  29.700  37.279  1.00  0.00    -0.200 F 
ATOM     88  F   UNL A   1      41.885  27.167  36.859  1.00  0.00    -0.200 F 
ENDBRANCH  55  78
ENDBRANCH  29  30
ENDBRANCH  21  24
ENDBRANCH  19  20
ENDBRANCH   1  19
TORSDOF 12
ENDMDL
