MODEL 1
REMARK VINA RESULT:     -10.9      0.000      0.000
REMARK SMILES O=C(NCCCNC(=O)[C@@H](CCCCO)c1cccc(Cl)c1)c1ccc(-c2c3nc(c(-c4c(F)c(F)c(F)c(F)c4F)c4ccc([nH]4)c(-c4c(F)c(F)c(F)c(F)c4F)c4nc(c(-c5c(F)c(F)c(F)c(F)c5F)c5ccc2[nH]5)C=C4)C=C3)cc1
REMARK SMILES IDX 7 1 8 2 9 3 6 5 5 6 4 7 3 8 1 9 2 10 23 12 24 13 85 14 25 15
REMARK SMILES IDX 84 16 26 17 27 18 28 19 78 20 29 21 83 22 77 23 79 24 30 25
REMARK SMILES IDX 82 26 76 27 75 28 31 30 63 31 43 32 62 33 44 34 47 35 61 36
REMARK SMILES IDX 80 37 45 38 46 39 60 41 81 42 48 43 32 44 33 45 41 46 34 47
REMARK SMILES IDX 35 48 39 49 42 50 36 51 37 52 40 53 38 54 64 55 65 56 73 57
REMARK SMILES IDX 66 58 67 59 71 60 74 61 68 62 69 63 72 64 70 65 49 66 50 67
REMARK SMILES IDX 58 68 51 69 52 70 56 71 59 72 53 73 54 74 57 75 55 76 10 77
REMARK SMILES IDX 11 78 12 79 13 80 14 81 15 82 16 84 17 85 22 86 18 87 20 88
REMARK SMILES IDX 19 89 21 90
REMARK H PARENT 7 4 3 11 79 29 47 40 15 83
REMARK Flexibility Score: inf
ROOT
ATOM      1  N   UNL A   1      33.631  26.292  24.494  1.00  0.00    -0.356 N 
ATOM      2  C   UNL A   1      33.856  25.078  23.932  1.00  0.00     0.227 C 
ATOM      3  O   UNL A   1      34.000  25.083  22.703  1.00  0.00    -0.274 OA
ATOM      4  H   UNL A   1      33.712  27.047  23.869  1.00  0.00     0.163 HD
ENDROOT
BRANCH   1   5
ATOM      5  C   UNL A   1      33.291  26.675  25.848  1.00  0.00     0.117 C 
BRANCH   5   6
ATOM      6  C   UNL A   1      32.506  27.969  25.905  1.00  0.00     0.042 C 
BRANCH   6   7
ATOM      7  C   UNL A   1      33.315  29.146  25.391  1.00  0.00     0.118 C 
BRANCH   7   8
ATOM      8  N   UNL A   1      32.832  30.421  25.914  1.00  0.00    -0.352 N 
ATOM      9  O   UNL A   1      32.571  32.111  27.379  1.00  0.00    -0.269 OA
ATOM     10  C   UNL A   1      33.267  31.184  26.970  1.00  0.00     0.251 C 
ATOM     11  H   UNL A   1      32.064  30.797  25.426  1.00  0.00     0.163 HD
BRANCH  10  12
ATOM     12  C   UNL A   1      34.554  30.883  27.633  1.00  0.00     0.039 A 
ATOM     13  C   UNL A   1      34.824  29.602  28.102  1.00  0.00     0.014 A 
ATOM     14  C   UNL A   1      35.518  31.887  27.777  1.00  0.00     0.014 A 
ATOM     15  C   UNL A   1      35.922  29.378  28.915  1.00  0.00     0.010 A 
ATOM     16  C   UNL A   1      36.709  31.615  28.460  1.00  0.00     0.010 A 
ATOM     17  C   UNL A   1      36.901  30.370  29.076  1.00  0.00    -0.014 A 
BRANCH  17  18
ATOM     18  C   UNL A   1      38.129  30.038  29.841  1.00  0.00     0.031 A 
ATOM     19  C   UNL A   1      38.315  30.496  31.260  1.00  0.00     0.074 A 
ATOM     20  C   UNL A   1      39.062  29.262  29.252  1.00  0.00     0.049 A 
ATOM     21  N   UNL A   1      39.317  30.274  32.074  1.00  0.00    -0.248 NA
ATOM     22  C   UNL A   1      37.247  31.324  31.841  1.00  0.00     0.031 C 
ATOM     23  C   UNL A   1      38.992  28.760  27.876  1.00  0.00     0.029 A 
ATOM     24  N   UNL A   1      40.228  28.729  29.735  1.00  0.00    -0.354 N 
ATOM     25  C   UNL A   1      39.022  30.965  33.242  1.00  0.00     0.074 A 
ATOM     26  C   UNL A   1      37.754  31.629  33.028  1.00  0.00     0.031 C 
ATOM     27  C   UNL A   1      40.017  27.928  27.654  1.00  0.00     0.029 A 
ATOM     28  C   UNL A   1      40.871  27.913  28.834  1.00  0.00     0.049 A 
ATOM     29  H   UNL A   1      40.573  28.911  30.639  1.00  0.00     0.167 HD
ATOM     30  C   UNL A   1      39.743  31.032  34.388  1.00  0.00     0.037 A 
ATOM     31  C   UNL A   1      42.031  27.240  28.937  1.00  0.00     0.037 A 
ATOM     32  C   UNL A   1      40.990  30.340  34.599  1.00  0.00     0.049 A 
ATOM     33  C   UNL A   1      42.814  27.346  30.211  1.00  0.00     0.074 A 
ATOM     34  C   UNL A   1      41.780  30.311  35.734  1.00  0.00     0.029 A 
ATOM     35  N   UNL A   1      41.630  29.555  33.648  1.00  0.00    -0.354 N 
ATOM     36  N   UNL A   1      42.514  27.988  31.315  1.00  0.00    -0.248 NA
ATOM     37  C   UNL A   1      44.100  26.643  30.252  1.00  0.00     0.031 C 
ATOM     38  C   UNL A   1      42.924  29.555  35.454  1.00  0.00     0.029 A 
ATOM     39  C   UNL A   1      42.817  29.058  34.164  1.00  0.00     0.049 A 
ATOM     40  H   UNL A   1      41.290  29.378  32.741  1.00  0.00     0.167 HD
ATOM     41  C   UNL A   1      43.559  27.743  32.192  1.00  0.00     0.074 A 
ATOM     42  C   UNL A   1      44.492  26.881  31.495  1.00  0.00     0.031 C 
ATOM     43  C   UNL A   1      43.729  28.191  33.460  1.00  0.00     0.037 A 
BRANCH  30  44
ATOM     44  C   UNL A   1      39.224  31.915  35.490  1.00  0.00     0.064 A 
ATOM     45  C   UNL A   1      38.411  31.421  36.521  1.00  0.00     0.173 A 
ATOM     46  C   UNL A   1      39.568  33.276  35.524  1.00  0.00     0.173 A 
ATOM     47  F   UNL A   1      38.041  30.132  36.533  1.00  0.00    -0.203 F 
ATOM     48  C   UNL A   1      37.935  32.263  37.526  1.00  0.00     0.198 A 
ATOM     49  C   UNL A   1      39.119  34.107  36.548  1.00  0.00     0.198 A 
ATOM     50  F   UNL A   1      40.349  33.800  34.568  1.00  0.00    -0.203 F 
ATOM     51  F   UNL A   1      37.115  31.780  38.470  1.00  0.00    -0.200 F 
ATOM     52  C   UNL A   1      38.294  33.603  37.541  1.00  0.00     0.200 A 
ATOM     53  F   UNL A   1      39.480  35.397  36.568  1.00  0.00    -0.200 F 
ATOM     54  F   UNL A   1      37.840  34.409  38.510  1.00  0.00    -0.200 F 
ENDBRANCH  30  44
BRANCH  31  55
ATOM     55  C   UNL A   1      42.510  26.414  27.799  1.00  0.00     0.064 A 
ATOM     56  C   UNL A   1      43.339  26.963  26.811  1.00  0.00     0.173 A 
ATOM     57  C   UNL A   1      42.171  25.057  27.686  1.00  0.00     0.173 A 
ATOM     58  F   UNL A   1      43.679  28.259  26.867  1.00  0.00    -0.203 F 
ATOM     59  C   UNL A   1      43.796  26.191  25.745  1.00  0.00     0.198 A 
ATOM     60  C   UNL A   1      42.657  24.278  26.639  1.00  0.00     0.198 A 
ATOM     61  F   UNL A   1      41.389  24.482  28.611  1.00  0.00    -0.203 F 
ATOM     62  F   UNL A   1      44.553  26.751  24.791  1.00  0.00    -0.200 F 
ATOM     63  C   UNL A   1      43.461  24.847  25.665  1.00  0.00     0.200 A 
ATOM     64  F   UNL A   1      42.348  22.975  26.579  1.00  0.00    -0.200 F 
ATOM     65  F   UNL A   1      43.911  24.103  24.646  1.00  0.00    -0.200 F 
ENDBRANCH  31  55
BRANCH  43  66
ATOM     66  C   UNL A   1      44.946  27.707  34.192  1.00  0.00     0.064 A 
ATOM     67  C   UNL A   1      44.942  26.516  34.934  1.00  0.00     0.173 A 
ATOM     68  C   UNL A   1      46.139  28.444  34.139  1.00  0.00     0.173 A 
ATOM     69  F   UNL A   1      43.821  25.786  35.032  1.00  0.00    -0.203 F 
ATOM     70  C   UNL A   1      46.076  26.101  35.626  1.00  0.00     0.198 A 
ATOM     71  C   UNL A   1      47.281  28.007  34.803  1.00  0.00     0.198 A 
ATOM     72  F   UNL A   1      46.198  29.587  33.440  1.00  0.00    -0.203 F 
ATOM     73  F   UNL A   1      46.031  24.994  36.379  1.00  0.00    -0.200 F 
ATOM     74  C   UNL A   1      47.246  26.843  35.555  1.00  0.00     0.200 A 
ATOM     75  F   UNL A   1      48.414  28.718  34.722  1.00  0.00    -0.200 F 
ATOM     76  F   UNL A   1      48.337  26.440  36.220  1.00  0.00    -0.200 F 
ENDBRANCH  43  66
ENDBRANCH  17  18
ENDBRANCH  10  12
ENDBRANCH   7   8
ENDBRANCH   6   7
ENDBRANCH   5   6
ENDBRANCH   1   5
BRANCH   2  77
ATOM     77  C   UNL A   1      33.998  23.761  24.711  1.00  0.00     0.108 C 
BRANCH  77  78
ATOM     78  C   UNL A   1      32.815  22.768  24.530  1.00  0.00     0.018 C 
BRANCH  78  79
ATOM     79  C   UNL A   1      31.365  23.192  24.799  1.00  0.00     0.004 C 
BRANCH  79  80
ATOM     80  C   UNL A   1      31.037  23.835  26.152  1.00  0.00     0.028 C 
BRANCH  80  81
ATOM     81  C   UNL A   1      30.154  22.995  27.060  1.00  0.00     0.156 C 
BRANCH  81  82
ATOM     82  O   UNL A   1      29.567  21.928  26.329  1.00  0.00    -0.396 OA
ATOM     83  H   UNL A   1      30.185  21.181  26.294  1.00  0.00     0.210 HD
ENDBRANCH  81  82
ENDBRANCH  80  81
ENDBRANCH  79  80
ENDBRANCH  78  79
ENDBRANCH  77  78
BRANCH  77  84
ATOM     84  C   UNL A   1      35.377  23.129  24.865  1.00  0.00    -0.034 A 
ATOM     85  C   UNL A   1      35.744  21.875  24.361  1.00  0.00     0.004 A 
ATOM     86  C   UNL A   1      36.358  23.852  25.572  1.00  0.00     0.025 A 
ATOM     87  C   UNL A   1      36.981  21.301  24.675  1.00  0.00     0.002 A 
ATOM     88  C   UNL A   1      37.610  23.299  25.844  1.00  0.00     0.041 A 
ATOM     89  C   UNL A   1      37.912  22.010  25.428  1.00  0.00     0.020 A 
ATOM     90  Cl  UNL A   1      38.776  24.218  26.711  1.00  0.00    -0.084 Cl
ENDBRANCH  77  84
ENDBRANCH   2  77
TORSDOF 16
ENDMDL
MODEL 2
REMARK VINA RESULT:     -10.8      4.817     10.029
REMARK SMILES O=C(NCCCNC(=O)[C@@H](CCCCO)c1cccc(Cl)c1)c1ccc(-c2c3nc(c(-c4c(F)c(F)c(F)c(F)c4F)c4ccc([nH]4)c(-c4c(F)c(F)c(F)c(F)c4F)c4nc(c(-c5c(F)c(F)c(F)c(F)c5F)c5ccc2[nH]5)C=C4)C=C3)cc1
REMARK SMILES IDX 7 1 8 2 9 3 6 5 5 6 4 7 3 8 1 9 2 10 23 12 24 13 85 14 25 15
REMARK SMILES IDX 84 16 26 17 27 18 28 19 78 20 29 21 83 22 77 23 79 24 30 25
REMARK SMILES IDX 82 26 76 27 75 28 31 30 63 31 43 32 62 33 44 34 47 35 61 36
REMARK SMILES IDX 80 37 45 38 46 39 60 41 81 42 48 43 32 44 33 45 41 46 34 47
REMARK SMILES IDX 35 48 39 49 42 50 36 51 37 52 40 53 38 54 64 55 65 56 73 57
REMARK SMILES IDX 66 58 67 59 71 60 74 61 68 62 69 63 72 64 70 65 49 66 50 67
REMARK SMILES IDX 58 68 51 69 52 70 56 71 59 72 53 73 54 74 57 75 55 76 10 77
REMARK SMILES IDX 11 78 12 79 13 80 14 81 15 82 16 84 17 85 22 86 18 87 20 88
REMARK SMILES IDX 19 89 21 90
REMARK H PARENT 7 4 3 11 79 29 47 40 15 83
REMARK Flexibility Score: inf
ROOT
ATOM      1  N   UNL A   1      36.047  21.025  25.794  1.00  0.00    -0.356 N 
ATOM      2  C   UNL A   1      34.752  21.426  25.836  1.00  0.00     0.227 C 
ATOM      3  O   UNL A   1      34.236  21.430  26.961  1.00  0.00    -0.274 OA
ATOM      4  H   UNL A   1      36.455  20.883  26.678  1.00  0.00     0.163 HD
ENDROOT
BRANCH   1   5
ATOM      5  C   UNL A   1      36.937  20.767  24.681  1.00  0.00     0.117 C 
BRANCH   5   6
ATOM      6  C   UNL A   1      37.947  19.679  24.987  1.00  0.00     0.042 C 
BRANCH   6   7
ATOM      7  C   UNL A   1      39.042  20.168  25.916  1.00  0.00     0.118 C 
BRANCH   7   8
ATOM      8  N   UNL A   1      40.147  19.218  26.018  1.00  0.00    -0.352 N 
ATOM      9  O   UNL A   1      42.273  18.477  25.964  1.00  0.00    -0.269 OA
ATOM     10  C   UNL A   1      41.502  19.422  26.124  1.00  0.00     0.251 C 
ATOM     11  H   UNL A   1      39.875  18.273  26.009  1.00  0.00     0.163 HD
BRANCH  10  12
ATOM     12  C   UNL A   1      42.039  20.770  26.405  1.00  0.00     0.039 A 
ATOM     13  C   UNL A   1      42.354  21.148  27.707  1.00  0.00     0.014 A 
ATOM     14  C   UNL A   1      42.250  21.671  25.356  1.00  0.00     0.014 A 
ATOM     15  C   UNL A   1      42.639  22.471  27.994  1.00  0.00     0.010 A 
ATOM     16  C   UNL A   1      42.700  22.967  25.631  1.00  0.00     0.010 A 
ATOM     17  C   UNL A   1      42.854  23.393  26.959  1.00  0.00    -0.014 A 
BRANCH  17  18
ATOM     18  C   UNL A   1      43.296  24.766  27.311  1.00  0.00     0.031 A 
ATOM     19  C   UNL A   1      44.681  25.250  26.982  1.00  0.00     0.074 A 
ATOM     20  C   UNL A   1      42.406  25.599  27.889  1.00  0.00     0.049 A 
ATOM     21  N   UNL A   1      45.217  26.426  27.202  1.00  0.00    -0.248 NA
ATOM     22  C   UNL A   1      45.589  24.291  26.337  1.00  0.00     0.031 C 
ATOM     23  C   UNL A   1      41.034  25.239  28.259  1.00  0.00     0.029 A 
ATOM     24  N   UNL A   1      42.501  26.922  28.234  1.00  0.00    -0.354 N 
ATOM     25  C   UNL A   1      46.531  26.334  26.762  1.00  0.00     0.074 A 
ATOM     26  C   UNL A   1      46.718  24.983  26.278  1.00  0.00     0.031 C 
ATOM     27  C   UNL A   1      40.391  26.328  28.697  1.00  0.00     0.029 A 
ATOM     28  C   UNL A   1      41.330  27.442  28.733  1.00  0.00     0.049 A 
ATOM     29  H   UNL A   1      43.325  27.450  28.134  1.00  0.00     0.167 HD
ATOM     30  C   UNL A   1      47.489  27.293  26.760  1.00  0.00     0.037 A 
ATOM     31  C   UNL A   1      41.046  28.674  29.190  1.00  0.00     0.037 A 
ATOM     32  C   UNL A   1      47.279  28.645  27.217  1.00  0.00     0.049 A 
ATOM     33  C   UNL A   1      42.130  29.710  29.189  1.00  0.00     0.074 A 
ATOM     34  C   UNL A   1      48.170  29.703  27.222  1.00  0.00     0.029 A 
ATOM     35  N   UNL A   1      46.090  29.123  27.754  1.00  0.00    -0.354 N 
ATOM     36  N   UNL A   1      43.363  29.616  28.752  1.00  0.00    -0.248 NA
ATOM     37  C   UNL A   1      41.786  31.020  29.752  1.00  0.00     0.031 C 
ATOM     38  C   UNL A   1      47.540  30.805  27.812  1.00  0.00     0.029 A 
ATOM     39  C   UNL A   1      46.235  30.453  28.115  1.00  0.00     0.049 A 
ATOM     40  H   UNL A   1      45.267  28.594  27.862  1.00  0.00     0.167 HD
ATOM     41  C   UNL A   1      43.934  30.861  28.961  1.00  0.00     0.074 A 
ATOM     42  C   UNL A   1      42.907  31.697  29.549  1.00  0.00     0.031 C 
ATOM     43  C   UNL A   1      45.197  31.274  28.690  1.00  0.00     0.037 A 
BRANCH  30  44
ATOM     44  C   UNL A   1      48.863  26.908  26.284  1.00  0.00     0.064 A 
ATOM     45  C   UNL A   1      49.248  27.026  24.941  1.00  0.00     0.173 A 
ATOM     46  C   UNL A   1      49.818  26.435  27.199  1.00  0.00     0.173 A 
ATOM     47  F   UNL A   1      48.374  27.461  24.022  1.00  0.00    -0.203 F 
ATOM     48  C   UNL A   1      50.526  26.653  24.525  1.00  0.00     0.198 A 
ATOM     49  C   UNL A   1      51.104  26.096  26.786  1.00  0.00     0.198 A 
ATOM     50  F   UNL A   1      49.507  26.310  28.498  1.00  0.00    -0.203 F 
ATOM     51  F   UNL A   1      50.853  26.722  23.227  1.00  0.00    -0.200 F 
ATOM     52  C   UNL A   1      51.454  26.194  25.448  1.00  0.00     0.200 A 
ATOM     53  F   UNL A   1      52.002  25.667  27.683  1.00  0.00    -0.200 F 
ATOM     54  F   UNL A   1      52.682  25.840  25.048  1.00  0.00    -0.200 F 
ENDBRANCH  30  44
BRANCH  31  55
ATOM     55  C   UNL A   1      39.678  28.984  29.682  1.00  0.00     0.064 A 
ATOM     56  C   UNL A   1      38.695  29.476  28.812  1.00  0.00     0.173 A 
ATOM     57  C   UNL A   1      39.317  28.774  31.021  1.00  0.00     0.173 A 
ATOM     58  F   UNL A   1      38.995  29.707  27.525  1.00  0.00    -0.203 F 
ATOM     59  C   UNL A   1      37.410  29.762  29.267  1.00  0.00     0.198 A 
ATOM     60  C   UNL A   1      38.023  29.028  31.467  1.00  0.00     0.198 A 
ATOM     61  F   UNL A   1      40.218  28.295  31.892  1.00  0.00    -0.203 F 
ATOM     62  F   UNL A   1      36.502  30.272  28.424  1.00  0.00    -0.200 F 
ATOM     63  C   UNL A   1      37.073  29.530  30.592  1.00  0.00     0.200 A 
ATOM     64  F   UNL A   1      37.697  28.781  32.743  1.00  0.00    -0.200 F 
ATOM     65  F   UNL A   1      35.833  29.795  31.026  1.00  0.00    -0.200 F 
ENDBRANCH  31  55
BRANCH  43  66
ATOM     66  C   UNL A   1      45.515  32.713  28.975  1.00  0.00     0.064 A 
ATOM     67  C   UNL A   1      46.071  33.123  30.197  1.00  0.00     0.173 A 
ATOM     68  C   UNL A   1      45.271  33.694  28.002  1.00  0.00     0.173 A 
ATOM     69  F   UNL A   1      46.305  32.226  31.166  1.00  0.00    -0.203 F 
ATOM     70  C   UNL A   1      46.334  34.467  30.447  1.00  0.00     0.198 A 
ATOM     71  C   UNL A   1      45.568  35.032  28.242  1.00  0.00     0.198 A 
ATOM     72  F   UNL A   1      44.746  33.355  26.815  1.00  0.00    -0.203 F 
ATOM     73  F   UNL A   1      46.804  34.843  31.643  1.00  0.00    -0.200 F 
ATOM     74  C   UNL A   1      46.089  35.419  29.468  1.00  0.00     0.200 A 
ATOM     75  F   UNL A   1      45.344  35.948  27.291  1.00  0.00    -0.200 F 
ATOM     76  F   UNL A   1      46.344  36.711  29.710  1.00  0.00    -0.200 F 
ENDBRANCH  43  66
ENDBRANCH  17  18
ENDBRANCH  10  12
ENDBRANCH   7   8
ENDBRANCH   6   7
ENDBRANCH   5   6
ENDBRANCH   1   5
BRANCH   2  77
ATOM     77  C   UNL A   1      33.944  21.915  24.625  1.00  0.00     0.108 C 
BRANCH  77  78
ATOM     78  C   UNL A   1      32.613  21.148  24.379  1.00  0.00     0.018 C 
BRANCH  78  79
ATOM     79  C   UNL A   1      32.560  19.902  23.485  1.00  0.00     0.004 C 
BRANCH  79  80
ATOM     80  C   UNL A   1      32.237  18.554  24.138  1.00  0.00     0.028 C 
BRANCH  80  81
ATOM     81  C   UNL A   1      33.176  18.151  25.264  1.00  0.00     0.156 C 
BRANCH  81  82
ATOM     82  O   UNL A   1      32.528  18.285  26.521  1.00  0.00    -0.396 OA
ATOM     83  H   UNL A   1      32.953  18.993  27.030  1.00  0.00     0.210 HD
ENDBRANCH  81  82
ENDBRANCH  80  81
ENDBRANCH  79  80
ENDBRANCH  78  79
ENDBRANCH  77  78
BRANCH  77  84
ATOM     84  C   UNL A   1      33.923  23.403  24.291  1.00  0.00    -0.034 A 
ATOM     85  C   UNL A   1      34.285  24.427  25.174  1.00  0.00     0.004 A 
ATOM     86  C   UNL A   1      33.501  23.783  23.001  1.00  0.00     0.025 A 
ATOM     87  C   UNL A   1      34.092  25.773  24.843  1.00  0.00     0.002 A 
ATOM     88  C   UNL A   1      33.355  25.126  22.653  1.00  0.00     0.041 A 
ATOM     89  C   UNL A   1      33.616  26.123  23.583  1.00  0.00     0.020 A 
ATOM     90  Cl  UNL A   1      32.837  25.543  21.068  1.00  0.00    -0.084 Cl
ENDBRANCH  77  84
ENDBRANCH   2  77
TORSDOF 16
ENDMDL
MODEL 3
REMARK VINA RESULT:     -10.7      1.833      3.126
REMARK SMILES O=C(NCCCNC(=O)[C@@H](CCCCO)c1cccc(Cl)c1)c1ccc(-c2c3nc(c(-c4c(F)c(F)c(F)c(F)c4F)c4ccc([nH]4)c(-c4c(F)c(F)c(F)c(F)c4F)c4nc(c(-c5c(F)c(F)c(F)c(F)c5F)c5ccc2[nH]5)C=C4)C=C3)cc1
REMARK SMILES IDX 7 1 8 2 9 3 6 5 5 6 4 7 3 8 1 9 2 10 23 12 24 13 85 14 25 15
REMARK SMILES IDX 84 16 26 17 27 18 28 19 78 20 29 21 83 22 77 23 79 24 30 25
REMARK SMILES IDX 82 26 76 27 75 28 31 30 63 31 43 32 62 33 44 34 47 35 61 36
REMARK SMILES IDX 80 37 45 38 46 39 60 41 81 42 48 43 32 44 33 45 41 46 34 47
REMARK SMILES IDX 35 48 39 49 42 50 36 51 37 52 40 53 38 54 64 55 65 56 73 57
REMARK SMILES IDX 66 58 67 59 71 60 74 61 68 62 69 63 72 64 70 65 49 66 50 67
REMARK SMILES IDX 58 68 51 69 52 70 56 71 59 72 53 73 54 74 57 75 55 76 10 77
REMARK SMILES IDX 11 78 12 79 13 80 14 81 15 82 16 84 17 85 22 86 18 87 20 88
REMARK SMILES IDX 19 89 21 90
REMARK H PARENT 7 4 3 11 79 29 47 40 15 83
REMARK Flexibility Score: inf
ROOT
ATOM      1  N   UNL A   1      30.996  26.312  26.831  1.00  0.00    -0.356 N 
ATOM      2  C   UNL A   1      30.167  25.556  26.068  1.00  0.00     0.227 C 
ATOM      3  O   UNL A   1      29.334  24.889  26.696  1.00  0.00    -0.274 OA
ATOM      4  H   UNL A   1      30.769  26.321  27.788  1.00  0.00     0.163 HD
ENDROOT
BRANCH   1   5
ATOM      5  C   UNL A   1      32.155  27.109  26.488  1.00  0.00     0.117 C 
BRANCH   5   6
ATOM      6  C   UNL A   1      31.990  28.567  26.867  1.00  0.00     0.042 C 
BRANCH   6   7
ATOM      7  C   UNL A   1      32.929  29.466  26.085  1.00  0.00     0.118 C 
BRANCH   7   8
ATOM      8  N   UNL A   1      32.713  30.880  26.377  1.00  0.00    -0.352 N 
ATOM      9  O   UNL A   1      32.866  32.825  27.501  1.00  0.00    -0.269 OA
ATOM     10  C   UNL A   1      33.360  31.729  27.242  1.00  0.00     0.251 C 
ATOM     11  H   UNL A   1      31.982  31.295  25.867  1.00  0.00     0.163 HD
BRANCH  10  12
ATOM     12  C   UNL A   1      34.630  31.325  27.883  1.00  0.00     0.039 A 
ATOM     13  C   UNL A   1      34.806  30.023  28.339  1.00  0.00     0.014 A 
ATOM     14  C   UNL A   1      35.669  32.251  28.019  1.00  0.00     0.014 A 
ATOM     15  C   UNL A   1      35.896  29.709  29.133  1.00  0.00     0.010 A 
ATOM     16  C   UNL A   1      36.846  31.882  28.681  1.00  0.00     0.010 A 
ATOM     17  C   UNL A   1      36.951  30.621  29.286  1.00  0.00    -0.014 A 
BRANCH  17  18
ATOM     18  C   UNL A   1      38.161  30.189  30.029  1.00  0.00     0.031 A 
ATOM     19  C   UNL A   1      38.388  30.596  31.458  1.00  0.00     0.074 A 
ATOM     20  C   UNL A   1      39.037  29.370  29.410  1.00  0.00     0.049 A 
ATOM     21  N   UNL A   1      39.381  30.287  32.256  1.00  0.00    -0.248 NA
ATOM     22  C   UNL A   1      37.382  31.475  32.072  1.00  0.00     0.031 C 
ATOM     23  C   UNL A   1      38.922  28.911  28.022  1.00  0.00     0.029 A 
ATOM     24  N   UNL A   1      40.170  28.749  29.867  1.00  0.00    -0.354 N 
ATOM     25  C   UNL A   1      39.141  30.963  33.444  1.00  0.00     0.074 A 
ATOM     26  C   UNL A   1      37.918  31.714  33.260  1.00  0.00     0.031 C 
ATOM     27  C   UNL A   1      39.889  28.021  27.767  1.00  0.00     0.029 A 
ATOM     28  C   UNL A   1      40.750  27.918  28.938  1.00  0.00     0.049 A 
ATOM     29  H   UNL A   1      40.533  28.884  30.771  1.00  0.00     0.167 HD
ATOM     30  C   UNL A   1      39.875  30.952  34.584  1.00  0.00     0.037 A 
ATOM     31  C   UNL A   1      41.864  27.169  29.011  1.00  0.00     0.037 A 
ATOM     32  C   UNL A   1      41.076  30.175  34.763  1.00  0.00     0.049 A 
ATOM     33  C   UNL A   1      42.663  27.189  30.280  1.00  0.00     0.074 A 
ATOM     34  C   UNL A   1      41.872  30.063  35.890  1.00  0.00     0.029 A 
ATOM     35  N   UNL A   1      41.655  29.376  33.786  1.00  0.00    -0.354 N 
ATOM     36  N   UNL A   1      42.415  27.819  31.403  1.00  0.00    -0.248 NA
ATOM     37  C   UNL A   1      43.901  26.403  30.288  1.00  0.00     0.031 C 
ATOM     38  C   UNL A   1      42.962  29.243  35.577  1.00  0.00     0.029 A 
ATOM     39  C   UNL A   1      42.811  28.789  34.277  1.00  0.00     0.049 A 
ATOM     40  H   UNL A   1      41.297  29.247  32.878  1.00  0.00     0.167 HD
ATOM     41  C   UNL A   1      43.449  27.482  32.262  1.00  0.00     0.074 A 
ATOM     42  C   UNL A   1      44.319  26.581  31.533  1.00  0.00     0.031 C 
ATOM     43  C   UNL A   1      43.660  27.884  33.540  1.00  0.00     0.037 A 
BRANCH  30  44
ATOM     44  C   UNL A   1      39.423  31.836  35.714  1.00  0.00     0.064 A 
ATOM     45  C   UNL A   1      39.923  33.135  35.892  1.00  0.00     0.173 A 
ATOM     46  C   UNL A   1      38.454  31.379  36.622  1.00  0.00     0.173 A 
ATOM     47  F   UNL A   1      40.858  33.619  35.062  1.00  0.00    -0.203 F 
ATOM     48  C   UNL A   1      39.493  33.930  36.954  1.00  0.00     0.198 A 
ATOM     49  C   UNL A   1      38.002  32.188  37.661  1.00  0.00     0.198 A 
ATOM     50  F   UNL A   1      37.936  30.148  36.495  1.00  0.00    -0.203 F 
ATOM     51  F   UNL A   1      40.025  35.147  37.135  1.00  0.00    -0.200 F 
ATOM     52  C   UNL A   1      38.530  33.458  37.834  1.00  0.00     0.200 A 
ATOM     53  F   UNL A   1      37.061  31.735  38.501  1.00  0.00    -0.200 F 
ATOM     54  F   UNL A   1      38.116  34.226  38.851  1.00  0.00    -0.200 F 
ENDBRANCH  30  44
BRANCH  31  55
ATOM     55  C   UNL A   1      42.279  26.345  27.847  1.00  0.00     0.064 A 
ATOM     56  C   UNL A   1      43.245  26.811  26.943  1.00  0.00     0.173 A 
ATOM     57  C   UNL A   1      41.739  25.069  27.624  1.00  0.00     0.173 A 
ATOM     58  F   UNL A   1      43.780  28.029  27.106  1.00  0.00    -0.203 F 
ATOM     59  C   UNL A   1      43.642  26.038  25.854  1.00  0.00     0.198 A 
ATOM     60  C   UNL A   1      42.161  24.285  26.554  1.00  0.00     0.198 A 
ATOM     61  F   UNL A   1      40.819  24.574  28.464  1.00  0.00    -0.203 F 
ATOM     62  F   UNL A   1      44.536  26.525  24.982  1.00  0.00    -0.200 F 
ATOM     63  C   UNL A   1      43.106  24.773  25.665  1.00  0.00     0.200 A 
ATOM     64  F   UNL A   1      41.656  23.055  26.388  1.00  0.00    -0.200 F 
ATOM     65  F   UNL A   1      43.496  24.027  24.623  1.00  0.00    -0.200 F 
ENDBRANCH  31  55
BRANCH  43  66
ATOM     66  C   UNL A   1      44.848  27.303  34.247  1.00  0.00     0.064 A 
ATOM     67  C   UNL A   1      46.126  27.874  34.144  1.00  0.00     0.173 A 
ATOM     68  C   UNL A   1      44.701  26.162  35.050  1.00  0.00     0.173 A 
ATOM     69  F   UNL A   1      46.323  28.954  33.374  1.00  0.00    -0.203 F 
ATOM     70  C   UNL A   1      47.219  27.300  34.789  1.00  0.00     0.198 A 
ATOM     71  C   UNL A   1      45.788  25.612  35.722  1.00  0.00     0.198 A 
ATOM     72  F   UNL A   1      43.500  25.580  35.186  1.00  0.00    -0.203 F 
ATOM     73  F   UNL A   1      48.441  27.825  34.626  1.00  0.00    -0.200 F 
ATOM     74  C   UNL A   1      47.048  26.175  35.583  1.00  0.00     0.200 A 
ATOM     75  F   UNL A   1      45.619  24.534  36.498  1.00  0.00    -0.200 F 
ATOM     76  F   UNL A   1      48.101  25.626  36.204  1.00  0.00    -0.200 F 
ENDBRANCH  43  66
ENDBRANCH  17  18
ENDBRANCH  10  12
ENDBRANCH   7   8
ENDBRANCH   6   7
ENDBRANCH   5   6
ENDBRANCH   1   5
BRANCH   2  77
ATOM     77  C   UNL A   1      30.163  25.531  24.533  1.00  0.00     0.108 C 
BRANCH  77  78
ATOM     78  C   UNL A   1      29.602  26.818  23.863  1.00  0.00     0.018 C 
BRANCH  78  79
ATOM     79  C   UNL A   1      30.483  28.054  23.638  1.00  0.00     0.004 C 
BRANCH  79  80
ATOM     80  C   UNL A   1      29.797  29.417  23.493  1.00  0.00     0.028 C 
BRANCH  80  81
ATOM     81  C   UNL A   1      29.310  29.738  22.089  1.00  0.00     0.156 C 
BRANCH  81  82
ATOM     82  O   UNL A   1      30.405  30.079  21.252  1.00  0.00    -0.396 OA
ATOM     83  H   UNL A   1      30.314  29.627  20.398  1.00  0.00     0.210 HD
ENDBRANCH  81  82
ENDBRANCH  80  81
ENDBRANCH  79  80
ENDBRANCH  78  79
ENDBRANCH  77  78
BRANCH  77  84
ATOM     84  C   UNL A   1      31.307  24.844  23.794  1.00  0.00    -0.034 A 
ATOM     85  C   UNL A   1      32.386  25.505  23.195  1.00  0.00     0.004 A 
ATOM     86  C   UNL A   1      31.277  23.438  23.695  1.00  0.00     0.025 A 
ATOM     87  C   UNL A   1      33.312  24.815  22.406  1.00  0.00     0.002 A 
ATOM     88  C   UNL A   1      32.229  22.744  22.949  1.00  0.00     0.041 A 
ATOM     89  C   UNL A   1      33.227  23.432  22.273  1.00  0.00     0.020 A 
ATOM     90  Cl  UNL A   1      32.153  21.029  22.856  1.00  0.00    -0.084 Cl
ENDBRANCH  77  84
ENDBRANCH   2  77
TORSDOF 16
ENDMDL
