MODEL 1
REMARK VINA RESULT:     -12.3      0.000      0.000
REMARK SMILES CC[C@H](C)[N@@H+]1[C@@H](C(=O)NCCCNC(=O)c2ccc(-c3c4nc(c(-c5c(F)c(F)c(F)c(F)c5F)c5ccc([nH]5)c(-c5c(F)c(F)c(F)c(F)c5F)c5nc(c(-c6c(F)c(F)c(F)c(F)c6F)c6ccc3[nH]6)C=C5)C=C4)cc2)CC[C@H]2CCCC[C@H]21
REMARK SMILES IDX 11 1 10 2 9 3 7 4 8 5 6 7 5 8 86 9 79 11 81 12 85 13 80 14
REMARK SMILES IDX 82 15 84 16 83 17 3 18 4 19 2 20 1 21 12 22 13 23 14 24
REMARK SMILES IDX 15 26 16 27 17 28 78 29 18 30 77 31 19 32 20 33 21 34 71 35
REMARK SMILES IDX 22 36 76 37 70 38 72 39 23 40 75 41 69 42 68 43 24 45 56 46
REMARK SMILES IDX 36 47 55 48 37 49 40 50 54 51 73 52 38 53 39 54 53 56 74 57
REMARK SMILES IDX 41 58 25 59 26 60 34 61 27 62 28 63 32 64 35 65 29 66 30 67
REMARK SMILES IDX 33 68 31 69 57 70 58 71 66 72 59 73 60 74 64 75 67 76 61 77
REMARK SMILES IDX 62 78 65 79 63 80 42 81 43 82 51 83 44 84 45 85 49 86 52 87
REMARK SMILES IDX 46 88 47 89 50 90 48 91
REMARK H PARENT 9 6 5 10 13 25 72 44 40 55
REMARK Flexibility Score: inf
ROOT
ATOM      1  C   UNL A   1      31.482  31.952  26.518  1.00  0.00     0.042 C 
ENDROOT
BRANCH   1   2
ATOM      2  C   UNL A   1      31.814  30.595  25.919  1.00  0.00     0.118 C 
BRANCH   2   3
ATOM      3  N   UNL A   1      31.411  29.510  26.793  1.00  0.00    -0.351 N 
ATOM      4  C   UNL A   1      31.666  28.173  26.691  1.00  0.00     0.278 C 
ATOM      5  O   UNL A   1      31.218  27.442  27.579  1.00  0.00    -0.268 OA
ATOM      6  H   UNL A   1      30.875  29.777  27.575  1.00  0.00     0.163 HD
BRANCH   4   7
ATOM      7  C   UNL A   1      32.426  27.583  25.485  1.00  0.00     0.274 C 
ATOM      8  N   UNL A   1      31.509  26.944  24.487  1.00  0.00    -0.320 N 
ATOM      9  C   UNL A   1      32.251  26.150  23.464  1.00  0.00     0.187 C 
ATOM     10  H   UNL A   1      30.948  26.287  25.027  1.00  0.00     0.349 HD
ATOM     11  C   UNL A   1      33.541  26.686  26.052  1.00  0.00     0.076 C 
ATOM     12  C   UNL A   1      33.282  25.168  24.074  1.00  0.00     0.048 C 
ATOM     13  C   UNL A   1      31.353  25.272  22.559  1.00  0.00     0.065 C 
ATOM     14  C   UNL A   1      34.271  25.918  24.965  1.00  0.00     0.016 C 
ATOM     15  C   UNL A   1      32.659  23.963  24.815  1.00  0.00     0.010 C 
ATOM     16  C   UNL A   1      30.523  24.296  23.379  1.00  0.00     0.006 C 
ATOM     17  C   UNL A   1      31.387  23.361  24.215  1.00  0.00     0.001 C 
BRANCH   8  18
ATOM     18  C   UNL A   1      30.509  27.882  23.874  1.00  0.00     0.181 C 
ATOM     19  C   UNL A   1      31.128  28.691  22.721  1.00  0.00     0.075 C 
BRANCH  18  20
ATOM     20  C   UNL A   1      29.081  27.338  23.590  1.00  0.00     0.061 C 
ATOM     21  C   UNL A   1      28.050  28.354  23.116  1.00  0.00     0.010 C 
ENDBRANCH  18  20
ENDBRANCH   8  18
ENDBRANCH   4   7
ENDBRANCH   2   3
ENDBRANCH   1   2
BRANCH   1  22
ATOM     22  C   UNL A   1      32.657  32.580  27.250  1.00  0.00     0.118 C 
BRANCH  22  23
ATOM     23  N   UNL A   1      32.428  33.983  27.569  1.00  0.00    -0.352 N 
ATOM     24  C   UNL A   1      33.015  34.763  28.532  1.00  0.00     0.251 C 
ATOM     25  H   UNL A   1      31.753  34.437  27.014  1.00  0.00     0.163 HD
ATOM     26  O   UNL A   1      32.562  35.877  28.787  1.00  0.00    -0.269 OA
BRANCH  24  27
ATOM     27  C   UNL A   1      34.180  34.253  29.281  1.00  0.00     0.039 A 
ATOM     28  C   UNL A   1      33.965  33.508  30.442  1.00  0.00     0.014 A 
ATOM     29  C   UNL A   1      35.482  34.503  28.837  1.00  0.00     0.014 A 
ATOM     30  C   UNL A   1      35.054  32.958  31.121  1.00  0.00     0.010 A 
ATOM     31  C   UNL A   1      36.557  33.880  29.460  1.00  0.00     0.010 A 
ATOM     32  C   UNL A   1      36.355  33.108  30.613  1.00  0.00    -0.014 A 
BRANCH  32  33
ATOM     33  C   UNL A   1      37.521  32.478  31.282  1.00  0.00     0.031 A 
ATOM     34  C   UNL A   1      38.263  31.360  30.602  1.00  0.00     0.074 A 
ATOM     35  C   UNL A   1      37.878  32.876  32.519  1.00  0.00     0.049 A 
ATOM     36  N   UNL A   1      39.256  30.633  31.048  1.00  0.00    -0.248 NA
ATOM     37  C   UNL A   1      37.813  30.994  29.248  1.00  0.00     0.031 C 
ATOM     38  C   UNL A   1      37.214  33.924  33.296  1.00  0.00     0.029 A 
ATOM     39  N   UNL A   1      38.884  32.438  33.344  1.00  0.00    -0.354 N 
ATOM     40  C   UNL A   1      39.544  29.727  30.035  1.00  0.00     0.074 A 
ATOM     41  C   UNL A   1      38.579  29.947  28.981  1.00  0.00     0.031 C 
ATOM     42  C   UNL A   1      37.849  34.069  34.471  1.00  0.00     0.029 A 
ATOM     43  C   UNL A   1      38.933  33.095  34.550  1.00  0.00     0.049 A 
ATOM     44  H   UNL A   1      39.512  31.723  33.095  1.00  0.00     0.167 HD
ATOM     45  C   UNL A   1      40.543  28.814  29.976  1.00  0.00     0.037 A 
ATOM     46  C   UNL A   1      39.753  32.921  35.603  1.00  0.00     0.037 A 
ATOM     47  C   UNL A   1      41.509  28.605  31.022  1.00  0.00     0.049 A 
ATOM     48  C   UNL A   1      40.826  31.866  35.527  1.00  0.00     0.074 A 
ATOM     49  C   UNL A   1      42.575  27.723  31.049  1.00  0.00     0.029 A 
ATOM     50  N   UNL A   1      41.526  29.292  32.228  1.00  0.00    -0.354 N 
ATOM     51  N   UNL A   1      41.123  31.054  34.542  1.00  0.00    -0.248 NA
ATOM     52  C   UNL A   1      41.683  31.708  36.711  1.00  0.00     0.031 C 
ATOM     53  C   UNL A   1      43.209  27.843  32.289  1.00  0.00     0.029 A 
ATOM     54  C   UNL A   1      42.575  28.840  33.012  1.00  0.00     0.049 A 
ATOM     55  H   UNL A   1      40.888  29.995  32.488  1.00  0.00     0.167 HD
ATOM     56  C   UNL A   1      42.223  30.321  34.970  1.00  0.00     0.074 A 
ATOM     57  C   UNL A   1      42.548  30.795  36.298  1.00  0.00     0.031 C 
ATOM     58  C   UNL A   1      42.900  29.341  34.323  1.00  0.00     0.037 A 
BRANCH  45  59
ATOM     59  C   UNL A   1      40.652  27.983  28.731  1.00  0.00     0.064 A 
ATOM     60  C   UNL A   1      39.957  26.770  28.598  1.00  0.00     0.173 A 
ATOM     61  C   UNL A   1      41.418  28.422  27.640  1.00  0.00     0.173 A 
ATOM     62  F   UNL A   1      39.220  26.300  29.615  1.00  0.00    -0.203 F 
ATOM     63  C   UNL A   1      40.046  26.017  27.431  1.00  0.00     0.198 A 
ATOM     64  C   UNL A   1      41.478  27.681  26.462  1.00  0.00     0.198 A 
ATOM     65  F   UNL A   1      42.098  29.575  27.712  1.00  0.00    -0.203 F 
ATOM     66  F   UNL A   1      39.411  24.839  27.346  1.00  0.00    -0.200 F 
ATOM     67  C   UNL A   1      40.799  26.477  26.361  1.00  0.00     0.200 A 
ATOM     68  F   UNL A   1      42.194  28.134  25.423  1.00  0.00    -0.200 F 
ATOM     69  F   UNL A   1      40.873  25.756  25.233  1.00  0.00    -0.200 F 
ENDBRANCH  45  59
BRANCH  46  70
ATOM     70  C   UNL A   1      39.614  33.769  36.817  1.00  0.00     0.064 A 
ATOM     71  C   UNL A   1      38.840  33.342  37.907  1.00  0.00     0.173 A 
ATOM     72  C   UNL A   1      40.209  35.035  36.900  1.00  0.00     0.173 A 
ATOM     73  F   UNL A   1      38.233  32.147  37.869  1.00  0.00    -0.203 F 
ATOM     74  C   UNL A   1      38.637  34.164  39.015  1.00  0.00     0.198 A 
ATOM     75  C   UNL A   1      40.035  35.842  38.023  1.00  0.00     0.198 A 
ATOM     76  F   UNL A   1      40.964  35.491  35.889  1.00  0.00    -0.203 F 
ATOM     77  F   UNL A   1      37.839  33.756  40.011  1.00  0.00    -0.200 F 
ATOM     78  C   UNL A   1      39.237  35.412  39.073  1.00  0.00     0.200 A 
ATOM     79  F   UNL A   1      40.629  37.042  38.082  1.00  0.00    -0.200 F 
ATOM     80  F   UNL A   1      39.038  36.205  40.135  1.00  0.00    -0.200 F 
ENDBRANCH  46  70
BRANCH  58  81
ATOM     81  C   UNL A   1      44.097  28.756  35.017  1.00  0.00     0.064 A 
ATOM     82  C   UNL A   1      43.989  27.653  35.877  1.00  0.00     0.173 A 
ATOM     83  C   UNL A   1      45.376  29.287  34.787  1.00  0.00     0.173 A 
ATOM     84  F   UNL A   1      42.788  27.118  36.142  1.00  0.00    -0.203 F 
ATOM     85  C   UNL A   1      45.113  27.123  36.505  1.00  0.00     0.198 A 
ATOM     86  C   UNL A   1      46.502  28.733  35.389  1.00  0.00     0.198 A 
ATOM     87  F   UNL A   1      45.536  30.337  33.967  1.00  0.00    -0.203 F 
ATOM     88  F   UNL A   1      44.979  26.105  37.366  1.00  0.00    -0.200 F 
ATOM     89  C   UNL A   1      46.369  27.657  36.254  1.00  0.00     0.200 A 
ATOM     90  F   UNL A   1      47.715  29.239  35.132  1.00  0.00    -0.200 F 
ATOM     91  F   UNL A   1      47.450  27.141  36.852  1.00  0.00    -0.200 F 
ENDBRANCH  58  81
ENDBRANCH  32  33
ENDBRANCH  24  27
ENDBRANCH  22  23
ENDBRANCH   1  22
TORSDOF 12
ENDMDL
MODEL 2
REMARK VINA RESULT:     -12.2      0.928      2.324
REMARK SMILES CC[C@H](C)[N@@H+]1[C@@H](C(=O)NCCCNC(=O)c2ccc(-c3c4nc(c(-c5c(F)c(F)c(F)c(F)c5F)c5ccc([nH]5)c(-c5c(F)c(F)c(F)c(F)c5F)c5nc(c(-c6c(F)c(F)c(F)c(F)c6F)c6ccc3[nH]6)C=C5)C=C4)cc2)CC[C@H]2CCCC[C@H]21
REMARK SMILES IDX 11 1 10 2 9 3 7 4 8 5 6 7 5 8 86 9 79 11 81 12 85 13 80 14
REMARK SMILES IDX 82 15 84 16 83 17 3 18 4 19 2 20 1 21 12 22 13 23 14 24
REMARK SMILES IDX 15 26 16 27 17 28 78 29 18 30 77 31 19 32 20 33 21 34 71 35
REMARK SMILES IDX 22 36 76 37 70 38 72 39 23 40 75 41 69 42 68 43 24 45 56 46
REMARK SMILES IDX 36 47 55 48 37 49 40 50 54 51 73 52 38 53 39 54 53 56 74 57
REMARK SMILES IDX 41 58 25 59 26 60 34 61 27 62 28 63 32 64 35 65 29 66 30 67
REMARK SMILES IDX 33 68 31 69 57 70 58 71 66 72 59 73 60 74 64 75 67 76 61 77
REMARK SMILES IDX 62 78 65 79 63 80 42 81 43 82 51 83 44 84 45 85 49 86 52 87
REMARK SMILES IDX 46 88 47 89 50 90 48 91
REMARK H PARENT 9 6 5 10 13 25 72 44 40 55
REMARK Flexibility Score: inf
ROOT
ATOM      1  C   UNL A   1      31.387  32.107  26.506  1.00  0.00     0.042 C 
ENDROOT
BRANCH   1   2
ATOM      2  C   UNL A   1      31.487  30.597  26.358  1.00  0.00     0.118 C 
BRANCH   2   3
ATOM      3  N   UNL A   1      31.329  30.183  24.977  1.00  0.00    -0.351 N 
ATOM      4  C   UNL A   1      31.229  28.925  24.454  1.00  0.00     0.278 C 
ATOM      5  O   UNL A   1      31.088  28.831  23.231  1.00  0.00    -0.268 OA
ATOM      6  H   UNL A   1      31.289  30.915  24.321  1.00  0.00     0.163 HD
BRANCH   4   7
ATOM      7  C   UNL A   1      31.351  27.668  25.338  1.00  0.00     0.274 C 
ATOM      8  N   UNL A   1      32.652  26.952  25.141  1.00  0.00    -0.320 N 
ATOM      9  C   UNL A   1      32.664  25.608  25.789  1.00  0.00     0.187 C 
ATOM     10  H   UNL A   1      32.719  26.800  24.135  1.00  0.00     0.349 HD
ATOM     11  C   UNL A   1      30.077  26.834  25.111  1.00  0.00     0.076 C 
ATOM     12  C   UNL A   1      31.424  24.745  25.443  1.00  0.00     0.048 C 
ATOM     13  C   UNL A   1      33.879  24.725  25.416  1.00  0.00     0.065 C 
ATOM     14  C   UNL A   1      30.139  25.487  25.809  1.00  0.00     0.016 C 
ATOM     15  C   UNL A   1      31.384  24.237  23.984  1.00  0.00     0.010 C 
ATOM     16  C   UNL A   1      33.964  24.506  23.912  1.00  0.00     0.006 C 
ATOM     17  C   UNL A   1      32.717  23.833  23.353  1.00  0.00     0.001 C 
BRANCH   8  18
ATOM     18  C   UNL A   1      33.867  27.766  25.482  1.00  0.00     0.181 C 
ATOM     19  C   UNL A   1      34.339  28.604  24.281  1.00  0.00     0.075 C 
BRANCH  18  20
ATOM     20  C   UNL A   1      33.880  28.519  26.842  1.00  0.00     0.061 C 
ATOM     21  C   UNL A   1      35.151  29.286  27.180  1.00  0.00     0.010 C 
ENDBRANCH  18  20
ENDBRANCH   8  18
ENDBRANCH   4   7
ENDBRANCH   2   3
ENDBRANCH   1   2
BRANCH   1  22
ATOM     22  C   UNL A   1      32.546  32.703  27.289  1.00  0.00     0.118 C 
BRANCH  22  23
ATOM     23  N   UNL A   1      32.340  34.111  27.601  1.00  0.00    -0.352 N 
ATOM     24  C   UNL A   1      32.954  34.891  28.547  1.00  0.00     0.251 C 
ATOM     25  H   UNL A   1      31.661  34.569  27.054  1.00  0.00     0.163 HD
ATOM     26  O   UNL A   1      32.519  36.012  28.801  1.00  0.00    -0.269 OA
BRANCH  24  27
ATOM     27  C   UNL A   1      34.126  34.372  29.279  1.00  0.00     0.039 A 
ATOM     28  C   UNL A   1      33.927  33.705  30.489  1.00  0.00     0.014 A 
ATOM     29  C   UNL A   1      35.418  34.538  28.771  1.00  0.00     0.014 A 
ATOM     30  C   UNL A   1      35.018  33.147  31.157  1.00  0.00     0.010 A 
ATOM     31  C   UNL A   1      36.490  33.903  29.388  1.00  0.00     0.010 A 
ATOM     32  C   UNL A   1      36.303  33.208  30.591  1.00  0.00    -0.014 A 
BRANCH  32  33
ATOM     33  C   UNL A   1      37.467  32.565  31.250  1.00  0.00     0.031 A 
ATOM     34  C   UNL A   1      38.185  31.433  30.569  1.00  0.00     0.074 A 
ATOM     35  C   UNL A   1      37.845  32.966  32.481  1.00  0.00     0.049 A 
ATOM     36  N   UNL A   1      39.172  30.693  31.008  1.00  0.00    -0.248 NA
ATOM     37  C   UNL A   1      37.714  31.065  29.223  1.00  0.00     0.031 C 
ATOM     38  C   UNL A   1      37.206  34.029  33.258  1.00  0.00     0.029 A 
ATOM     39  N   UNL A   1      38.853  32.518  33.297  1.00  0.00    -0.354 N 
ATOM     40  C   UNL A   1      39.434  29.777  29.998  1.00  0.00     0.074 A 
ATOM     41  C   UNL A   1      38.461  30.005  28.953  1.00  0.00     0.031 C 
ATOM     42  C   UNL A   1      37.856  34.172  34.424  1.00  0.00     0.029 A 
ATOM     43  C   UNL A   1      38.926  33.183  34.497  1.00  0.00     0.049 A 
ATOM     44  H   UNL A   1      39.468  31.792  33.045  1.00  0.00     0.167 HD
ATOM     45  C   UNL A   1      40.420  28.849  29.933  1.00  0.00     0.037 A 
ATOM     46  C   UNL A   1      39.756  33.003  35.542  1.00  0.00     0.037 A 
ATOM     47  C   UNL A   1      41.395  28.633  30.969  1.00  0.00     0.049 A 
ATOM     48  C   UNL A   1      40.813  31.932  35.460  1.00  0.00     0.074 A 
ATOM     49  C   UNL A   1      42.447  27.735  30.989  1.00  0.00     0.029 A 
ATOM     50  N   UNL A   1      41.436  29.326  32.170  1.00  0.00    -0.354 N 
ATOM     51  N   UNL A   1      41.086  31.110  34.477  1.00  0.00    -0.248 NA
ATOM     52  C   UNL A   1      41.681  31.769  36.635  1.00  0.00     0.031 C 
ATOM     53  C   UNL A   1      43.098  27.853  32.221  1.00  0.00     0.029 A 
ATOM     54  C   UNL A   1      42.487  28.865  32.945  1.00  0.00     0.049 A 
ATOM     55  H   UNL A   1      40.812  30.041  32.433  1.00  0.00     0.167 HD
ATOM     56  C   UNL A   1      42.180  30.363  34.897  1.00  0.00     0.074 A 
ATOM     57  C   UNL A   1      42.528  30.840  36.218  1.00  0.00     0.031 C 
ATOM     58  C   UNL A   1      42.835  29.369  34.249  1.00  0.00     0.037 A 
BRANCH  45  59
ATOM     59  C   UNL A   1      40.502  28.008  28.692  1.00  0.00     0.064 A 
ATOM     60  C   UNL A   1      41.268  28.409  27.586  1.00  0.00     0.173 A 
ATOM     61  C   UNL A   1      39.849  26.768  28.622  1.00  0.00     0.173 A 
ATOM     62  F   UNL A   1      41.902  29.591  27.597  1.00  0.00    -0.203 F 
ATOM     63  C   UNL A   1      41.357  27.612  26.449  1.00  0.00     0.198 A 
ATOM     64  C   UNL A   1      39.967  25.959  27.495  1.00  0.00     0.198 A 
ATOM     65  F   UNL A   1      39.108  26.335  29.652  1.00  0.00    -0.203 F 
ATOM     66  F   UNL A   1      42.057  28.038  25.387  1.00  0.00    -0.200 F 
ATOM     67  C   UNL A   1      40.714  26.384  26.407  1.00  0.00     0.200 A 
ATOM     68  F   UNL A   1      39.357  24.766  27.462  1.00  0.00    -0.200 F 
ATOM     69  F   UNL A   1      40.811  25.612  25.315  1.00  0.00    -0.200 F 
ENDBRANCH  45  59
BRANCH  46  70
ATOM     70  C   UNL A   1      39.644  33.861  36.752  1.00  0.00     0.064 A 
ATOM     71  C   UNL A   1      38.855  33.465  37.843  1.00  0.00     0.173 A 
ATOM     72  C   UNL A   1      40.281  35.107  36.830  1.00  0.00     0.173 A 
ATOM     73  F   UNL A   1      38.208  32.291  37.809  1.00  0.00    -0.203 F 
ATOM     74  C   UNL A   1      38.678  34.299  38.946  1.00  0.00     0.198 A 
ATOM     75  C   UNL A   1      40.132  35.924  37.949  1.00  0.00     0.198 A 
ATOM     76  F   UNL A   1      41.052  35.533  35.818  1.00  0.00    -0.203 F 
ATOM     77  F   UNL A   1      37.865  33.922  39.943  1.00  0.00    -0.200 F 
ATOM     78  C   UNL A   1      39.319  35.526  39.000  1.00  0.00     0.200 A 
ATOM     79  F   UNL A   1      40.766  37.104  38.004  1.00  0.00    -0.200 F 
ATOM     80  F   UNL A   1      39.145  36.330  40.058  1.00  0.00    -0.200 F 
ENDBRANCH  46  70
BRANCH  58  81
ATOM     81  C   UNL A   1      44.031  28.771  34.932  1.00  0.00     0.064 A 
ATOM     82  C   UNL A   1      45.321  29.295  34.760  1.00  0.00     0.173 A 
ATOM     83  C   UNL A   1      43.876  27.680  35.801  1.00  0.00     0.173 A 
ATOM     84  F   UNL A   1      45.526  30.328  33.929  1.00  0.00    -0.203 F 
ATOM     85  C   UNL A   1      46.416  28.728  35.409  1.00  0.00     0.198 A 
ATOM     86  C   UNL A   1      44.967  27.138  36.475  1.00  0.00     0.198 A 
ATOM     87  F   UNL A   1      42.662  27.146  36.007  1.00  0.00    -0.203 F 
ATOM     88  F   UNL A   1      47.647  29.210  35.187  1.00  0.00    -0.200 F 
ATOM     89  C   UNL A   1      46.236  27.657  36.272  1.00  0.00     0.200 A 
ATOM     90  F   UNL A   1      44.789  26.115  37.321  1.00  0.00    -0.200 F 
ATOM     91  F   UNL A   1      47.289  27.119  36.902  1.00  0.00    -0.200 F 
ENDBRANCH  58  81
ENDBRANCH  32  33
ENDBRANCH  24  27
ENDBRANCH  22  23
ENDBRANCH   1  22
TORSDOF 12
ENDMDL
MODEL 3
REMARK VINA RESULT:     -12.2      5.851     11.203
REMARK SMILES CC[C@H](C)[N@@H+]1[C@@H](C(=O)NCCCNC(=O)c2ccc(-c3c4nc(c(-c5c(F)c(F)c(F)c(F)c5F)c5ccc([nH]5)c(-c5c(F)c(F)c(F)c(F)c5F)c5nc(c(-c6c(F)c(F)c(F)c(F)c6F)c6ccc3[nH]6)C=C5)C=C4)cc2)CC[C@H]2CCCC[C@H]21
REMARK SMILES IDX 11 1 10 2 9 3 7 4 8 5 6 7 5 8 86 9 79 11 81 12 85 13 80 14
REMARK SMILES IDX 82 15 84 16 83 17 3 18 4 19 2 20 1 21 12 22 13 23 14 24
REMARK SMILES IDX 15 26 16 27 17 28 78 29 18 30 77 31 19 32 20 33 21 34 71 35
REMARK SMILES IDX 22 36 76 37 70 38 72 39 23 40 75 41 69 42 68 43 24 45 56 46
REMARK SMILES IDX 36 47 55 48 37 49 40 50 54 51 73 52 38 53 39 54 53 56 74 57
REMARK SMILES IDX 41 58 25 59 26 60 34 61 27 62 28 63 32 64 35 65 29 66 30 67
REMARK SMILES IDX 33 68 31 69 57 70 58 71 66 72 59 73 60 74 64 75 67 76 61 77
REMARK SMILES IDX 62 78 65 79 63 80 42 81 43 82 51 83 44 84 45 85 49 86 52 87
REMARK SMILES IDX 46 88 47 89 50 90 48 91
REMARK H PARENT 9 6 5 10 13 25 72 44 40 55
REMARK Flexibility Score: inf
ROOT
ATOM      1  C   UNL A   1      38.070  19.772  25.005  1.00  0.00     0.042 C 
ENDROOT
BRANCH   1   2
ATOM      2  C   UNL A   1      36.880  20.709  25.132  1.00  0.00     0.118 C 
BRANCH   2   3
ATOM      3  N   UNL A   1      36.780  21.606  23.996  1.00  0.00    -0.351 N 
ATOM      4  C   UNL A   1      35.969  22.689  23.814  1.00  0.00     0.278 C 
ATOM      5  O   UNL A   1      36.080  23.306  22.750  1.00  0.00    -0.268 OA
ATOM      6  H   UNL A   1      37.386  21.403  23.247  1.00  0.00     0.163 HD
BRANCH   4   7
ATOM      7  C   UNL A   1      34.910  23.093  24.860  1.00  0.00     0.274 C 
ATOM      8  N   UNL A   1      33.530  22.649  24.480  1.00  0.00    -0.320 N 
ATOM      9  C   UNL A   1      32.480  23.260  25.346  1.00  0.00     0.187 C 
ATOM     10  H   UNL A   1      33.388  23.009  23.537  1.00  0.00     0.349 HD
ATOM     11  C   UNL A   1      35.089  24.599  25.122  1.00  0.00     0.076 C 
ATOM     12  C   UNL A   1      32.617  24.797  25.491  1.00  0.00     0.048 C 
ATOM     13  C   UNL A   1      31.030  23.037  24.851  1.00  0.00     0.065 C 
ATOM     14  C   UNL A   1      34.003  25.160  26.022  1.00  0.00     0.016 C 
ATOM     15  C   UNL A   1      32.278  25.595  24.212  1.00  0.00     0.010 C 
ATOM     16  C   UNL A   1      30.834  23.581  23.444  1.00  0.00     0.006 C 
ATOM     17  C   UNL A   1      31.125  25.073  23.353  1.00  0.00     0.001 C 
BRANCH   8  18
ATOM     18  C   UNL A   1      33.372  21.162  24.345  1.00  0.00     0.181 C 
ATOM     19  C   UNL A   1      33.091  20.500  25.705  1.00  0.00     0.075 C 
BRANCH  18  20
ATOM     20  C   UNL A   1      32.504  20.626  23.172  1.00  0.00     0.061 C 
ATOM     21  C   UNL A   1      32.201  19.134  23.179  1.00  0.00     0.010 C 
ENDBRANCH  18  20
ENDBRANCH   8  18
ENDBRANCH   4   7
ENDBRANCH   2   3
ENDBRANCH   1   2
BRANCH   1  22
ATOM     22  C   UNL A   1      39.288  20.252  25.778  1.00  0.00     0.118 C 
BRANCH  22  23
ATOM     23  N   UNL A   1      40.293  19.209  25.936  1.00  0.00    -0.352 N 
ATOM     24  C   UNL A   1      41.646  19.327  26.125  1.00  0.00     0.251 C 
ATOM     25  H   UNL A   1      39.952  18.286  25.899  1.00  0.00     0.163 HD
ATOM     26  O   UNL A   1      42.370  18.337  26.046  1.00  0.00    -0.269 OA
BRANCH  24  27
ATOM     27  C   UNL A   1      42.237  20.651  26.402  1.00  0.00     0.039 A 
ATOM     28  C   UNL A   1      42.656  21.442  25.330  1.00  0.00     0.014 A 
ATOM     29  C   UNL A   1      42.371  21.115  27.713  1.00  0.00     0.014 A 
ATOM     30  C   UNL A   1      43.150  22.725  25.572  1.00  0.00     0.010 A 
ATOM     31  C   UNL A   1      42.776  22.424  27.946  1.00  0.00     0.010 A 
ATOM     32  C   UNL A   1      43.177  23.240  26.879  1.00  0.00    -0.014 A 
BRANCH  32  33
ATOM     33  C   UNL A   1      43.637  24.625  27.153  1.00  0.00     0.031 A 
ATOM     34  C   UNL A   1      42.670  25.645  27.688  1.00  0.00     0.074 A 
ATOM     35  C   UNL A   1      44.907  24.976  26.872  1.00  0.00     0.049 A 
ATOM     36  N   UNL A   1      42.854  26.920  27.921  1.00  0.00    -0.248 NA
ATOM     37  C   UNL A   1      41.304  25.176  27.975  1.00  0.00     0.031 C 
ATOM     38  C   UNL A   1      45.929  24.086  26.317  1.00  0.00     0.029 A 
ATOM     39  N   UNL A   1      45.554  26.179  27.008  1.00  0.00    -0.354 N 
ATOM     40  C   UNL A   1      41.634  27.400  28.377  1.00  0.00     0.074 A 
ATOM     41  C   UNL A   1      40.697  26.300  28.323  1.00  0.00     0.031 C 
ATOM     42  C   UNL A   1      47.080  24.765  26.189  1.00  0.00     0.029 A 
ATOM     43  C   UNL A   1      46.868  26.146  26.607  1.00  0.00     0.049 A 
ATOM     44  H   UNL A   1      45.119  26.987  27.361  1.00  0.00     0.167 HD
ATOM     45  C   UNL A   1      41.329  28.640  28.832  1.00  0.00     0.037 A 
ATOM     46  C   UNL A   1      47.791  27.126  26.571  1.00  0.00     0.037 A 
ATOM     47  C   UNL A   1      42.267  29.729  28.896  1.00  0.00     0.049 A 
ATOM     48  C   UNL A   1      47.410  28.507  27.039  1.00  0.00     0.074 A 
ATOM     49  C   UNL A   1      42.065  31.016  29.363  1.00  0.00     0.029 A 
ATOM     50  N   UNL A   1      43.590  29.657  28.482  1.00  0.00    -0.354 N 
ATOM     51  N   UNL A   1      46.269  28.934  27.520  1.00  0.00    -0.248 NA
ATOM     52  C   UNL A   1      48.452  29.540  26.962  1.00  0.00     0.031 C 
ATOM     53  C   UNL A   1      43.251  31.736  29.188  1.00  0.00     0.029 A 
ATOM     54  C   UNL A   1      44.210  30.882  28.667  1.00  0.00     0.049 A 
ATOM     55  H   UNL A   1      44.023  28.855  28.111  1.00  0.00     0.167 HD
ATOM     56  C   UNL A   1      46.467  30.271  27.841  1.00  0.00     0.074 A 
ATOM     57  C   UNL A   1      47.842  30.579  27.514  1.00  0.00     0.031 C 
ATOM     58  C   UNL A   1      45.588  31.164  28.358  1.00  0.00     0.037 A 
BRANCH  45  59
ATOM     59  C   UNL A   1      39.927  28.879  29.310  1.00  0.00     0.064 A 
ATOM     60  C   UNL A   1      38.924  29.334  28.439  1.00  0.00     0.173 A 
ATOM     61  C   UNL A   1      39.567  28.608  30.639  1.00  0.00     0.173 A 
ATOM     62  F   UNL A   1      39.218  29.619  27.162  1.00  0.00    -0.203 F 
ATOM     63  C   UNL A   1      37.621  29.531  28.886  1.00  0.00     0.198 A 
ATOM     64  C   UNL A   1      38.255  28.776  31.074  1.00  0.00     0.198 A 
ATOM     65  F   UNL A   1      40.484  28.168  31.512  1.00  0.00    -0.203 F 
ATOM     66  F   UNL A   1      36.692  30.010  28.047  1.00  0.00    -0.200 F 
ATOM     67  C   UNL A   1      37.285  29.244  30.201  1.00  0.00     0.200 A 
ATOM     68  F   UNL A   1      37.928  28.484  32.341  1.00  0.00    -0.200 F 
ATOM     69  F   UNL A   1      36.027  29.423  30.626  1.00  0.00    -0.200 F 
ENDBRANCH  45  59
BRANCH  46  70
ATOM     70  C   UNL A   1      49.172  26.845  26.092  1.00  0.00     0.064 A 
ATOM     71  C   UNL A   1      49.518  27.035  24.746  1.00  0.00     0.173 A 
ATOM     72  C   UNL A   1      50.158  26.342  26.952  1.00  0.00     0.173 A 
ATOM     73  F   UNL A   1      48.605  27.495  23.879  1.00  0.00    -0.203 F 
ATOM     74  C   UNL A   1      50.785  26.698  24.273  1.00  0.00     0.198 A 
ATOM     75  C   UNL A   1      51.435  26.039  26.485  1.00  0.00     0.198 A 
ATOM     76  F   UNL A   1      49.882  26.147  28.251  1.00  0.00    -0.203 F 
ATOM     77  F   UNL A   1      51.066  26.827  22.968  1.00  0.00    -0.200 F 
ATOM     78  C   UNL A   1      51.743  26.203  25.143  1.00  0.00     0.200 A 
ATOM     79  F   UNL A   1      52.364  25.575  27.332  1.00  0.00    -0.200 F 
ATOM     80  F   UNL A   1      52.960  25.873  24.687  1.00  0.00    -0.200 F 
ENDBRANCH  46  70
BRANCH  58  81
ATOM     81  C   UNL A   1      46.102  32.543  28.658  1.00  0.00     0.064 A 
ATOM     82  C   UNL A   1      46.692  32.862  29.890  1.00  0.00     0.173 A 
ATOM     83  C   UNL A   1      46.036  33.549  27.681  1.00  0.00     0.173 A 
ATOM     84  F   UNL A   1      46.766  31.942  30.862  1.00  0.00    -0.203 F 
ATOM     85  C   UNL A   1      47.167  34.147  30.144  1.00  0.00     0.198 A 
ATOM     86  C   UNL A   1      46.544  34.821  27.926  1.00  0.00     0.198 A 
ATOM     87  F   UNL A   1      45.489  33.294  26.482  1.00  0.00    -0.203 F 
ATOM     88  F   UNL A   1      47.676  34.445  31.347  1.00  0.00    -0.200 F 
ATOM     89  C   UNL A   1      47.101  35.122  29.159  1.00  0.00     0.200 A 
ATOM     90  F   UNL A   1      46.495  35.756  26.967  1.00  0.00    -0.200 F 
ATOM     91  F   UNL A   1      47.567  36.354  29.402  1.00  0.00    -0.200 F 
ENDBRANCH  58  81
ENDBRANCH  32  33
ENDBRANCH  24  27
ENDBRANCH  22  23
ENDBRANCH   1  22
TORSDOF 12
ENDMDL
