MODEL 1
REMARK VINA RESULT:      -9.8      0.000      0.000
REMARK SMILES CC/C=C/C/C=C/C/C=C/C/C=C/CC/C=C/COCC(=O)NCCCNC(=O)c1ccc(-c2c3nc(c(-c4c(F)c(F)c(F)c(F)c4F)c4ccc([nH]4)c(-c4c(F)c(F)c(F)c(F)c4F)c4nc(c(-c5c(F)c(F)c(F)c(F)c5F)c5ccc2[nH]5)C=C4)C=C3)cc1
REMARK SMILES IDX 16 1 17 2 15 3 14 4 13 5 12 6 11 7 10 8 9 9 8 10 7 11 6 12
REMARK SMILES IDX 5 13 4 14 3 15 2 16 1 17 18 18 19 19 20 20 21 21 22 22 23 23
REMARK SMILES IDX 24 25 25 26 26 27 27 28 28 29 29 31 30 32 31 33 92 34 32 35
REMARK SMILES IDX 91 36 33 37 34 38 35 39 85 40 36 41 90 42 84 43 86 44 37 45
REMARK SMILES IDX 89 46 83 47 82 48 38 50 70 51 50 52 69 53 51 54 54 55 68 56
REMARK SMILES IDX 87 57 52 58 53 59 67 61 88 62 55 63 39 64 40 65 48 66 41 67
REMARK SMILES IDX 42 68 46 69 49 70 43 71 44 72 47 73 45 74 71 75 72 76 80 77
REMARK SMILES IDX 73 78 74 79 78 80 81 81 75 82 76 83 79 84 77 85 56 86 57 87
REMARK SMILES IDX 65 88 58 89 59 90 63 91 66 92 60 93 61 94 64 95 62 96
REMARK H PARENT 23 24 27 30 86 49 54 60
REMARK Flexibility Score: inf
ROOT
ATOM      1  C   UNL A   1      33.810  26.362  24.388  1.00  0.00    -0.029 C 
ATOM      2  C   UNL A   1      33.639  25.031  24.418  1.00  0.00    -0.003 C 
ENDROOT
BRANCH   1   3
ATOM      3  C   UNL A   1      33.624  27.220  23.166  1.00  0.00     0.031 C 
BRANCH   3   4
ATOM      4  C   UNL A   1      32.976  28.577  23.494  1.00  0.00     0.031 C 
BRANCH   4   5
ATOM      5  C   UNL A   1      33.237  29.030  24.906  1.00  0.00    -0.031 C 
ATOM      6  C   UNL A   1      32.277  29.293  25.806  1.00  0.00    -0.027 C 
BRANCH   6   7
ATOM      7  C   UNL A   1      32.550  29.791  27.196  1.00  0.00     0.054 C 
BRANCH   7   8
ATOM      8  C   UNL A   1      33.789  30.642  27.212  1.00  0.00    -0.027 C 
ATOM      9  C   UNL A   1      33.916  31.770  27.929  1.00  0.00    -0.027 C 
BRANCH   9  10
ATOM     10  C   UNL A   1      35.134  32.649  27.908  1.00  0.00     0.054 C 
BRANCH  10  11
ATOM     11  C   UNL A   1      35.452  33.137  29.292  1.00  0.00    -0.027 C 
ATOM     12  C   UNL A   1      34.711  32.862  30.378  1.00  0.00    -0.027 C 
BRANCH  12  13
ATOM     13  C   UNL A   1      35.011  33.375  31.756  1.00  0.00     0.054 C 
BRANCH  13  14
ATOM     14  C   UNL A   1      34.280  34.660  32.017  1.00  0.00    -0.027 C 
ATOM     15  C   UNL A   1      33.465  35.257  31.132  1.00  0.00    -0.031 C 
BRANCH  15  16
ATOM     16  C   UNL A   1      32.744  36.548  31.395  1.00  0.00     0.023 C 
ATOM     17  C   UNL A   1      33.631  37.530  32.146  1.00  0.00     0.008 C 
ENDBRANCH  15  16
ENDBRANCH  13  14
ENDBRANCH  12  13
ENDBRANCH  10  11
ENDBRANCH   9  10
ENDBRANCH   7   8
ENDBRANCH   6   7
ENDBRANCH   4   5
ENDBRANCH   3   4
ENDBRANCH   1   3
BRANCH   2  18
ATOM     18  C   UNL A   1      33.682  24.236  25.686  1.00  0.00     0.188 C 
BRANCH  18  19
ATOM     19  O   UNL A   1      34.221  22.934  25.447  1.00  0.00    -0.368 OA
BRANCH  19  20
ATOM     20  C   UNL A   1      35.294  22.587  26.313  1.00  0.00     0.260 C 
BRANCH  20  21
ATOM     21  C   UNL A   1      36.711  22.890  25.811  1.00  0.00     0.246 C 
ATOM     22  O   UNL A   1      37.243  23.989  25.968  1.00  0.00    -0.272 OA
ATOM     23  N   UNL A   1      37.413  21.904  25.177  1.00  0.00    -0.354 N 
ATOM     24  H   UNL A   1      38.334  22.132  24.915  1.00  0.00     0.163 HD
BRANCH  23  25
ATOM     25  C   UNL A   1      36.972  20.564  24.841  1.00  0.00     0.117 C 
BRANCH  25  26
ATOM     26  C   UNL A   1      38.078  19.531  25.023  1.00  0.00     0.042 C 
BRANCH  26  27
ATOM     27  C   UNL A   1      39.298  20.038  25.790  1.00  0.00     0.118 C 
BRANCH  27  28
ATOM     28  N   UNL A   1      40.384  19.070  25.840  1.00  0.00    -0.352 N 
ATOM     29  C   UNL A   1      41.724  19.242  26.079  1.00  0.00     0.251 C 
ATOM     30  H   UNL A   1      40.113  18.138  25.675  1.00  0.00     0.163 HD
ATOM     31  O   UNL A   1      42.491  18.292  25.921  1.00  0.00    -0.269 OA
BRANCH  29  32
ATOM     32  C   UNL A   1      42.265  20.551  26.501  1.00  0.00     0.039 A 
ATOM     33  C   UNL A   1      42.793  21.403  25.525  1.00  0.00     0.014 A 
ATOM     34  C   UNL A   1      42.299  20.932  27.844  1.00  0.00     0.014 A 
ATOM     35  C   UNL A   1      43.288  22.658  25.885  1.00  0.00     0.010 A 
ATOM     36  C   UNL A   1      42.728  22.211  28.195  1.00  0.00     0.010 A 
ATOM     37  C   UNL A   1      43.225  23.088  27.220  1.00  0.00    -0.014 A 
BRANCH  37  38
ATOM     38  C   UNL A   1      43.661  24.455  27.609  1.00  0.00     0.031 A 
ATOM     39  C   UNL A   1      42.649  25.490  28.015  1.00  0.00     0.074 A 
ATOM     40  C   UNL A   1      44.964  24.785  27.523  1.00  0.00     0.049 A 
ATOM     41  N   UNL A   1      42.829  26.756  28.303  1.00  0.00    -0.248 NA
ATOM     42  C   UNL A   1      41.246  25.055  28.078  1.00  0.00     0.031 C 
ATOM     43  C   UNL A   1      46.037  23.887  27.094  1.00  0.00     0.029 A 
ATOM     44  N   UNL A   1      45.607  25.972  27.775  1.00  0.00    -0.354 N 
ATOM     45  C   UNL A   1      41.564  27.270  28.559  1.00  0.00     0.074 A 
ATOM     46  C   UNL A   1      40.621  26.191  28.355  1.00  0.00     0.031 C 
ATOM     47  C   UNL A   1      47.204  24.551  27.120  1.00  0.00     0.029 A 
ATOM     48  C   UNL A   1      46.958  25.929  27.533  1.00  0.00     0.049 A 
ATOM     49  H   UNL A   1      45.143  26.779  28.098  1.00  0.00     0.167 HD
ATOM     50  C   UNL A   1      41.225  28.522  28.945  1.00  0.00     0.037 A 
ATOM     51  C   UNL A   1      47.892  26.895  27.619  1.00  0.00     0.037 A 
ATOM     52  C   UNL A   1      42.168  29.583  29.185  1.00  0.00     0.049 A 
ATOM     53  C   UNL A   1      47.488  28.274  28.067  1.00  0.00     0.074 A 
ATOM     54  C   UNL A   1      41.926  30.860  29.663  1.00  0.00     0.029 A 
ATOM     55  N   UNL A   1      43.534  29.491  28.963  1.00  0.00    -0.354 N 
ATOM     56  N   UNL A   1      46.300  28.725  28.384  1.00  0.00    -0.248 NA
ATOM     57  C   UNL A   1      48.558  29.276  28.175  1.00  0.00     0.031 C 
ATOM     58  C   UNL A   1      43.139  31.556  29.685  1.00  0.00     0.029 A 
ATOM     59  C   UNL A   1      44.145  30.697  29.270  1.00  0.00     0.049 A 
ATOM     60  H   UNL A   1      44.000  28.688  28.637  1.00  0.00     0.167 HD
ATOM     61  C   UNL A   1      46.481  30.050  28.756  1.00  0.00     0.074 A 
ATOM     62  C   UNL A   1      47.897  30.328  28.638  1.00  0.00     0.031 C 
ATOM     63  C   UNL A   1      45.556  30.956  29.157  1.00  0.00     0.037 A 
BRANCH  50  64
ATOM     64  C   UNL A   1      39.766  28.824  29.136  1.00  0.00     0.064 A 
ATOM     65  C   UNL A   1      39.149  28.717  30.391  1.00  0.00     0.173 A 
ATOM     66  C   UNL A   1      38.989  29.281  28.060  1.00  0.00     0.173 A 
ATOM     67  F   UNL A   1      39.846  28.276  31.450  1.00  0.00    -0.203 F 
ATOM     68  C   UNL A   1      37.803  29.034  30.558  1.00  0.00     0.198 A 
ATOM     69  C   UNL A   1      37.652  29.624  28.237  1.00  0.00     0.198 A 
ATOM     70  F   UNL A   1      39.532  29.408  26.840  1.00  0.00    -0.203 F 
ATOM     71  F   UNL A   1      37.226  28.885  31.758  1.00  0.00    -0.200 F 
ATOM     72  C   UNL A   1      37.058  29.495  29.483  1.00  0.00     0.200 A 
ATOM     73  F   UNL A   1      36.936  30.082  27.200  1.00  0.00    -0.200 F 
ATOM     74  F   UNL A   1      35.767  29.811  29.648  1.00  0.00    -0.200 F 
ENDBRANCH  50  64
BRANCH  51  75
ATOM     75  C   UNL A   1      49.308  26.591  27.284  1.00  0.00     0.064 A 
ATOM     76  C   UNL A   1      50.236  26.284  28.289  1.00  0.00     0.173 A 
ATOM     77  C   UNL A   1      49.764  26.613  25.958  1.00  0.00     0.173 A 
ATOM     78  F   UNL A   1      49.853  26.273  29.574  1.00  0.00    -0.203 F 
ATOM     79  C   UNL A   1      51.573  26.035  27.983  1.00  0.00     0.198 A 
ATOM     80  C   UNL A   1      51.094  26.335  25.650  1.00  0.00     0.198 A 
ATOM     81  F   UNL A   1      48.915  26.897  24.960  1.00  0.00    -0.203 F 
ATOM     82  F   UNL A   1      52.449  25.794  28.967  1.00  0.00    -0.200 F 
ATOM     83  C   UNL A   1      51.999  26.055  26.662  1.00  0.00     0.200 A 
ATOM     84  F   UNL A   1      51.499  26.342  24.372  1.00  0.00    -0.200 F 
ATOM     85  F   UNL A   1      53.284  25.814  26.368  1.00  0.00    -0.200 F 
ENDBRANCH  51  75
BRANCH  63  86
ATOM     86  C   UNL A   1      46.049  32.323  29.530  1.00  0.00     0.064 A 
ATOM     87  C   UNL A   1      46.483  32.620  30.831  1.00  0.00     0.173 A 
ATOM     88  C   UNL A   1      46.127  33.338  28.564  1.00  0.00     0.173 A 
ATOM     89  F   UNL A   1      46.414  31.688  31.794  1.00  0.00    -0.203 F 
ATOM     90  C   UNL A   1      46.953  33.889  31.156  1.00  0.00     0.198 A 
ATOM     91  C   UNL A   1      46.626  34.597  28.886  1.00  0.00     0.198 A 
ATOM     92  F   UNL A   1      45.732  33.104  27.304  1.00  0.00    -0.203 F 
ATOM     93  F   UNL A   1      47.319  34.164  32.416  1.00  0.00    -0.200 F 
ATOM     94  C   UNL A   1      47.032  34.873  30.182  1.00  0.00     0.200 A 
ATOM     95  F   UNL A   1      46.713  35.543  27.940  1.00  0.00    -0.200 F 
ATOM     96  F   UNL A   1      47.492  36.092  30.496  1.00  0.00    -0.200 F 
ENDBRANCH  63  86
ENDBRANCH  37  38
ENDBRANCH  29  32
ENDBRANCH  27  28
ENDBRANCH  26  27
ENDBRANCH  25  26
ENDBRANCH  23  25
ENDBRANCH  20  21
ENDBRANCH  19  20
ENDBRANCH  18  19
ENDBRANCH   2  18
TORSDOF 23
ENDMDL
MODEL 2
REMARK VINA RESULT:      -9.4      1.122      2.196
REMARK SMILES CC/C=C/C/C=C/C/C=C/C/C=C/CC/C=C/COCC(=O)NCCCNC(=O)c1ccc(-c2c3nc(c(-c4c(F)c(F)c(F)c(F)c4F)c4ccc([nH]4)c(-c4c(F)c(F)c(F)c(F)c4F)c4nc(c(-c5c(F)c(F)c(F)c(F)c5F)c5ccc2[nH]5)C=C4)C=C3)cc1
REMARK SMILES IDX 16 1 17 2 15 3 14 4 13 5 12 6 11 7 10 8 9 9 8 10 7 11 6 12
REMARK SMILES IDX 5 13 4 14 3 15 2 16 1 17 18 18 19 19 20 20 21 21 22 22 23 23
REMARK SMILES IDX 24 25 25 26 26 27 27 28 28 29 29 31 30 32 31 33 92 34 32 35
REMARK SMILES IDX 91 36 33 37 34 38 35 39 85 40 36 41 90 42 84 43 86 44 37 45
REMARK SMILES IDX 89 46 83 47 82 48 38 50 70 51 50 52 69 53 51 54 54 55 68 56
REMARK SMILES IDX 87 57 52 58 53 59 67 61 88 62 55 63 39 64 40 65 48 66 41 67
REMARK SMILES IDX 42 68 46 69 49 70 43 71 44 72 47 73 45 74 71 75 72 76 80 77
REMARK SMILES IDX 73 78 74 79 78 80 81 81 75 82 76 83 79 84 77 85 56 86 57 87
REMARK SMILES IDX 65 88 58 89 59 90 63 91 66 92 60 93 61 94 64 95 62 96
REMARK H PARENT 23 24 27 30 86 49 54 60
REMARK Flexibility Score: inf
ROOT
ATOM      1  C   UNL A   1      33.642  26.197  24.237  1.00  0.00    -0.029 C 
ATOM      2  C   UNL A   1      33.481  24.901  23.926  1.00  0.00    -0.003 C 
ENDROOT
BRANCH   1   3
ATOM      3  C   UNL A   1      33.598  27.326  23.244  1.00  0.00     0.031 C 
BRANCH   3   4
ATOM      4  C   UNL A   1      32.826  28.546  23.774  1.00  0.00     0.031 C 
BRANCH   4   5
ATOM      5  C   UNL A   1      33.429  29.129  25.024  1.00  0.00    -0.031 C 
ATOM      6  C   UNL A   1      33.030  28.829  26.269  1.00  0.00    -0.027 C 
BRANCH   6   7
ATOM      7  C   UNL A   1      33.608  29.455  27.505  1.00  0.00     0.054 C 
BRANCH   7   8
ATOM      8  C   UNL A   1      33.903  30.909  27.266  1.00  0.00    -0.027 C 
ATOM      9  C   UNL A   1      33.640  31.885  28.149  1.00  0.00    -0.027 C 
BRANCH   9  10
ATOM     10  C   UNL A   1      33.887  33.344  27.892  1.00  0.00     0.054 C 
BRANCH  10  11
ATOM     11  C   UNL A   1      35.356  33.648  27.961  1.00  0.00    -0.027 C 
ATOM     12  C   UNL A   1      36.217  33.028  28.786  1.00  0.00    -0.027 C 
BRANCH  12  13
ATOM     13  C   UNL A   1      37.680  33.352  28.876  1.00  0.00     0.054 C 
BRANCH  13  14
ATOM     14  C   UNL A   1      38.301  32.679  30.067  1.00  0.00    -0.027 C 
ATOM     15  C   UNL A   1      39.258  33.231  30.830  1.00  0.00    -0.031 C 
BRANCH  15  16
ATOM     16  C   UNL A   1      39.882  32.549  32.014  1.00  0.00     0.023 C 
ATOM     17  C   UNL A   1      38.821  32.021  32.967  1.00  0.00     0.008 C 
ENDBRANCH  15  16
ENDBRANCH  13  14
ENDBRANCH  12  13
ENDBRANCH  10  11
ENDBRANCH   9  10
ENDBRANCH   7   8
ENDBRANCH   6   7
ENDBRANCH   4   5
ENDBRANCH   3   4
ENDBRANCH   1   3
BRANCH   2  18
ATOM     18  C   UNL A   1      33.376  23.825  24.961  1.00  0.00     0.188 C 
BRANCH  18  19
ATOM     19  O   UNL A   1      34.385  22.832  24.762  1.00  0.00    -0.368 OA
BRANCH  19  20
ATOM     20  C   UNL A   1      35.253  22.661  25.876  1.00  0.00     0.260 C 
BRANCH  20  21
ATOM     21  C   UNL A   1      36.746  22.904  25.629  1.00  0.00     0.246 C 
ATOM     22  O   UNL A   1      37.286  23.985  25.869  1.00  0.00    -0.272 OA
ATOM     23  N   UNL A   1      37.510  21.884  25.135  1.00  0.00    -0.354 N 
ATOM     24  H   UNL A   1      38.471  22.074  25.038  1.00  0.00     0.163 HD
BRANCH  23  25
ATOM     25  C   UNL A   1      37.082  20.557  24.735  1.00  0.00     0.117 C 
BRANCH  25  26
ATOM     26  C   UNL A   1      38.130  19.495  25.051  1.00  0.00     0.042 C 
BRANCH  26  27
ATOM     27  C   UNL A   1      39.337  20.010  25.833  1.00  0.00     0.118 C 
BRANCH  27  28
ATOM     28  N   UNL A   1      40.434  19.053  25.885  1.00  0.00    -0.352 N 
ATOM     29  C   UNL A   1      41.774  19.243  26.103  1.00  0.00     0.251 C 
ATOM     30  H   UNL A   1      40.170  18.116  25.738  1.00  0.00     0.163 HD
ATOM     31  O   UNL A   1      42.549  18.298  25.951  1.00  0.00    -0.269 OA
BRANCH  29  32
ATOM     32  C   UNL A   1      42.308  20.564  26.496  1.00  0.00     0.039 A 
ATOM     33  C   UNL A   1      42.799  21.411  25.497  1.00  0.00     0.014 A 
ATOM     34  C   UNL A   1      42.370  20.960  27.834  1.00  0.00     0.014 A 
ATOM     35  C   UNL A   1      43.285  22.677  25.830  1.00  0.00     0.010 A 
ATOM     36  C   UNL A   1      42.790  22.249  28.160  1.00  0.00     0.010 A 
ATOM     37  C   UNL A   1      43.250  23.122  27.162  1.00  0.00    -0.014 A 
BRANCH  37  38
ATOM     38  C   UNL A   1      43.676  24.499  27.524  1.00  0.00     0.031 A 
ATOM     39  C   UNL A   1      42.661  25.525  27.944  1.00  0.00     0.074 A 
ATOM     40  C   UNL A   1      44.972  24.846  27.401  1.00  0.00     0.049 A 
ATOM     41  N   UNL A   1      42.830  26.796  28.213  1.00  0.00    -0.248 NA
ATOM     42  C   UNL A   1      41.266  25.071  28.049  1.00  0.00     0.031 C 
ATOM     43  C   UNL A   1      46.046  23.958  26.955  1.00  0.00     0.029 A 
ATOM     44  N   UNL A   1      45.604  26.045  27.623  1.00  0.00    -0.354 N 
ATOM     45  C   UNL A   1      41.565  27.296  28.496  1.00  0.00     0.074 A 
ATOM     46  C   UNL A   1      40.632  26.202  28.328  1.00  0.00     0.031 C 
ATOM     47  C   UNL A   1      47.204  24.638  26.943  1.00  0.00     0.029 A 
ATOM     48  C   UNL A   1      46.949  26.017  27.347  1.00  0.00     0.049 A 
ATOM     49  H   UNL A   1      45.138  26.848  27.949  1.00  0.00     0.167 HD
ATOM     50  C   UNL A   1      41.218  28.548  28.876  1.00  0.00     0.037 A 
ATOM     51  C   UNL A   1      47.872  26.997  27.398  1.00  0.00     0.037 A 
ATOM     52  C   UNL A   1      42.153  29.624  29.080  1.00  0.00     0.049 A 
ATOM     53  C   UNL A   1      47.460  28.375  27.841  1.00  0.00     0.074 A 
ATOM     54  C   UNL A   1      41.905  30.903  29.549  1.00  0.00     0.029 A 
ATOM     55  N   UNL A   1      43.513  29.548  28.824  1.00  0.00    -0.354 N 
ATOM     56  N   UNL A   1      46.274  28.813  28.183  1.00  0.00    -0.248 NA
ATOM     57  C   UNL A   1      48.519  29.393  27.910  1.00  0.00     0.031 C 
ATOM     58  C   UNL A   1      43.108  31.616  29.532  1.00  0.00     0.029 A 
ATOM     59  C   UNL A   1      44.115  30.766  29.101  1.00  0.00     0.049 A 
ATOM     60  H   UNL A   1      43.983  28.748  28.495  1.00  0.00     0.167 HD
ATOM     61  C   UNL A   1      46.447  30.145  28.535  1.00  0.00     0.074 A 
ATOM     62  C   UNL A   1      47.854  30.441  28.378  1.00  0.00     0.031 C 
ATOM     63  C   UNL A   1      45.519  31.043  28.949  1.00  0.00     0.037 A 
BRANCH  50  64
ATOM     64  C   UNL A   1      39.761  28.831  29.102  1.00  0.00     0.064 A 
ATOM     65  C   UNL A   1      39.172  28.705  30.368  1.00  0.00     0.173 A 
ATOM     66  C   UNL A   1      38.956  29.291  28.047  1.00  0.00     0.173 A 
ATOM     67  F   UNL A   1      39.896  28.261  31.408  1.00  0.00    -0.203 F 
ATOM     68  C   UNL A   1      37.827  29.006  30.566  1.00  0.00     0.198 A 
ATOM     69  C   UNL A   1      37.620  29.618  28.255  1.00  0.00     0.198 A 
ATOM     70  F   UNL A   1      39.472  29.436  26.817  1.00  0.00    -0.203 F 
ATOM     71  F   UNL A   1      37.277  28.839  31.777  1.00  0.00    -0.200 F 
ATOM     72  C   UNL A   1      37.054  29.470  29.513  1.00  0.00     0.200 A 
ATOM     73  F   UNL A   1      36.877  30.078  27.238  1.00  0.00    -0.200 F 
ATOM     74  F   UNL A   1      35.763  29.770  29.708  1.00  0.00    -0.200 F 
ENDBRANCH  50  64
BRANCH  51  75
ATOM     75  C   UNL A   1      49.283  26.708  27.031  1.00  0.00     0.064 A 
ATOM     76  C   UNL A   1      49.714  26.799  25.700  1.00  0.00     0.173 A 
ATOM     77  C   UNL A   1      50.223  26.323  27.997  1.00  0.00     0.173 A 
ATOM     78  F   UNL A   1      48.845  27.142  24.737  1.00  0.00    -0.203 F 
ATOM     79  C   UNL A   1      51.026  26.493  25.345  1.00  0.00     0.198 A 
ATOM     80  C   UNL A   1      51.543  26.045  27.645  1.00  0.00     0.198 A 
ATOM     81  F   UNL A   1      49.863  26.225  29.284  1.00  0.00    -0.203 F 
ATOM     82  F   UNL A   1      51.398  26.540  24.059  1.00  0.00    -0.200 F 
ATOM     83  C   UNL A   1      51.941  26.121  26.319  1.00  0.00     0.200 A 
ATOM     84  F   UNL A   1      52.428  25.700  28.591  1.00  0.00    -0.200 F 
ATOM     85  F   UNL A   1      53.203  25.828  25.978  1.00  0.00    -0.200 F 
ENDBRANCH  51  75
BRANCH  63  86
ATOM     86  C   UNL A   1      46.003  32.421  29.295  1.00  0.00     0.064 A 
ATOM     87  C   UNL A   1      45.888  33.489  28.393  1.00  0.00     0.173 A 
ATOM     88  C   UNL A   1      46.551  32.683  30.560  1.00  0.00     0.173 A 
ATOM     89  F   UNL A   1      45.385  33.286  27.167  1.00  0.00    -0.203 F 
ATOM     90  C   UNL A   1      46.327  34.765  28.737  1.00  0.00     0.198 A 
ATOM     91  C   UNL A   1      46.962  33.967  30.910  1.00  0.00     0.198 A 
ATOM     92  F   UNL A   1      46.676  31.698  31.461  1.00  0.00    -0.203 F 
ATOM     93  F   UNL A   1      46.250  35.761  27.844  1.00  0.00    -0.200 F 
ATOM     94  C   UNL A   1      46.856  35.004  29.997  1.00  0.00     0.200 A 
ATOM     95  F   UNL A   1      47.461  34.198  32.133  1.00  0.00    -0.200 F 
ATOM     96  F   UNL A   1      47.271  36.234  30.328  1.00  0.00    -0.200 F 
ENDBRANCH  63  86
ENDBRANCH  37  38
ENDBRANCH  29  32
ENDBRANCH  27  28
ENDBRANCH  26  27
ENDBRANCH  25  26
ENDBRANCH  23  25
ENDBRANCH  20  21
ENDBRANCH  19  20
ENDBRANCH  18  19
ENDBRANCH   2  18
TORSDOF 23
ENDMDL
MODEL 3
REMARK VINA RESULT:      -9.0      3.718      9.872
REMARK SMILES CC/C=C/C/C=C/C/C=C/C/C=C/CC/C=C/COCC(=O)NCCCNC(=O)c1ccc(-c2c3nc(c(-c4c(F)c(F)c(F)c(F)c4F)c4ccc([nH]4)c(-c4c(F)c(F)c(F)c(F)c4F)c4nc(c(-c5c(F)c(F)c(F)c(F)c5F)c5ccc2[nH]5)C=C4)C=C3)cc1
REMARK SMILES IDX 16 1 17 2 15 3 14 4 13 5 12 6 11 7 10 8 9 9 8 10 7 11 6 12
REMARK SMILES IDX 5 13 4 14 3 15 2 16 1 17 18 18 19 19 20 20 21 21 22 22 23 23
REMARK SMILES IDX 24 25 25 26 26 27 27 28 28 29 29 31 30 32 31 33 92 34 32 35
REMARK SMILES IDX 91 36 33 37 34 38 35 39 85 40 36 41 90 42 84 43 86 44 37 45
REMARK SMILES IDX 89 46 83 47 82 48 38 50 70 51 50 52 69 53 51 54 54 55 68 56
REMARK SMILES IDX 87 57 52 58 53 59 67 61 88 62 55 63 39 64 40 65 48 66 41 67
REMARK SMILES IDX 42 68 46 69 49 70 43 71 44 72 47 73 45 74 71 75 72 76 80 77
REMARK SMILES IDX 73 78 74 79 78 80 81 81 75 82 76 83 79 84 77 85 56 86 57 87
REMARK SMILES IDX 65 88 58 89 59 90 63 91 66 92 60 93 61 94 64 95 62 96
REMARK H PARENT 23 24 27 30 86 49 54 60
REMARK Flexibility Score: inf
ROOT
ATOM      1  C   UNL A   1      39.367  22.965  26.667  1.00  0.00    -0.029 C 
ATOM      2  C   UNL A   1      40.570  22.372  26.734  1.00  0.00    -0.003 C 
ENDROOT
BRANCH   1   3
ATOM      3  C   UNL A   1      39.150  24.452  26.596  1.00  0.00     0.031 C 
BRANCH   3   4
ATOM      4  C   UNL A   1      39.581  25.171  27.886  1.00  0.00     0.031 C 
BRANCH   4   5
ATOM      5  C   UNL A   1      39.902  26.626  27.672  1.00  0.00    -0.031 C 
ATOM      6  C   UNL A   1      39.414  27.627  28.419  1.00  0.00    -0.027 C 
BRANCH   6   7
ATOM      7  C   UNL A   1      39.705  29.078  28.164  1.00  0.00     0.054 C 
BRANCH   7   8
ATOM      8  C   UNL A   1      38.427  29.868  28.120  1.00  0.00    -0.027 C 
ATOM      9  C   UNL A   1      37.207  29.319  28.011  1.00  0.00    -0.027 C 
BRANCH   9  10
ATOM     10  C   UNL A   1      35.932  30.107  27.916  1.00  0.00     0.054 C 
BRANCH  10  11
ATOM     11  C   UNL A   1      34.780  29.204  27.582  1.00  0.00    -0.027 C 
ATOM     12  C   UNL A   1      34.352  28.960  26.332  1.00  0.00    -0.027 C 
BRANCH  12  13
ATOM     13  C   UNL A   1      33.181  28.081  25.999  1.00  0.00     0.054 C 
BRANCH  13  14
ATOM     14  C   UNL A   1      33.640  26.803  25.357  1.00  0.00    -0.027 C 
ATOM     15  C   UNL A   1      33.546  25.594  25.934  1.00  0.00    -0.031 C 
BRANCH  15  16
ATOM     16  C   UNL A   1      34.017  24.321  25.291  1.00  0.00     0.023 C 
ATOM     17  C   UNL A   1      35.516  24.133  25.475  1.00  0.00     0.008 C 
ENDBRANCH  15  16
ENDBRANCH  13  14
ENDBRANCH  12  13
ENDBRANCH  10  11
ENDBRANCH   9  10
ENDBRANCH   7   8
ENDBRANCH   6   7
ENDBRANCH   4   5
ENDBRANCH   3   4
ENDBRANCH   1   3
BRANCH   2  18
ATOM     18  C   UNL A   1      40.750  20.889  26.646  1.00  0.00     0.188 C 
BRANCH  18  19
ATOM     19  O   UNL A   1      42.085  20.565  26.253  1.00  0.00    -0.368 OA
BRANCH  19  20
ATOM     20  C   UNL A   1      42.220  19.269  25.682  1.00  0.00     0.260 C 
BRANCH  20  21
ATOM     21  C   UNL A   1      43.417  18.432  26.148  1.00  0.00     0.246 C 
ATOM     22  O   UNL A   1      43.323  17.588  27.039  1.00  0.00    -0.272 OA
ATOM     23  N   UNL A   1      44.630  18.621  25.547  1.00  0.00    -0.354 N 
ATOM     24  H   UNL A   1      45.356  18.028  25.848  1.00  0.00     0.163 HD
BRANCH  23  25
ATOM     25  C   UNL A   1      44.981  19.585  24.522  1.00  0.00     0.117 C 
BRANCH  25  26
ATOM     26  C   UNL A   1      46.220  20.394  24.894  1.00  0.00     0.042 C 
BRANCH  26  27
ATOM     27  C   UNL A   1      45.939  21.850  25.261  1.00  0.00     0.118 C 
BRANCH  27  28
ATOM     28  N   UNL A   1      44.885  21.994  26.255  1.00  0.00    -0.352 N 
ATOM     29  C   UNL A   1      44.562  23.051  27.066  1.00  0.00     0.251 C 
ATOM     30  H   UNL A   1      44.310  21.202  26.364  1.00  0.00     0.163 HD
ATOM     31  O   UNL A   1      43.718  22.897  27.950  1.00  0.00    -0.269 OA
BRANCH  29  32
ATOM     32  C   UNL A   1      45.223  24.365  26.914  1.00  0.00     0.039 A 
ATOM     33  C   UNL A   1      45.883  24.914  28.019  1.00  0.00     0.014 A 
ATOM     34  C   UNL A   1      45.166  25.079  25.716  1.00  0.00     0.014 A 
ATOM     35  C   UNL A   1      46.541  26.140  27.903  1.00  0.00     0.010 A 
ATOM     36  C   UNL A   1      45.881  26.269  25.579  1.00  0.00     0.010 A 
ATOM     37  C   UNL A   1      46.577  26.810  26.670  1.00  0.00    -0.014 A 
BRANCH  37  38
ATOM     38  C   UNL A   1      47.350  28.069  26.501  1.00  0.00     0.031 A 
ATOM     39  C   UNL A   1      48.832  28.026  26.250  1.00  0.00     0.074 A 
ATOM     40  C   UNL A   1      46.727  29.254  26.650  1.00  0.00     0.049 A 
ATOM     41  N   UNL A   1      49.686  29.015  26.164  1.00  0.00    -0.248 NA
ATOM     42  C   UNL A   1      49.440  26.694  26.106  1.00  0.00     0.031 C 
ATOM     43  C   UNL A   1      45.305  29.430  26.946  1.00  0.00     0.029 A 
ATOM     44  N   UNL A   1      47.214  30.537  26.592  1.00  0.00    -0.354 N 
ATOM     45  C   UNL A   1      50.931  28.426  25.978  1.00  0.00     0.074 A 
ATOM     46  C   UNL A   1      50.728  26.994  26.003  1.00  0.00     0.031 C 
ATOM     47  C   UNL A   1      45.032  30.742  27.034  1.00  0.00     0.029 A 
ATOM     48  C   UNL A   1      46.265  31.498  26.837  1.00  0.00     0.049 A 
ATOM     49  H   UNL A   1      48.155  30.747  26.393  1.00  0.00     0.167 HD
ATOM     50  C   UNL A   1      52.128  29.027  25.787  1.00  0.00     0.037 A 
ATOM     51  C   UNL A   1      46.377  32.838  26.911  1.00  0.00     0.037 A 
ATOM     52  C   UNL A   1      52.322  30.453  25.723  1.00  0.00     0.049 A 
ATOM     53  C   UNL A   1      47.718  33.480  26.678  1.00  0.00     0.074 A 
ATOM     54  C   UNL A   1      53.484  31.154  25.447  1.00  0.00     0.029 A 
ATOM     55  N   UNL A   1      51.329  31.396  25.942  1.00  0.00    -0.354 N 
ATOM     56  N   UNL A   1      48.872  32.914  26.422  1.00  0.00    -0.248 NA
ATOM     57  C   UNL A   1      47.770  34.948  26.737  1.00  0.00     0.031 C 
ATOM     58  C   UNL A   1      53.204  32.520  25.545  1.00  0.00     0.029 A 
ATOM     59  C   UNL A   1      51.857  32.672  25.832  1.00  0.00     0.049 A 
ATOM     60  H   UNL A   1      50.388  31.188  26.145  1.00  0.00     0.167 HD
ATOM     61  C   UNL A   1      49.779  33.952  26.263  1.00  0.00     0.074 A 
ATOM     62  C   UNL A   1      49.040  35.185  26.436  1.00  0.00     0.031 C 
ATOM     63  C   UNL A   1      51.107  33.890  25.998  1.00  0.00     0.037 A 
BRANCH  50  64
ATOM     64  C   UNL A   1      53.335  28.148  25.630  1.00  0.00     0.064 A 
ATOM     65  C   UNL A   1      53.972  27.564  26.734  1.00  0.00     0.173 A 
ATOM     66  C   UNL A   1      53.826  27.839  24.351  1.00  0.00     0.173 A 
ATOM     67  F   UNL A   1      53.547  27.834  27.979  1.00  0.00    -0.203 F 
ATOM     68  C   UNL A   1      55.069  26.723  26.568  1.00  0.00     0.198 A 
ATOM     69  C   UNL A   1      54.905  26.975  24.187  1.00  0.00     0.198 A 
ATOM     70  F   UNL A   1      53.249  28.366  23.261  1.00  0.00    -0.203 F 
ATOM     71  F   UNL A   1      55.685  26.209  27.641  1.00  0.00    -0.200 F 
ATOM     72  C   UNL A   1      55.529  26.422  25.295  1.00  0.00     0.200 A 
ATOM     73  F   UNL A   1      55.341  26.676  22.955  1.00  0.00    -0.200 F 
ATOM     74  F   UNL A   1      56.578  25.603  25.136  1.00  0.00    -0.200 F 
ENDBRANCH  50  64
BRANCH  51  75
ATOM     75  C   UNL A   1      45.181  33.668  27.209  1.00  0.00     0.064 A 
ATOM     76  C   UNL A   1      44.821  33.966  28.530  1.00  0.00     0.173 A 
ATOM     77  C   UNL A   1      44.366  34.168  26.182  1.00  0.00     0.173 A 
ATOM     78  F   UNL A   1      45.556  33.492  29.547  1.00  0.00    -0.203 F 
ATOM     79  C   UNL A   1      43.679  34.712  28.816  1.00  0.00     0.198 A 
ATOM     80  C   UNL A   1      43.241  34.938  26.467  1.00  0.00     0.198 A 
ATOM     81  F   UNL A   1      44.669  33.915  24.901  1.00  0.00    -0.203 F 
ATOM     82  F   UNL A   1      43.332  34.940  30.089  1.00  0.00    -0.200 F 
ATOM     83  C   UNL A   1      42.893  35.202  27.783  1.00  0.00     0.200 A 
ATOM     84  F   UNL A   1      42.491  35.422  25.466  1.00  0.00    -0.200 F 
ATOM     85  F   UNL A   1      41.795  35.920  28.057  1.00  0.00    -0.200 F 
ENDBRANCH  51  75
BRANCH  63  86
ATOM     86  C   UNL A   1      51.840  35.190  25.845  1.00  0.00     0.064 A 
ATOM     87  C   UNL A   1      52.114  35.737  24.583  1.00  0.00     0.173 A 
ATOM     88  C   UNL A   1      52.237  35.918  26.978  1.00  0.00     0.173 A 
ATOM     89  F   UNL A   1      51.769  35.073  23.470  1.00  0.00    -0.203 F 
ATOM     90  C   UNL A   1      52.780  36.953  24.460  1.00  0.00     0.198 A 
ATOM     91  C   UNL A   1      52.877  37.148  26.851  1.00  0.00     0.198 A 
ATOM     92  F   UNL A   1      51.992  35.442  28.207  1.00  0.00    -0.203 F 
ATOM     93  F   UNL A   1      53.073  37.436  23.244  1.00  0.00    -0.200 F 
ATOM     94  C   UNL A   1      53.154  37.661  25.593  1.00  0.00     0.200 A 
ATOM     95  F   UNL A   1      53.226  37.836  27.947  1.00  0.00    -0.200 F 
ATOM     96  F   UNL A   1      53.789  38.835  25.473  1.00  0.00    -0.200 F 
ENDBRANCH  63  86
ENDBRANCH  37  38
ENDBRANCH  29  32
ENDBRANCH  27  28
ENDBRANCH  26  27
ENDBRANCH  25  26
ENDBRANCH  23  25
ENDBRANCH  20  21
ENDBRANCH  19  20
ENDBRANCH  18  19
ENDBRANCH   2  18
TORSDOF 23
ENDMDL
