MODEL 1
REMARK VINA RESULT:     -11.3      0.000      0.000
REMARK SMILES CCCCNC(=O)[C@@H](C)Oc1ccc(N)cc1C(=O)NCCCNC(=O)c1ccc(-c2c3nc(c(-c4c(F)c(F)c(F)c(F)c4F)c4ccc([nH]4)c(-c4c(F)c(F)c(F)c(F)c4F)c4nc(c(-c5c(F)c(F)c(F)c(F)c5F)c5ccc2[nH]5)C=C4)C=C3)cc1
REMARK SMILES IDX 18 1 19 2 20 3 17 5 11 6 12 7 13 8 16 9 14 10 10 11 8 12
REMARK SMILES IDX 9 13 6 14 5 15 7 17 4 18 3 19 2 20 1 21 15 22 21 25 22 26
REMARK SMILES IDX 23 27 24 28 25 29 26 31 27 32 28 33 89 34 29 35 88 36 30 37
REMARK SMILES IDX 31 38 32 39 82 40 33 41 87 42 81 43 83 44 34 45 86 46 80 47
REMARK SMILES IDX 79 48 35 50 67 51 47 52 66 53 48 54 51 55 65 56 84 57 49 58
REMARK SMILES IDX 50 59 64 61 85 62 52 63 36 64 37 65 45 66 38 67 39 68 43 69
REMARK SMILES IDX 46 70 40 71 41 72 44 73 42 74 68 75 69 76 77 77 70 78 71 79
REMARK SMILES IDX 75 80 78 81 72 82 73 83 76 84 74 85 53 86 54 87 62 88 55 89
REMARK SMILES IDX 56 90 60 91 63 92 57 93 58 94 61 95 59 96
REMARK H PARENT 20 4 5 16 15 23 15 24 24 30 83 49 51 60
REMARK Flexibility Score: inf
ROOT
ATOM      1  C   UNL A   1      31.391  24.892  26.516  1.00  0.00     0.255 C 
ATOM      2  O   UNL A   1      30.618  24.082  27.044  1.00  0.00    -0.269 OA
ATOM      3  N   UNL A   1      30.890  26.160  26.422  1.00  0.00    -0.352 N 
ATOM      4  H   UNL A   1      30.107  26.296  27.004  1.00  0.00     0.163 HD
ENDROOT
BRANCH   1   5
ATOM      5  C   UNL A   1      32.771  24.427  26.167  1.00  0.00     0.083 A 
ATOM      6  C   UNL A   1      33.710  24.978  25.290  1.00  0.00     0.133 A 
ATOM      7  C   UNL A   1      35.046  24.563  25.371  1.00  0.00     0.049 A 
ATOM      8  C   UNL A   1      35.407  23.439  26.122  1.00  0.00     0.029 A 
ATOM      9  C   UNL A   1      33.157  23.262  26.877  1.00  0.00     0.043 A 
ATOM     10  C   UNL A   1      34.438  22.716  26.799  1.00  0.00     0.032 A 
BRANCH   6  11
ATOM     11  O   UNL A   1      33.429  25.971  24.410  1.00  0.00    -0.480 OA
BRANCH  11  12
ATOM     12  C   UNL A   1      32.976  25.634  23.097  1.00  0.00     0.258 C 
ATOM     13  C   UNL A   1      33.144  26.756  22.066  1.00  0.00     0.064 C 
BRANCH  12  14
ATOM     14  C   UNL A   1      31.716  24.761  22.851  1.00  0.00     0.260 C 
ATOM     15  N   UNL A   1      31.778  23.409  22.685  1.00  0.00    -0.353 N 
ATOM     16  H   UNL A   1      30.925  22.930  22.796  1.00  0.00     0.163 HD
ATOM     17  O   UNL A   1      30.592  25.275  22.834  1.00  0.00    -0.271 OA
BRANCH  15  18
ATOM     18  C   UNL A   1      32.920  22.577  22.369  1.00  0.00     0.116 C 
BRANCH  18  19
ATOM     19  C   UNL A   1      33.335  21.651  23.501  1.00  0.00     0.021 C 
BRANCH  19  20
ATOM     20  C   UNL A   1      32.159  20.976  24.213  1.00  0.00    -0.002 C 
ATOM     21  C   UNL A   1      32.552  19.711  24.972  1.00  0.00     0.004 C 
ENDBRANCH  19  20
ENDBRANCH  18  19
ENDBRANCH  15  18
ENDBRANCH  12  14
ENDBRANCH  11  12
ENDBRANCH   6  11
BRANCH  10  22
ATOM     22  N   UNL A   1      34.758  21.569  27.504  1.00  0.00    -0.399 N 
ATOM     23  H   UNL A   1      35.234  21.636  28.363  1.00  0.00     0.156 HD
ATOM     24  H   UNL A   1      34.509  20.686  27.147  1.00  0.00     0.156 HD
ENDBRANCH  10  22
ENDBRANCH   1   5
BRANCH   3  25
ATOM     25  C   UNL A   1      31.233  27.352  25.674  1.00  0.00     0.118 C 
BRANCH  25  26
ATOM     26  C   UNL A   1      31.900  28.353  26.618  1.00  0.00     0.042 C 
BRANCH  26  27
ATOM     27  C   UNL A   1      32.939  29.209  25.909  1.00  0.00     0.118 C 
BRANCH  27  28
ATOM     28  N   UNL A   1      32.769  30.619  26.223  1.00  0.00    -0.352 N 
ATOM     29  C   UNL A   1      33.396  31.416  27.142  1.00  0.00     0.251 C 
ATOM     30  H   UNL A   1      32.086  31.078  25.684  1.00  0.00     0.163 HD
ATOM     31  O   UNL A   1      32.887  32.504  27.429  1.00  0.00    -0.269 OA
BRANCH  29  32
ATOM     32  C   UNL A   1      34.663  31.017  27.796  1.00  0.00     0.039 A 
ATOM     33  C   UNL A   1      34.779  29.716  28.297  1.00  0.00     0.014 A 
ATOM     34  C   UNL A   1      35.706  31.922  28.002  1.00  0.00     0.014 A 
ATOM     35  C   UNL A   1      35.933  29.327  28.981  1.00  0.00     0.010 A 
ATOM     36  C   UNL A   1      36.905  31.498  28.567  1.00  0.00     0.010 A 
ATOM     37  C   UNL A   1      37.017  30.211  29.106  1.00  0.00    -0.014 A 
BRANCH  37  38
ATOM     38  C   UNL A   1      38.243  29.826  29.850  1.00  0.00     0.031 A 
ATOM     39  C   UNL A   1      38.479  30.347  31.245  1.00  0.00     0.074 A 
ATOM     40  C   UNL A   1      39.172  29.055  29.255  1.00  0.00     0.049 A 
ATOM     41  N   UNL A   1      39.501  30.157  32.042  1.00  0.00    -0.248 NA
ATOM     42  C   UNL A   1      37.449  31.238  31.803  1.00  0.00     0.031 C 
ATOM     43  C   UNL A   1      39.100  28.557  27.880  1.00  0.00     0.029 A 
ATOM     44  N   UNL A   1      40.360  28.558  29.727  1.00  0.00    -0.354 N 
ATOM     45  C   UNL A   1      39.252  30.932  33.168  1.00  0.00     0.074 A 
ATOM     46  C   UNL A   1      38.018  31.646  32.926  1.00  0.00     0.031 C 
ATOM     47  C   UNL A   1      40.180  27.799  27.631  1.00  0.00     0.029 A 
ATOM     48  C   UNL A   1      41.031  27.782  28.817  1.00  0.00     0.049 A 
ATOM     49  H   UNL A   1      40.698  28.741  30.634  1.00  0.00     0.167 HD
ATOM     50  C   UNL A   1      39.968  31.017  34.315  1.00  0.00     0.037 A 
ATOM     51  C   UNL A   1      42.200  27.124  28.929  1.00  0.00     0.037 A 
ATOM     52  C   UNL A   1      41.165  30.262  34.571  1.00  0.00     0.049 A 
ATOM     53  C   UNL A   1      42.939  27.167  30.237  1.00  0.00     0.074 A 
ATOM     54  C   UNL A   1      41.916  30.194  35.731  1.00  0.00     0.029 A 
ATOM     55  N   UNL A   1      41.786  29.435  33.644  1.00  0.00    -0.354 N 
ATOM     56  N   UNL A   1      42.648  27.831  31.330  1.00  0.00    -0.248 NA
ATOM     57  C   UNL A   1      44.158  26.354  30.333  1.00  0.00     0.031 C 
ATOM     58  C   UNL A   1      43.016  29.363  35.491  1.00  0.00     0.029 A 
ATOM     59  C   UNL A   1      42.922  28.870  34.199  1.00  0.00     0.049 A 
ATOM     60  H   UNL A   1      41.465  29.275  32.727  1.00  0.00     0.167 HD
ATOM     61  C   UNL A   1      43.635  27.505  32.250  1.00  0.00     0.074 A 
ATOM     62  C   UNL A   1      44.519  26.563  31.591  1.00  0.00     0.031 C 
ATOM     63  C   UNL A   1      43.797  27.945  33.522  1.00  0.00     0.037 A 
BRANCH  50  64
ATOM     64  C   UNL A   1      39.468  31.962  35.374  1.00  0.00     0.064 A 
ATOM     65  C   UNL A   1      39.882  33.303  35.430  1.00  0.00     0.173 A 
ATOM     66  C   UNL A   1      38.565  31.519  36.352  1.00  0.00     0.173 A 
ATOM     67  F   UNL A   1      40.753  33.779  34.527  1.00  0.00    -0.203 F 
ATOM     68  C   UNL A   1      39.454  34.146  36.453  1.00  0.00     0.198 A 
ATOM     69  C   UNL A   1      38.110  32.376  37.353  1.00  0.00     0.198 A 
ATOM     70  F   UNL A   1      38.127  30.251  36.345  1.00  0.00    -0.203 F 
ATOM     71  F   UNL A   1      39.924  35.399  36.526  1.00  0.00    -0.200 F 
ATOM     72  C   UNL A   1      38.565  33.683  37.410  1.00  0.00     0.200 A 
ATOM     73  F   UNL A   1      37.240  31.929  38.270  1.00  0.00    -0.200 F 
ATOM     74  F   UNL A   1      38.158  34.494  38.397  1.00  0.00    -0.200 F 
ENDBRANCH  50  64
BRANCH  51  75
ATOM     75  C   UNL A   1      42.703  26.331  27.778  1.00  0.00     0.064 A 
ATOM     76  C   UNL A   1      43.614  26.883  26.866  1.00  0.00     0.173 A 
ATOM     77  C   UNL A   1      42.320  24.996  27.592  1.00  0.00     0.173 A 
ATOM     78  F   UNL A   1      43.998  28.162  26.994  1.00  0.00    -0.203 F 
ATOM     79  C   UNL A   1      44.113  26.132  25.804  1.00  0.00     0.198 A 
ATOM     80  C   UNL A   1      42.839  24.238  26.544  1.00  0.00     0.198 A 
ATOM     81  F   UNL A   1      41.460  24.419  28.443  1.00  0.00    -0.203 F 
ATOM     82  F   UNL A   1      44.958  26.693  24.928  1.00  0.00    -0.200 F 
ATOM     83  C   UNL A   1      43.732  24.807  25.649  1.00  0.00     0.200 A 
ATOM     84  F   UNL A   1      42.484  22.953  26.408  1.00  0.00    -0.200 F 
ATOM     85  F   UNL A   1      44.224  24.081  24.636  1.00  0.00    -0.200 F 
ENDBRANCH  51  75
BRANCH  63  86
ATOM     86  C   UNL A   1      44.968  27.399  34.286  1.00  0.00     0.064 A 
ATOM     87  C   UNL A   1      44.876  26.207  35.020  1.00  0.00     0.173 A 
ATOM     88  C   UNL A   1      46.201  28.069  34.273  1.00  0.00     0.173 A 
ATOM     89  F   UNL A   1      43.715  25.535  35.075  1.00  0.00    -0.203 F 
ATOM     90  C   UNL A   1      45.965  25.725  35.742  1.00  0.00     0.198 A 
ATOM     91  C   UNL A   1      47.297  27.567  34.970  1.00  0.00     0.198 A 
ATOM     92  F   UNL A   1      46.344  29.209  33.580  1.00  0.00    -0.203 F 
ATOM     93  F   UNL A   1      45.836  24.616  36.484  1.00  0.00    -0.200 F 
ATOM     94  C   UNL A   1      47.174  26.402  35.712  1.00  0.00     0.200 A 
ATOM     95  F   UNL A   1      48.468  28.215  34.928  1.00  0.00    -0.200 F 
ATOM     96  F   UNL A   1      48.221  25.938  36.408  1.00  0.00    -0.200 F 
ENDBRANCH  63  86
ENDBRANCH  37  38
ENDBRANCH  29  32
ENDBRANCH  27  28
ENDBRANCH  26  27
ENDBRANCH  25  26
ENDBRANCH   3  25
TORSDOF 17
ENDMDL
MODEL 2
REMARK VINA RESULT:     -11.3      1.083      2.072
REMARK SMILES CCCCNC(=O)[C@@H](C)Oc1ccc(N)cc1C(=O)NCCCNC(=O)c1ccc(-c2c3nc(c(-c4c(F)c(F)c(F)c(F)c4F)c4ccc([nH]4)c(-c4c(F)c(F)c(F)c(F)c4F)c4nc(c(-c5c(F)c(F)c(F)c(F)c5F)c5ccc2[nH]5)C=C4)C=C3)cc1
REMARK SMILES IDX 18 1 19 2 20 3 17 5 11 6 12 7 13 8 16 9 14 10 10 11 8 12
REMARK SMILES IDX 9 13 6 14 5 15 7 17 4 18 3 19 2 20 1 21 15 22 21 25 22 26
REMARK SMILES IDX 23 27 24 28 25 29 26 31 27 32 28 33 89 34 29 35 88 36 30 37
REMARK SMILES IDX 31 38 32 39 82 40 33 41 87 42 81 43 83 44 34 45 86 46 80 47
REMARK SMILES IDX 79 48 35 50 67 51 47 52 66 53 48 54 51 55 65 56 84 57 49 58
REMARK SMILES IDX 50 59 64 61 85 62 52 63 36 64 37 65 45 66 38 67 39 68 43 69
REMARK SMILES IDX 46 70 40 71 41 72 44 73 42 74 68 75 69 76 77 77 70 78 71 79
REMARK SMILES IDX 75 80 78 81 72 82 73 83 76 84 74 85 53 86 54 87 62 88 55 89
REMARK SMILES IDX 56 90 60 91 63 92 57 93 58 94 61 95 59 96
REMARK H PARENT 20 4 5 16 15 23 15 24 24 30 83 49 51 60
REMARK Flexibility Score: inf
ROOT
ATOM      1  C   UNL A   1      33.363  26.400  22.460  1.00  0.00     0.255 C 
ATOM      2  O   UNL A   1      33.491  25.575  21.547  1.00  0.00    -0.269 OA
ATOM      3  N   UNL A   1      33.667  27.683  22.099  1.00  0.00    -0.352 N 
ATOM      4  H   UNL A   1      33.698  27.798  21.122  1.00  0.00     0.163 HD
ENDROOT
BRANCH   1   5
ATOM      5  C   UNL A   1      32.798  25.928  23.764  1.00  0.00     0.083 A 
ATOM      6  C   UNL A   1      33.450  25.516  24.930  1.00  0.00     0.133 A 
ATOM      7  C   UNL A   1      32.724  25.434  26.126  1.00  0.00     0.049 A 
ATOM      8  C   UNL A   1      31.327  25.503  26.127  1.00  0.00     0.029 A 
ATOM      9  C   UNL A   1      31.380  25.942  23.789  1.00  0.00     0.043 A 
ATOM     10  C   UNL A   1      30.638  25.652  24.934  1.00  0.00     0.032 A 
BRANCH   6  11
ATOM     11  O   UNL A   1      34.782  25.273  25.003  1.00  0.00    -0.480 OA
BRANCH  11  12
ATOM     12  C   UNL A   1      35.262  23.940  24.809  1.00  0.00     0.258 C 
ATOM     13  C   UNL A   1      36.459  23.567  25.690  1.00  0.00     0.064 C 
BRANCH  12  14
ATOM     14  C   UNL A   1      35.298  23.266  23.410  1.00  0.00     0.260 C 
ATOM     15  N   UNL A   1      34.196  22.706  22.834  1.00  0.00    -0.353 N 
ATOM     16  H   UNL A   1      34.262  22.545  21.865  1.00  0.00     0.163 HD
ATOM     17  O   UNL A   1      36.343  23.251  22.750  1.00  0.00    -0.271 OA
BRANCH  15  18
ATOM     18  C   UNL A   1      32.944  22.314  23.445  1.00  0.00     0.116 C 
BRANCH  18  19
ATOM     19  C   UNL A   1      32.904  20.859  23.881  1.00  0.00     0.021 C 
BRANCH  19  20
ATOM     20  C   UNL A   1      33.390  20.626  25.314  1.00  0.00    -0.002 C 
ATOM     21  C   UNL A   1      32.932  21.702  26.294  1.00  0.00     0.004 C 
ENDBRANCH  19  20
ENDBRANCH  18  19
ENDBRANCH  15  18
ENDBRANCH  12  14
ENDBRANCH  11  12
ENDBRANCH   6  11
BRANCH  10  22
ATOM     22  N   UNL A   1      29.255  25.668  24.899  1.00  0.00    -0.399 N 
ATOM     23  H   UNL A   1      28.740  25.410  25.698  1.00  0.00     0.156 HD
ATOM     24  H   UNL A   1      28.786  25.937  24.077  1.00  0.00     0.156 HD
ENDBRANCH  10  22
ENDBRANCH   1   5
BRANCH   3  25
ATOM     25  C   UNL A   1      33.953  28.913  22.808  1.00  0.00     0.118 C 
BRANCH  25  26
ATOM     26  C   UNL A   1      32.756  29.264  23.692  1.00  0.00     0.042 C 
BRANCH  26  27
ATOM     27  C   UNL A   1      33.128  29.329  25.166  1.00  0.00     0.118 C 
BRANCH  27  28
ATOM     28  N   UNL A   1      32.744  30.602  25.754  1.00  0.00    -0.352 N 
ATOM     29  C   UNL A   1      33.196  31.247  26.873  1.00  0.00     0.251 C 
ATOM     30  H   UNL A   1      32.038  31.083  25.265  1.00  0.00     0.163 HD
ATOM     31  O   UNL A   1      32.523  32.173  27.336  1.00  0.00    -0.269 OA
BRANCH  29  32
ATOM     32  C   UNL A   1      34.462  30.871  27.541  1.00  0.00     0.039 A 
ATOM     33  C   UNL A   1      34.617  29.558  27.998  1.00  0.00     0.014 A 
ATOM     34  C   UNL A   1      35.467  31.806  27.802  1.00  0.00     0.014 A 
ATOM     35  C   UNL A   1      35.770  29.187  28.692  1.00  0.00     0.010 A 
ATOM     36  C   UNL A   1      36.668  31.406  28.378  1.00  0.00     0.010 A 
ATOM     37  C   UNL A   1      36.817  30.105  28.873  1.00  0.00    -0.014 A 
BRANCH  37  38
ATOM     38  C   UNL A   1      38.041  29.739  29.630  1.00  0.00     0.031 A 
ATOM     39  C   UNL A   1      38.253  30.260  31.028  1.00  0.00     0.074 A 
ATOM     40  C   UNL A   1      38.989  28.984  29.043  1.00  0.00     0.049 A 
ATOM     41  N   UNL A   1      39.269  30.085  31.836  1.00  0.00    -0.248 NA
ATOM     42  C   UNL A   1      37.203  31.132  31.577  1.00  0.00     0.031 C 
ATOM     43  C   UNL A   1      38.941  28.488  27.666  1.00  0.00     0.029 A 
ATOM     44  N   UNL A   1      40.180  28.506  29.528  1.00  0.00    -0.354 N 
ATOM     45  C   UNL A   1      38.995  30.852  32.961  1.00  0.00     0.074 A 
ATOM     46  C   UNL A   1      37.753  31.547  32.707  1.00  0.00     0.031 C 
ATOM     47  C   UNL A   1      40.036  27.749  27.428  1.00  0.00     0.029 A 
ATOM     48  C   UNL A   1      40.874  27.743  28.622  1.00  0.00     0.049 A 
ATOM     49  H   UNL A   1      40.505  28.692  30.438  1.00  0.00     0.167 HD
ATOM     50  C   UNL A   1      39.697  30.947  34.116  1.00  0.00     0.037 A 
ATOM     51  C   UNL A   1      42.052  27.104  28.746  1.00  0.00     0.037 A 
ATOM     52  C   UNL A   1      40.903  30.210  34.384  1.00  0.00     0.049 A 
ATOM     53  C   UNL A   1      42.775  27.156  30.062  1.00  0.00     0.074 A 
ATOM     54  C   UNL A   1      41.642  30.152  35.552  1.00  0.00     0.029 A 
ATOM     55  N   UNL A   1      41.548  29.397  33.462  1.00  0.00    -0.354 N 
ATOM     56  N   UNL A   1      42.462  27.812  31.154  1.00  0.00    -0.248 NA
ATOM     57  C   UNL A   1      44.007  26.363  30.170  1.00  0.00     0.031 C 
ATOM     58  C   UNL A   1      42.759  29.339  35.322  1.00  0.00     0.029 A 
ATOM     59  C   UNL A   1      42.687  28.848  34.028  1.00  0.00     0.049 A 
ATOM     60  H   UNL A   1      41.240  29.233  32.541  1.00  0.00     0.167 HD
ATOM     61  C   UNL A   1      43.444  27.500  32.084  1.00  0.00     0.074 A 
ATOM     62  C   UNL A   1      44.350  26.575  31.433  1.00  0.00     0.031 C 
ATOM     63  C   UNL A   1      43.584  27.940  33.359  1.00  0.00     0.037 A 
BRANCH  50  64
ATOM     64  C   UNL A   1      39.169  31.881  35.172  1.00  0.00     0.064 A 
ATOM     65  C   UNL A   1      39.418  33.262  35.134  1.00  0.00     0.173 A 
ATOM     66  C   UNL A   1      38.409  31.386  36.242  1.00  0.00     0.173 A 
ATOM     67  F   UNL A   1      40.149  33.790  34.140  1.00  0.00    -0.203 F 
ATOM     68  C   UNL A   1      38.972  34.102  36.152  1.00  0.00     0.198 A 
ATOM     69  C   UNL A   1      37.932  32.234  37.239  1.00  0.00     0.198 A 
ATOM     70  F   UNL A   1      38.132  30.076  36.327  1.00  0.00    -0.203 F 
ATOM     71  F   UNL A   1      39.288  35.404  36.129  1.00  0.00    -0.200 F 
ATOM     72  C   UNL A   1      38.225  33.588  37.200  1.00  0.00     0.200 A 
ATOM     73  F   UNL A   1      37.200  31.737  38.246  1.00  0.00    -0.200 F 
ATOM     74  F   UNL A   1      37.801  34.397  38.182  1.00  0.00    -0.200 F 
ENDBRANCH  50  64
BRANCH  51  75
ATOM     75  C   UNL A   1      42.581  26.323  27.600  1.00  0.00     0.064 A 
ATOM     76  C   UNL A   1      43.535  26.873  26.731  1.00  0.00     0.173 A 
ATOM     77  C   UNL A   1      42.178  24.999  27.374  1.00  0.00     0.173 A 
ATOM     78  F   UNL A   1      43.939  28.141  26.898  1.00  0.00    -0.203 F 
ATOM     79  C   UNL A   1      44.057  26.131  25.674  1.00  0.00     0.198 A 
ATOM     80  C   UNL A   1      42.721  24.250  26.331  1.00  0.00     0.198 A 
ATOM     81  F   UNL A   1      41.277  24.424  28.182  1.00  0.00    -0.203 F 
ATOM     82  F   UNL A   1      44.944  26.691  24.839  1.00  0.00    -0.200 F 
ATOM     83  C   UNL A   1      43.657  24.818  25.480  1.00  0.00     0.200 A 
ATOM     84  F   UNL A   1      42.345  22.975  26.158  1.00  0.00    -0.200 F 
ATOM     85  F   UNL A   1      44.171  24.100  24.471  1.00  0.00    -0.200 F 
ENDBRANCH  51  75
BRANCH  63  86
ATOM     86  C   UNL A   1      44.756  27.411  34.135  1.00  0.00     0.064 A 
ATOM     87  C   UNL A   1      44.674  26.217  34.867  1.00  0.00     0.173 A 
ATOM     88  C   UNL A   1      45.978  28.100  34.134  1.00  0.00     0.173 A 
ATOM     89  F   UNL A   1      43.524  25.528  34.909  1.00  0.00    -0.203 F 
ATOM     90  C   UNL A   1      45.763  25.752  35.599  1.00  0.00     0.198 A 
ATOM     91  C   UNL A   1      47.075  27.614  34.842  1.00  0.00     0.198 A 
ATOM     92  F   UNL A   1      46.111  29.242  33.444  1.00  0.00    -0.203 F 
ATOM     93  F   UNL A   1      45.644  24.640  36.340  1.00  0.00    -0.200 F 
ATOM     94  C   UNL A   1      46.962  26.447  35.582  1.00  0.00     0.200 A 
ATOM     95  F   UNL A   1      48.236  28.280  34.813  1.00  0.00    -0.200 F 
ATOM     96  F   UNL A   1      48.008  25.999  36.289  1.00  0.00    -0.200 F 
ENDBRANCH  63  86
ENDBRANCH  37  38
ENDBRANCH  29  32
ENDBRANCH  27  28
ENDBRANCH  26  27
ENDBRANCH  25  26
ENDBRANCH   3  25
TORSDOF 17
ENDMDL
MODEL 3
REMARK VINA RESULT:     -11.2      1.228      1.905
REMARK SMILES CCCCNC(=O)[C@@H](C)Oc1ccc(N)cc1C(=O)NCCCNC(=O)c1ccc(-c2c3nc(c(-c4c(F)c(F)c(F)c(F)c4F)c4ccc([nH]4)c(-c4c(F)c(F)c(F)c(F)c4F)c4nc(c(-c5c(F)c(F)c(F)c(F)c5F)c5ccc2[nH]5)C=C4)C=C3)cc1
REMARK SMILES IDX 18 1 19 2 20 3 17 5 11 6 12 7 13 8 16 9 14 10 10 11 8 12
REMARK SMILES IDX 9 13 6 14 5 15 7 17 4 18 3 19 2 20 1 21 15 22 21 25 22 26
REMARK SMILES IDX 23 27 24 28 25 29 26 31 27 32 28 33 89 34 29 35 88 36 30 37
REMARK SMILES IDX 31 38 32 39 82 40 33 41 87 42 81 43 83 44 34 45 86 46 80 47
REMARK SMILES IDX 79 48 35 50 67 51 47 52 66 53 48 54 51 55 65 56 84 57 49 58
REMARK SMILES IDX 50 59 64 61 85 62 52 63 36 64 37 65 45 66 38 67 39 68 43 69
REMARK SMILES IDX 46 70 40 71 41 72 44 73 42 74 68 75 69 76 77 77 70 78 71 79
REMARK SMILES IDX 75 80 78 81 72 82 73 83 76 84 74 85 53 86 54 87 62 88 55 89
REMARK SMILES IDX 56 90 60 91 63 92 57 93 58 94 61 95 59 96
REMARK H PARENT 20 4 5 16 15 23 15 24 24 30 83 49 51 60
REMARK Flexibility Score: inf
ROOT
ATOM      1  C   UNL A   1      33.544  24.395  26.113  1.00  0.00     0.255 C 
ATOM      2  O   UNL A   1      33.130  23.750  27.084  1.00  0.00    -0.269 OA
ATOM      3  N   UNL A   1      33.071  25.676  26.051  1.00  0.00    -0.352 N 
ATOM      4  H   UNL A   1      32.681  25.970  26.906  1.00  0.00     0.163 HD
ENDROOT
BRANCH   1   5
ATOM      5  C   UNL A   1      34.566  23.755  25.224  1.00  0.00     0.083 A 
ATOM      6  C   UNL A   1      34.412  23.126  23.985  1.00  0.00     0.133 A 
ATOM      7  C   UNL A   1      35.543  22.897  23.191  1.00  0.00     0.049 A 
ATOM      8  C   UNL A   1      36.833  23.045  23.712  1.00  0.00     0.029 A 
ATOM      9  C   UNL A   1      35.883  23.846  25.742  1.00  0.00     0.043 A 
ATOM     10  C   UNL A   1      37.008  23.422  25.034  1.00  0.00     0.032 A 
BRANCH   6  11
ATOM     11  O   UNL A   1      33.210  22.799  23.450  1.00  0.00    -0.480 OA
BRANCH  11  12
ATOM     12  C   UNL A   1      32.703  21.474  23.628  1.00  0.00     0.258 C 
ATOM     13  C   UNL A   1      31.985  20.904  22.400  1.00  0.00     0.064 C 
BRANCH  12  14
ATOM     14  C   UNL A   1      32.091  20.993  24.972  1.00  0.00     0.260 C 
ATOM     15  N   UNL A   1      32.474  19.835  25.582  1.00  0.00    -0.353 N 
ATOM     16  H   UNL A   1      32.225  19.755  26.531  1.00  0.00     0.163 HD
ATOM     17  O   UNL A   1      31.247  21.679  25.556  1.00  0.00    -0.271 OA
BRANCH  15  18
ATOM     18  C   UNL A   1      33.195  18.706  25.032  1.00  0.00     0.116 C 
BRANCH  18  19
ATOM     19  C   UNL A   1      32.547  17.363  25.328  1.00  0.00     0.021 C 
BRANCH  19  20
ATOM     20  C   UNL A   1      33.247  16.176  24.660  1.00  0.00    -0.002 C 
ATOM     21  C   UNL A   1      34.221  16.584  23.558  1.00  0.00     0.004 C 
ENDBRANCH  19  20
ENDBRANCH  18  19
ENDBRANCH  15  18
ENDBRANCH  12  14
ENDBRANCH  11  12
ENDBRANCH   6  11
BRANCH  10  22
ATOM     22  N   UNL A   1      38.269  23.522  25.593  1.00  0.00    -0.399 N 
ATOM     23  H   UNL A   1      38.864  22.738  25.609  1.00  0.00     0.156 HD
ATOM     24  H   UNL A   1      38.573  24.378  25.974  1.00  0.00     0.156 HD
ENDBRANCH  10  22
ENDBRANCH   1   5
BRANCH   3  25
ATOM     25  C   UNL A   1      33.007  26.703  25.032  1.00  0.00     0.118 C 
BRANCH  25  26
ATOM     26  C   UNL A   1      32.634  28.031  25.693  1.00  0.00     0.042 C 
BRANCH  26  27
ATOM     27  C   UNL A   1      33.552  29.166  25.262  1.00  0.00     0.118 C 
BRANCH  27  28
ATOM     28  N   UNL A   1      33.091  30.445  25.779  1.00  0.00    -0.352 N 
ATOM     29  C   UNL A   1      33.421  31.124  26.920  1.00  0.00     0.251 C 
ATOM     30  H   UNL A   1      32.428  30.900  25.210  1.00  0.00     0.163 HD
ATOM     31  O   UNL A   1      32.690  32.048  27.291  1.00  0.00    -0.269 OA
BRANCH  29  32
ATOM     32  C   UNL A   1      34.622  30.788  27.716  1.00  0.00     0.039 A 
ATOM     33  C   UNL A   1      35.666  31.717  27.783  1.00  0.00     0.014 A 
ATOM     34  C   UNL A   1      34.778  29.543  28.330  1.00  0.00     0.014 A 
ATOM     35  C   UNL A   1      36.842  31.405  28.468  1.00  0.00     0.010 A 
ATOM     36  C   UNL A   1      35.893  29.282  29.120  1.00  0.00     0.010 A 
ATOM     37  C   UNL A   1      36.959  30.189  29.161  1.00  0.00    -0.014 A 
BRANCH  37  38
ATOM     38  C   UNL A   1      38.209  29.827  29.875  1.00  0.00     0.031 A 
ATOM     39  C   UNL A   1      38.461  30.336  31.271  1.00  0.00     0.074 A 
ATOM     40  C   UNL A   1      39.144  29.085  29.252  1.00  0.00     0.049 A 
ATOM     41  N   UNL A   1      39.504  30.162  32.045  1.00  0.00    -0.248 NA
ATOM     42  C   UNL A   1      37.422  31.195  31.862  1.00  0.00     0.031 C 
ATOM     43  C   UNL A   1      39.056  28.602  27.873  1.00  0.00     0.029 A 
ATOM     44  N   UNL A   1      40.353  28.612  29.694  1.00  0.00    -0.354 N 
ATOM     45  C   UNL A   1      39.259  30.916  33.186  1.00  0.00     0.074 A 
ATOM     46  C   UNL A   1      38.004  31.603  32.978  1.00  0.00     0.031 C 
ATOM     47  C   UNL A   1      40.149  27.874  27.592  1.00  0.00     0.029 A 
ATOM     48  C   UNL A   1      41.024  27.864  28.760  1.00  0.00     0.049 A 
ATOM     49  H   UNL A   1      40.705  28.793  30.596  1.00  0.00     0.167 HD
ATOM     50  C   UNL A   1      39.996  31.006  34.319  1.00  0.00     0.037 A 
ATOM     51  C   UNL A   1      42.211  27.233  28.840  1.00  0.00     0.037 A 
ATOM     52  C   UNL A   1      41.216  30.276  34.542  1.00  0.00     0.049 A 
ATOM     53  C   UNL A   1      42.975  27.278  30.133  1.00  0.00     0.074 A 
ATOM     54  C   UNL A   1      41.992  30.214  35.685  1.00  0.00     0.029 A 
ATOM     55  N   UNL A   1      41.838  29.477  33.592  1.00  0.00    -0.354 N 
ATOM     56  N   UNL A   1      42.691  27.922  31.241  1.00  0.00    -0.248 NA
ATOM     57  C   UNL A   1      44.215  26.495  30.194  1.00  0.00     0.031 C 
ATOM     58  C   UNL A   1      43.107  29.412  35.412  1.00  0.00     0.029 A 
ATOM     59  C   UNL A   1      42.999  28.933  34.116  1.00  0.00     0.049 A 
ATOM     60  H   UNL A   1      41.502  29.320  32.679  1.00  0.00     0.167 HD
ATOM     61  C   UNL A   1      43.704  27.609  32.136  1.00  0.00     0.074 A 
ATOM     62  C   UNL A   1      44.597  26.697  31.448  1.00  0.00     0.031 C 
ATOM     63  C   UNL A   1      43.881  28.038  33.410  1.00  0.00     0.037 A 
BRANCH  50  64
ATOM     64  C   UNL A   1      39.495  31.925  35.400  1.00  0.00     0.064 A 
ATOM     65  C   UNL A   1      39.883  33.273  35.468  1.00  0.00     0.173 A 
ATOM     66  C   UNL A   1      38.618  31.450  36.386  1.00  0.00     0.173 A 
ATOM     67  F   UNL A   1      40.729  33.779  34.558  1.00  0.00    -0.203 F 
ATOM     68  C   UNL A   1      39.456  34.093  36.510  1.00  0.00     0.198 A 
ATOM     69  C   UNL A   1      38.163  32.283  37.406  1.00  0.00     0.198 A 
ATOM     70  F   UNL A   1      38.206  30.173  36.368  1.00  0.00    -0.203 F 
ATOM     71  F   UNL A   1      39.902  35.354  36.593  1.00  0.00    -0.200 F 
ATOM     72  C   UNL A   1      38.593  33.599  37.475  1.00  0.00     0.200 A 
ATOM     73  F   UNL A   1      37.318  31.806  38.331  1.00  0.00    -0.200 F 
ATOM     74  F   UNL A   1      38.186  34.387  38.480  1.00  0.00    -0.200 F 
ENDBRANCH  50  64
BRANCH  51  75
ATOM     75  C   UNL A   1      42.709  26.467  27.670  1.00  0.00     0.064 A 
ATOM     76  C   UNL A   1      43.625  27.036  26.773  1.00  0.00     0.173 A 
ATOM     77  C   UNL A   1      42.316  25.140  27.448  1.00  0.00     0.173 A 
ATOM     78  F   UNL A   1      44.019  28.308  26.935  1.00  0.00    -0.203 F 
ATOM     79  C   UNL A   1      44.120  26.309  25.693  1.00  0.00     0.198 A 
ATOM     80  C   UNL A   1      42.831  24.405  26.382  1.00  0.00     0.198 A 
ATOM     81  F   UNL A   1      41.451  24.547  28.284  1.00  0.00    -0.203 F 
ATOM     82  F   UNL A   1      44.970  26.886  24.832  1.00  0.00    -0.200 F 
ATOM     83  C   UNL A   1      43.729  24.991  25.503  1.00  0.00     0.200 A 
ATOM     84  F   UNL A   1      42.466  23.127  26.212  1.00  0.00    -0.200 F 
ATOM     85  F   UNL A   1      44.217  24.288  24.472  1.00  0.00    -0.200 F 
ENDBRANCH  51  75
BRANCH  63  86
ATOM     86  C   UNL A   1      45.081  27.512  34.144  1.00  0.00     0.064 A 
ATOM     87  C   UNL A   1      45.028  26.317  34.878  1.00  0.00     0.173 A 
ATOM     88  C   UNL A   1      46.301  28.203  34.099  1.00  0.00     0.173 A 
ATOM     89  F   UNL A   1      43.881  25.626  34.962  1.00  0.00    -0.203 F 
ATOM     90  C   UNL A   1      46.143  25.854  35.571  1.00  0.00     0.198 A 
ATOM     91  C   UNL A   1      47.423  27.719  34.767  1.00  0.00     0.198 A 
ATOM     92  F   UNL A   1      46.407  29.345  33.404  1.00  0.00    -0.203 F 
ATOM     93  F   UNL A   1      46.053  24.743  36.315  1.00  0.00    -0.200 F 
ATOM     94  C   UNL A   1      47.340  26.552  35.511  1.00  0.00     0.200 A 
ATOM     95  F   UNL A   1      48.582  28.387  34.696  1.00  0.00    -0.200 F 
ATOM     96  F   UNL A   1      48.411  26.106  36.180  1.00  0.00    -0.200 F 
ENDBRANCH  63  86
ENDBRANCH  37  38
ENDBRANCH  29  32
ENDBRANCH  27  28
ENDBRANCH  26  27
ENDBRANCH  25  26
ENDBRANCH   3  25
TORSDOF 17
ENDMDL
