MODEL 1
REMARK VINA RESULT:      -9.1      0.000      0.000
REMARK SMILES O=C(NCCCNC(=O)[C@@H](CCOC(F)(F)F)Cc1ccccc1Cl)c1ccc(-c2c3nc(c(-c4c(F)c(F)c(F)c(F)c4F)c4ccc([nH]4)c(-c4c(F)c(F)c(F)c(F)c4F)c4nc(c(-c5c(F)c(F)c(F)c(F)c5F)c5ccc2[nH]5)C=C4)C=C3)cc1
REMARK SMILES IDX 6 1 5 2 4 3 3 4 1 5 2 6 26 8 27 9 88 10 28 11 87 12 29 13
REMARK SMILES IDX 30 14 31 15 81 16 32 17 86 18 80 19 82 20 33 21 85 22 79 23
REMARK SMILES IDX 78 24 34 26 66 27 46 28 65 29 47 30 50 31 64 32 83 33 48 34
REMARK SMILES IDX 49 35 63 37 84 38 51 39 35 40 36 41 44 42 37 43 38 44 42 45
REMARK SMILES IDX 45 46 39 47 40 48 43 49 41 50 67 51 68 52 76 53 69 54 70 55
REMARK SMILES IDX 74 56 77 57 71 58 72 59 75 60 73 61 52 62 53 63 61 64 54 65
REMARK SMILES IDX 55 66 59 67 62 68 56 69 57 70 60 71 58 72 7 73 8 74 9 76
REMARK SMILES IDX 10 77 11 78 12 79 13 80 14 81 15 82 16 83 17 84 18 85 19 86
REMARK SMILES IDX 20 87 24 88 21 89 23 90 25 91 22 92
REMARK H PARENT 3 7 82 25 50 36 7 75
REMARK Flexibility Score: inf
ROOT
ATOM      1  C   UNL A   1      42.657  23.248  25.391  1.00  0.00     0.117 C 
ENDROOT
BRANCH   1   2
ATOM      2  C   UNL A   1      42.161  21.860  25.776  1.00  0.00     0.042 C 
BRANCH   2   3
ATOM      3  C   UNL A   1      41.001  21.922  26.751  1.00  0.00     0.118 C 
BRANCH   3   4
ATOM      4  N   UNL A   1      39.744  22.228  26.075  1.00  0.00    -0.352 N 
ATOM      5  O   UNL A   1      37.774  23.258  25.723  1.00  0.00    -0.269 OA
ATOM      6  C   UNL A   1      38.904  23.304  26.209  1.00  0.00     0.251 C 
ATOM      7  H   UNL A   1      39.453  21.554  25.419  1.00  0.00     0.163 HD
BRANCH   6   8
ATOM      8  C   UNL A   1      39.342  24.512  26.939  1.00  0.00     0.039 A 
ATOM      9  C   UNL A   1      39.113  24.635  28.309  1.00  0.00     0.014 A 
ATOM     10  C   UNL A   1      40.028  25.522  26.256  1.00  0.00     0.014 A 
ATOM     11  C   UNL A   1      39.395  25.827  28.955  1.00  0.00     0.010 A 
ATOM     12  C   UNL A   1      40.438  26.669  26.941  1.00  0.00     0.010 A 
ATOM     13  C   UNL A   1      40.102  26.842  28.292  1.00  0.00    -0.014 A 
BRANCH  13  14
ATOM     14  C   UNL A   1      40.557  28.020  29.072  1.00  0.00     0.031 A 
ATOM     15  C   UNL A   1      41.971  28.138  29.559  1.00  0.00     0.074 A 
ATOM     16  C   UNL A   1      39.668  29.006  29.311  1.00  0.00     0.049 A 
ATOM     17  N   UNL A   1      42.522  29.096  30.261  1.00  0.00    -0.248 NA
ATOM     18  C   UNL A   1      42.886  27.036  29.229  1.00  0.00     0.031 C 
ATOM     19  C   UNL A   1      38.264  28.992  28.889  1.00  0.00     0.029 A 
ATOM     20  N   UNL A   1      39.809  30.214  29.941  1.00  0.00    -0.354 N 
ATOM     21  C   UNL A   1      43.837  28.703  30.476  1.00  0.00     0.074 A 
ATOM     22  C   UNL A   1      43.996  27.407  29.852  1.00  0.00     0.031 C 
ATOM     23  C   UNL A   1      37.691  30.157  29.217  1.00  0.00     0.029 A 
ATOM     24  C   UNL A   1      38.656  30.962  29.953  1.00  0.00     0.049 A 
ATOM     25  H   UNL A   1      40.654  30.518  30.345  1.00  0.00     0.167 HD
ATOM     26  C   UNL A   1      44.817  29.372  31.131  1.00  0.00     0.037 A 
ATOM     27  C   UNL A   1      38.390  32.149  30.523  1.00  0.00     0.037 A 
ATOM     28  C   UNL A   1      44.644  30.669  31.739  1.00  0.00     0.049 A 
ATOM     29  C   UNL A   1      39.486  32.845  31.277  1.00  0.00     0.074 A 
ATOM     30  C   UNL A   1      45.579  31.444  32.401  1.00  0.00     0.029 A 
ATOM     31  N   UNL A   1      43.450  31.378  31.764  1.00  0.00    -0.354 N 
ATOM     32  N   UNL A   1      40.731  32.475  31.453  1.00  0.00    -0.248 NA
ATOM     33  C   UNL A   1      39.138  34.120  31.915  1.00  0.00     0.031 C 
ATOM     34  C   UNL A   1      44.939  32.592  32.877  1.00  0.00     0.029 A 
ATOM     35  C   UNL A   1      43.620  32.568  32.456  1.00  0.00     0.049 A 
ATOM     36  H   UNL A   1      42.607  31.080  31.352  1.00  0.00     0.167 HD
ATOM     37  C   UNL A   1      41.322  33.479  32.206  1.00  0.00     0.074 A 
ATOM     38  C   UNL A   1      40.303  34.483  32.432  1.00  0.00     0.031 C 
ATOM     39  C   UNL A   1      42.593  33.558  32.670  1.00  0.00     0.037 A 
BRANCH  26  40
ATOM     40  C   UNL A   1      46.159  28.704  31.255  1.00  0.00     0.064 A 
ATOM     41  C   UNL A   1      46.396  27.680  32.183  1.00  0.00     0.173 A 
ATOM     42  C   UNL A   1      47.213  29.068  30.401  1.00  0.00     0.173 A 
ATOM     43  F   UNL A   1      45.429  27.298  33.031  1.00  0.00    -0.203 F 
ATOM     44  C   UNL A   1      47.644  27.065  32.271  1.00  0.00     0.198 A 
ATOM     45  C   UNL A   1      48.449  28.429  30.469  1.00  0.00     0.198 A 
ATOM     46  F   UNL A   1      47.040  30.037  29.489  1.00  0.00    -0.203 F 
ATOM     47  F   UNL A   1      47.861  26.123  33.199  1.00  0.00    -0.200 F 
ATOM     48  C   UNL A   1      48.665  27.435  31.410  1.00  0.00     0.200 A 
ATOM     49  F   UNL A   1      49.429  28.778  29.625  1.00  0.00    -0.200 F 
ATOM     50  F   UNL A   1      49.863  26.836  31.490  1.00  0.00    -0.200 F 
ENDBRANCH  26  40
BRANCH  27  51
ATOM     51  C   UNL A   1      37.028  32.733  30.418  1.00  0.00     0.064 A 
ATOM     52  C   UNL A   1      36.059  32.492  31.401  1.00  0.00     0.173 A 
ATOM     53  C   UNL A   1      36.672  33.559  29.340  1.00  0.00     0.173 A 
ATOM     54  F   UNL A   1      36.346  31.698  32.442  1.00  0.00    -0.203 F 
ATOM     55  C   UNL A   1      34.781  33.040  31.300  1.00  0.00     0.198 A 
ATOM     56  C   UNL A   1      35.408  34.135  29.260  1.00  0.00     0.198 A 
ATOM     57  F   UNL A   1      37.566  33.828  28.376  1.00  0.00    -0.203 F 
ATOM     58  F   UNL A   1      33.860  32.758  32.230  1.00  0.00    -0.200 F 
ATOM     59  C   UNL A   1      34.460  33.868  30.235  1.00  0.00     0.200 A 
ATOM     60  F   UNL A   1      35.110  34.953  28.240  1.00  0.00    -0.200 F 
ATOM     61  F   UNL A   1      33.236  34.403  30.145  1.00  0.00    -0.200 F 
ENDBRANCH  27  51
BRANCH  39  62
ATOM     62  C   UNL A   1      42.960  34.795  33.438  1.00  0.00     0.064 A 
ATOM     63  C   UNL A   1      43.368  35.971  32.792  1.00  0.00     0.173 A 
ATOM     64  C   UNL A   1      42.881  34.808  34.838  1.00  0.00     0.173 A 
ATOM     65  F   UNL A   1      43.479  36.004  31.455  1.00  0.00    -0.203 F 
ATOM     66  C   UNL A   1      43.714  37.104  33.522  1.00  0.00     0.198 A 
ATOM     67  C   UNL A   1      43.193  35.953  35.564  1.00  0.00     0.198 A 
ATOM     68  F   UNL A   1      42.492  33.709  35.504  1.00  0.00    -0.203 F 
ATOM     69  F   UNL A   1      44.157  38.198  32.888  1.00  0.00    -0.200 F 
ATOM     70  C   UNL A   1      43.618  37.097  34.906  1.00  0.00     0.200 A 
ATOM     71  F   UNL A   1      43.086  35.949  36.899  1.00  0.00    -0.200 F 
ATOM     72  F   UNL A   1      43.945  38.191  35.608  1.00  0.00    -0.200 F 
ENDBRANCH  39  62
ENDBRANCH  13  14
ENDBRANCH   6   8
ENDBRANCH   3   4
ENDBRANCH   2   3
ENDBRANCH   1   2
BRANCH   1  73
ATOM     73  N   UNL A   1      43.960  23.174  24.771  1.00  0.00    -0.356 N 
ATOM     74  C   UNL A   1      45.050  23.973  24.838  1.00  0.00     0.223 C 
ATOM     75  H   UNL A   1      44.078  22.390  24.187  1.00  0.00     0.163 HD
ATOM     76  O   UNL A   1      45.975  23.677  24.073  1.00  0.00    -0.275 OA
BRANCH  74  77
ATOM     77  C   UNL A   1      45.198  25.180  25.767  1.00  0.00     0.085 C 
BRANCH  77  78
ATOM     78  C   UNL A   1      46.072  24.969  27.027  1.00  0.00     0.042 C 
BRANCH  78  79
ATOM     79  C   UNL A   1      45.611  24.197  28.270  1.00  0.00     0.171 C 
BRANCH  79  80
ATOM     80  O   UNL A   1      44.515  23.331  28.092  1.00  0.00    -0.292 OA
BRANCH  80  81
ATOM     81  C   UNL A   1      43.498  23.424  29.063  1.00  0.00     0.522 C 
ATOM     82  F   UNL A   1      44.013  24.048  30.142  1.00  0.00    -0.144 F 
ATOM     83  F   UNL A   1      42.450  24.133  28.608  1.00  0.00    -0.144 F 
ATOM     84  F   UNL A   1      43.095  22.194  29.423  1.00  0.00    -0.144 F 
ENDBRANCH  80  81
ENDBRANCH  79  80
ENDBRANCH  78  79
ENDBRANCH  77  78
BRANCH  77  85
ATOM     85  C   UNL A   1      45.369  26.548  25.095  1.00  0.00     0.050 C 
BRANCH  85  86
ATOM     86  C   UNL A   1      44.745  27.735  25.801  1.00  0.00    -0.029 A 
ATOM     87  C   UNL A   1      43.364  27.952  25.650  1.00  0.00     0.005 A 
ATOM     88  C   UNL A   1      45.489  28.673  26.535  1.00  0.00     0.044 A 
ATOM     89  C   UNL A   1      42.751  29.088  26.181  1.00  0.00     0.000 A 
ATOM     90  C   UNL A   1      44.872  29.811  27.064  1.00  0.00     0.021 A 
ATOM     91  Cl  UNL A   1      47.189  28.496  26.789  1.00  0.00    -0.084 Cl
ATOM     92  C   UNL A   1      43.507  30.024  26.878  1.00  0.00     0.002 A 
ENDBRANCH  85  86
ENDBRANCH  77  85
ENDBRANCH  74  77
ENDBRANCH   1  73
TORSDOF 16
ENDMDL
MODEL 2
REMARK VINA RESULT:      -9.0      5.251     10.522
REMARK SMILES O=C(NCCCNC(=O)[C@@H](CCOC(F)(F)F)Cc1ccccc1Cl)c1ccc(-c2c3nc(c(-c4c(F)c(F)c(F)c(F)c4F)c4ccc([nH]4)c(-c4c(F)c(F)c(F)c(F)c4F)c4nc(c(-c5c(F)c(F)c(F)c(F)c5F)c5ccc2[nH]5)C=C4)C=C3)cc1
REMARK SMILES IDX 6 1 5 2 4 3 3 4 1 5 2 6 26 8 27 9 88 10 28 11 87 12 29 13
REMARK SMILES IDX 30 14 31 15 81 16 32 17 86 18 80 19 82 20 33 21 85 22 79 23
REMARK SMILES IDX 78 24 34 26 66 27 46 28 65 29 47 30 50 31 64 32 83 33 48 34
REMARK SMILES IDX 49 35 63 37 84 38 51 39 35 40 36 41 44 42 37 43 38 44 42 45
REMARK SMILES IDX 45 46 39 47 40 48 43 49 41 50 67 51 68 52 76 53 69 54 70 55
REMARK SMILES IDX 74 56 77 57 71 58 72 59 75 60 73 61 52 62 53 63 61 64 54 65
REMARK SMILES IDX 55 66 59 67 62 68 56 69 57 70 60 71 58 72 7 73 8 74 9 76
REMARK SMILES IDX 10 77 11 78 12 79 13 80 14 81 15 82 16 83 17 84 18 85 19 86
REMARK SMILES IDX 20 87 24 88 21 89 23 90 25 91 22 92
REMARK H PARENT 3 7 82 25 50 36 7 75
REMARK Flexibility Score: inf
ROOT
ATOM      1  C   UNL A   1      31.401  30.511  25.816  1.00  0.00     0.117 C 
ENDROOT
BRANCH   1   2
ATOM      2  C   UNL A   1      31.262  31.946  26.305  1.00  0.00     0.042 C 
BRANCH   2   3
ATOM      3  C   UNL A   1      32.550  32.466  26.915  1.00  0.00     0.118 C 
BRANCH   3   4
ATOM      4  N   UNL A   1      32.402  33.833  27.403  1.00  0.00    -0.352 N 
ATOM      5  O   UNL A   1      32.587  35.555  28.841  1.00  0.00    -0.269 OA
ATOM      6  C   UNL A   1      33.026  34.478  28.441  1.00  0.00     0.251 C 
ATOM      7  H   UNL A   1      31.748  34.380  26.910  1.00  0.00     0.163 HD
BRANCH   6   8
ATOM      8  C   UNL A   1      34.216  33.884  29.085  1.00  0.00     0.039 A 
ATOM      9  C   UNL A   1      34.085  32.806  29.960  1.00  0.00     0.014 A 
ATOM     10  C   UNL A   1      35.487  34.383  28.784  1.00  0.00     0.014 A 
ATOM     11  C   UNL A   1      35.184  32.351  30.669  1.00  0.00     0.010 A 
ATOM     12  C   UNL A   1      36.615  33.830  29.397  1.00  0.00     0.010 A 
ATOM     13  C   UNL A   1      36.469  32.824  30.364  1.00  0.00    -0.014 A 
BRANCH  13  14
ATOM     14  C   UNL A   1      37.639  32.173  31.005  1.00  0.00     0.031 A 
ATOM     15  C   UNL A   1      38.068  32.531  32.398  1.00  0.00     0.074 A 
ATOM     16  C   UNL A   1      38.298  31.223  30.310  1.00  0.00     0.049 A 
ATOM     17  N   UNL A   1      39.074  32.063  33.094  1.00  0.00    -0.248 NA
ATOM     18  C   UNL A   1      37.278  33.553  33.099  1.00  0.00     0.031 C 
ATOM     19  C   UNL A   1      37.970  30.800  28.946  1.00  0.00     0.029 A 
ATOM     20  N   UNL A   1      39.358  30.426  30.654  1.00  0.00    -0.354 N 
ATOM     21  C   UNL A   1      39.051  32.748  34.302  1.00  0.00     0.074 A 
ATOM     22  C   UNL A   1      37.948  33.682  34.236  1.00  0.00     0.031 C 
ATOM     23  C   UNL A   1      38.769  29.786  28.592  1.00  0.00     0.029 A 
ATOM     24  C   UNL A   1      39.725  29.547  29.664  1.00  0.00     0.049 A 
ATOM     25  H   UNL A   1      39.812  30.477  31.527  1.00  0.00     0.167 HD
ATOM     26  C   UNL A   1      39.877  32.601  35.367  1.00  0.00     0.037 A 
ATOM     27  C   UNL A   1      40.739  28.667  29.607  1.00  0.00     0.037 A 
ATOM     28  C   UNL A   1      40.966  31.657  35.420  1.00  0.00     0.049 A 
ATOM     29  C   UNL A   1      41.660  28.557  30.787  1.00  0.00     0.074 A 
ATOM     30  C   UNL A   1      41.844  31.408  36.461  1.00  0.00     0.029 A 
ATOM     31  N   UNL A   1      41.331  30.810  34.382  1.00  0.00    -0.354 N 
ATOM     32  N   UNL A   1      41.615  29.193  31.933  1.00  0.00    -0.248 NA
ATOM     33  C   UNL A   1      42.777  27.613  30.664  1.00  0.00     0.031 C 
ATOM     34  C   UNL A   1      42.773  30.456  36.033  1.00  0.00     0.029 A 
ATOM     35  C   UNL A   1      42.438  30.059  34.749  1.00  0.00     0.049 A 
ATOM     36  H   UNL A   1      40.871  30.750  33.513  1.00  0.00     0.167 HD
ATOM     37  C   UNL A   1      42.683  28.713  32.675  1.00  0.00     0.074 A 
ATOM     38  C   UNL A   1      43.344  27.716  31.857  1.00  0.00     0.031 C 
ATOM     39  C   UNL A   1      43.082  29.069  33.920  1.00  0.00     0.037 A 
BRANCH  26  40
ATOM     40  C   UNL A   1      39.658  33.499  36.553  1.00  0.00     0.064 A 
ATOM     41  C   UNL A   1      40.264  34.760  36.651  1.00  0.00     0.173 A 
ATOM     42  C   UNL A   1      38.795  33.107  37.589  1.00  0.00     0.173 A 
ATOM     43  F   UNL A   1      41.105  35.183  35.696  1.00  0.00    -0.203 F 
ATOM     44  C   UNL A   1      40.035  35.583  37.753  1.00  0.00     0.198 A 
ATOM     45  C   UNL A   1      38.544  33.945  38.673  1.00  0.00     0.198 A 
ATOM     46  F   UNL A   1      38.183  31.914  37.545  1.00  0.00    -0.203 F 
ATOM     47  F   UNL A   1      40.664  36.763  37.847  1.00  0.00    -0.200 F 
ATOM     48  C   UNL A   1      39.171  35.178  38.758  1.00  0.00     0.200 A 
ATOM     49  F   UNL A   1      37.696  33.557  39.636  1.00  0.00    -0.200 F 
ATOM     50  F   UNL A   1      38.947  35.974  39.814  1.00  0.00    -0.200 F 
ENDBRANCH  26  40
BRANCH  27  51
ATOM     51  C   UNL A   1      40.941  27.848  28.384  1.00  0.00     0.064 A 
ATOM     52  C   UNL A   1      41.735  28.309  27.326  1.00  0.00     0.173 A 
ATOM     53  C   UNL A   1      40.359  26.576  28.257  1.00  0.00     0.173 A 
ATOM     54  F   UNL A   1      42.301  29.523  27.395  1.00  0.00    -0.203 F 
ATOM     55  C   UNL A   1      41.923  27.539  26.180  1.00  0.00     0.198 A 
ATOM     56  C   UNL A   1      40.578  25.794  27.128  1.00  0.00     0.198 A 
ATOM     57  F   UNL A   1      39.598  26.084  29.245  1.00  0.00    -0.203 F 
ATOM     58  F   UNL A   1      42.650  28.023  25.164  1.00  0.00    -0.200 F 
ATOM     59  C   UNL A   1      41.352  26.279  26.085  1.00  0.00     0.200 A 
ATOM     60  F   UNL A   1      40.043  24.567  27.051  1.00  0.00    -0.200 F 
ATOM     61  F   UNL A   1      41.543  25.536  24.988  1.00  0.00    -0.200 F 
ENDBRANCH  27  51
BRANCH  39  62
ATOM     62  C   UNL A   1      44.269  28.345  34.487  1.00  0.00     0.064 A 
ATOM     63  C   UNL A   1      44.132  27.134  35.182  1.00  0.00     0.173 A 
ATOM     64  C   UNL A   1      45.562  28.861  34.313  1.00  0.00     0.173 A 
ATOM     65  F   UNL A   1      42.916  26.609  35.393  1.00  0.00    -0.203 F 
ATOM     66  C   UNL A   1      45.245  26.483  35.708  1.00  0.00     0.198 A 
ATOM     67  C   UNL A   1      46.675  28.189  34.809  1.00  0.00     0.198 A 
ATOM     68  F   UNL A   1      45.747  30.014  33.652  1.00  0.00    -0.203 F 
ATOM     69  F   UNL A   1      45.086  25.358  36.419  1.00  0.00    -0.200 F 
ATOM     70  C   UNL A   1      46.515  27.006  35.514  1.00  0.00     0.200 A 
ATOM     71  F   UNL A   1      47.901  28.689  34.608  1.00  0.00    -0.200 F 
ATOM     72  F   UNL A   1      47.585  26.375  36.016  1.00  0.00    -0.200 F 
ENDBRANCH  39  62
ENDBRANCH  13  14
ENDBRANCH   6   8
ENDBRANCH   3   4
ENDBRANCH   2   3
ENDBRANCH   1   2
BRANCH   1  73
ATOM     73  N   UNL A   1      30.702  30.324  24.565  1.00  0.00    -0.356 N 
ATOM     74  C   UNL A   1      30.626  29.280  23.709  1.00  0.00     0.223 C 
ATOM     75  H   UNL A   1      30.180  31.109  24.281  1.00  0.00     0.163 HD
ATOM     76  O   UNL A   1      30.024  29.501  22.651  1.00  0.00    -0.275 OA
BRANCH  74  77
ATOM     77  C   UNL A   1      31.223  27.894  23.959  1.00  0.00     0.085 C 
BRANCH  77  78
ATOM     78  C   UNL A   1      30.212  26.729  24.096  1.00  0.00     0.042 C 
BRANCH  78  79
ATOM     79  C   UNL A   1      30.156  25.781  25.302  1.00  0.00     0.171 C 
BRANCH  79  80
ATOM     80  O   UNL A   1      30.650  24.480  25.091  1.00  0.00    -0.292 OA
BRANCH  80  81
ATOM     81  C   UNL A   1      31.006  23.765  26.252  1.00  0.00     0.522 C 
ATOM     82  F   UNL A   1      31.776  22.723  25.875  1.00  0.00    -0.144 F 
ATOM     83  F   UNL A   1      31.703  24.535  27.106  1.00  0.00    -0.144 F 
ATOM     84  F   UNL A   1      29.903  23.295  26.857  1.00  0.00    -0.144 F 
ENDBRANCH  80  81
ENDBRANCH  79  80
ENDBRANCH  78  79
ENDBRANCH  77  78
BRANCH  77  85
ATOM     85  C   UNL A   1      32.497  27.542  23.180  1.00  0.00     0.050 C 
BRANCH  85  86
ATOM     86  C   UNL A   1      33.297  26.359  23.683  1.00  0.00    -0.029 A 
ATOM     87  C   UNL A   1      33.439  25.241  22.842  1.00  0.00     0.005 A 
ATOM     88  C   UNL A   1      33.840  26.290  24.977  1.00  0.00     0.044 A 
ATOM     89  C   UNL A   1      34.068  24.078  23.288  1.00  0.00     0.000 A 
ATOM     90  C   UNL A   1      34.468  25.121  25.422  1.00  0.00     0.021 A 
ATOM     91  Cl  UNL A   1      33.731  27.609  26.088  1.00  0.00    -0.084 Cl
ATOM     92  C   UNL A   1      34.572  24.013  24.582  1.00  0.00     0.002 A 
ENDBRANCH  85  86
ENDBRANCH  77  85
ENDBRANCH  74  77
ENDBRANCH   1  73
TORSDOF 16
ENDMDL
MODEL 3
REMARK VINA RESULT:      -9.0      5.161      8.868
REMARK SMILES O=C(NCCCNC(=O)[C@@H](CCOC(F)(F)F)Cc1ccccc1Cl)c1ccc(-c2c3nc(c(-c4c(F)c(F)c(F)c(F)c4F)c4ccc([nH]4)c(-c4c(F)c(F)c(F)c(F)c4F)c4nc(c(-c5c(F)c(F)c(F)c(F)c5F)c5ccc2[nH]5)C=C4)C=C3)cc1
REMARK SMILES IDX 6 1 5 2 4 3 3 4 1 5 2 6 26 8 27 9 88 10 28 11 87 12 29 13
REMARK SMILES IDX 30 14 31 15 81 16 32 17 86 18 80 19 82 20 33 21 85 22 79 23
REMARK SMILES IDX 78 24 34 26 66 27 46 28 65 29 47 30 50 31 64 32 83 33 48 34
REMARK SMILES IDX 49 35 63 37 84 38 51 39 35 40 36 41 44 42 37 43 38 44 42 45
REMARK SMILES IDX 45 46 39 47 40 48 43 49 41 50 67 51 68 52 76 53 69 54 70 55
REMARK SMILES IDX 74 56 77 57 71 58 72 59 75 60 73 61 52 62 53 63 61 64 54 65
REMARK SMILES IDX 55 66 59 67 62 68 56 69 57 70 60 71 58 72 7 73 8 74 9 76
REMARK SMILES IDX 10 77 11 78 12 79 13 80 14 81 15 82 16 83 17 84 18 85 19 86
REMARK SMILES IDX 20 87 24 88 21 89 23 90 25 91 22 92
REMARK H PARENT 3 7 82 25 50 36 7 75
REMARK Flexibility Score: inf
ROOT
ATOM      1  C   UNL A   1      32.320  27.862  23.171  1.00  0.00     0.117 C 
ENDROOT
BRANCH   1   2
ATOM      2  C   UNL A   1      33.455  28.829  23.478  1.00  0.00     0.042 C 
BRANCH   2   3
ATOM      3  C   UNL A   1      33.690  28.975  24.970  1.00  0.00     0.118 C 
BRANCH   3   4
ATOM      4  N   UNL A   1      33.047  30.172  25.502  1.00  0.00    -0.352 N 
ATOM      5  O   UNL A   1      32.475  31.710  27.042  1.00  0.00    -0.269 OA
ATOM      6  C   UNL A   1      33.286  30.868  26.660  1.00  0.00     0.251 C 
ATOM      7  H   UNL A   1      32.326  30.539  24.940  1.00  0.00     0.163 HD
BRANCH   6   8
ATOM      8  C   UNL A   1      34.504  30.606  27.454  1.00  0.00     0.039 A 
ATOM      9  C   UNL A   1      34.725  29.351  28.022  1.00  0.00     0.014 A 
ATOM     10  C   UNL A   1      35.462  31.614  27.606  1.00  0.00     0.014 A 
ATOM     11  C   UNL A   1      35.792  29.157  28.882  1.00  0.00     0.010 A 
ATOM     12  C   UNL A   1      36.612  31.373  28.362  1.00  0.00     0.010 A 
ATOM     13  C   UNL A   1      36.774  30.148  29.028  1.00  0.00    -0.014 A 
BRANCH  13  14
ATOM     14  C   UNL A   1      38.000  29.830  29.802  1.00  0.00     0.031 A 
ATOM     15  C   UNL A   1      39.074  28.946  29.239  1.00  0.00     0.074 A 
ATOM     16  C   UNL A   1      38.140  30.381  31.025  1.00  0.00     0.049 A 
ATOM     17  N   UNL A   1      40.197  28.563  29.792  1.00  0.00    -0.248 NA
ATOM     18  C   UNL A   1      38.859  28.411  27.887  1.00  0.00     0.031 C 
ATOM     19  C   UNL A   1      37.155  31.251  31.673  1.00  0.00     0.029 A 
ATOM     20  N   UNL A   1      39.166  30.317  31.931  1.00  0.00    -0.354 N 
ATOM     21  C   UNL A   1      40.811  27.726  28.868  1.00  0.00     0.074 A 
ATOM     22  C   UNL A   1      39.924  27.635  27.729  1.00  0.00     0.031 C 
ATOM     23  C   UNL A   1      37.646  31.686  32.840  1.00  0.00     0.029 A 
ATOM     24  C   UNL A   1      38.939  31.054  33.067  1.00  0.00     0.049 A 
ATOM     25  H   UNL A   1      39.987  29.794  31.782  1.00  0.00     0.167 HD
ATOM     26  C   UNL A   1      42.007  27.098  28.968  1.00  0.00     0.037 A 
ATOM     27  C   UNL A   1      39.670  31.184  34.187  1.00  0.00     0.037 A 
ATOM     28  C   UNL A   1      42.885  27.208  30.108  1.00  0.00     0.049 A 
ATOM     29  C   UNL A   1      40.972  30.443  34.283  1.00  0.00     0.074 A 
ATOM     30  C   UNL A   1      44.131  26.636  30.297  1.00  0.00     0.029 A 
ATOM     31  N   UNL A   1      42.602  27.934  31.258  1.00  0.00    -0.354 N 
ATOM     32  N   UNL A   1      41.553  29.674  33.394  1.00  0.00    -0.248 NA
ATOM     33  C   UNL A   1      41.717  30.583  35.540  1.00  0.00     0.031 C 
ATOM     34  C   UNL A   1      44.575  26.967  31.581  1.00  0.00     0.029 A 
ATOM     35  C   UNL A   1      43.638  27.800  32.170  1.00  0.00     0.049 A 
ATOM     36  H   UNL A   1      41.786  28.466  31.404  1.00  0.00     0.167 HD
ATOM     37  C   UNL A   1      42.740  29.253  33.974  1.00  0.00     0.074 A 
ATOM     38  C   UNL A   1      42.805  29.872  35.282  1.00  0.00     0.031 C 
ATOM     39  C   UNL A   1      43.687  28.426  33.469  1.00  0.00     0.037 A 
BRANCH  26  40
ATOM     40  C   UNL A   1      42.431  26.211  27.830  1.00  0.00     0.064 A 
ATOM     41  C   UNL A   1      41.960  24.897  27.698  1.00  0.00     0.173 A 
ATOM     42  C   UNL A   1      43.291  26.700  26.833  1.00  0.00     0.173 A 
ATOM     43  F   UNL A   1      41.143  24.374  28.626  1.00  0.00    -0.203 F 
ATOM     44  C   UNL A   1      42.354  24.097  26.627  1.00  0.00     0.198 A 
ATOM     45  C   UNL A   1      43.657  25.908  25.747  1.00  0.00     0.198 A 
ATOM     46  F   UNL A   1      43.767  27.952  26.905  1.00  0.00    -0.203 F 
ATOM     47  F   UNL A   1      41.929  22.828  26.549  1.00  0.00    -0.200 F 
ATOM     48  C   UNL A   1      43.196  24.605  25.650  1.00  0.00     0.200 A 
ATOM     49  F   UNL A   1      44.459  26.408  24.796  1.00  0.00    -0.200 F 
ATOM     50  F   UNL A   1      43.567  23.837  24.616  1.00  0.00    -0.200 F 
ENDBRANCH  26  40
BRANCH  27  51
ATOM     51  C   UNL A   1      39.172  32.028  35.304  1.00  0.00     0.064 A 
ATOM     52  C   UNL A   1      38.416  31.477  36.346  1.00  0.00     0.173 A 
ATOM     53  C   UNL A   1      39.460  33.401  35.361  1.00  0.00     0.173 A 
ATOM     54  F   UNL A   1      38.103  30.174  36.330  1.00  0.00    -0.203 F 
ATOM     55  C   UNL A   1      37.949  32.271  37.393  1.00  0.00     0.198 A 
ATOM     56  C   UNL A   1      39.024  34.185  36.425  1.00  0.00     0.198 A 
ATOM     57  F   UNL A   1      40.188  33.976  34.392  1.00  0.00    -0.203 F 
ATOM     58  F   UNL A   1      37.190  31.728  38.354  1.00  0.00    -0.200 F 
ATOM     59  C   UNL A   1      38.261  33.622  37.436  1.00  0.00     0.200 A 
ATOM     60  F   UNL A   1      39.348  35.485  36.474  1.00  0.00    -0.200 F 
ATOM     61  F   UNL A   1      37.822  34.381  38.448  1.00  0.00    -0.200 F 
ENDBRANCH  27  51
BRANCH  39  62
ATOM     62  C   UNL A   1      44.896  28.175  34.324  1.00  0.00     0.064 A 
ATOM     63  C   UNL A   1      44.959  27.094  35.214  1.00  0.00     0.173 A 
ATOM     64  C   UNL A   1      46.013  29.018  34.232  1.00  0.00     0.173 A 
ATOM     65  F   UNL A   1      43.909  26.270  35.354  1.00  0.00    -0.203 F 
ATOM     66  C   UNL A   1      46.086  26.884  36.005  1.00  0.00     0.198 A 
ATOM     67  C   UNL A   1      47.152  28.785  34.997  1.00  0.00     0.198 A 
ATOM     68  F   UNL A   1      46.005  30.064  33.391  1.00  0.00    -0.203 F 
ATOM     69  F   UNL A   1      46.103  25.879  36.891  1.00  0.00    -0.200 F 
ATOM     70  C   UNL A   1      47.184  27.724  35.890  1.00  0.00     0.200 A 
ATOM     71  F   UNL A   1      48.216  29.589  34.874  1.00  0.00    -0.200 F 
ATOM     72  F   UNL A   1      48.270  27.518  36.647  1.00  0.00    -0.200 F 
ENDBRANCH  39  62
ENDBRANCH  13  14
ENDBRANCH   6   8
ENDBRANCH   3   4
ENDBRANCH   2   3
ENDBRANCH   1   2
BRANCH   1  73
ATOM     73  N   UNL A   1      32.581  27.134  21.950  1.00  0.00    -0.356 N 
ATOM     74  C   UNL A   1      32.778  25.821  21.694  1.00  0.00     0.223 C 
ATOM     75  H   UNL A   1      32.623  27.706  21.149  1.00  0.00     0.163 HD
ATOM     76  O   UNL A   1      33.101  25.547  20.531  1.00  0.00    -0.275 OA
BRANCH  74  77
ATOM     77  C   UNL A   1      32.636  24.695  22.721  1.00  0.00     0.085 C 
BRANCH  77  78
ATOM     78  C   UNL A   1      31.201  24.411  23.228  1.00  0.00     0.042 C 
BRANCH  78  79
ATOM     79  C   UNL A   1      30.661  24.892  24.582  1.00  0.00     0.171 C 
BRANCH  79  80
ATOM     80  O   UNL A   1      31.337  24.419  25.723  1.00  0.00    -0.292 OA
BRANCH  80  81
ATOM     81  C   UNL A   1      30.694  23.382  26.429  1.00  0.00     0.522 C 
ATOM     82  F   UNL A   1      29.581  23.896  26.992  1.00  0.00    -0.144 F 
ATOM     83  F   UNL A   1      30.343  22.376  25.609  1.00  0.00    -0.144 F 
ATOM     84  F   UNL A   1      31.500  22.921  27.399  1.00  0.00    -0.144 F 
ENDBRANCH  80  81
ENDBRANCH  79  80
ENDBRANCH  78  79
ENDBRANCH  77  78
BRANCH  77  85
ATOM     85  C   UNL A   1      33.489  23.441  22.490  1.00  0.00     0.050 C 
BRANCH  85  86
ATOM     86  C   UNL A   1      33.439  22.377  23.565  1.00  0.00    -0.029 A 
ATOM     87  C   UNL A   1      32.618  21.254  23.356  1.00  0.00     0.005 A 
ATOM     88  C   UNL A   1      34.109  22.490  24.794  1.00  0.00     0.044 A 
ATOM     89  C   UNL A   1      32.442  20.294  24.354  1.00  0.00     0.000 A 
ATOM     90  C   UNL A   1      33.928  21.528  25.794  1.00  0.00     0.021 A 
ATOM     91  Cl  UNL A   1      35.148  23.824  25.151  1.00  0.00    -0.084 Cl
ATOM     92  C   UNL A   1      33.087  20.437  25.577  1.00  0.00     0.002 A 
ENDBRANCH  85  86
ENDBRANCH  77  85
ENDBRANCH  74  77
ENDBRANCH   1  73
TORSDOF 16
ENDMDL
