MODEL 1
REMARK VINA RESULT:     -14.1      0.000      0.000
REMARK SMILES O=C(NCCCNC(=O)c1ccccc1Nc1cccc(S(F)(F)(F)(F)F)c1)c1ccc(-c2c3nc(c(-c4c(F)c(F)c(F)c(F)c4F)c4ccc([nH]4)c(-c4c(F)c(F)c(F)c(F)c4F)c4nc(c(-c5c(F)c(F)c(F)c(F)c5F)c5ccc2[nH]5)C=C4)C=C3)cc1
REMARK SMILES IDX 5 1 4 2 3 3 1 4 2 5 29 7 30 8 91 9 31 10 90 11 32 12 33 13
REMARK SMILES IDX 34 14 84 15 35 16 89 17 83 18 85 19 36 20 88 21 82 22 81 23
REMARK SMILES IDX 37 25 69 26 49 27 68 28 50 29 53 30 67 31 86 32 51 33 52 34
REMARK SMILES IDX 66 36 87 37 54 38 38 39 39 40 47 41 40 42 41 43 45 44 48 45
REMARK SMILES IDX 42 46 43 47 46 48 44 49 70 50 71 51 79 52 72 53 73 54 77 55
REMARK SMILES IDX 80 56 74 57 75 58 78 59 76 60 55 61 56 62 64 63 57 64 58 65
REMARK SMILES IDX 62 66 65 67 59 68 60 69 63 70 61 71 6 72 7 73 8 74 9 76
REMARK SMILES IDX 10 77 11 78 15 79 12 80 14 81 13 82 16 83 17 85 18 86 28 87
REMARK SMILES IDX 19 88 21 89 20 90 22 91 23 92 24 93 25 94 26 95 27 96
REMARK H PARENT 3 6 85 24 53 35 7 75 16 84
REMARK Flexibility Score: inf
ROOT
ATOM      1  C   UNL A   1      31.658  30.803  26.158  1.00  0.00     0.042 C 
ENDROOT
BRANCH   1   2
ATOM      2  C   UNL A   1      32.794  31.516  26.876  1.00  0.00     0.118 C 
BRANCH   2   3
ATOM      3  N   UNL A   1      32.378  32.884  27.214  1.00  0.00    -0.352 N 
ATOM      4  O   UNL A   1      32.864  34.899  28.375  1.00  0.00    -0.269 OA
ATOM      5  C   UNL A   1      33.223  33.716  28.083  1.00  0.00     0.251 C 
ATOM      6  H   UNL A   1      31.533  33.244  26.859  1.00  0.00     0.163 HD
BRANCH   5   7
ATOM      7  C   UNL A   1      34.527  33.160  28.632  1.00  0.00     0.039 A 
ATOM      8  C   UNL A   1      35.761  33.737  28.380  1.00  0.00     0.014 A 
ATOM      9  C   UNL A   1      34.403  32.138  29.471  1.00  0.00     0.014 A 
ATOM     10  C   UNL A   1      36.857  32.973  28.848  1.00  0.00     0.010 A 
ATOM     11  C   UNL A   1      35.514  31.526  29.996  1.00  0.00     0.010 A 
ATOM     12  C   UNL A   1      36.768  32.006  29.742  1.00  0.00    -0.014 A 
BRANCH  12  13
ATOM     13  C   UNL A   1      37.995  31.458  30.452  1.00  0.00     0.031 A 
ATOM     14  C   UNL A   1      38.683  30.481  29.729  1.00  0.00     0.074 A 
ATOM     15  C   UNL A   1      38.289  31.804  31.760  1.00  0.00     0.049 A 
ATOM     16  N   UNL A   1      39.725  29.753  30.134  1.00  0.00    -0.248 NA
ATOM     17  C   UNL A   1      38.350  30.087  28.353  1.00  0.00     0.031 C 
ATOM     18  C   UNL A   1      37.608  32.795  32.492  1.00  0.00     0.029 A 
ATOM     19  N   UNL A   1      39.265  31.273  32.575  1.00  0.00    -0.354 N 
ATOM     20  C   UNL A   1      40.122  28.934  29.157  1.00  0.00     0.074 A 
ATOM     21  C   UNL A   1      39.239  29.133  28.000  1.00  0.00     0.031 C 
ATOM     22  C   UNL A   1      38.155  32.854  33.734  1.00  0.00     0.029 A 
ATOM     23  C   UNL A   1      39.190  31.900  33.799  1.00  0.00     0.049 A 
ATOM     24  H   UNL A   1      39.905  30.569  32.326  1.00  0.00     0.167 HD
ATOM     25  C   UNL A   1      41.186  28.032  29.186  1.00  0.00     0.037 A 
ATOM     26  C   UNL A   1      39.968  31.667  34.922  1.00  0.00     0.037 A 
ATOM     27  C   UNL A   1      41.993  27.829  30.294  1.00  0.00     0.049 A 
ATOM     28  C   UNL A   1      40.996  30.722  34.970  1.00  0.00     0.074 A 
ATOM     29  C   UNL A   1      43.074  26.928  30.338  1.00  0.00     0.029 A 
ATOM     30  N   UNL A   1      41.901  28.438  31.527  1.00  0.00    -0.354 N 
ATOM     31  N   UNL A   1      41.417  29.932  33.980  1.00  0.00    -0.248 NA
ATOM     32  C   UNL A   1      41.805  30.444  36.163  1.00  0.00     0.031 C 
ATOM     33  C   UNL A   1      43.622  26.987  31.580  1.00  0.00     0.029 A 
ATOM     34  C   UNL A   1      42.890  27.924  32.335  1.00  0.00     0.049 A 
ATOM     35  H   UNL A   1      41.243  29.123  31.785  1.00  0.00     0.167 HD
ATOM     36  C   UNL A   1      42.434  29.175  34.399  1.00  0.00     0.074 A 
ATOM     37  C   UNL A   1      42.693  29.488  35.811  1.00  0.00     0.031 C 
ATOM     38  C   UNL A   1      43.157  28.239  33.659  1.00  0.00     0.037 A 
BRANCH  25  39
ATOM     39  C   UNL A   1      41.477  27.225  27.930  1.00  0.00     0.064 A 
ATOM     40  C   UNL A   1      40.984  25.937  27.803  1.00  0.00     0.173 A 
ATOM     41  C   UNL A   1      42.339  27.724  27.051  1.00  0.00     0.173 A 
ATOM     42  F   UNL A   1      39.945  25.486  28.500  1.00  0.00    -0.203 F 
ATOM     43  C   UNL A   1      41.689  25.144  26.867  1.00  0.00     0.198 A 
ATOM     44  C   UNL A   1      42.885  26.923  26.077  1.00  0.00     0.198 A 
ATOM     45  F   UNL A   1      42.677  29.008  27.114  1.00  0.00    -0.203 F 
ATOM     46  F   UNL A   1      41.535  23.824  26.934  1.00  0.00    -0.200 F 
ATOM     47  C   UNL A   1      42.489  25.622  25.932  1.00  0.00     0.200 A 
ATOM     48  F   UNL A   1      43.813  27.420  25.264  1.00  0.00    -0.200 F 
ATOM     49  F   UNL A   1      42.887  24.879  24.903  1.00  0.00    -0.200 F 
ENDBRANCH  25  39
BRANCH  26  50
ATOM     50  C   UNL A   1      39.687  32.486  36.172  1.00  0.00     0.064 A 
ATOM     51  C   UNL A   1      40.306  33.699  36.424  1.00  0.00     0.173 A 
ATOM     52  C   UNL A   1      38.701  32.042  36.942  1.00  0.00     0.173 A 
ATOM     53  F   UNL A   1      41.110  34.298  35.551  1.00  0.00    -0.203 F 
ATOM     54  C   UNL A   1      40.002  34.244  37.695  1.00  0.00     0.198 A 
ATOM     55  C   UNL A   1      38.367  32.700  38.101  1.00  0.00     0.198 A 
ATOM     56  F   UNL A   1      38.029  30.949  36.588  1.00  0.00    -0.203 F 
ATOM     57  F   UNL A   1      40.805  35.193  38.168  1.00  0.00    -0.200 F 
ATOM     58  C   UNL A   1      38.978  33.875  38.443  1.00  0.00     0.200 A 
ATOM     59  F   UNL A   1      37.436  32.189  38.902  1.00  0.00    -0.200 F 
ATOM     60  F   UNL A   1      38.564  34.607  39.473  1.00  0.00    -0.200 F 
ENDBRANCH  26  50
BRANCH  38  61
ATOM     61  C   UNL A   1      44.309  27.522  34.345  1.00  0.00     0.064 A 
ATOM     62  C   UNL A   1      45.581  28.054  34.474  1.00  0.00     0.173 A 
ATOM     63  C   UNL A   1      43.973  26.386  34.944  1.00  0.00     0.173 A 
ATOM     64  F   UNL A   1      45.888  29.296  34.110  1.00  0.00    -0.203 F 
ATOM     65  C   UNL A   1      46.524  27.157  35.026  1.00  0.00     0.198 A 
ATOM     66  C   UNL A   1      44.923  25.626  35.584  1.00  0.00     0.198 A 
ATOM     67  F   UNL A   1      42.707  25.980  34.926  1.00  0.00    -0.203 F 
ATOM     68  F   UNL A   1      47.815  27.434  34.859  1.00  0.00    -0.200 F 
ATOM     69  C   UNL A   1      46.213  26.063  35.698  1.00  0.00     0.200 A 
ATOM     70  F   UNL A   1      44.581  24.448  36.100  1.00  0.00    -0.200 F 
ATOM     71  F   UNL A   1      47.108  25.420  36.444  1.00  0.00    -0.200 F 
ENDBRANCH  38  61
ENDBRANCH  12  13
ENDBRANCH   5   7
ENDBRANCH   2   3
ENDBRANCH   1   2
BRANCH   1  72
ATOM     72  C   UNL A   1      32.153  29.469  25.625  1.00  0.00     0.118 C 
BRANCH  72  73
ATOM     73  N   UNL A   1      33.116  29.703  24.540  1.00  0.00    -0.352 N 
ATOM     74  C   UNL A   1      33.553  28.585  23.692  1.00  0.00     0.253 C 
ATOM     75  H   UNL A   1      33.469  30.608  24.381  1.00  0.00     0.163 HD
ATOM     76  O   UNL A   1      34.387  28.788  22.753  1.00  0.00    -0.269 OA
BRANCH  74  77
ATOM     77  C   UNL A   1      33.010  27.187  23.936  1.00  0.00     0.063 A 
ATOM     78  C   UNL A   1      33.600  26.378  24.893  1.00  0.00     0.016 A 
ATOM     79  C   UNL A   1      32.062  26.721  23.131  1.00  0.00     0.051 A 
ATOM     80  C   UNL A   1      33.324  25.000  24.729  1.00  0.00     0.001 A 
ATOM     81  C   UNL A   1      31.748  25.384  23.120  1.00  0.00     0.027 A 
ATOM     82  C   UNL A   1      32.336  24.516  23.998  1.00  0.00     0.002 A 
BRANCH  79  83
ATOM     83  N   UNL A   1      31.342  27.645  22.243  1.00  0.00    -0.355 N 
ATOM     84  H   UNL A   1      31.678  27.817  21.333  1.00  0.00     0.167 HD
BRANCH  83  85
ATOM     85  C   UNL A   1      30.120  28.315  22.713  1.00  0.00     0.040 A 
ATOM     86  C   UNL A   1      29.063  27.520  23.126  1.00  0.00     0.026 A 
ATOM     87  C   UNL A   1      30.019  29.638  22.687  1.00  0.00     0.050 A 
ATOM     88  C   UNL A   1      27.832  28.210  23.221  1.00  0.00     0.004 A 
ATOM     89  C   UNL A   1      28.812  30.251  22.923  1.00  0.00     0.109 A 
ATOM     90  C   UNL A   1      27.711  29.524  23.279  1.00  0.00     0.024 A 
BRANCH  89  91
ATOM     91  S   UNL A   1      28.679  32.050  22.763  1.00  0.00     0.310 S 
ATOM     92  F   UNL A   1      27.278  31.953  23.500  1.00  0.00    -0.094 F 
ATOM     93  F   UNL A   1      27.912  31.758  21.416  1.00  0.00    -0.094 F 
ATOM     94  F   UNL A   1      28.424  33.575  22.609  1.00  0.00    -0.094 F 
ATOM     95  F   UNL A   1      29.326  32.307  24.179  1.00  0.00    -0.094 F 
ATOM     96  F   UNL A   1      28.846  30.493  22.986  1.00  0.00    -0.094 F 
ENDBRANCH  89  91
ENDBRANCH  83  85
ENDBRANCH  79  83
ENDBRANCH  74  77
ENDBRANCH  72  73
ENDBRANCH   1  72
TORSDOF 13
ENDMDL
MODEL 2
REMARK VINA RESULT:     -14.0      0.969      2.112
REMARK SMILES O=C(NCCCNC(=O)c1ccccc1Nc1cccc(S(F)(F)(F)(F)F)c1)c1ccc(-c2c3nc(c(-c4c(F)c(F)c(F)c(F)c4F)c4ccc([nH]4)c(-c4c(F)c(F)c(F)c(F)c4F)c4nc(c(-c5c(F)c(F)c(F)c(F)c5F)c5ccc2[nH]5)C=C4)C=C3)cc1
REMARK SMILES IDX 5 1 4 2 3 3 1 4 2 5 29 7 30 8 91 9 31 10 90 11 32 12 33 13
REMARK SMILES IDX 34 14 84 15 35 16 89 17 83 18 85 19 36 20 88 21 82 22 81 23
REMARK SMILES IDX 37 25 69 26 49 27 68 28 50 29 53 30 67 31 86 32 51 33 52 34
REMARK SMILES IDX 66 36 87 37 54 38 38 39 39 40 47 41 40 42 41 43 45 44 48 45
REMARK SMILES IDX 42 46 43 47 46 48 44 49 70 50 71 51 79 52 72 53 73 54 77 55
REMARK SMILES IDX 80 56 74 57 75 58 78 59 76 60 55 61 56 62 64 63 57 64 58 65
REMARK SMILES IDX 62 66 65 67 59 68 60 69 63 70 61 71 6 72 7 73 8 74 9 76
REMARK SMILES IDX 10 77 11 78 15 79 12 80 14 81 13 82 16 83 17 85 18 86 28 87
REMARK SMILES IDX 19 88 21 89 20 90 22 91 23 92 24 93 25 94 26 95 27 96
REMARK H PARENT 3 6 85 24 53 35 7 75 16 84
REMARK Flexibility Score: inf
ROOT
ATOM      1  C   UNL A   1      31.510  31.430  26.503  1.00  0.00     0.042 C 
ENDROOT
BRANCH   1   2
ATOM      2  C   UNL A   1      32.696  32.302  26.885  1.00  0.00     0.118 C 
BRANCH   2   3
ATOM      3  N   UNL A   1      32.213  33.616  27.335  1.00  0.00    -0.352 N 
ATOM      4  O   UNL A   1      32.567  35.519  28.713  1.00  0.00    -0.269 OA
ATOM      5  C   UNL A   1      32.984  34.383  28.324  1.00  0.00     0.251 C 
ATOM      6  H   UNL A   1      31.374  33.981  26.974  1.00  0.00     0.163 HD
BRANCH   5   7
ATOM      7  C   UNL A   1      34.280  33.818  28.882  1.00  0.00     0.039 A 
ATOM      8  C   UNL A   1      35.532  34.266  28.491  1.00  0.00     0.014 A 
ATOM      9  C   UNL A   1      34.141  32.933  29.863  1.00  0.00     0.014 A 
ATOM     10  C   UNL A   1      36.602  33.499  29.008  1.00  0.00     0.010 A 
ATOM     11  C   UNL A   1      35.240  32.322  30.414  1.00  0.00     0.010 A 
ATOM     12  C   UNL A   1      36.505  32.673  30.034  1.00  0.00    -0.014 A 
BRANCH  12  13
ATOM     13  C   UNL A   1      37.735  32.143  30.753  1.00  0.00     0.031 A 
ATOM     14  C   UNL A   1      38.396  31.120  30.072  1.00  0.00     0.074 A 
ATOM     15  C   UNL A   1      38.053  32.552  32.037  1.00  0.00     0.049 A 
ATOM     16  N   UNL A   1      39.435  30.398  30.498  1.00  0.00    -0.248 NA
ATOM     17  C   UNL A   1      38.037  30.661  28.723  1.00  0.00     0.031 C 
ATOM     18  C   UNL A   1      37.398  33.589  32.727  1.00  0.00     0.029 A 
ATOM     19  N   UNL A   1      39.034  32.048  32.865  1.00  0.00    -0.354 N 
ATOM     20  C   UNL A   1      39.804  29.523  29.559  1.00  0.00     0.074 A 
ATOM     21  C   UNL A   1      38.907  29.676  28.407  1.00  0.00     0.031 C 
ATOM     22  C   UNL A   1      37.965  33.703  33.956  1.00  0.00     0.029 A 
ATOM     23  C   UNL A   1      38.986  32.738  34.056  1.00  0.00     0.049 A 
ATOM     24  H   UNL A   1      39.659  31.322  32.643  1.00  0.00     0.167 HD
ATOM     25  C   UNL A   1      40.855  28.607  29.620  1.00  0.00     0.037 A 
ATOM     26  C   UNL A   1      39.778  32.551  35.177  1.00  0.00     0.037 A 
ATOM     27  C   UNL A   1      41.675  28.449  30.725  1.00  0.00     0.049 A 
ATOM     28  C   UNL A   1      40.792  31.594  35.260  1.00  0.00     0.074 A 
ATOM     29  C   UNL A   1      42.744  27.535  30.800  1.00  0.00     0.029 A 
ATOM     30  N   UNL A   1      41.611  29.122  31.926  1.00  0.00    -0.354 N 
ATOM     31  N   UNL A   1      41.186  30.748  34.306  1.00  0.00    -0.248 NA
ATOM     32  C   UNL A   1      41.615  31.365  36.453  1.00  0.00     0.031 C 
ATOM     33  C   UNL A   1      43.311  27.649  32.030  1.00  0.00     0.029 A 
ATOM     34  C   UNL A   1      42.605  28.635  32.746  1.00  0.00     0.049 A 
ATOM     35  H   UNL A   1      40.967  29.830  32.158  1.00  0.00     0.167 HD
ATOM     36  C   UNL A   1      42.199  29.997  34.748  1.00  0.00     0.074 A 
ATOM     37  C   UNL A   1      42.484  30.378  36.138  1.00  0.00     0.031 C 
ATOM     38  C   UNL A   1      42.896  29.014  34.047  1.00  0.00     0.037 A 
BRANCH  25  39
ATOM     39  C   UNL A   1      41.115  27.733  28.403  1.00  0.00     0.064 A 
ATOM     40  C   UNL A   1      41.978  28.166  27.410  1.00  0.00     0.173 A 
ATOM     41  C   UNL A   1      40.376  26.641  28.246  1.00  0.00     0.173 A 
ATOM     42  F   UNL A   1      42.911  29.092  27.613  1.00  0.00    -0.203 F 
ATOM     43  C   UNL A   1      41.776  27.535  26.160  1.00  0.00     0.198 A 
ATOM     44  C   UNL A   1      40.331  25.996  27.033  1.00  0.00     0.198 A 
ATOM     45  F   UNL A   1      39.672  26.169  29.270  1.00  0.00    -0.203 F 
ATOM     46  F   UNL A   1      42.289  28.120  25.081  1.00  0.00    -0.200 F 
ATOM     47  C   UNL A   1      41.113  26.406  25.989  1.00  0.00     0.200 A 
ATOM     48  F   UNL A   1      39.515  24.958  26.873  1.00  0.00    -0.200 F 
ATOM     49  F   UNL A   1      41.202  25.704  24.863  1.00  0.00    -0.200 F 
ENDBRANCH  25  39
BRANCH  26  50
ATOM     50  C   UNL A   1      39.528  33.437  36.388  1.00  0.00     0.064 A 
ATOM     51  C   UNL A   1      38.798  33.011  37.485  1.00  0.00     0.173 A 
ATOM     52  C   UNL A   1      40.177  34.595  36.399  1.00  0.00     0.173 A 
ATOM     53  F   UNL A   1      38.348  31.767  37.619  1.00  0.00    -0.203 F 
ATOM     54  C   UNL A   1      38.576  34.021  38.452  1.00  0.00     0.198 A 
ATOM     55  C   UNL A   1      40.019  35.476  37.442  1.00  0.00     0.198 A 
ATOM     56  F   UNL A   1      40.989  34.905  35.391  1.00  0.00    -0.203 F 
ATOM     57  F   UNL A   1      37.607  33.823  39.341  1.00  0.00    -0.200 F 
ATOM     58  C   UNL A   1      39.264  35.145  38.533  1.00  0.00     0.200 A 
ATOM     59  F   UNL A   1      40.608  36.667  37.389  1.00  0.00    -0.200 F 
ATOM     60  F   UNL A   1      39.225  35.914  39.617  1.00  0.00    -0.200 F 
ENDBRANCH  26  50
BRANCH  38  61
ATOM     61  C   UNL A   1      44.047  28.315  34.753  1.00  0.00     0.064 A 
ATOM     62  C   UNL A   1      43.929  27.094  35.398  1.00  0.00     0.173 A 
ATOM     63  C   UNL A   1      45.229  28.897  34.591  1.00  0.00     0.173 A 
ATOM     64  F   UNL A   1      42.821  26.360  35.362  1.00  0.00    -0.203 F 
ATOM     65  C   UNL A   1      45.093  26.701  36.098  1.00  0.00     0.198 A 
ATOM     66  C   UNL A   1      46.352  28.381  35.194  1.00  0.00     0.198 A 
ATOM     67  F   UNL A   1      45.329  29.989  33.839  1.00  0.00    -0.203 F 
ATOM     68  F   UNL A   1      44.969  25.754  37.023  1.00  0.00    -0.200 F 
ATOM     69  C   UNL A   1      46.296  27.209  35.896  1.00  0.00     0.200 A 
ATOM     70  F   UNL A   1      47.508  29.029  35.092  1.00  0.00    -0.200 F 
ATOM     71  F   UNL A   1      47.394  26.612  36.354  1.00  0.00    -0.200 F 
ENDBRANCH  38  61
ENDBRANCH  12  13
ENDBRANCH   5   7
ENDBRANCH   2   3
ENDBRANCH   1   2
BRANCH   1  72
ATOM     72  C   UNL A   1      31.994  30.021  26.201  1.00  0.00     0.118 C 
BRANCH  72  73
ATOM     73  N   UNL A   1      32.911  30.054  25.053  1.00  0.00    -0.352 N 
ATOM     74  C   UNL A   1      33.294  28.804  24.382  1.00  0.00     0.253 C 
ATOM     75  H   UNL A   1      33.269  30.913  24.733  1.00  0.00     0.163 HD
ATOM     76  O   UNL A   1      34.088  28.832  23.389  1.00  0.00    -0.269 OA
BRANCH  74  77
ATOM     77  C   UNL A   1      32.743  27.476  24.876  1.00  0.00     0.063 A 
ATOM     78  C   UNL A   1      33.247  26.912  26.036  1.00  0.00     0.016 A 
ATOM     79  C   UNL A   1      31.880  26.819  24.109  1.00  0.00     0.051 A 
ATOM     80  C   UNL A   1      33.000  25.523  26.153  1.00  0.00     0.001 A 
ATOM     81  C   UNL A   1      31.581  25.502  24.362  1.00  0.00     0.027 A 
ATOM     82  C   UNL A   1      32.091  24.863  25.458  1.00  0.00     0.002 A 
BRANCH  79  83
ATOM     83  N   UNL A   1      31.239  27.507  22.978  1.00  0.00    -0.355 N 
ATOM     84  H   UNL A   1      31.662  27.491  22.089  1.00  0.00     0.167 HD
BRANCH  83  85
ATOM     85  C   UNL A   1      29.969  28.220  23.176  1.00  0.00     0.040 A 
ATOM     86  C   UNL A   1      28.830  27.464  23.403  1.00  0.00     0.026 A 
ATOM     87  C   UNL A   1      29.912  29.542  23.084  1.00  0.00     0.050 A 
ATOM     88  C   UNL A   1      27.623  28.182  23.230  1.00  0.00     0.004 A 
ATOM     89  C   UNL A   1      28.700  30.189  23.058  1.00  0.00     0.109 A 
ATOM     90  C   UNL A   1      27.530  29.500  23.217  1.00  0.00     0.024 A 
BRANCH  89  91
ATOM     91  S   UNL A   1      28.651  31.982  22.809  1.00  0.00     0.310 S 
ATOM     92  F   UNL A   1      27.244  31.986  23.542  1.00  0.00    -0.094 F 
ATOM     93  F   UNL A   1      27.877  31.662  21.474  1.00  0.00    -0.094 F 
ATOM     94  F   UNL A   1      28.467  33.508  22.581  1.00  0.00    -0.094 F 
ATOM     95  F   UNL A   1      29.303  32.278  24.216  1.00  0.00    -0.094 F 
ATOM     96  F   UNL A   1      28.744  30.432  23.109  1.00  0.00    -0.094 F 
ENDBRANCH  89  91
ENDBRANCH  83  85
ENDBRANCH  79  83
ENDBRANCH  74  77
ENDBRANCH  72  73
ENDBRANCH   1  72
TORSDOF 13
ENDMDL
MODEL 3
REMARK VINA RESULT:     -13.9      0.426      1.159
REMARK SMILES O=C(NCCCNC(=O)c1ccccc1Nc1cccc(S(F)(F)(F)(F)F)c1)c1ccc(-c2c3nc(c(-c4c(F)c(F)c(F)c(F)c4F)c4ccc([nH]4)c(-c4c(F)c(F)c(F)c(F)c4F)c4nc(c(-c5c(F)c(F)c(F)c(F)c5F)c5ccc2[nH]5)C=C4)C=C3)cc1
REMARK SMILES IDX 5 1 4 2 3 3 1 4 2 5 29 7 30 8 91 9 31 10 90 11 32 12 33 13
REMARK SMILES IDX 34 14 84 15 35 16 89 17 83 18 85 19 36 20 88 21 82 22 81 23
REMARK SMILES IDX 37 25 69 26 49 27 68 28 50 29 53 30 67 31 86 32 51 33 52 34
REMARK SMILES IDX 66 36 87 37 54 38 38 39 39 40 47 41 40 42 41 43 45 44 48 45
REMARK SMILES IDX 42 46 43 47 46 48 44 49 70 50 71 51 79 52 72 53 73 54 77 55
REMARK SMILES IDX 80 56 74 57 75 58 78 59 76 60 55 61 56 62 64 63 57 64 58 65
REMARK SMILES IDX 62 66 65 67 59 68 60 69 63 70 61 71 6 72 7 73 8 74 9 76
REMARK SMILES IDX 10 77 11 78 15 79 12 80 14 81 13 82 16 83 17 85 18 86 28 87
REMARK SMILES IDX 19 88 21 89 20 90 22 91 23 92 24 93 25 94 26 95 27 96
REMARK H PARENT 3 6 85 24 53 35 7 75 16 84
REMARK Flexibility Score: inf
ROOT
ATOM      1  C   UNL A   1      31.426  31.139  26.123  1.00  0.00     0.042 C 
ENDROOT
BRANCH   1   2
ATOM      2  C   UNL A   1      32.564  31.803  26.882  1.00  0.00     0.118 C 
BRANCH   2   3
ATOM      3  N   UNL A   1      32.193  33.187  27.210  1.00  0.00    -0.352 N 
ATOM      4  O   UNL A   1      32.753  35.199  28.342  1.00  0.00    -0.269 OA
ATOM      5  C   UNL A   1      33.074  34.003  28.059  1.00  0.00     0.251 C 
ATOM      6  H   UNL A   1      31.354  33.567  26.862  1.00  0.00     0.163 HD
BRANCH   5   7
ATOM      7  C   UNL A   1      34.368  33.415  28.596  1.00  0.00     0.039 A 
ATOM      8  C   UNL A   1      35.615  33.956  28.324  1.00  0.00     0.014 A 
ATOM      9  C   UNL A   1      34.226  32.405  29.446  1.00  0.00     0.014 A 
ATOM     10  C   UNL A   1      36.694  33.166  28.785  1.00  0.00     0.010 A 
ATOM     11  C   UNL A   1      35.327  31.765  29.962  1.00  0.00     0.010 A 
ATOM     12  C   UNL A   1      36.590  32.209  29.689  1.00  0.00    -0.014 A 
BRANCH  12  13
ATOM     13  C   UNL A   1      37.810  31.633  30.388  1.00  0.00     0.031 A 
ATOM     14  C   UNL A   1      38.497  30.675  29.639  1.00  0.00     0.074 A 
ATOM     15  C   UNL A   1      38.098  31.936  31.707  1.00  0.00     0.049 A 
ATOM     16  N   UNL A   1      39.534  29.930  30.027  1.00  0.00    -0.248 NA
ATOM     17  C   UNL A   1      38.170  30.326  28.250  1.00  0.00     0.031 C 
ATOM     18  C   UNL A   1      37.417  32.908  32.466  1.00  0.00     0.029 A 
ATOM     19  N   UNL A   1      39.067  31.376  32.512  1.00  0.00    -0.354 N 
ATOM     20  C   UNL A   1      39.932  29.139  29.027  1.00  0.00     0.074 A 
ATOM     21  C   UNL A   1      39.057  29.378  27.872  1.00  0.00     0.031 C 
ATOM     22  C   UNL A   1      37.958  32.925  33.712  1.00  0.00     0.029 A 
ATOM     23  C   UNL A   1      38.987  31.964  33.754  1.00  0.00     0.049 A 
ATOM     24  H   UNL A   1      39.705  30.676  32.245  1.00  0.00     0.167 HD
ATOM     25  C   UNL A   1      40.991  28.231  29.034  1.00  0.00     0.037 A 
ATOM     26  C   UNL A   1      39.758  31.693  34.873  1.00  0.00     0.037 A 
ATOM     27  C   UNL A   1      41.790  27.989  30.140  1.00  0.00     0.049 A 
ATOM     28  C   UNL A   1      40.781  30.741  34.898  1.00  0.00     0.074 A 
ATOM     29  C   UNL A   1      42.867  27.082  30.162  1.00  0.00     0.029 A 
ATOM     30  N   UNL A   1      41.695  28.561  31.391  1.00  0.00    -0.354 N 
ATOM     31  N   UNL A   1      41.204  29.981  33.887  1.00  0.00    -0.248 NA
ATOM     32  C   UNL A   1      41.582  30.422  36.086  1.00  0.00     0.031 C 
ATOM     33  C   UNL A   1      43.408  27.100  31.409  1.00  0.00     0.029 A 
ATOM     34  C   UNL A   1      42.677  28.016  32.188  1.00  0.00     0.049 A 
ATOM     35  H   UNL A   1      41.038  29.241  31.666  1.00  0.00     0.167 HD
ATOM     36  C   UNL A   1      42.215  29.205  34.287  1.00  0.00     0.074 A 
ATOM     37  C   UNL A   1      42.467  29.472  35.709  1.00  0.00     0.031 C 
ATOM     38  C   UNL A   1      42.937  28.289  33.522  1.00  0.00     0.037 A 
BRANCH  25  39
ATOM     39  C   UNL A   1      41.286  27.462  27.755  1.00  0.00     0.064 A 
ATOM     40  C   UNL A   1      40.781  26.184  27.583  1.00  0.00     0.173 A 
ATOM     41  C   UNL A   1      42.161  27.980  26.900  1.00  0.00     0.173 A 
ATOM     42  F   UNL A   1      39.731  25.722  28.255  1.00  0.00    -0.203 F 
ATOM     43  C   UNL A   1      41.487  25.414  26.628  1.00  0.00     0.198 A 
ATOM     44  C   UNL A   1      42.708  27.205  25.906  1.00  0.00     0.198 A 
ATOM     45  F   UNL A   1      42.511  29.258  27.008  1.00  0.00    -0.203 F 
ATOM     46  F   UNL A   1      41.319  24.095  26.651  1.00  0.00    -0.200 F 
ATOM     47  C   UNL A   1      42.300  25.914  25.715  1.00  0.00     0.200 A 
ATOM     48  F   UNL A   1      43.648  27.718  25.118  1.00  0.00    -0.200 F 
ATOM     49  F   UNL A   1      42.699  25.200  24.667  1.00  0.00    -0.200 F 
ENDBRANCH  25  39
BRANCH  26  50
ATOM     50  C   UNL A   1      39.474  32.473  36.147  1.00  0.00     0.064 A 
ATOM     51  C   UNL A   1      38.528  32.069  37.074  1.00  0.00     0.173 A 
ATOM     52  C   UNL A   1      40.292  33.489  36.395  1.00  0.00     0.173 A 
ATOM     53  F   UNL A   1      37.868  30.918  36.982  1.00  0.00    -0.203 F 
ATOM     54  C   UNL A   1      38.328  32.992  38.128  1.00  0.00     0.198 A 
ATOM     55  C   UNL A   1      40.123  34.266  37.516  1.00  0.00     0.198 A 
ATOM     56  F   UNL A   1      41.286  33.756  35.552  1.00  0.00    -0.203 F 
ATOM     57  F   UNL A   1      37.216  32.875  38.849  1.00  0.00    -0.200 F 
ATOM     58  C   UNL A   1      39.168  33.960  38.446  1.00  0.00     0.200 A 
ATOM     59  F   UNL A   1      40.897  35.332  37.698  1.00  0.00    -0.200 F 
ATOM     60  F   UNL A   1      39.089  34.602  39.608  1.00  0.00    -0.200 F 
ENDBRANCH  26  50
BRANCH  38  61
ATOM     61  C   UNL A   1      44.081  27.545  34.192  1.00  0.00     0.064 A 
ATOM     62  C   UNL A   1      45.364  28.054  34.317  1.00  0.00     0.173 A 
ATOM     63  C   UNL A   1      43.731  26.409  34.783  1.00  0.00     0.173 A 
ATOM     64  F   UNL A   1      45.690  29.294  33.964  1.00  0.00    -0.203 F 
ATOM     65  C   UNL A   1      46.295  27.135  34.853  1.00  0.00     0.198 A 
ATOM     66  C   UNL A   1      44.672  25.626  35.407  1.00  0.00     0.198 A 
ATOM     67  F   UNL A   1      42.457  26.025  34.770  1.00  0.00    -0.203 F 
ATOM     68  F   UNL A   1      47.589  27.391  34.679  1.00  0.00    -0.200 F 
ATOM     69  C   UNL A   1      45.970  26.039  35.516  1.00  0.00     0.200 A 
ATOM     70  F   UNL A   1      44.314  24.449  35.914  1.00  0.00    -0.200 F 
ATOM     71  F   UNL A   1      46.859  25.374  36.249  1.00  0.00    -0.200 F 
ENDBRANCH  38  61
ENDBRANCH  12  13
ENDBRANCH   5   7
ENDBRANCH   2   3
ENDBRANCH   1   2
BRANCH   1  72
ATOM     72  C   UNL A   1      31.812  29.709  25.781  1.00  0.00     0.118 C 
BRANCH  72  73
ATOM     73  N   UNL A   1      32.793  29.715  24.687  1.00  0.00    -0.352 N 
ATOM     74  C   UNL A   1      33.217  28.449  24.073  1.00  0.00     0.253 C 
ATOM     75  H   UNL A   1      33.166  30.567  24.364  1.00  0.00     0.163 HD
ATOM     76  O   UNL A   1      34.067  28.454  23.127  1.00  0.00    -0.269 OA
BRANCH  74  77
ATOM     77  C   UNL A   1      32.642  27.132  24.570  1.00  0.00     0.063 A 
ATOM     78  C   UNL A   1      33.186  26.525  25.690  1.00  0.00     0.016 A 
ATOM     79  C   UNL A   1      31.715  26.524  23.839  1.00  0.00     0.051 A 
ATOM     80  C   UNL A   1      32.892  25.144  25.793  1.00  0.00     0.001 A 
ATOM     81  C   UNL A   1      31.380  25.215  24.082  1.00  0.00     0.027 A 
ATOM     82  C   UNL A   1      31.923  24.534  25.136  1.00  0.00     0.002 A 
BRANCH  79  83
ATOM     83  N   UNL A   1      31.042  27.260  22.758  1.00  0.00    -0.355 N 
ATOM     84  H   UNL A   1      31.409  27.237  21.844  1.00  0.00     0.167 HD
BRANCH  83  85
ATOM     85  C   UNL A   1      29.823  28.031  23.042  1.00  0.00     0.040 A 
ATOM     86  C   UNL A   1      28.694  27.335  23.443  1.00  0.00     0.026 A 
ATOM     87  C   UNL A   1      29.794  29.345  22.865  1.00  0.00     0.050 A 
ATOM     88  C   UNL A   1      27.498  28.083  23.353  1.00  0.00     0.004 A 
ATOM     89  C   UNL A   1      28.607  30.034  22.925  1.00  0.00     0.109 A 
ATOM     90  C   UNL A   1      27.442  29.400  23.258  1.00  0.00     0.024 A 
BRANCH  89  91
ATOM     91  S   UNL A   1      28.583  31.806  22.558  1.00  0.00     0.310 S 
ATOM     92  F   UNL A   1      27.188  31.883  23.310  1.00  0.00    -0.094 F 
ATOM     93  F   UNL A   1      27.783  31.412  21.259  1.00  0.00    -0.094 F 
ATOM     94  F   UNL A   1      28.421  33.317  22.231  1.00  0.00    -0.094 F 
ATOM     95  F   UNL A   1      29.263  32.184  23.932  1.00  0.00    -0.094 F 
ATOM     96  F   UNL A   1      28.656  30.279  22.959  1.00  0.00    -0.094 F 
ENDBRANCH  89  91
ENDBRANCH  83  85
ENDBRANCH  79  83
ENDBRANCH  74  77
ENDBRANCH  72  73
ENDBRANCH   1  72
TORSDOF 13
ENDMDL
