MODEL 1
REMARK VINA RESULT:     -12.8      0.000      0.000
REMARK SMILES CC(=O)c1cn(CC(=O)NCC(=O)NCC(=O)NCCCNC(=O)c2ccc(-c3c4nc(c(-c5c(F)c(F)c(F)c(F)c5F)c5ccc([nH]5)c(-c5c(F)c(F)c(F)c(F)c5F)c5nc(c(-c6c(F)c(F)c(F)c(F)c6F)c6ccc3[nH]6)C=C5)C=C4)cc2)c2ccccc12
REMARK SMILES IDX 16 1 17 2 18 3 15 5 14 6 12 7 13 8 11 10 10 11 8 12 9 13
REMARK SMILES IDX 7 15 6 16 4 17 5 18 93 19 88 20 92 21 89 22 91 23 90 24 2 25
REMARK SMILES IDX 1 26 3 27 19 28 20 29 21 30 22 31 23 32 24 34 25 35 26 36
REMARK SMILES IDX 87 37 27 38 86 39 28 40 29 41 30 42 80 43 31 44 85 45 79 46
REMARK SMILES IDX 81 47 32 48 84 49 78 50 77 51 33 53 65 54 45 55 64 56 46 57
REMARK SMILES IDX 49 58 63 59 82 60 47 61 48 62 62 64 83 65 50 66 34 67 35 68
REMARK SMILES IDX 43 69 36 70 37 71 41 72 44 73 38 74 39 75 42 76 40 77 66 78
REMARK SMILES IDX 67 79 75 80 68 81 69 82 73 83 76 84 70 85 71 86 74 87 72 88
REMARK SMILES IDX 51 89 52 90 60 91 53 92 54 93 58 94 61 95 55 96 56 97 59 98
REMARK SMILES IDX 57 99
REMARK H PARENT 18 4 14 9 10 14 22 33 81 52 49 63
REMARK Flexibility Score: inf
ROOT
ATOM      1  C   UNL A   1      36.230  23.021  23.709  1.00  0.00     0.239 C 
ATOM      2  O   UNL A   1      36.214  22.977  22.486  1.00  0.00    -0.273 OA
ATOM      3  N   UNL A   1      37.333  23.542  24.327  1.00  0.00    -0.355 N 
ATOM      4  H   UNL A   1      37.949  24.055  23.755  1.00  0.00     0.163 HD
ENDROOT
BRANCH   1   5
ATOM      5  C   UNL A   1      35.014  22.632  24.559  1.00  0.00     0.216 C 
BRANCH   5   6
ATOM      6  N   UNL A   1      33.973  21.837  23.939  1.00  0.00    -0.346 N 
ATOM      7  C   UNL A   1      32.819  22.252  23.338  1.00  0.00     0.239 C 
ATOM      8  O   UNL A   1      32.203  21.414  22.674  1.00  0.00    -0.273 OA
ATOM      9  H   UNL A   1      34.118  20.863  23.953  1.00  0.00     0.164 HD
BRANCH   7  10
ATOM     10  C   UNL A   1      32.338  23.726  23.377  1.00  0.00     0.216 C 
BRANCH  10  11
ATOM     11  N   UNL A   1      32.977  24.615  22.413  1.00  0.00    -0.345 N 
ATOM     12  C   UNL A   1      33.496  25.870  22.522  1.00  0.00     0.240 C 
ATOM     13  O   UNL A   1      33.779  26.446  21.465  1.00  0.00    -0.273 OA
ATOM     14  H   UNL A   1      33.046  24.234  21.508  1.00  0.00     0.164 HD
BRANCH  12  15
ATOM     15  C   UNL A   1      33.822  26.509  23.859  1.00  0.00     0.222 C 
BRANCH  15  16
ATOM     16  N   UNL A   1      32.864  27.502  24.323  1.00  0.00    -0.337 N 
ATOM     17  C   UNL A   1      31.111  28.882  24.221  1.00  0.00     0.043 A 
ATOM     18  C   UNL A   1      31.649  27.708  23.729  1.00  0.00     0.099 A 
ATOM     19  C   UNL A   1      31.950  29.285  25.313  1.00  0.00     0.010 A 
ATOM     20  C   UNL A   1      33.024  28.380  25.374  1.00  0.00     0.049 A 
ATOM     21  C   UNL A   1      31.926  30.347  26.244  1.00  0.00     0.011 A 
ATOM     22  C   UNL A   1      34.061  28.508  26.315  1.00  0.00     0.027 A 
ATOM     23  C   UNL A   1      32.963  30.492  27.172  1.00  0.00     0.001 A 
ATOM     24  C   UNL A   1      34.014  29.584  27.205  1.00  0.00     0.002 A 
BRANCH  17  25
ATOM     25  C   UNL A   1      29.928  29.503  23.626  1.00  0.00     0.161 C 
ATOM     26  C   UNL A   1      28.968  28.644  22.846  1.00  0.00     0.093 C 
ATOM     27  O   UNL A   1      29.646  30.679  23.865  1.00  0.00    -0.294 OA
ENDBRANCH  17  25
ENDBRANCH  15  16
ENDBRANCH  12  15
ENDBRANCH  10  11
ENDBRANCH   7  10
ENDBRANCH   5   6
ENDBRANCH   1   5
BRANCH   3  28
ATOM     28  C   UNL A   1      37.703  23.427  25.715  1.00  0.00     0.117 C 
BRANCH  28  29
ATOM     29  C   UNL A   1      38.475  22.139  25.965  1.00  0.00     0.042 C 
BRANCH  29  30
ATOM     30  C   UNL A   1      39.684  22.359  26.870  1.00  0.00     0.118 C 
BRANCH  30  31
ATOM     31  N   UNL A   1      40.934  22.390  26.139  1.00  0.00    -0.352 N 
ATOM     32  C   UNL A   1      41.958  23.285  26.030  1.00  0.00     0.251 C 
ATOM     33  H   UNL A   1      41.078  21.581  25.597  1.00  0.00     0.163 HD
ATOM     34  O   UNL A   1      42.908  22.938  25.326  1.00  0.00    -0.269 OA
BRANCH  32  35
ATOM     35  C   UNL A   1      41.978  24.642  26.640  1.00  0.00     0.039 A 
ATOM     36  C   UNL A   1      42.629  25.000  27.820  1.00  0.00     0.014 A 
ATOM     37  C   UNL A   1      41.199  25.611  25.982  1.00  0.00     0.014 A 
ATOM     38  C   UNL A   1      42.411  26.245  28.394  1.00  0.00     0.010 A 
ATOM     39  C   UNL A   1      41.003  26.870  26.531  1.00  0.00     0.010 A 
ATOM     40  C   UNL A   1      41.565  27.162  27.768  1.00  0.00    -0.014 A 
BRANCH  40  41
ATOM     41  C   UNL A   1      41.368  28.451  28.413  1.00  0.00     0.031 A 
ATOM     42  C   UNL A   1      42.439  29.456  28.158  1.00  0.00     0.074 A 
ATOM     43  C   UNL A   1      40.260  28.757  29.116  1.00  0.00     0.049 A 
ATOM     44  N   UNL A   1      43.202  30.053  29.016  1.00  0.00    -0.248 NA
ATOM     45  C   UNL A   1      42.765  29.758  26.756  1.00  0.00     0.031 C 
ATOM     46  C   UNL A   1      39.020  27.989  29.248  1.00  0.00     0.029 A 
ATOM     47  N   UNL A   1      39.990  29.895  29.812  1.00  0.00    -0.354 N 
ATOM     48  C   UNL A   1      44.005  30.922  28.280  1.00  0.00     0.074 A 
ATOM     49  C   UNL A   1      43.778  30.613  26.892  1.00  0.00     0.031 C 
ATOM     50  C   UNL A   1      38.064  28.775  29.794  1.00  0.00     0.029 A 
ATOM     51  C   UNL A   1      38.661  30.042  30.176  1.00  0.00     0.049 A 
ATOM     52  H   UNL A   1      40.682  30.557  30.039  1.00  0.00     0.167 HD
ATOM     53  C   UNL A   1      44.662  31.962  28.865  1.00  0.00     0.037 A 
ATOM     54  C   UNL A   1      38.090  31.156  30.698  1.00  0.00     0.037 A 
ATOM     55  C   UNL A   1      44.838  31.748  30.276  1.00  0.00     0.049 A 
ATOM     56  C   UNL A   1      39.180  31.973  31.288  1.00  0.00     0.074 A 
ATOM     57  C   UNL A   1      45.505  30.805  31.035  1.00  0.00     0.029 A 
ATOM     58  N   UNL A   1      43.997  32.388  31.151  1.00  0.00    -0.354 N 
ATOM     59  N   UNL A   1      39.872  31.615  32.334  1.00  0.00    -0.248 NA
ATOM     60  C   UNL A   1      39.797  32.985  30.443  1.00  0.00     0.031 C 
ATOM     61  C   UNL A   1      44.672  30.590  32.171  1.00  0.00     0.029 A 
ATOM     62  C   UNL A   1      43.578  31.448  32.056  1.00  0.00     0.049 A 
ATOM     63  H   UNL A   1      43.742  33.339  31.132  1.00  0.00     0.167 HD
ATOM     64  C   UNL A   1      41.164  32.036  32.063  1.00  0.00     0.074 A 
ATOM     65  C   UNL A   1      41.043  32.942  30.923  1.00  0.00     0.031 C 
ATOM     66  C   UNL A   1      42.244  31.400  32.604  1.00  0.00     0.037 A 
BRANCH  53  67
ATOM     67  C   UNL A   1      44.856  33.312  28.218  1.00  0.00     0.064 A 
ATOM     68  C   UNL A   1      46.156  33.736  27.873  1.00  0.00     0.173 A 
ATOM     69  C   UNL A   1      43.866  34.318  28.198  1.00  0.00     0.173 A 
ATOM     70  F   UNL A   1      47.183  32.873  27.877  1.00  0.00    -0.203 F 
ATOM     71  C   UNL A   1      46.451  35.078  27.608  1.00  0.00     0.198 A 
ATOM     72  C   UNL A   1      44.153  35.645  27.881  1.00  0.00     0.198 A 
ATOM     73  F   UNL A   1      42.607  34.086  28.589  1.00  0.00    -0.203 F 
ATOM     74  F   UNL A   1      47.722  35.453  27.410  1.00  0.00    -0.200 F 
ATOM     75  C   UNL A   1      45.450  36.031  27.619  1.00  0.00     0.200 A 
ATOM     76  F   UNL A   1      43.172  36.557  27.915  1.00  0.00    -0.200 F 
ATOM     77  F   UNL A   1      45.738  37.325  27.428  1.00  0.00    -0.200 F 
ENDBRANCH  53  67
BRANCH  54  78
ATOM     78  C   UNL A   1      36.744  31.709  30.409  1.00  0.00     0.064 A 
ATOM     79  C   UNL A   1      35.898  32.136  31.446  1.00  0.00     0.173 A 
ATOM     80  C   UNL A   1      36.373  32.092  29.104  1.00  0.00     0.173 A 
ATOM     81  F   UNL A   1      36.201  31.857  32.722  1.00  0.00    -0.203 F 
ATOM     82  C   UNL A   1      34.767  32.921  31.195  1.00  0.00     0.198 A 
ATOM     83  C   UNL A   1      35.241  32.868  28.855  1.00  0.00     0.198 A 
ATOM     84  F   UNL A   1      37.155  31.804  28.053  1.00  0.00    -0.203 F 
ATOM     85  F   UNL A   1      34.021  33.366  32.215  1.00  0.00    -0.200 F 
ATOM     86  C   UNL A   1      34.446  33.295  29.900  1.00  0.00     0.200 A 
ATOM     87  F   UNL A   1      34.964  33.253  27.601  1.00  0.00    -0.200 F 
ATOM     88  F   UNL A   1      33.400  34.100  29.664  1.00  0.00    -0.200 F 
ENDBRANCH  54  78
BRANCH  66  89
ATOM     89  C   UNL A   1      41.996  30.367  33.667  1.00  0.00     0.064 A 
ATOM     90  C   UNL A   1      41.702  29.022  33.385  1.00  0.00     0.173 A 
ATOM     91  C   UNL A   1      42.256  30.704  35.002  1.00  0.00     0.173 A 
ATOM     92  F   UNL A   1      41.537  28.601  32.126  1.00  0.00    -0.203 F 
ATOM     93  C   UNL A   1      41.648  28.065  34.398  1.00  0.00     0.198 A 
ATOM     94  C   UNL A   1      42.235  29.740  36.006  1.00  0.00     0.198 A 
ATOM     95  F   UNL A   1      42.598  31.962  35.322  1.00  0.00    -0.203 F 
ATOM     96  F   UNL A   1      41.374  26.785  34.099  1.00  0.00    -0.200 F 
ATOM     97  C   UNL A   1      41.927  28.422  35.705  1.00  0.00     0.200 A 
ATOM     98  F   UNL A   1      42.554  30.081  37.263  1.00  0.00    -0.200 F 
ATOM     99  F   UNL A   1      41.931  27.493  36.671  1.00  0.00    -0.200 F 
ENDBRANCH  66  89
ENDBRANCH  40  41
ENDBRANCH  32  35
ENDBRANCH  30  31
ENDBRANCH  29  30
ENDBRANCH  28  29
ENDBRANCH   3  28
TORSDOF 16
ENDMDL
MODEL 2
REMARK VINA RESULT:     -12.3      3.219      8.986
REMARK SMILES CC(=O)c1cn(CC(=O)NCC(=O)NCC(=O)NCCCNC(=O)c2ccc(-c3c4nc(c(-c5c(F)c(F)c(F)c(F)c5F)c5ccc([nH]5)c(-c5c(F)c(F)c(F)c(F)c5F)c5nc(c(-c6c(F)c(F)c(F)c(F)c6F)c6ccc3[nH]6)C=C5)C=C4)cc2)c2ccccc12
REMARK SMILES IDX 16 1 17 2 18 3 15 5 14 6 12 7 13 8 11 10 10 11 8 12 9 13
REMARK SMILES IDX 7 15 6 16 4 17 5 18 93 19 88 20 92 21 89 22 91 23 90 24 2 25
REMARK SMILES IDX 1 26 3 27 19 28 20 29 21 30 22 31 23 32 24 34 25 35 26 36
REMARK SMILES IDX 87 37 27 38 86 39 28 40 29 41 30 42 80 43 31 44 85 45 79 46
REMARK SMILES IDX 81 47 32 48 84 49 78 50 77 51 33 53 65 54 45 55 64 56 46 57
REMARK SMILES IDX 49 58 63 59 82 60 47 61 48 62 62 64 83 65 50 66 34 67 35 68
REMARK SMILES IDX 43 69 36 70 37 71 41 72 44 73 38 74 39 75 42 76 40 77 66 78
REMARK SMILES IDX 67 79 75 80 68 81 69 82 73 83 76 84 70 85 71 86 74 87 72 88
REMARK SMILES IDX 51 89 52 90 60 91 53 92 54 93 58 94 61 95 55 96 56 97 59 98
REMARK SMILES IDX 57 99
REMARK H PARENT 18 4 14 9 10 14 22 33 81 52 49 63
REMARK Flexibility Score: inf
ROOT
ATOM      1  C   UNL A   1      31.822  28.198  27.189  1.00  0.00     0.239 C 
ATOM      2  O   UNL A   1      31.005  27.767  27.992  1.00  0.00    -0.273 OA
ATOM      3  N   UNL A   1      32.650  29.211  27.583  1.00  0.00    -0.355 N 
ATOM      4  H   UNL A   1      32.697  29.381  28.551  1.00  0.00     0.163 HD
ENDROOT
BRANCH   1   5
ATOM      5  C   UNL A   1      32.031  27.558  25.810  1.00  0.00     0.216 C 
BRANCH   5   6
ATOM      6  N   UNL A   1      31.085  27.876  24.759  1.00  0.00    -0.346 N 
ATOM      7  C   UNL A   1      31.279  27.894  23.407  1.00  0.00     0.239 C 
ATOM      8  O   UNL A   1      30.270  27.965  22.700  1.00  0.00    -0.273 OA
ATOM      9  H   UNL A   1      30.178  28.112  25.061  1.00  0.00     0.164 HD
BRANCH   7  10
ATOM     10  C   UNL A   1      32.678  27.725  22.760  1.00  0.00     0.216 C 
BRANCH  10  11
ATOM     11  N   UNL A   1      32.799  26.616  21.820  1.00  0.00    -0.345 N 
ATOM     12  C   UNL A   1      32.818  25.264  21.990  1.00  0.00     0.240 C 
ATOM     13  O   UNL A   1      33.148  24.587  21.010  1.00  0.00    -0.273 OA
ATOM     14  H   UNL A   1      32.882  26.899  20.881  1.00  0.00     0.164 HD
BRANCH  12  15
ATOM     15  C   UNL A   1      32.356  24.591  23.270  1.00  0.00     0.222 C 
BRANCH  15  16
ATOM     16  N   UNL A   1      32.951  23.289  23.536  1.00  0.00    -0.337 N 
ATOM     17  C   UNL A   1      33.014  21.095  23.942  1.00  0.00     0.043 A 
ATOM     18  C   UNL A   1      32.289  22.108  23.343  1.00  0.00     0.099 A 
ATOM     19  C   UNL A   1      34.270  21.669  24.329  1.00  0.00     0.010 A 
ATOM     20  C   UNL A   1      34.214  23.042  24.032  1.00  0.00     0.049 A 
ATOM     21  C   UNL A   1      35.446  21.171  24.934  1.00  0.00     0.011 A 
ATOM     22  C   UNL A   1      35.276  23.917  24.321  1.00  0.00     0.027 A 
ATOM     23  C   UNL A   1      36.499  22.038  25.242  1.00  0.00     0.001 A 
ATOM     24  C   UNL A   1      36.413  23.391  24.939  1.00  0.00     0.002 A 
BRANCH  17  25
ATOM     25  C   UNL A   1      32.468  19.748  24.114  1.00  0.00     0.161 C 
ATOM     26  C   UNL A   1      32.339  18.855  22.908  1.00  0.00     0.093 C 
ATOM     27  O   UNL A   1      32.242  19.299  25.239  1.00  0.00    -0.294 OA
ENDBRANCH  17  25
ENDBRANCH  15  16
ENDBRANCH  12  15
ENDBRANCH  10  11
ENDBRANCH   7  10
ENDBRANCH   5   6
ENDBRANCH   1   5
BRANCH   3  28
ATOM     28  C   UNL A   1      33.462  30.062  26.749  1.00  0.00     0.117 C 
BRANCH  28  29
ATOM     29  C   UNL A   1      33.574  31.457  27.347  1.00  0.00     0.042 C 
BRANCH  29  30
ATOM     30  C   UNL A   1      34.878  31.650  28.117  1.00  0.00     0.118 C 
BRANCH  30  31
ATOM     31  N   UNL A   1      34.665  31.980  29.511  1.00  0.00    -0.352 N 
ATOM     32  C   UNL A   1      35.399  31.838  30.652  1.00  0.00     0.251 C 
ATOM     33  H   UNL A   1      33.791  32.401  29.672  1.00  0.00     0.163 HD
ATOM     34  O   UNL A   1      34.894  32.290  31.681  1.00  0.00    -0.269 OA
BRANCH  32  35
ATOM     35  C   UNL A   1      36.710  31.140  30.745  1.00  0.00     0.039 A 
ATOM     36  C   UNL A   1      37.964  31.748  30.737  1.00  0.00     0.014 A 
ATOM     37  C   UNL A   1      36.645  29.734  30.769  1.00  0.00     0.014 A 
ATOM     38  C   UNL A   1      39.118  30.983  30.629  1.00  0.00     0.010 A 
ATOM     39  C   UNL A   1      37.794  28.961  30.696  1.00  0.00     0.010 A 
ATOM     40  C   UNL A   1      39.025  29.591  30.566  1.00  0.00    -0.014 A 
BRANCH  40  41
ATOM     41  C   UNL A   1      40.264  28.835  30.450  1.00  0.00     0.031 A 
ATOM     42  C   UNL A   1      41.018  28.658  31.723  1.00  0.00     0.074 A 
ATOM     43  C   UNL A   1      40.663  28.256  29.300  1.00  0.00     0.049 A 
ATOM     44  N   UNL A   1      42.224  29.038  32.002  1.00  0.00    -0.248 NA
ATOM     45  C   UNL A   1      40.298  28.069  32.862  1.00  0.00     0.031 C 
ATOM     46  C   UNL A   1      39.926  28.118  28.042  1.00  0.00     0.029 A 
ATOM     47  N   UNL A   1      41.820  27.584  29.053  1.00  0.00    -0.354 N 
ATOM     48  C   UNL A   1      42.474  28.603  33.302  1.00  0.00     0.074 A 
ATOM     49  C   UNL A   1      41.221  28.121  33.821  1.00  0.00     0.031 C 
ATOM     50  C   UNL A   1      40.563  27.229  27.248  1.00  0.00     0.029 A 
ATOM     51  C   UNL A   1      41.815  26.848  27.878  1.00  0.00     0.049 A 
ATOM     52  H   UNL A   1      42.597  27.620  29.656  1.00  0.00     0.167 HD
ATOM     53  C   UNL A   1      43.741  28.499  33.793  1.00  0.00     0.037 A 
ATOM     54  C   UNL A   1      42.750  25.945  27.493  1.00  0.00     0.037 A 
ATOM     55  C   UNL A   1      44.660  29.326  33.059  1.00  0.00     0.049 A 
ATOM     56  C   UNL A   1      43.994  26.254  28.242  1.00  0.00     0.074 A 
ATOM     57  C   UNL A   1      44.777  30.685  32.845  1.00  0.00     0.029 A 
ATOM     58  N   UNL A   1      45.470  28.739  32.120  1.00  0.00    -0.354 N 
ATOM     59  N   UNL A   1      44.700  27.337  28.063  1.00  0.00    -0.248 NA
ATOM     60  C   UNL A   1      44.209  25.565  29.506  1.00  0.00     0.031 C 
ATOM     61  C   UNL A   1      45.226  30.809  31.497  1.00  0.00     0.029 A 
ATOM     62  C   UNL A   1      45.399  29.518  30.994  1.00  0.00     0.049 A 
ATOM     63  H   UNL A   1      45.999  27.916  32.232  1.00  0.00     0.167 HD
ATOM     64  C   UNL A   1      45.128  27.691  29.334  1.00  0.00     0.074 A 
ATOM     65  C   UNL A   1      44.862  26.523  30.169  1.00  0.00     0.031 C 
ATOM     66  C   UNL A   1      45.398  28.991  29.652  1.00  0.00     0.037 A 
BRANCH  53  67
ATOM     67  C   UNL A   1      44.199  27.406  34.728  1.00  0.00     0.064 A 
ATOM     68  C   UNL A   1      44.092  26.059  34.327  1.00  0.00     0.173 A 
ATOM     69  C   UNL A   1      44.455  27.610  36.101  1.00  0.00     0.173 A 
ATOM     70  F   UNL A   1      43.830  25.742  33.049  1.00  0.00    -0.203 F 
ATOM     71  C   UNL A   1      44.157  25.005  35.245  1.00  0.00     0.198 A 
ATOM     72  C   UNL A   1      44.572  26.555  37.006  1.00  0.00     0.198 A 
ATOM     73  F   UNL A   1      44.491  28.832  36.645  1.00  0.00    -0.203 F 
ATOM     74  F   UNL A   1      43.922  23.751  34.836  1.00  0.00    -0.200 F 
ATOM     75  C   UNL A   1      44.390  25.256  36.585  1.00  0.00     0.200 A 
ATOM     76  F   UNL A   1      44.780  26.821  38.303  1.00  0.00    -0.200 F 
ATOM     77  F   UNL A   1      44.390  24.257  37.476  1.00  0.00    -0.200 F 
ENDBRANCH  53  67
BRANCH  54  78
ATOM     78  C   UNL A   1      42.534  24.651  26.802  1.00  0.00     0.064 A 
ATOM     79  C   UNL A   1      43.150  24.374  25.570  1.00  0.00     0.173 A 
ATOM     80  C   UNL A   1      41.951  23.553  27.468  1.00  0.00     0.173 A 
ATOM     81  F   UNL A   1      43.770  25.350  24.892  1.00  0.00    -0.203 F 
ATOM     82  C   UNL A   1      43.203  23.076  25.050  1.00  0.00     0.198 A 
ATOM     83  C   UNL A   1      41.999  22.260  26.945  1.00  0.00     0.198 A 
ATOM     84  F   UNL A   1      41.410  23.694  28.686  1.00  0.00    -0.203 F 
ATOM     85  F   UNL A   1      43.856  22.840  23.905  1.00  0.00    -0.200 F 
ATOM     86  C   UNL A   1      42.636  22.018  25.744  1.00  0.00     0.200 A 
ATOM     87  F   UNL A   1      41.478  21.242  27.644  1.00  0.00    -0.200 F 
ATOM     88  F   UNL A   1      42.742  20.766  25.279  1.00  0.00    -0.200 F 
ENDBRANCH  54  78
BRANCH  66  89
ATOM     89  C   UNL A   1      45.427  30.000  28.538  1.00  0.00     0.064 A 
ATOM     90  C   UNL A   1      44.299  30.731  28.127  1.00  0.00     0.173 A 
ATOM     91  C   UNL A   1      46.667  30.376  28.008  1.00  0.00     0.173 A 
ATOM     92  F   UNL A   1      43.094  30.496  28.659  1.00  0.00    -0.203 F 
ATOM     93  C   UNL A   1      44.407  31.775  27.210  1.00  0.00     0.198 A 
ATOM     94  C   UNL A   1      46.777  31.442  27.118  1.00  0.00     0.198 A 
ATOM     95  F   UNL A   1      47.786  29.752  28.407  1.00  0.00    -0.203 F 
ATOM     96  F   UNL A   1      43.315  32.462  26.841  1.00  0.00    -0.200 F 
ATOM     97  C   UNL A   1      45.648  32.137  26.715  1.00  0.00     0.200 A 
ATOM     98  F   UNL A   1      47.987  31.822  26.681  1.00  0.00    -0.200 F 
ATOM     99  F   UNL A   1      45.761  33.177  25.878  1.00  0.00    -0.200 F 
ENDBRANCH  66  89
ENDBRANCH  40  41
ENDBRANCH  32  35
ENDBRANCH  30  31
ENDBRANCH  29  30
ENDBRANCH  28  29
ENDBRANCH   3  28
TORSDOF 16
ENDMDL
MODEL 3
REMARK VINA RESULT:     -12.3      2.720      3.610
REMARK SMILES CC(=O)c1cn(CC(=O)NCC(=O)NCC(=O)NCCCNC(=O)c2ccc(-c3c4nc(c(-c5c(F)c(F)c(F)c(F)c5F)c5ccc([nH]5)c(-c5c(F)c(F)c(F)c(F)c5F)c5nc(c(-c6c(F)c(F)c(F)c(F)c6F)c6ccc3[nH]6)C=C5)C=C4)cc2)c2ccccc12
REMARK SMILES IDX 16 1 17 2 18 3 15 5 14 6 12 7 13 8 11 10 10 11 8 12 9 13
REMARK SMILES IDX 7 15 6 16 4 17 5 18 93 19 88 20 92 21 89 22 91 23 90 24 2 25
REMARK SMILES IDX 1 26 3 27 19 28 20 29 21 30 22 31 23 32 24 34 25 35 26 36
REMARK SMILES IDX 87 37 27 38 86 39 28 40 29 41 30 42 80 43 31 44 85 45 79 46
REMARK SMILES IDX 81 47 32 48 84 49 78 50 77 51 33 53 65 54 45 55 64 56 46 57
REMARK SMILES IDX 49 58 63 59 82 60 47 61 48 62 62 64 83 65 50 66 34 67 35 68
REMARK SMILES IDX 43 69 36 70 37 71 41 72 44 73 38 74 39 75 42 76 40 77 66 78
REMARK SMILES IDX 67 79 75 80 68 81 69 82 73 83 76 84 70 85 71 86 74 87 72 88
REMARK SMILES IDX 51 89 52 90 60 91 53 92 54 93 58 94 61 95 55 96 56 97 59 98
REMARK SMILES IDX 57 99
REMARK H PARENT 18 4 14 9 10 14 22 33 81 52 49 63
REMARK Flexibility Score: inf
ROOT
ATOM      1  C   UNL A   1      38.810  22.459  26.129  1.00  0.00     0.239 C 
ATOM      2  O   UNL A   1      38.612  23.649  26.338  1.00  0.00    -0.273 OA
ATOM      3  N   UNL A   1      39.956  21.894  26.616  1.00  0.00    -0.355 N 
ATOM      4  H   UNL A   1      40.442  22.416  27.294  1.00  0.00     0.163 HD
ENDROOT
BRANCH   1   5
ATOM      5  C   UNL A   1      37.764  21.561  25.455  1.00  0.00     0.216 C 
BRANCH   5   6
ATOM      6  N   UNL A   1      36.421  21.551  25.999  1.00  0.00    -0.346 N 
ATOM      7  C   UNL A   1      35.374  22.380  25.714  1.00  0.00     0.239 C 
ATOM      8  O   UNL A   1      34.262  22.034  26.123  1.00  0.00    -0.273 OA
ATOM      9  H   UNL A   1      36.238  20.850  26.666  1.00  0.00     0.164 HD
BRANCH   7  10
ATOM     10  C   UNL A   1      35.523  23.644  24.828  1.00  0.00     0.216 C 
BRANCH  10  11
ATOM     11  N   UNL A   1      34.956  23.535  23.489  1.00  0.00    -0.345 N 
ATOM     12  C   UNL A   1      34.053  24.295  22.807  1.00  0.00     0.240 C 
ATOM     13  O   UNL A   1      33.611  23.820  21.755  1.00  0.00    -0.273 OA
ATOM     14  H   UNL A   1      35.291  22.763  22.977  1.00  0.00     0.164 HD
BRANCH  12  15
ATOM     15  C   UNL A   1      33.675  25.701  23.236  1.00  0.00     0.222 C 
BRANCH  15  16
ATOM     16  N   UNL A   1      32.925  25.789  24.481  1.00  0.00    -0.337 N 
ATOM     17  C   UNL A   1      31.322  25.313  25.961  1.00  0.00     0.043 A 
ATOM     18  C   UNL A   1      32.072  24.811  24.914  1.00  0.00     0.099 A 
ATOM     19  C   UNL A   1      31.901  26.581  26.302  1.00  0.00     0.010 A 
ATOM     20  C   UNL A   1      32.926  26.838  25.376  1.00  0.00     0.049 A 
ATOM     21  C   UNL A   1      31.640  27.559  27.288  1.00  0.00     0.011 A 
ATOM     22  C   UNL A   1      33.680  28.025  25.401  1.00  0.00     0.027 A 
ATOM     23  C   UNL A   1      32.373  28.750  27.308  1.00  0.00     0.001 A 
ATOM     24  C   UNL A   1      33.378  28.977  26.377  1.00  0.00     0.002 A 
BRANCH  17  25
ATOM     25  C   UNL A   1      30.164  24.599  26.498  1.00  0.00     0.161 C 
ATOM     26  C   UNL A   1      30.277  23.120  26.761  1.00  0.00     0.093 C 
ATOM     27  O   UNL A   1      29.157  25.212  26.857  1.00  0.00    -0.294 OA
ENDBRANCH  17  25
ENDBRANCH  15  16
ENDBRANCH  12  15
ENDBRANCH  10  11
ENDBRANCH   7  10
ENDBRANCH   5   6
ENDBRANCH   1   5
BRANCH   3  28
ATOM     28  C   UNL A   1      40.538  20.626  26.253  1.00  0.00     0.117 C 
BRANCH  28  29
ATOM     29  C   UNL A   1      41.961  20.514  26.779  1.00  0.00     0.042 C 
BRANCH  29  30
ATOM     30  C   UNL A   1      42.672  19.269  26.255  1.00  0.00     0.118 C 
BRANCH  30  31
ATOM     31  N   UNL A   1      43.531  19.546  25.123  1.00  0.00    -0.352 N 
ATOM     32  C   UNL A   1      44.231  20.636  24.695  1.00  0.00     0.251 C 
ATOM     33  H   UNL A   1      43.633  18.771  24.524  1.00  0.00     0.163 HD
ATOM     34  O   UNL A   1      44.907  20.480  23.676  1.00  0.00    -0.269 OA
BRANCH  32  35
ATOM     35  C   UNL A   1      44.186  21.983  25.325  1.00  0.00     0.039 A 
ATOM     36  C   UNL A   1      44.894  22.380  26.459  1.00  0.00     0.014 A 
ATOM     37  C   UNL A   1      43.284  22.893  24.743  1.00  0.00     0.014 A 
ATOM     38  C   UNL A   1      44.620  23.597  27.070  1.00  0.00     0.010 A 
ATOM     39  C   UNL A   1      43.029  24.125  25.328  1.00  0.00     0.010 A 
ATOM     40  C   UNL A   1      43.657  24.448  26.524  1.00  0.00    -0.014 A 
BRANCH  40  41
ATOM     41  C   UNL A   1      43.405  25.710  27.204  1.00  0.00     0.031 A 
ATOM     42  C   UNL A   1      44.387  26.792  26.912  1.00  0.00     0.074 A 
ATOM     43  C   UNL A   1      42.319  25.924  27.972  1.00  0.00     0.049 A 
ATOM     44  N   UNL A   1      45.152  27.428  27.739  1.00  0.00    -0.248 NA
ATOM     45  C   UNL A   1      44.613  27.139  25.500  1.00  0.00     0.031 C 
ATOM     46  C   UNL A   1      41.146  25.067  28.156  1.00  0.00     0.029 A 
ATOM     47  N   UNL A   1      42.009  27.029  28.704  1.00  0.00    -0.354 N 
ATOM     48  C   UNL A   1      45.850  28.364  26.978  1.00  0.00     0.074 A 
ATOM     49  C   UNL A   1      45.569  28.062  25.599  1.00  0.00     0.031 C 
ATOM     50  C   UNL A   1      40.169  25.774  28.768  1.00  0.00     0.029 A 
ATOM     51  C   UNL A   1      40.694  27.074  29.143  1.00  0.00     0.049 A 
ATOM     52  H   UNL A   1      42.663  27.735  28.907  1.00  0.00     0.167 HD
ATOM     53  C   UNL A   1      46.463  29.440  27.547  1.00  0.00     0.037 A 
ATOM     54  C   UNL A   1      40.076  28.136  29.716  1.00  0.00     0.037 A 
ATOM     55  C   UNL A   1      46.732  29.216  28.942  1.00  0.00     0.049 A 
ATOM     56  C   UNL A   1      41.137  29.019  30.263  1.00  0.00     0.074 A 
ATOM     57  C   UNL A   1      47.505  28.312  29.645  1.00  0.00     0.029 A 
ATOM     58  N   UNL A   1      45.897  29.780  29.874  1.00  0.00    -0.354 N 
ATOM     59  N   UNL A   1      41.909  28.695  31.263  1.00  0.00    -0.248 NA
ATOM     60  C   UNL A   1      41.633  30.087  29.406  1.00  0.00     0.031 C 
ATOM     61  C   UNL A   1      46.754  28.019  30.820  1.00  0.00     0.029 A 
ATOM     62  C   UNL A   1      45.597  28.798  30.782  1.00  0.00     0.049 A 
ATOM     63  H   UNL A   1      45.576  30.711  29.887  1.00  0.00     0.167 HD
ATOM     64  C   UNL A   1      43.152  29.212  30.930  1.00  0.00     0.074 A 
ATOM     65  C   UNL A   1      42.903  30.125  29.817  1.00  0.00     0.031 C 
ATOM     66  C   UNL A   1      44.302  28.646  31.399  1.00  0.00     0.037 A 
BRANCH  53  67
ATOM     67  C   UNL A   1      46.526  30.810  26.917  1.00  0.00     0.064 A 
ATOM     68  C   UNL A   1      47.750  31.509  26.896  1.00  0.00     0.173 A 
ATOM     69  C   UNL A   1      45.383  31.579  26.608  1.00  0.00     0.173 A 
ATOM     70  F   UNL A   1      48.901  30.887  27.194  1.00  0.00    -0.203 F 
ATOM     71  C   UNL A   1      47.811  32.887  26.661  1.00  0.00     0.198 A 
ATOM     72  C   UNL A   1      45.454  32.942  26.322  1.00  0.00     0.198 A 
ATOM     73  F   UNL A   1      44.145  31.076  26.677  1.00  0.00    -0.203 F 
ATOM     74  F   UNL A   1      48.981  33.530  26.777  1.00  0.00    -0.200 F 
ATOM     75  C   UNL A   1      46.662  33.602  26.381  1.00  0.00     0.200 A 
ATOM     76  F   UNL A   1      44.326  33.621  26.070  1.00  0.00    -0.200 F 
ATOM     77  F   UNL A   1      46.708  34.931  26.218  1.00  0.00    -0.200 F 
ENDBRANCH  53  67
BRANCH  54  78
ATOM     78  C   UNL A   1      38.681  28.595  29.511  1.00  0.00     0.064 A 
ATOM     79  C   UNL A   1      37.854  28.911  30.603  1.00  0.00     0.173 A 
ATOM     80  C   UNL A   1      38.222  29.005  28.243  1.00  0.00     0.173 A 
ATOM     81  F   UNL A   1      38.235  28.601  31.850  1.00  0.00    -0.203 F 
ATOM     82  C   UNL A   1      36.657  29.617  30.437  1.00  0.00     0.198 A 
ATOM     83  C   UNL A   1      37.025  29.702  28.079  1.00  0.00     0.198 A 
ATOM     84  F   UNL A   1      38.973  28.825  27.147  1.00  0.00    -0.203 F 
ATOM     85  F   UNL A   1      35.928  29.958  31.508  1.00  0.00    -0.200 F 
ATOM     86  C   UNL A   1      36.249  30.021  29.176  1.00  0.00     0.200 A 
ATOM     87  F   UNL A   1      36.662  30.118  26.857  1.00  0.00    -0.200 F 
ATOM     88  F   UNL A   1      35.136  30.752  29.023  1.00  0.00    -0.200 F 
ENDBRANCH  54  78
BRANCH  66  89
ATOM     89  C   UNL A   1      44.186  27.581  32.454  1.00  0.00     0.064 A 
ATOM     90  C   UNL A   1      44.123  26.208  32.163  1.00  0.00     0.173 A 
ATOM     91  C   UNL A   1      44.342  27.949  33.796  1.00  0.00     0.173 A 
ATOM     92  F   UNL A   1      44.072  25.773  30.899  1.00  0.00    -0.203 F 
ATOM     93  C   UNL A   1      44.189  25.249  33.173  1.00  0.00     0.198 A 
ATOM     94  C   UNL A   1      44.441  26.988  34.800  1.00  0.00     0.198 A 
ATOM     95  F   UNL A   1      44.465  29.243  34.128  1.00  0.00    -0.203 F 
ATOM     96  F   UNL A   1      44.135  23.944  32.866  1.00  0.00    -0.200 F 
ATOM     97  C   UNL A   1      44.360  25.640  34.489  1.00  0.00     0.200 A 
ATOM     98  F   UNL A   1      44.658  27.370  36.067  1.00  0.00    -0.200 F 
ATOM     99  F   UNL A   1      44.481  24.718  35.455  1.00  0.00    -0.200 F 
ENDBRANCH  66  89
ENDBRANCH  40  41
ENDBRANCH  32  35
ENDBRANCH  30  31
ENDBRANCH  29  30
ENDBRANCH  28  29
ENDBRANCH   3  28
TORSDOF 16
ENDMDL
