MODEL 1
REMARK VINA RESULT:     -12.2      0.000      0.000
REMARK SMILES C[C@H]1[C@@H](C(=O)NCCCNC(=O)c2ccc(-c3c4nc(c(-c5c(F)c(F)c(F)c(F)c5F)c5ccc([nH]5)c(-c5c(F)c(F)c(F)c(F)c5F)c5nc(c(-c6c(F)c(F)c(F)c(F)c6F)c6ccc3[nH]6)C=C5)C=C4)cc2)CC[N@@H+]1CC(=O)NNC(=O)c1cccs1
REMARK SMILES IDX 7 1 6 2 4 3 5 4 3 6 1 7 2 8 78 9 76 10 77 11 79 13 80 14
REMARK SMILES IDX 81 15 82 16 83 18 84 19 85 21 86 22 87 23 90 24 88 25 89 26
REMARK SMILES IDX 8 27 9 28 10 29 11 30 12 32 13 33 14 34 75 35 15 36 74 37
REMARK SMILES IDX 16 38 17 39 18 40 68 41 19 42 73 43 67 44 69 45 20 46 72 47
REMARK SMILES IDX 66 48 65 49 21 51 53 52 33 53 52 54 34 55 37 56 51 57 70 58
REMARK SMILES IDX 35 59 36 60 50 62 71 63 38 64 22 65 23 66 31 67 24 68 25 69
REMARK SMILES IDX 29 70 32 71 26 72 27 73 30 74 28 75 54 76 55 77 63 78 56 79
REMARK SMILES IDX 57 80 61 81 64 82 58 83 59 84 62 85 60 86 39 87 40 88 48 89
REMARK SMILES IDX 41 90 42 91 46 92 49 93 43 94 44 95 47 96 45 97
REMARK H PARENT 6 5 78 12 82 17 83 20 10 31 69 50 37 61
REMARK Flexibility Score: inf
ROOT
ATOM      1  C   UNL A   1      31.236  30.966  25.934  1.00  0.00     0.117 C 
ENDROOT
BRANCH   1   2
ATOM      2  N   UNL A   1      32.442  30.285  26.370  1.00  0.00    -0.356 N 
ATOM      3  C   UNL A   1      32.985  29.100  25.980  1.00  0.00     0.229 C 
ATOM      4  O   UNL A   1      33.864  28.636  26.710  1.00  0.00    -0.275 OA
ATOM      5  H   UNL A   1      32.952  30.761  27.064  1.00  0.00     0.163 HD
BRANCH   3   6
ATOM      6  C   UNL A   1      32.596  28.458  24.651  1.00  0.00     0.142 C 
ATOM      7  C   UNL A   1      31.169  26.658  25.958  1.00  0.00     0.076 C 
ATOM      8  C   UNL A   1      31.616  27.267  24.637  1.00  0.00     0.194 C 
ATOM      9  N   UNL A   1      32.270  26.180  23.901  1.00  0.00    -0.324 N 
ATOM     10  C   UNL A   1      33.838  27.935  23.904  1.00  0.00     0.081 C 
ATOM     11  C   UNL A   1      33.707  26.427  23.947  1.00  0.00     0.263 C 
ATOM     12  H   UNL A   1      32.073  25.296  24.370  1.00  0.00     0.348 HD
BRANCH   9  13
ATOM     13  C   UNL A   1      31.701  25.835  22.591  1.00  0.00     0.365 C 
BRANCH  13  14
ATOM     14  C   UNL A   1      32.670  25.205  21.591  1.00  0.00     0.293 C 
ATOM     15  O   UNL A   1      33.278  25.892  20.767  1.00  0.00    -0.267 OA
ATOM     16  N   UNL A   1      32.903  23.854  21.600  1.00  0.00    -0.262 N 
ATOM     17  H   UNL A   1      33.612  23.516  21.007  1.00  0.00     0.191 HD
BRANCH  16  18
ATOM     18  N   UNL A   1      32.221  22.916  22.377  1.00  0.00    -0.263 N 
ATOM     19  C   UNL A   1      32.846  22.134  23.338  1.00  0.00     0.279 C 
ATOM     20  H   UNL A   1      31.254  22.806  22.237  1.00  0.00     0.191 HD
ATOM     21  O   UNL A   1      32.350  21.029  23.582  1.00  0.00    -0.266 OA
BRANCH  19  22
ATOM     22  C   UNL A   1      34.018  22.667  24.012  1.00  0.00     0.094 A 
ATOM     23  C   UNL A   1      35.274  22.943  23.501  1.00  0.00     0.026 A 
ATOM     24  S   UNL A   1      33.907  23.126  25.661  1.00  0.00    -0.139 S 
ATOM     25  C   UNL A   1      36.155  23.491  24.478  1.00  0.00     0.012 A 
ATOM     26  C   UNL A   1      35.535  23.646  25.698  1.00  0.00     0.065 A 
ENDBRANCH  19  22
ENDBRANCH  16  18
ENDBRANCH  13  14
ENDBRANCH   9  13
ENDBRANCH   3   6
ENDBRANCH   1   2
BRANCH   1  27
ATOM     27  C   UNL A   1      31.195  32.379  26.518  1.00  0.00     0.042 C 
BRANCH  27  28
ATOM     28  C   UNL A   1      32.533  32.886  27.036  1.00  0.00     0.118 C 
BRANCH  28  29
ATOM     29  N   UNL A   1      32.431  34.205  27.626  1.00  0.00    -0.352 N 
ATOM     30  C   UNL A   1      33.062  34.750  28.719  1.00  0.00     0.251 C 
ATOM     31  H   UNL A   1      31.807  34.812  27.167  1.00  0.00     0.163 HD
ATOM     32  O   UNL A   1      32.655  35.815  29.165  1.00  0.00    -0.269 OA
BRANCH  30  33
ATOM     33  C   UNL A   1      34.208  34.073  29.385  1.00  0.00     0.039 A 
ATOM     34  C   UNL A   1      35.501  34.401  28.960  1.00  0.00     0.014 A 
ATOM     35  C   UNL A   1      34.045  33.072  30.345  1.00  0.00     0.014 A 
ATOM     36  C   UNL A   1      36.612  33.754  29.512  1.00  0.00     0.010 A 
ATOM     37  C   UNL A   1      35.156  32.503  30.971  1.00  0.00     0.010 A 
ATOM     38  C   UNL A   1      36.453  32.812  30.541  1.00  0.00    -0.014 A 
BRANCH  38  39
ATOM     39  C   UNL A   1      37.628  32.114  31.130  1.00  0.00     0.031 A 
ATOM     40  C   UNL A   1      38.104  32.459  32.519  1.00  0.00     0.074 A 
ATOM     41  C   UNL A   1      38.290  31.186  30.411  1.00  0.00     0.049 A 
ATOM     42  N   UNL A   1      39.118  31.976  33.194  1.00  0.00    -0.248 NA
ATOM     43  C   UNL A   1      37.358  33.507  33.235  1.00  0.00     0.031 C 
ATOM     44  C   UNL A   1      37.970  30.797  29.037  1.00  0.00     0.029 A 
ATOM     45  N   UNL A   1      39.370  30.402  30.735  1.00  0.00    -0.354 N 
ATOM     46  C   UNL A   1      39.137  32.668  34.399  1.00  0.00     0.074 A 
ATOM     47  C   UNL A   1      38.075  33.648  34.339  1.00  0.00     0.031 C 
ATOM     48  C   UNL A   1      38.814  29.830  28.647  1.00  0.00     0.029 A 
ATOM     49  C   UNL A   1      39.756  29.552  29.728  1.00  0.00     0.049 A 
ATOM     50  H   UNL A   1      39.825  30.446  31.607  1.00  0.00     0.167 HD
ATOM     51  C   UNL A   1      39.943  32.485  35.472  1.00  0.00     0.037 A 
ATOM     52  C   UNL A   1      40.756  28.651  29.680  1.00  0.00     0.037 A 
ATOM     53  C   UNL A   1      40.982  31.491  35.545  1.00  0.00     0.049 A 
ATOM     54  C   UNL A   1      41.628  28.454  30.889  1.00  0.00     0.074 A 
ATOM     55  C   UNL A   1      41.817  31.190  36.607  1.00  0.00     0.029 A 
ATOM     56  N   UNL A   1      41.327  30.634  34.512  1.00  0.00    -0.354 N 
ATOM     57  N   UNL A   1      41.592  29.070  32.046  1.00  0.00    -0.248 NA
ATOM     58  C   UNL A   1      42.677  27.429  30.789  1.00  0.00     0.031 C 
ATOM     59  C   UNL A   1      42.695  30.178  36.202  1.00  0.00     0.029 A 
ATOM     60  C   UNL A   1      42.374  29.815  34.904  1.00  0.00     0.049 A 
ATOM     61  H   UNL A   1      40.890  30.609  33.629  1.00  0.00     0.167 HD
ATOM     62  C   UNL A   1      42.592  28.495  32.817  1.00  0.00     0.074 A 
ATOM     63  C   UNL A   1      43.204  27.464  32.004  1.00  0.00     0.031 C 
ATOM     64  C   UNL A   1      42.973  28.795  34.083  1.00  0.00     0.037 A 
BRANCH  51  65
ATOM     65  C   UNL A   1      39.726  33.377  36.663  1.00  0.00     0.064 A 
ATOM     66  C   UNL A   1      40.406  34.597  36.802  1.00  0.00     0.173 A 
ATOM     67  C   UNL A   1      38.808  33.024  37.664  1.00  0.00     0.173 A 
ATOM     68  F   UNL A   1      41.304  34.978  35.880  1.00  0.00    -0.203 F 
ATOM     69  C   UNL A   1      40.201  35.412  37.911  1.00  0.00     0.198 A 
ATOM     70  C   UNL A   1      38.581  33.857  38.756  1.00  0.00     0.198 A 
ATOM     71  F   UNL A   1      38.124  31.874  37.579  1.00  0.00    -0.203 F 
ATOM     72  F   UNL A   1      40.904  36.546  38.048  1.00  0.00    -0.200 F 
ATOM     73  C   UNL A   1      39.285  35.045  38.884  1.00  0.00     0.200 A 
ATOM     74  F   UNL A   1      37.684  33.508  39.689  1.00  0.00    -0.200 F 
ATOM     75  F   UNL A   1      39.085  35.833  39.950  1.00  0.00    -0.200 F 
ENDBRANCH  51  65
BRANCH  52  76
ATOM     76  C   UNL A   1      40.964  27.844  28.449  1.00  0.00     0.064 A 
ATOM     77  C   UNL A   1      40.294  26.628  28.260  1.00  0.00     0.173 A 
ATOM     78  C   UNL A   1      41.833  28.274  27.435  1.00  0.00     0.173 A 
ATOM     79  F   UNL A   1      39.469  26.164  29.210  1.00  0.00    -0.203 F 
ATOM     80  C   UNL A   1      40.498  25.862  27.114  1.00  0.00     0.198 A 
ATOM     81  C   UNL A   1      42.015  27.523  26.277  1.00  0.00     0.198 A 
ATOM     82  F   UNL A   1      42.494  29.433  27.564  1.00  0.00    -0.203 F 
ATOM     83  F   UNL A   1      39.879  24.682  26.979  1.00  0.00    -0.200 F 
ATOM     84  C   UNL A   1      41.354  26.314  26.119  1.00  0.00     0.200 A 
ATOM     85  F   UNL A   1      42.830  27.970  25.311  1.00  0.00    -0.200 F 
ATOM     86  F   UNL A   1      41.545  25.581  25.014  1.00  0.00    -0.200 F 
ENDBRANCH  52  76
BRANCH  64  87
ATOM     87  C   UNL A   1      44.090  27.982  34.673  1.00  0.00     0.064 A 
ATOM     88  C   UNL A   1      43.845  26.778  35.350  1.00  0.00     0.173 A 
ATOM     89  C   UNL A   1      45.423  28.401  34.539  1.00  0.00     0.173 A 
ATOM     90  F   UNL A   1      42.588  26.341  35.518  1.00  0.00    -0.203 F 
ATOM     91  C   UNL A   1      44.891  26.040  35.898  1.00  0.00     0.198 A 
ATOM     92  C   UNL A   1      46.467  27.645  35.060  1.00  0.00     0.198 A 
ATOM     93  F   UNL A   1      45.711  29.541  33.894  1.00  0.00    -0.203 F 
ATOM     94  F   UNL A   1      44.629  24.921  36.588  1.00  0.00    -0.200 F 
ATOM     95  C   UNL A   1      46.201  26.470  35.748  1.00  0.00     0.200 A 
ATOM     96  F   UNL A   1      47.733  28.055  34.903  1.00  0.00    -0.200 F 
ATOM     97  F   UNL A   1      47.206  25.757  36.274  1.00  0.00    -0.200 F 
ENDBRANCH  64  87
ENDBRANCH  38  39
ENDBRANCH  30  33
ENDBRANCH  28  29
ENDBRANCH  27  28
ENDBRANCH   1  27
TORSDOF 14
ENDMDL
MODEL 2
REMARK VINA RESULT:     -12.2      5.427      9.735
REMARK SMILES C[C@H]1[C@@H](C(=O)NCCCNC(=O)c2ccc(-c3c4nc(c(-c5c(F)c(F)c(F)c(F)c5F)c5ccc([nH]5)c(-c5c(F)c(F)c(F)c(F)c5F)c5nc(c(-c6c(F)c(F)c(F)c(F)c6F)c6ccc3[nH]6)C=C5)C=C4)cc2)CC[N@@H+]1CC(=O)NNC(=O)c1cccs1
REMARK SMILES IDX 7 1 6 2 4 3 5 4 3 6 1 7 2 8 78 9 76 10 77 11 79 13 80 14
REMARK SMILES IDX 81 15 82 16 83 18 84 19 85 21 86 22 87 23 90 24 88 25 89 26
REMARK SMILES IDX 8 27 9 28 10 29 11 30 12 32 13 33 14 34 75 35 15 36 74 37
REMARK SMILES IDX 16 38 17 39 18 40 68 41 19 42 73 43 67 44 69 45 20 46 72 47
REMARK SMILES IDX 66 48 65 49 21 51 53 52 33 53 52 54 34 55 37 56 51 57 70 58
REMARK SMILES IDX 35 59 36 60 50 62 71 63 38 64 22 65 23 66 31 67 24 68 25 69
REMARK SMILES IDX 29 70 32 71 26 72 27 73 30 74 28 75 54 76 55 77 63 78 56 79
REMARK SMILES IDX 57 80 61 81 64 82 58 83 59 84 62 85 60 86 39 87 40 88 48 89
REMARK SMILES IDX 41 90 42 91 46 92 49 93 43 94 44 95 47 96 45 97
REMARK H PARENT 6 5 78 12 82 17 83 20 10 31 69 50 37 61
REMARK Flexibility Score: inf
ROOT
ATOM      1  C   UNL A   1      36.854  20.012  24.937  1.00  0.00     0.117 C 
ENDROOT
BRANCH   1   2
ATOM      2  N   UNL A   1      37.130  21.383  25.330  1.00  0.00    -0.356 N 
ATOM      3  C   UNL A   1      36.293  22.437  25.531  1.00  0.00     0.229 C 
ATOM      4  O   UNL A   1      36.821  23.549  25.591  1.00  0.00    -0.275 OA
ATOM      5  H   UNL A   1      38.082  21.583  25.474  1.00  0.00     0.163 HD
BRANCH   3   6
ATOM      6  C   UNL A   1      34.803  22.219  25.783  1.00  0.00     0.142 C 
ATOM      7  C   UNL A   1      34.281  23.087  23.341  1.00  0.00     0.076 C 
ATOM      8  C   UNL A   1      33.792  22.477  24.647  1.00  0.00     0.194 C 
ATOM      9  N   UNL A   1      32.789  23.412  25.169  1.00  0.00    -0.324 N 
ATOM     10  C   UNL A   1      34.303  23.099  26.943  1.00  0.00     0.081 C 
ATOM     11  C   UNL A   1      33.396  24.121  26.289  1.00  0.00     0.263 C 
ATOM     12  H   UNL A   1      32.553  24.086  24.441  1.00  0.00     0.348 HD
BRANCH   9  13
ATOM     13  C   UNL A   1      31.437  22.877  25.382  1.00  0.00     0.365 C 
BRANCH  13  14
ATOM     14  C   UNL A   1      30.612  23.569  26.466  1.00  0.00     0.293 C 
ATOM     15  O   UNL A   1      30.589  23.144  27.624  1.00  0.00    -0.267 OA
ATOM     16  N   UNL A   1      29.888  24.698  26.180  1.00  0.00    -0.262 N 
ATOM     17  H   UNL A   1      29.461  25.161  26.936  1.00  0.00     0.191 HD
BRANCH  16  18
ATOM     18  N   UNL A   1      29.705  25.245  24.910  1.00  0.00    -0.263 N 
ATOM     19  C   UNL A   1      30.126  26.524  24.571  1.00  0.00     0.279 C 
ATOM     20  H   UNL A   1      29.258  24.700  24.224  1.00  0.00     0.191 HD
ATOM     21  O   UNL A   1      29.498  27.113  23.684  1.00  0.00    -0.266 OA
BRANCH  19  22
ATOM     22  C   UNL A   1      31.284  27.077  25.252  1.00  0.00     0.094 A 
ATOM     23  C   UNL A   1      31.429  27.441  26.580  1.00  0.00     0.026 A 
ATOM     24  S   UNL A   1      32.755  27.271  24.393  1.00  0.00    -0.139 S 
ATOM     25  C   UNL A   1      32.738  27.919  26.876  1.00  0.00     0.012 A 
ATOM     26  C   UNL A   1      33.562  27.876  25.774  1.00  0.00     0.065 A 
ENDBRANCH  19  22
ENDBRANCH  16  18
ENDBRANCH  13  14
ENDBRANCH   9  13
ENDBRANCH   3   6
ENDBRANCH   1   2
BRANCH   1  27
ATOM     27  C   UNL A   1      38.138  19.183  25.001  1.00  0.00     0.042 C 
BRANCH  27  28
ATOM     28  C   UNL A   1      39.277  19.843  25.765  1.00  0.00     0.118 C 
BRANCH  28  29
ATOM     29  N   UNL A   1      40.394  18.944  25.970  1.00  0.00    -0.352 N 
ATOM     30  C   UNL A   1      41.736  19.202  26.121  1.00  0.00     0.251 C 
ATOM     31  H   UNL A   1      40.152  17.991  26.009  1.00  0.00     0.163 HD
ATOM     32  O   UNL A   1      42.526  18.269  26.062  1.00  0.00    -0.269 OA
BRANCH  30  33
ATOM     33  C   UNL A   1      42.253  20.581  26.333  1.00  0.00     0.039 A 
ATOM     34  C   UNL A   1      42.297  21.072  27.643  1.00  0.00     0.014 A 
ATOM     35  C   UNL A   1      42.612  21.427  25.282  1.00  0.00     0.014 A 
ATOM     36  C   UNL A   1      42.721  22.382  27.894  1.00  0.00     0.010 A 
ATOM     37  C   UNL A   1      43.136  22.696  25.539  1.00  0.00     0.010 A 
ATOM     38  C   UNL A   1      43.167  23.202  26.845  1.00  0.00    -0.014 A 
BRANCH  38  39
ATOM     39  C   UNL A   1      43.614  24.598  27.102  1.00  0.00     0.031 A 
ATOM     40  C   UNL A   1      42.638  25.630  27.610  1.00  0.00     0.074 A 
ATOM     41  C   UNL A   1      44.890  24.953  26.856  1.00  0.00     0.049 A 
ATOM     42  N   UNL A   1      42.833  26.899  27.874  1.00  0.00    -0.248 NA
ATOM     43  C   UNL A   1      41.252  25.185  27.823  1.00  0.00     0.031 C 
ATOM     44  C   UNL A   1      45.922  24.069  26.312  1.00  0.00     0.029 A 
ATOM     45  N   UNL A   1      45.538  26.152  27.029  1.00  0.00    -0.354 N 
ATOM     46  C   UNL A   1      41.598  27.400  28.267  1.00  0.00     0.074 A 
ATOM     47  C   UNL A   1      40.647  26.317  28.148  1.00  0.00     0.031 C 
ATOM     48  C   UNL A   1      47.078  24.745  26.223  1.00  0.00     0.029 A 
ATOM     49  C   UNL A   1      46.864  26.118  26.672  1.00  0.00     0.049 A 
ATOM     50  H   UNL A   1      45.093  26.959  27.376  1.00  0.00     0.167 HD
ATOM     51  C   UNL A   1      41.287  28.639  28.719  1.00  0.00     0.037 A 
ATOM     52  C   UNL A   1      47.801  27.085  26.702  1.00  0.00     0.037 A 
ATOM     53  C   UNL A   1      42.238  29.710  28.866  1.00  0.00     0.049 A 
ATOM     54  C   UNL A   1      47.437  28.448  27.221  1.00  0.00     0.074 A 
ATOM     55  C   UNL A   1      42.034  30.985  29.365  1.00  0.00     0.029 A 
ATOM     56  N   UNL A   1      43.577  29.629  28.514  1.00  0.00    -0.354 N 
ATOM     57  N   UNL A   1      46.280  28.888  27.654  1.00  0.00    -0.248 NA
ATOM     58  C   UNL A   1      48.513  29.449  27.267  1.00  0.00     0.031 C 
ATOM     59  C   UNL A   1      43.240  31.689  29.277  1.00  0.00     0.029 A 
ATOM     60  C   UNL A   1      44.208  30.837  28.769  1.00  0.00     0.049 A 
ATOM     61  H   UNL A   1      44.016  28.831  28.140  1.00  0.00     0.167 HD
ATOM     62  C   UNL A   1      46.492  30.204  28.041  1.00  0.00     0.074 A 
ATOM     63  C   UNL A   1      47.895  30.485  27.815  1.00  0.00     0.031 C 
ATOM     64  C   UNL A   1      45.604  31.101  28.537  1.00  0.00     0.037 A 
BRANCH  51  65
ATOM     65  C   UNL A   1      39.856  28.901  29.095  1.00  0.00     0.064 A 
ATOM     66  C   UNL A   1      38.913  29.333  28.150  1.00  0.00     0.173 A 
ATOM     67  C   UNL A   1      39.412  28.691  30.410  1.00  0.00     0.173 A 
ATOM     68  F   UNL A   1      39.286  29.561  26.881  1.00  0.00    -0.203 F 
ATOM     69  C   UNL A   1      37.592  29.578  28.512  1.00  0.00     0.198 A 
ATOM     70  C   UNL A   1      38.082  28.905  30.762  1.00  0.00     0.198 A 
ATOM     71  F   UNL A   1      40.267  28.270  31.354  1.00  0.00    -0.203 F 
ATOM     72  F   UNL A   1      36.724  30.044  27.602  1.00  0.00    -0.200 F 
ATOM     73  C   UNL A   1      37.175  29.359  29.815  1.00  0.00     0.200 A 
ATOM     74  F   UNL A   1      37.677  28.678  32.020  1.00  0.00    -0.200 F 
ATOM     75  F   UNL A   1      35.901  29.590  30.162  1.00  0.00    -0.200 F 
ENDBRANCH  51  65
BRANCH  52  76
ATOM     76  C   UNL A   1      49.186  26.784  26.252  1.00  0.00     0.064 A 
ATOM     77  C   UNL A   1      50.146  26.294  27.148  1.00  0.00     0.173 A 
ATOM     78  C   UNL A   1      49.577  26.977  24.918  1.00  0.00     0.173 A 
ATOM     79  F   UNL A   1      49.827  26.112  28.438  1.00  0.00    -0.203 F 
ATOM     80  C   UNL A   1      51.449  26.025  26.732  1.00  0.00     0.198 A 
ATOM     81  C   UNL A   1      50.870  26.681  24.498  1.00  0.00     0.198 A 
ATOM     82  F   UNL A   1      48.694  27.439  24.021  1.00  0.00    -0.203 F 
ATOM     83  F   UNL A   1      52.359  25.599  27.618  1.00  0.00    -0.200 F 
ATOM     84  C   UNL A   1      51.808  26.212  25.405  1.00  0.00     0.200 A 
ATOM     85  F   UNL A   1      51.209  26.848  23.212  1.00  0.00    -0.200 F 
ATOM     86  F   UNL A   1      53.059  25.947  25.004  1.00  0.00    -0.200 F 
ENDBRANCH  52  76
BRANCH  64  87
ATOM     87  C   UNL A   1      46.130  32.463  28.888  1.00  0.00     0.064 A 
ATOM     88  C   UNL A   1      46.131  33.514  27.959  1.00  0.00     0.173 A 
ATOM     89  C   UNL A   1      46.617  32.727  30.178  1.00  0.00     0.173 A 
ATOM     90  F   UNL A   1      45.689  33.310  26.709  1.00  0.00    -0.203 F 
ATOM     91  C   UNL A   1      46.629  34.769  28.298  1.00  0.00     0.198 A 
ATOM     92  C   UNL A   1      47.086  33.991  30.522  1.00  0.00     0.198 A 
ATOM     93  F   UNL A   1      46.632  31.759  31.106  1.00  0.00    -0.203 F 
ATOM     94  F   UNL A   1      46.670  35.743  27.377  1.00  0.00    -0.200 F 
ATOM     95  C   UNL A   1      47.101  35.008  29.580  1.00  0.00     0.200 A 
ATOM     96  F   UNL A   1      47.528  34.224  31.766  1.00  0.00    -0.200 F 
ATOM     97  F   UNL A   1      47.578  36.217  29.905  1.00  0.00    -0.200 F 
ENDBRANCH  64  87
ENDBRANCH  38  39
ENDBRANCH  30  33
ENDBRANCH  28  29
ENDBRANCH  27  28
ENDBRANCH   1  27
TORSDOF 14
ENDMDL
MODEL 3
REMARK VINA RESULT:     -12.1      5.345      9.676
REMARK SMILES C[C@H]1[C@@H](C(=O)NCCCNC(=O)c2ccc(-c3c4nc(c(-c5c(F)c(F)c(F)c(F)c5F)c5ccc([nH]5)c(-c5c(F)c(F)c(F)c(F)c5F)c5nc(c(-c6c(F)c(F)c(F)c(F)c6F)c6ccc3[nH]6)C=C5)C=C4)cc2)CC[N@@H+]1CC(=O)NNC(=O)c1cccs1
REMARK SMILES IDX 7 1 6 2 4 3 5 4 3 6 1 7 2 8 78 9 76 10 77 11 79 13 80 14
REMARK SMILES IDX 81 15 82 16 83 18 84 19 85 21 86 22 87 23 90 24 88 25 89 26
REMARK SMILES IDX 8 27 9 28 10 29 11 30 12 32 13 33 14 34 75 35 15 36 74 37
REMARK SMILES IDX 16 38 17 39 18 40 68 41 19 42 73 43 67 44 69 45 20 46 72 47
REMARK SMILES IDX 66 48 65 49 21 51 53 52 33 53 52 54 34 55 37 56 51 57 70 58
REMARK SMILES IDX 35 59 36 60 50 62 71 63 38 64 22 65 23 66 31 67 24 68 25 69
REMARK SMILES IDX 29 70 32 71 26 72 27 73 30 74 28 75 54 76 55 77 63 78 56 79
REMARK SMILES IDX 57 80 61 81 64 82 58 83 59 84 62 85 60 86 39 87 40 88 48 89
REMARK SMILES IDX 41 90 42 91 46 92 49 93 43 94 44 95 47 96 45 97
REMARK H PARENT 6 5 78 12 82 17 83 20 10 31 69 50 37 61
REMARK Flexibility Score: inf
ROOT
ATOM      1  C   UNL A   1      36.855  20.084  24.921  1.00  0.00     0.117 C 
ENDROOT
BRANCH   1   2
ATOM      2  N   UNL A   1      37.134  21.444  25.348  1.00  0.00    -0.356 N 
ATOM      3  C   UNL A   1      36.300  22.494  25.580  1.00  0.00     0.229 C 
ATOM      4  O   UNL A   1      36.830  23.603  25.666  1.00  0.00    -0.275 OA
ATOM      5  H   UNL A   1      38.088  21.639  25.494  1.00  0.00     0.163 HD
BRANCH   3   6
ATOM      6  C   UNL A   1      34.811  22.272  25.831  1.00  0.00     0.142 C 
ATOM      7  C   UNL A   1      34.299  23.006  23.344  1.00  0.00     0.076 C 
ATOM      8  C   UNL A   1      33.806  22.459  24.676  1.00  0.00     0.194 C 
ATOM      9  N   UNL A   1      32.788  23.408  25.141  1.00  0.00    -0.324 N 
ATOM     10  C   UNL A   1      34.291  23.205  26.940  1.00  0.00     0.081 C 
ATOM     11  C   UNL A   1      33.378  24.181  26.227  1.00  0.00     0.263 C 
ATOM     12  H   UNL A   1      32.551  24.041  24.376  1.00  0.00     0.348 HD
BRANCH   9  13
ATOM     13  C   UNL A   1      31.441  22.869  25.370  1.00  0.00     0.365 C 
BRANCH  13  14
ATOM     14  C   UNL A   1      30.622  23.568  26.454  1.00  0.00     0.293 C 
ATOM     15  O   UNL A   1      30.563  23.121  27.603  1.00  0.00    -0.267 OA
ATOM     16  N   UNL A   1      29.945  24.728  26.180  1.00  0.00    -0.262 N 
ATOM     17  H   UNL A   1      29.521  25.191  26.939  1.00  0.00     0.191 HD
BRANCH  16  18
ATOM     18  N   UNL A   1      29.804  25.309  24.920  1.00  0.00    -0.263 N 
ATOM     19  C   UNL A   1      30.198  26.610  24.639  1.00  0.00     0.279 C 
ATOM     20  H   UNL A   1      29.410  24.770  24.197  1.00  0.00     0.191 HD
ATOM     21  O   UNL A   1      29.593  27.206  23.740  1.00  0.00    -0.266 OA
BRANCH  19  22
ATOM     22  C   UNL A   1      31.302  27.179  25.393  1.00  0.00     0.094 A 
ATOM     23  C   UNL A   1      31.401  27.427  26.751  1.00  0.00     0.026 A 
ATOM     24  S   UNL A   1      32.766  27.560  24.586  1.00  0.00    -0.139 S 
ATOM     25  C   UNL A   1      32.667  27.969  27.118  1.00  0.00     0.012 A 
ATOM     26  C   UNL A   1      33.506  28.090  26.033  1.00  0.00     0.065 A 
ENDBRANCH  19  22
ENDBRANCH  16  18
ENDBRANCH  13  14
ENDBRANCH   9  13
ENDBRANCH   3   6
ENDBRANCH   1   2
BRANCH   1  27
ATOM     27  C   UNL A   1      38.138  19.253  24.956  1.00  0.00     0.042 C 
BRANCH  27  28
ATOM     28  C   UNL A   1      39.237  19.826  25.839  1.00  0.00     0.118 C 
BRANCH  28  29
ATOM     29  N   UNL A   1      40.370  18.932  25.956  1.00  0.00    -0.352 N 
ATOM     30  C   UNL A   1      41.715  19.198  26.058  1.00  0.00     0.251 C 
ATOM     31  H   UNL A   1      40.139  17.975  25.965  1.00  0.00     0.163 HD
ATOM     32  O   UNL A   1      42.511  18.277  25.924  1.00  0.00    -0.269 OA
BRANCH  30  33
ATOM     33  C   UNL A   1      42.229  20.573  26.306  1.00  0.00     0.039 A 
ATOM     34  C   UNL A   1      42.307  21.016  27.632  1.00  0.00     0.014 A 
ATOM     35  C   UNL A   1      42.551  21.460  25.277  1.00  0.00     0.014 A 
ATOM     36  C   UNL A   1      42.730  22.319  27.918  1.00  0.00     0.010 A 
ATOM     37  C   UNL A   1      43.073  22.722  25.566  1.00  0.00     0.010 A 
ATOM     38  C   UNL A   1      43.139  23.180  26.888  1.00  0.00    -0.014 A 
BRANCH  38  39
ATOM     39  C   UNL A   1      43.583  24.570  27.183  1.00  0.00     0.031 A 
ATOM     40  C   UNL A   1      42.607  25.583  27.728  1.00  0.00     0.074 A 
ATOM     41  C   UNL A   1      44.857  24.936  26.939  1.00  0.00     0.049 A 
ATOM     42  N   UNL A   1      42.800  26.844  28.028  1.00  0.00    -0.248 NA
ATOM     43  C   UNL A   1      41.225  25.127  27.938  1.00  0.00     0.031 C 
ATOM     44  C   UNL A   1      45.887  24.072  26.362  1.00  0.00     0.029 A 
ATOM     45  N   UNL A   1      45.501  26.132  27.143  1.00  0.00    -0.354 N 
ATOM     46  C   UNL A   1      41.567  27.329  28.445  1.00  0.00     0.074 A 
ATOM     47  C   UNL A   1      40.618  26.247  28.300  1.00  0.00     0.031 C 
ATOM     48  C   UNL A   1      47.040  24.755  26.285  1.00  0.00     0.029 A 
ATOM     49  C   UNL A   1      46.825  26.113  26.777  1.00  0.00     0.049 A 
ATOM     50  H   UNL A   1      45.057  26.926  27.517  1.00  0.00     0.167 HD
ATOM     51  C   UNL A   1      41.255  28.553  28.935  1.00  0.00     0.037 A 
ATOM     52  C   UNL A   1      47.760  27.081  26.829  1.00  0.00     0.037 A 
ATOM     53  C   UNL A   1      42.204  29.622  29.107  1.00  0.00     0.049 A 
ATOM     54  C   UNL A   1      47.395  28.427  27.390  1.00  0.00     0.074 A 
ATOM     55  C   UNL A   1      41.999  30.881  29.646  1.00  0.00     0.029 A 
ATOM     56  N   UNL A   1      43.540  29.557  28.744  1.00  0.00    -0.354 N 
ATOM     57  N   UNL A   1      46.240  28.850  27.844  1.00  0.00    -0.248 NA
ATOM     58  C   UNL A   1      48.468  29.429  27.458  1.00  0.00     0.031 C 
ATOM     59  C   UNL A   1      43.202  31.591  29.570  1.00  0.00     0.029 A 
ATOM     60  C   UNL A   1      44.169  30.758  29.031  1.00  0.00     0.049 A 
ATOM     61  H   UNL A   1      43.979  28.771  28.344  1.00  0.00     0.167 HD
ATOM     62  C   UNL A   1      46.450  30.155  28.269  1.00  0.00     0.074 A 
ATOM     63  C   UNL A   1      47.850  30.447  28.041  1.00  0.00     0.031 C 
ATOM     64  C   UNL A   1      45.563  31.034  28.797  1.00  0.00     0.037 A 
BRANCH  51  65
ATOM     65  C   UNL A   1      39.825  28.799  29.329  1.00  0.00     0.064 A 
ATOM     66  C   UNL A   1      39.373  28.568  30.637  1.00  0.00     0.173 A 
ATOM     67  C   UNL A   1      38.901  29.297  28.397  1.00  0.00     0.173 A 
ATOM     68  F   UNL A   1      40.211  28.080  31.565  1.00  0.00    -0.203 F 
ATOM     69  C   UNL A   1      38.044  28.792  30.989  1.00  0.00     0.198 A 
ATOM     70  C   UNL A   1      37.582  29.552  28.760  1.00  0.00     0.198 A 
ATOM     71  F   UNL A   1      39.281  29.544  27.134  1.00  0.00    -0.203 F 
ATOM     72  F   UNL A   1      37.624  28.511  32.230  1.00  0.00    -0.200 F 
ATOM     73  C   UNL A   1      37.152  29.290  30.053  1.00  0.00     0.200 A 
ATOM     74  F   UNL A   1      36.723  30.047  27.858  1.00  0.00    -0.200 F 
ATOM     75  F   UNL A   1      35.874  29.511  30.393  1.00  0.00    -0.200 F 
ENDBRANCH  51  65
BRANCH  52  76
ATOM     76  C   UNL A   1      49.142  26.798  26.361  1.00  0.00     0.064 A 
ATOM     77  C   UNL A   1      49.516  27.031  25.030  1.00  0.00     0.173 A 
ATOM     78  C   UNL A   1      50.118  26.295  27.234  1.00  0.00     0.173 A 
ATOM     79  F   UNL A   1      48.613  27.492  24.152  1.00  0.00    -0.203 F 
ATOM     80  C   UNL A   1      50.807  26.754  24.585  1.00  0.00     0.198 A 
ATOM     81  C   UNL A   1      51.416  26.046  26.796  1.00  0.00     0.198 A 
ATOM     82  F   UNL A   1      49.813  26.061  28.518  1.00  0.00    -0.203 F 
ATOM     83  F   UNL A   1      51.126  26.943  23.298  1.00  0.00    -0.200 F 
ATOM     84  C   UNL A   1      51.759  26.267  25.470  1.00  0.00     0.200 A 
ATOM     85  F   UNL A   1      52.337  25.591  27.657  1.00  0.00    -0.200 F 
ATOM     86  F   UNL A   1      53.002  26.008  25.044  1.00  0.00    -0.200 F 
ENDBRANCH  52  76
BRANCH  64  87
ATOM     87  C   UNL A   1      46.087  32.386  29.185  1.00  0.00     0.064 A 
ATOM     88  C   UNL A   1      46.620  32.631  30.460  1.00  0.00     0.173 A 
ATOM     89  C   UNL A   1      46.080  33.444  28.262  1.00  0.00     0.173 A 
ATOM     90  F   UNL A   1      46.638  31.657  31.382  1.00  0.00    -0.203 F 
ATOM     91  C   UNL A   1      47.096  33.893  30.806  1.00  0.00     0.198 A 
ATOM     92  C   UNL A   1      46.585  34.695  28.602  1.00  0.00     0.198 A 
ATOM     93  F   UNL A   1      45.588  33.260  27.028  1.00  0.00    -0.203 F 
ATOM     94  F   UNL A   1      47.550  34.118  32.047  1.00  0.00    -0.200 F 
ATOM     95  C   UNL A   1      47.083  34.922  29.876  1.00  0.00     0.200 A 
ATOM     96  F   UNL A   1      46.585  35.684  27.698  1.00  0.00    -0.200 F 
ATOM     97  F   UNL A   1      47.544  36.135  30.211  1.00  0.00    -0.200 F 
ENDBRANCH  64  87
ENDBRANCH  38  39
ENDBRANCH  30  33
ENDBRANCH  28  29
ENDBRANCH  27  28
ENDBRANCH   1  27
TORSDOF 14
ENDMDL
