MODEL 1
REMARK VINA RESULT:     -13.2      0.000      0.000
REMARK SMILES C[C@H](NC(=O)CCN1C(=O)/C(=C/c2ccc([N+](=O)[O-])cc2)SC1=S)C(=O)NCCCNC(=O)c1ccc(-c2c3nc(c(-c4c(F)c(F)c(F)c(F)c4F)c4ccc([nH]4)c(-c4c(F)c(F)c(F)c(F)c4F)c4nc(c(-c5c(F)c(F)c(F)c(F)c5F)c5ccc2[nH]5)C=C4)C=C3)cc1
REMARK SMILES IDX 25 1 26 2 27 3 2 5 1 6 3 7 4 8 5 10 6 11 7 12 8 13 9 14
REMARK SMILES IDX 23 15 10 16 11 17 22 18 24 19 12 20 13 21 14 22 21 23 15 24
REMARK SMILES IDX 20 25 16 26 17 27 18 28 19 29 28 30 29 31 30 32 31 33 32 34
REMARK SMILES IDX 33 36 34 37 35 38 96 39 36 40 95 41 37 42 38 43 39 44 89 45
REMARK SMILES IDX 40 46 94 47 88 48 90 49 41 50 93 51 87 52 86 53 42 55 74 56
REMARK SMILES IDX 54 57 73 58 55 59 58 60 72 61 91 62 56 63 57 64 71 66 92 67
REMARK SMILES IDX 59 68 43 69 44 70 52 71 45 72 46 73 50 74 53 75 47 76 48 77
REMARK SMILES IDX 51 78 49 79 75 80 76 81 84 82 77 83 78 84 82 85 85 86 79 87
REMARK SMILES IDX 80 88 83 89 81 90 60 91 61 92 69 93 62 94 63 95 67 96 70 97
REMARK SMILES IDX 64 98 65 99 68 100 66 101
REMARK H PARENT 27 4 3 9 31 35 90 54 58 65
REMARK Flexibility Score: inf
ROOT
ATOM      1  C   UNL A   1      32.837  29.359  24.955  1.00  0.00     0.242 C 
ATOM      2  O   UNL A   1      33.750  29.031  25.719  1.00  0.00    -0.273 OA
ATOM      3  N   UNL A   1      31.663  29.773  25.537  1.00  0.00    -0.354 N 
ATOM      4  H   UNL A   1      31.001  29.095  25.804  1.00  0.00     0.163 HD
ENDROOT
BRANCH   1   5
ATOM      5  C   UNL A   1      32.842  28.939  23.440  1.00  0.00     0.168 C 
ATOM      6  C   UNL A   1      31.478  29.182  22.815  1.00  0.00     0.041 C 
BRANCH   5   7
ATOM      7  N   UNL A   1      33.521  27.688  23.069  1.00  0.00    -0.345 N 
ATOM      8  C   UNL A   1      33.062  26.497  22.593  1.00  0.00     0.222 C 
ATOM      9  H   UNL A   1      34.498  27.718  23.188  1.00  0.00     0.164 HD
ATOM     10  O   UNL A   1      33.671  26.029  21.623  1.00  0.00    -0.275 OA
BRANCH   8  11
ATOM     11  C   UNL A   1      31.897  25.705  23.184  1.00  0.00     0.122 C 
BRANCH  11  12
ATOM     12  C   UNL A   1      32.168  24.895  24.467  1.00  0.00     0.137 C 
BRANCH  12  13
ATOM     13  N   UNL A   1      32.856  23.610  24.272  1.00  0.00    -0.292 N 
ATOM     14  C   UNL A   1      32.297  22.626  23.475  1.00  0.00     0.266 C 
ATOM     15  C   UNL A   1      34.114  23.323  24.732  1.00  0.00     0.148 C 
ATOM     16  O   UNL A   1      31.354  22.768  22.718  1.00  0.00    -0.268 OA
ATOM     17  C   UNL A   1      32.986  21.319  23.721  1.00  0.00     0.081 C 
ATOM     18  S   UNL A   1      34.421  21.584  24.606  1.00  0.00    -0.054 SA
ATOM     19  S   UNL A   1      35.231  24.420  25.287  1.00  0.00    -0.052 S 
ATOM     20  C   UNL A   1      32.351  20.179  23.412  1.00  0.00     0.029 C 
BRANCH  20  21
ATOM     21  C   UNL A   1      32.556  18.800  23.888  1.00  0.00    -0.024 A 
ATOM     22  C   UNL A   1      32.459  18.442  25.234  1.00  0.00     0.015 A 
ATOM     23  C   UNL A   1      33.107  17.874  22.986  1.00  0.00     0.015 A 
ATOM     24  C   UNL A   1      32.963  17.204  25.673  1.00  0.00     0.086 A 
ATOM     25  C   UNL A   1      33.594  16.636  23.403  1.00  0.00     0.086 A 
ATOM     26  C   UNL A   1      33.551  16.317  24.757  1.00  0.00     0.269 A 
BRANCH  26  27
ATOM     27  N   UNL A   1      34.197  15.082  25.221  1.00  0.00     0.062 N 
ATOM     28  O   UNL A   1      35.435  15.067  25.279  1.00  0.00    -0.258 OA
ATOM     29  O   UNL A   1      33.468  14.120  25.506  1.00  0.00    -0.258 OA
ENDBRANCH  26  27
ENDBRANCH  20  21
ENDBRANCH  12  13
ENDBRANCH  11  12
ENDBRANCH   8  11
ENDBRANCH   5   7
ENDBRANCH   1   5
BRANCH   3  30
ATOM     30  C   UNL A   1      31.361  31.186  25.775  1.00  0.00     0.117 C 
BRANCH  30  31
ATOM     31  C   UNL A   1      31.790  31.610  27.170  1.00  0.00     0.042 C 
BRANCH  31  32
ATOM     32  C   UNL A   1      32.882  32.677  27.216  1.00  0.00     0.118 C 
BRANCH  32  33
ATOM     33  N   UNL A   1      32.504  34.026  27.616  1.00  0.00    -0.352 N 
ATOM     34  C   UNL A   1      33.058  34.841  28.593  1.00  0.00     0.251 C 
ATOM     35  H   UNL A   1      31.747  34.417  27.122  1.00  0.00     0.163 HD
ATOM     36  O   UNL A   1      32.597  35.954  28.821  1.00  0.00    -0.269 OA
BRANCH  34  37
ATOM     37  C   UNL A   1      34.178  34.332  29.421  1.00  0.00     0.039 A 
ATOM     38  C   UNL A   1      33.926  33.458  30.484  1.00  0.00     0.014 A 
ATOM     39  C   UNL A   1      35.489  34.635  29.075  1.00  0.00     0.014 A 
ATOM     40  C   UNL A   1      34.995  32.805  31.111  1.00  0.00     0.010 A 
ATOM     41  C   UNL A   1      36.521  33.856  29.567  1.00  0.00     0.010 A 
ATOM     42  C   UNL A   1      36.300  32.950  30.613  1.00  0.00    -0.014 A 
BRANCH  42  43
ATOM     43  C   UNL A   1      37.466  32.213  31.174  1.00  0.00     0.031 A 
ATOM     44  C   UNL A   1      37.966  32.558  32.558  1.00  0.00     0.074 A 
ATOM     45  C   UNL A   1      38.140  31.323  30.418  1.00  0.00     0.049 A 
ATOM     46  N   UNL A   1      39.036  32.141  33.186  1.00  0.00    -0.248 NA
ATOM     47  C   UNL A   1      37.195  33.563  33.312  1.00  0.00     0.031 C 
ATOM     48  C   UNL A   1      37.827  30.971  29.032  1.00  0.00     0.029 A 
ATOM     49  N   UNL A   1      39.240  30.554  30.709  1.00  0.00    -0.354 N 
ATOM     50  C   UNL A   1      39.081  32.864  34.372  1.00  0.00     0.074 A 
ATOM     51  C   UNL A   1      37.997  33.815  34.333  1.00  0.00     0.031 C 
ATOM     52  C   UNL A   1      38.677  30.018  28.613  1.00  0.00     0.029 A 
ATOM     53  C   UNL A   1      39.619  29.719  29.686  1.00  0.00     0.049 A 
ATOM     54  H   UNL A   1      39.713  30.597  31.572  1.00  0.00     0.167 HD
ATOM     55  C   UNL A   1      39.913  32.713  35.429  1.00  0.00     0.037 A 
ATOM     56  C   UNL A   1      40.610  28.808  29.628  1.00  0.00     0.037 A 
ATOM     57  C   UNL A   1      40.938  31.709  35.496  1.00  0.00     0.049 A 
ATOM     58  C   UNL A   1      41.483  28.609  30.839  1.00  0.00     0.074 A 
ATOM     59  C   UNL A   1      41.780  31.401  36.548  1.00  0.00     0.029 A 
ATOM     60  N   UNL A   1      41.246  30.835  34.462  1.00  0.00    -0.354 N 
ATOM     61  N   UNL A   1      41.460  29.237  31.990  1.00  0.00    -0.248 NA
ATOM     62  C   UNL A   1      42.512  27.563  30.748  1.00  0.00     0.031 C 
ATOM     63  C   UNL A   1      42.626  30.365  36.138  1.00  0.00     0.029 A 
ATOM     64  C   UNL A   1      42.275  29.994  34.849  1.00  0.00     0.049 A 
ATOM     65  H   UNL A   1      40.799  30.816  33.586  1.00  0.00     0.167 HD
ATOM     66  C   UNL A   1      42.446  28.646  32.768  1.00  0.00     0.074 A 
ATOM     67  C   UNL A   1      43.035  27.595  31.965  1.00  0.00     0.031 C 
ATOM     68  C   UNL A   1      42.833  28.946  34.033  1.00  0.00     0.037 A 
BRANCH  55  69
ATOM     69  C   UNL A   1      39.719  33.630  36.604  1.00  0.00     0.064 A 
ATOM     70  C   UNL A   1      40.405  34.852  36.709  1.00  0.00     0.173 A 
ATOM     71  C   UNL A   1      38.833  33.290  37.637  1.00  0.00     0.173 A 
ATOM     72  F   UNL A   1      41.276  35.222  35.757  1.00  0.00    -0.203 F 
ATOM     73  C   UNL A   1      40.247  35.673  37.822  1.00  0.00     0.198 A 
ATOM     74  C   UNL A   1      38.648  34.133  38.730  1.00  0.00     0.198 A 
ATOM     75  F   UNL A   1      38.148  32.137  37.590  1.00  0.00    -0.203 F 
ATOM     76  F   UNL A   1      40.967  36.797  37.930  1.00  0.00    -0.200 F 
ATOM     77  C   UNL A   1      39.363  35.318  38.828  1.00  0.00     0.200 A 
ATOM     78  F   UNL A   1      37.783  33.795  39.697  1.00  0.00    -0.200 F 
ATOM     79  F   UNL A   1      39.208  36.110  39.897  1.00  0.00    -0.200 F 
ENDBRANCH  55  69
BRANCH  56  80
ATOM     80  C   UNL A   1      40.788  27.970  28.410  1.00  0.00     0.064 A 
ATOM     81  C   UNL A   1      41.562  28.426  27.332  1.00  0.00     0.173 A 
ATOM     82  C   UNL A   1      40.193  26.706  28.292  1.00  0.00     0.173 A 
ATOM     83  F   UNL A   1      42.138  29.637  27.388  1.00  0.00    -0.203 F 
ATOM     84  C   UNL A   1      41.711  27.665  26.175  1.00  0.00     0.198 A 
ATOM     85  C   UNL A   1      40.368  25.931  27.146  1.00  0.00     0.198 A 
ATOM     86  F   UNL A   1      39.449  26.217  29.295  1.00  0.00    -0.203 F 
ATOM     87  F   UNL A   1      42.414  28.149  25.142  1.00  0.00    -0.200 F 
ATOM     88  C   UNL A   1      41.119  26.415  26.085  1.00  0.00     0.200 A 
ATOM     89  F   UNL A   1      39.805  24.718  27.068  1.00  0.00    -0.200 F 
ATOM     90  F   UNL A   1      41.264  25.681  24.973  1.00  0.00    -0.200 F 
ENDBRANCH  56  80
BRANCH  68  91
ATOM     91  C   UNL A   1      43.917  28.103  34.637  1.00  0.00     0.064 A 
ATOM     92  C   UNL A   1      43.638  26.878  35.259  1.00  0.00     0.173 A 
ATOM     93  C   UNL A   1      45.258  28.510  34.554  1.00  0.00     0.173 A 
ATOM     94  F   UNL A   1      42.371  26.452  35.372  1.00  0.00    -0.203 F 
ATOM     95  C   UNL A   1      44.658  26.104  35.803  1.00  0.00     0.198 A 
ATOM     96  C   UNL A   1      46.279  27.719  35.070  1.00  0.00     0.198 A 
ATOM     97  F   UNL A   1      45.579  29.669  33.959  1.00  0.00    -0.203 F 
ATOM     98  F   UNL A   1      44.364  24.963  36.439  1.00  0.00    -0.200 F 
ATOM     99  C   UNL A   1      45.978  26.521  35.702  1.00  0.00     0.200 A 
ATOM    100  F   UNL A   1      47.554  28.113  34.955  1.00  0.00    -0.200 F 
ATOM    101  F   UNL A   1      46.960  25.772  36.220  1.00  0.00    -0.200 F 
ENDBRANCH  68  91
ENDBRANCH  42  43
ENDBRANCH  34  37
ENDBRANCH  32  33
ENDBRANCH  31  32
ENDBRANCH  30  31
ENDBRANCH   3  30
TORSDOF 16
ENDMDL
MODEL 2
REMARK VINA RESULT:     -13.2      0.779      7.092
REMARK SMILES C[C@H](NC(=O)CCN1C(=O)/C(=C/c2ccc([N+](=O)[O-])cc2)SC1=S)C(=O)NCCCNC(=O)c1ccc(-c2c3nc(c(-c4c(F)c(F)c(F)c(F)c4F)c4ccc([nH]4)c(-c4c(F)c(F)c(F)c(F)c4F)c4nc(c(-c5c(F)c(F)c(F)c(F)c5F)c5ccc2[nH]5)C=C4)C=C3)cc1
REMARK SMILES IDX 25 1 26 2 27 3 2 5 1 6 3 7 4 8 5 10 6 11 7 12 8 13 9 14
REMARK SMILES IDX 23 15 10 16 11 17 22 18 24 19 12 20 13 21 14 22 21 23 15 24
REMARK SMILES IDX 20 25 16 26 17 27 18 28 19 29 28 30 29 31 30 32 31 33 32 34
REMARK SMILES IDX 33 36 34 37 35 38 96 39 36 40 95 41 37 42 38 43 39 44 89 45
REMARK SMILES IDX 40 46 94 47 88 48 90 49 41 50 93 51 87 52 86 53 42 55 74 56
REMARK SMILES IDX 54 57 73 58 55 59 58 60 72 61 91 62 56 63 57 64 71 66 92 67
REMARK SMILES IDX 59 68 43 69 44 70 52 71 45 72 46 73 50 74 53 75 47 76 48 77
REMARK SMILES IDX 51 78 49 79 75 80 76 81 84 82 77 83 78 84 82 85 85 86 79 87
REMARK SMILES IDX 80 88 83 89 81 90 60 91 61 92 69 93 62 94 63 95 67 96 70 97
REMARK SMILES IDX 64 98 65 99 68 100 66 101
REMARK H PARENT 27 4 3 9 31 35 90 54 58 65
REMARK Flexibility Score: inf
ROOT
ATOM      1  C   UNL A   1      32.965  29.247  25.006  1.00  0.00     0.242 C 
ATOM      2  O   UNL A   1      33.832  28.827  25.778  1.00  0.00    -0.273 OA
ATOM      3  N   UNL A   1      31.786  29.669  25.572  1.00  0.00    -0.354 N 
ATOM      4  H   UNL A   1      31.086  29.003  25.764  1.00  0.00     0.163 HD
ENDROOT
BRANCH   1   5
ATOM      5  C   UNL A   1      33.014  28.936  23.465  1.00  0.00     0.168 C 
ATOM      6  C   UNL A   1      31.693  29.295  22.807  1.00  0.00     0.041 C 
BRANCH   5   7
ATOM      7  N   UNL A   1      33.644  27.679  23.032  1.00  0.00    -0.345 N 
ATOM      8  C   UNL A   1      33.131  26.496  22.592  1.00  0.00     0.222 C 
ATOM      9  H   UNL A   1      34.627  27.698  23.066  1.00  0.00     0.164 HD
ATOM     10  O   UNL A   1      33.649  26.026  21.571  1.00  0.00    -0.275 OA
BRANCH   8  11
ATOM     11  C   UNL A   1      32.014  25.713  23.279  1.00  0.00     0.122 C 
BRANCH  11  12
ATOM     12  C   UNL A   1      32.376  24.926  24.553  1.00  0.00     0.137 C 
BRANCH  12  13
ATOM     13  N   UNL A   1      33.010  23.618  24.330  1.00  0.00    -0.292 N 
ATOM     14  C   UNL A   1      32.391  22.660  23.547  1.00  0.00     0.266 C 
ATOM     15  C   UNL A   1      34.271  23.283  24.749  1.00  0.00     0.148 C 
ATOM     16  O   UNL A   1      31.431  22.841  22.820  1.00  0.00    -0.268 OA
ATOM     17  C   UNL A   1      33.038  21.327  23.764  1.00  0.00     0.081 C 
ATOM     18  S   UNL A   1      34.509  21.535  24.606  1.00  0.00    -0.054 SA
ATOM     19  S   UNL A   1      35.444  24.335  25.274  1.00  0.00    -0.052 S 
ATOM     20  C   UNL A   1      32.353  20.213  23.470  1.00  0.00     0.029 C 
BRANCH  20  21
ATOM     21  C   UNL A   1      32.522  18.825  23.933  1.00  0.00    -0.024 A 
ATOM     22  C   UNL A   1      32.407  18.455  25.274  1.00  0.00     0.015 A 
ATOM     23  C   UNL A   1      33.056  17.895  23.025  1.00  0.00     0.015 A 
ATOM     24  C   UNL A   1      32.878  17.201  25.704  1.00  0.00     0.086 A 
ATOM     25  C   UNL A   1      33.510  16.641  23.432  1.00  0.00     0.086 A 
ATOM     26  C   UNL A   1      33.451  16.309  24.782  1.00  0.00     0.269 A 
BRANCH  26  27
ATOM     27  N   UNL A   1      34.065  15.055  25.237  1.00  0.00     0.062 N 
ATOM     28  O   UNL A   1      35.302  14.990  25.249  1.00  0.00    -0.258 OA
ATOM     29  O   UNL A   1      33.309  14.126  25.562  1.00  0.00    -0.258 OA
ENDBRANCH  26  27
ENDBRANCH  20  21
ENDBRANCH  12  13
ENDBRANCH  11  12
ENDBRANCH   8  11
ENDBRANCH   5   7
ENDBRANCH   1   5
BRANCH   3  30
ATOM     30  C   UNL A   1      31.532  31.074  25.901  1.00  0.00     0.117 C 
BRANCH  30  31
ATOM     31  C   UNL A   1      32.101  31.428  27.264  1.00  0.00     0.042 C 
BRANCH  31  32
ATOM     32  C   UNL A   1      33.086  32.595  27.273  1.00  0.00     0.118 C 
BRANCH  32  33
ATOM     33  N   UNL A   1      32.569  33.926  27.566  1.00  0.00    -0.352 N 
ATOM     34  C   UNL A   1      33.003  34.849  28.506  1.00  0.00     0.251 C 
ATOM     35  H   UNL A   1      31.802  34.211  27.019  1.00  0.00     0.163 HD
ATOM     36  O   UNL A   1      32.433  35.927  28.640  1.00  0.00    -0.269 OA
BRANCH  34  37
ATOM     37  C   UNL A   1      34.128  34.502  29.408  1.00  0.00     0.039 A 
ATOM     38  C   UNL A   1      33.873  33.969  30.676  1.00  0.00     0.014 A 
ATOM     39  C   UNL A   1      35.437  34.602  28.954  1.00  0.00     0.014 A 
ATOM     40  C   UNL A   1      34.928  33.433  31.425  1.00  0.00     0.010 A 
ATOM     41  C   UNL A   1      36.441  33.911  29.609  1.00  0.00     0.010 A 
ATOM     42  C   UNL A   1      36.214  33.340  30.868  1.00  0.00    -0.014 A 
BRANCH  42  43
ATOM     43  C   UNL A   1      37.357  32.698  31.574  1.00  0.00     0.031 A 
ATOM     44  C   UNL A   1      38.091  31.555  30.912  1.00  0.00     0.074 A 
ATOM     45  C   UNL A   1      37.667  33.056  32.836  1.00  0.00     0.049 A 
ATOM     46  N   UNL A   1      39.020  30.770  31.396  1.00  0.00    -0.248 NA
ATOM     47  C   UNL A   1      37.675  31.201  29.543  1.00  0.00     0.031 C 
ATOM     48  C   UNL A   1      36.975  34.074  33.629  1.00  0.00     0.029 A 
ATOM     49  N   UNL A   1      38.648  32.595  33.681  1.00  0.00    -0.354 N 
ATOM     50  C   UNL A   1      39.256  29.817  30.412  1.00  0.00     0.074 A 
ATOM     51  C   UNL A   1      38.306  30.055  29.352  1.00  0.00     0.031 C 
ATOM     52  C   UNL A   1      37.585  34.198  34.820  1.00  0.00     0.029 A 
ATOM     53  C   UNL A   1      38.686  33.244  34.892  1.00  0.00     0.049 A 
ATOM     54  H   UNL A   1      39.266  31.867  33.440  1.00  0.00     0.167 HD
ATOM     55  C   UNL A   1      40.214  28.862  30.364  1.00  0.00     0.037 A 
ATOM     56  C   UNL A   1      39.524  33.091  35.935  1.00  0.00     0.037 A 
ATOM     57  C   UNL A   1      41.209  28.684  31.385  1.00  0.00     0.049 A 
ATOM     58  C   UNL A   1      40.626  32.069  35.835  1.00  0.00     0.074 A 
ATOM     59  C   UNL A   1      42.283  27.814  31.404  1.00  0.00     0.029 A 
ATOM     60  N   UNL A   1      41.255  29.409  32.568  1.00  0.00    -0.354 N 
ATOM     61  N   UNL A   1      40.895  31.232  34.861  1.00  0.00    -0.248 NA
ATOM     62  C   UNL A   1      41.551  31.979  36.973  1.00  0.00     0.031 C 
ATOM     63  C   UNL A   1      42.959  27.985  32.616  1.00  0.00     0.029 A 
ATOM     64  C   UNL A   1      42.335  28.998  33.329  1.00  0.00     0.049 A 
ATOM     65  H   UNL A   1      40.617  30.112  32.825  1.00  0.00     0.167 HD
ATOM     66  C   UNL A   1      42.033  30.540  35.254  1.00  0.00     0.074 A 
ATOM     67  C   UNL A   1      42.415  31.069  36.546  1.00  0.00     0.031 C 
ATOM     68  C   UNL A   1      42.700  29.552  34.607  1.00  0.00     0.037 A 
BRANCH  55  69
ATOM     69  C   UNL A   1      40.250  27.971  29.154  1.00  0.00     0.064 A 
ATOM     70  C   UNL A   1      40.986  28.312  28.007  1.00  0.00     0.173 A 
ATOM     71  C   UNL A   1      39.546  26.758  29.139  1.00  0.00     0.173 A 
ATOM     72  F   UNL A   1      41.667  29.468  27.960  1.00  0.00    -0.203 F 
ATOM     73  C   UNL A   1      40.978  27.498  26.878  1.00  0.00     0.198 A 
ATOM     74  C   UNL A   1      39.572  25.927  28.021  1.00  0.00     0.198 A 
ATOM     75  F   UNL A   1      38.828  26.378  30.207  1.00  0.00    -0.203 F 
ATOM     76  F   UNL A   1      41.629  27.884  25.772  1.00  0.00    -0.200 F 
ATOM     77  C   UNL A   1      40.278  26.303  26.888  1.00  0.00     0.200 A 
ATOM     78  F   UNL A   1      38.905  24.764  28.037  1.00  0.00    -0.200 F 
ATOM     79  F   UNL A   1      40.273  25.518  25.802  1.00  0.00    -0.200 F 
ENDBRANCH  55  69
BRANCH  56  80
ATOM     80  C   UNL A   1      39.400  33.966  37.133  1.00  0.00     0.064 A 
ATOM     81  C   UNL A   1      39.971  35.247  37.147  1.00  0.00     0.173 A 
ATOM     82  C   UNL A   1      38.718  33.547  38.284  1.00  0.00     0.173 A 
ATOM     83  F   UNL A   1      40.650  35.689  36.077  1.00  0.00    -0.203 F 
ATOM     84  C   UNL A   1      39.888  36.064  38.273  1.00  0.00     0.198 A 
ATOM     85  C   UNL A   1      38.610  34.376  39.399  1.00  0.00     0.198 A 
ATOM     86  F   UNL A   1      38.147  32.334  38.322  1.00  0.00    -0.203 F 
ATOM     87  F   UNL A   1      40.487  37.263  38.275  1.00  0.00    -0.200 F 
ATOM     88  C   UNL A   1      39.202  35.630  39.397  1.00  0.00     0.200 A 
ATOM     89  F   UNL A   1      37.934  33.959  40.479  1.00  0.00    -0.200 F 
ATOM     90  F   UNL A   1      39.120  36.416  40.480  1.00  0.00    -0.200 F 
ENDBRANCH  56  80
BRANCH  68  91
ATOM     91  C   UNL A   1      43.932  29.009  35.270  1.00  0.00     0.064 A 
ATOM     92  C   UNL A   1      45.206  29.526  34.993  1.00  0.00     0.173 A 
ATOM     93  C   UNL A   1      43.828  27.986  36.224  1.00  0.00     0.173 A 
ATOM     94  F   UNL A   1      45.357  30.498  34.080  1.00  0.00    -0.203 F 
ATOM     95  C   UNL A   1      46.336  29.017  35.626  1.00  0.00     0.198 A 
ATOM     96  C   UNL A   1      44.956  27.502  36.880  1.00  0.00     0.198 A 
ATOM     97  F   UNL A   1      42.631  27.466  36.532  1.00  0.00    -0.203 F 
ATOM     98  F   UNL A   1      47.549  29.489  35.309  1.00  0.00    -0.200 F 
ATOM     99  C   UNL A   1      46.209  28.011  36.574  1.00  0.00     0.200 A 
ATOM    100  F   UNL A   1      44.831  26.544  37.808  1.00  0.00    -0.200 F 
ATOM    101  F   UNL A   1      47.297  27.527  37.188  1.00  0.00    -0.200 F 
ENDBRANCH  68  91
ENDBRANCH  42  43
ENDBRANCH  34  37
ENDBRANCH  32  33
ENDBRANCH  31  32
ENDBRANCH  30  31
ENDBRANCH   3  30
TORSDOF 16
ENDMDL
MODEL 3
REMARK VINA RESULT:     -13.0      6.175     12.162
REMARK SMILES C[C@H](NC(=O)CCN1C(=O)/C(=C/c2ccc([N+](=O)[O-])cc2)SC1=S)C(=O)NCCCNC(=O)c1ccc(-c2c3nc(c(-c4c(F)c(F)c(F)c(F)c4F)c4ccc([nH]4)c(-c4c(F)c(F)c(F)c(F)c4F)c4nc(c(-c5c(F)c(F)c(F)c(F)c5F)c5ccc2[nH]5)C=C4)C=C3)cc1
REMARK SMILES IDX 25 1 26 2 27 3 2 5 1 6 3 7 4 8 5 10 6 11 7 12 8 13 9 14
REMARK SMILES IDX 23 15 10 16 11 17 22 18 24 19 12 20 13 21 14 22 21 23 15 24
REMARK SMILES IDX 20 25 16 26 17 27 18 28 19 29 28 30 29 31 30 32 31 33 32 34
REMARK SMILES IDX 33 36 34 37 35 38 96 39 36 40 95 41 37 42 38 43 39 44 89 45
REMARK SMILES IDX 40 46 94 47 88 48 90 49 41 50 93 51 87 52 86 53 42 55 74 56
REMARK SMILES IDX 54 57 73 58 55 59 58 60 72 61 91 62 56 63 57 64 71 66 92 67
REMARK SMILES IDX 59 68 43 69 44 70 52 71 45 72 46 73 50 74 53 75 47 76 48 77
REMARK SMILES IDX 51 78 49 79 75 80 76 81 84 82 77 83 78 84 82 85 85 86 79 87
REMARK SMILES IDX 80 88 83 89 81 90 60 91 61 92 69 93 62 94 63 95 67 96 70 97
REMARK SMILES IDX 64 98 65 99 68 100 66 101
REMARK H PARENT 27 4 3 9 31 35 90 54 58 65
REMARK Flexibility Score: inf
ROOT
ATOM      1  C   UNL A   1      39.676  22.017  26.563  1.00  0.00     0.242 C 
ATOM      2  O   UNL A   1      40.364  22.423  27.504  1.00  0.00    -0.273 OA
ATOM      3  N   UNL A   1      40.239  21.059  25.754  1.00  0.00    -0.354 N 
ATOM      4  H   UNL A   1      40.822  21.345  25.014  1.00  0.00     0.163 HD
ENDROOT
BRANCH   1   5
ATOM      5  C   UNL A   1      38.425  22.821  26.052  1.00  0.00     0.168 C 
ATOM      6  C   UNL A   1      38.495  24.267  26.513  1.00  0.00     0.041 C 
BRANCH   5   7
ATOM      7  N   UNL A   1      37.107  22.171  26.126  1.00  0.00    -0.345 N 
ATOM      8  C   UNL A   1      36.096  22.033  25.223  1.00  0.00     0.222 C 
ATOM      9  H   UNL A   1      36.920  21.753  26.998  1.00  0.00     0.164 HD
ATOM     10  O   UNL A   1      35.619  20.897  25.111  1.00  0.00    -0.275 OA
BRANCH   8  11
ATOM     11  C   UNL A   1      35.504  23.166  24.387  1.00  0.00     0.122 C 
BRANCH  11  12
ATOM     12  C   UNL A   1      35.013  24.420  25.137  1.00  0.00     0.137 C 
BRANCH  12  13
ATOM     13  N   UNL A   1      33.607  24.786  24.905  1.00  0.00    -0.292 N 
ATOM     14  C   UNL A   1      33.237  25.470  23.761  1.00  0.00     0.266 C 
ATOM     15  C   UNL A   1      32.560  24.394  25.698  1.00  0.00     0.148 C 
ATOM     16  O   UNL A   1      33.932  25.645  22.776  1.00  0.00    -0.268 OA
ATOM     17  C   UNL A   1      31.858  26.030  23.925  1.00  0.00     0.081 C 
ATOM     18  S   UNL A   1      31.114  25.329  25.291  1.00  0.00    -0.054 SA
ATOM     19  S   UNL A   1      32.592  23.192  26.843  1.00  0.00    -0.052 S 
ATOM     20  C   UNL A   1      31.480  27.065  23.161  1.00  0.00     0.029 C 
BRANCH  20  21
ATOM     21  C   UNL A   1      30.414  28.065  23.348  1.00  0.00    -0.024 A 
ATOM     22  C   UNL A   1      29.133  27.913  22.814  1.00  0.00     0.015 A 
ATOM     23  C   UNL A   1      30.778  29.317  23.872  1.00  0.00     0.015 A 
ATOM     24  C   UNL A   1      28.259  29.014  22.751  1.00  0.00     0.086 A 
ATOM     25  C   UNL A   1      29.917  30.413  23.833  1.00  0.00     0.086 A 
ATOM     26  C   UNL A   1      28.667  30.266  23.239  1.00  0.00     0.269 A 
BRANCH  26  27
ATOM     27  N   UNL A   1      27.818  31.451  23.060  1.00  0.00     0.062 N 
ATOM     28  O   UNL A   1      28.079  32.210  22.116  1.00  0.00    -0.258 OA
ATOM     29  O   UNL A   1      26.903  31.635  23.878  1.00  0.00    -0.258 OA
ENDBRANCH  26  27
ENDBRANCH  20  21
ENDBRANCH  12  13
ENDBRANCH  11  12
ENDBRANCH   8  11
ENDBRANCH   5   7
ENDBRANCH   1   5
BRANCH   3  30
ATOM     30  C   UNL A   1      40.002  19.627  25.952  1.00  0.00     0.117 C 
BRANCH  30  31
ATOM     31  C   UNL A   1      41.277  18.914  26.367  1.00  0.00     0.042 C 
BRANCH  31  32
ATOM     32  C   UNL A   1      42.572  19.630  25.991  1.00  0.00     0.118 C 
BRANCH  32  33
ATOM     33  N   UNL A   1      43.437  19.006  24.997  1.00  0.00    -0.352 N 
ATOM     34  C   UNL A   1      44.539  19.532  24.337  1.00  0.00     0.251 C 
ATOM     35  H   UNL A   1      43.205  18.080  24.759  1.00  0.00     0.163 HD
ATOM     36  O   UNL A   1      45.145  18.871  23.500  1.00  0.00    -0.269 OA
BRANCH  34  37
ATOM     37  C   UNL A   1      44.947  20.933  24.595  1.00  0.00     0.039 A 
ATOM     38  C   UNL A   1      44.529  21.957  23.738  1.00  0.00     0.014 A 
ATOM     39  C   UNL A   1      45.653  21.249  25.750  1.00  0.00     0.014 A 
ATOM     40  C   UNL A   1      44.721  23.293  24.111  1.00  0.00     0.010 A 
ATOM     41  C   UNL A   1      45.675  22.557  26.200  1.00  0.00     0.010 A 
ATOM     42  C   UNL A   1      45.239  23.605  25.379  1.00  0.00    -0.014 A 
BRANCH  42  43
ATOM     43  C   UNL A   1      45.382  25.002  25.873  1.00  0.00     0.031 A 
ATOM     44  C   UNL A   1      46.730  25.681  25.797  1.00  0.00     0.074 A 
ATOM     45  C   UNL A   1      44.350  25.620  26.482  1.00  0.00     0.049 A 
ATOM     46  N   UNL A   1      47.110  26.835  26.285  1.00  0.00    -0.248 NA
ATOM     47  C   UNL A   1      47.818  24.930  25.145  1.00  0.00     0.031 C 
ATOM     48  C   UNL A   1      43.025  25.042  26.712  1.00  0.00     0.029 A 
ATOM     49  N   UNL A   1      44.258  26.877  27.027  1.00  0.00    -0.354 N 
ATOM     50  C   UNL A   1      48.476  26.915  26.037  1.00  0.00     0.074 A 
ATOM     51  C   UNL A   1      48.877  25.659  25.452  1.00  0.00     0.031 C 
ATOM     52  C   UNL A   1      42.237  25.959  27.300  1.00  0.00     0.029 A 
ATOM     53  C   UNL A   1      43.011  27.175  27.524  1.00  0.00     0.049 A 
ATOM     54  H   UNL A   1      45.015  27.507  27.060  1.00  0.00     0.167 HD
ATOM     55  C   UNL A   1      49.314  27.962  26.224  1.00  0.00     0.037 A 
ATOM     56  C   UNL A   1      42.546  28.308  28.086  1.00  0.00     0.037 A 
ATOM     57  C   UNL A   1      48.891  29.238  26.729  1.00  0.00     0.049 A 
ATOM     58  C   UNL A   1      43.478  29.484  28.224  1.00  0.00     0.074 A 
ATOM     59  C   UNL A   1      49.628  30.398  26.875  1.00  0.00     0.029 A 
ATOM     60  N   UNL A   1      47.601  29.521  27.158  1.00  0.00    -0.354 N 
ATOM     61  N   UNL A   1      44.746  29.579  27.903  1.00  0.00    -0.248 NA
ATOM     62  C   UNL A   1      42.909  30.715  28.788  1.00  0.00     0.031 C 
ATOM     63  C   UNL A   1      48.794  31.375  27.429  1.00  0.00     0.029 A 
ATOM     64  C   UNL A   1      47.525  30.837  27.579  1.00  0.00     0.049 A 
ATOM     65  H   UNL A   1      46.853  28.883  27.160  1.00  0.00     0.167 HD
ATOM     66  C   UNL A   1      45.118  30.883  28.197  1.00  0.00     0.074 A 
ATOM     67  C   UNL A   1      43.937  31.549  28.704  1.00  0.00     0.031 C 
ATOM     68  C   UNL A   1      46.331  31.478  28.065  1.00  0.00     0.037 A 
BRANCH  55  69
ATOM     69  C   UNL A   1      50.756  27.775  25.843  1.00  0.00     0.064 A 
ATOM     70  C   UNL A   1      51.737  27.459  26.797  1.00  0.00     0.173 A 
ATOM     71  C   UNL A   1      51.165  27.906  24.507  1.00  0.00     0.173 A 
ATOM     72  F   UNL A   1      51.406  27.336  28.092  1.00  0.00    -0.203 F 
ATOM     73  C   UNL A   1      53.076  27.329  26.438  1.00  0.00     0.198 A 
ATOM     74  C   UNL A   1      52.499  27.736  24.145  1.00  0.00     0.198 A 
ATOM     75  F   UNL A   1      50.272  28.203  23.551  1.00  0.00    -0.203 F 
ATOM     76  F   UNL A   1      54.001  27.099  27.379  1.00  0.00    -0.200 F 
ATOM     77  C   UNL A   1      53.455  27.459  25.111  1.00  0.00     0.200 A 
ATOM     78  F   UNL A   1      52.863  27.850  22.860  1.00  0.00    -0.200 F 
ATOM     79  F   UNL A   1      54.743  27.330  24.765  1.00  0.00    -0.200 F 
ENDBRANCH  55  69
BRANCH  56  80
ATOM     80  C   UNL A   1      41.119  28.411  28.498  1.00  0.00     0.064 A 
ATOM     81  C   UNL A   1      40.153  28.917  27.616  1.00  0.00     0.173 A 
ATOM     82  C   UNL A   1      40.689  28.014  29.772  1.00  0.00     0.173 A 
ATOM     83  F   UNL A   1      40.516  29.329  26.391  1.00  0.00    -0.203 F 
ATOM     84  C   UNL A   1      38.820  29.047  28.000  1.00  0.00     0.198 A 
ATOM     85  C   UNL A   1      39.350  28.116  30.145  1.00  0.00     0.198 A 
ATOM     86  F   UNL A   1      41.570  27.516  30.653  1.00  0.00    -0.203 F 
ATOM     87  F   UNL A   1      37.930  29.582  27.153  1.00  0.00    -0.200 F 
ATOM     88  C   UNL A   1      38.418  28.641  29.262  1.00  0.00     0.200 A 
ATOM     89  F   UNL A   1      38.963  27.709  31.362  1.00  0.00    -0.200 F 
ATOM     90  F   UNL A   1      37.135  28.764  29.632  1.00  0.00    -0.200 F 
ENDBRANCH  56  80
BRANCH  68  91
ATOM     91  C   UNL A   1      46.427  32.929  28.438  1.00  0.00     0.064 A 
ATOM     92  C   UNL A   1      46.690  33.335  29.754  1.00  0.00     0.173 A 
ATOM     93  C   UNL A   1      46.293  33.921  27.456  1.00  0.00     0.173 A 
ATOM     94  F   UNL A   1      46.814  32.423  30.730  1.00  0.00    -0.203 F 
ATOM     95  C   UNL A   1      46.786  34.685  30.079  1.00  0.00     0.198 A 
ATOM     96  C   UNL A   1      46.424  35.269  27.777  1.00  0.00     0.198 A 
ATOM     97  F   UNL A   1      46.052  33.584  26.180  1.00  0.00    -0.203 F 
ATOM     98  F   UNL A   1      46.986  35.053  31.351  1.00  0.00    -0.200 F 
ATOM     99  C   UNL A   1      46.661  35.650  29.089  1.00  0.00     0.200 A 
ATOM    100  F   UNL A   1      46.320  36.198  26.818  1.00  0.00    -0.200 F 
ATOM    101  F   UNL A   1      46.761  36.948  29.402  1.00  0.00    -0.200 F 
ENDBRANCH  68  91
ENDBRANCH  42  43
ENDBRANCH  34  37
ENDBRANCH  32  33
ENDBRANCH  31  32
ENDBRANCH  30  31
ENDBRANCH   3  30
TORSDOF 16
ENDMDL
