MODEL 1
REMARK VINA RESULT:     -12.3      0.000      0.000
REMARK SMILES CC[C@@](C)(NC(=O)c1cccc(Br)c1C)C(=O)NCCCNC(=O)c1ccc(-c2c3nc(c(-c4c(F)c(F)c(F)c(F)c4F)c4ccc([nH]4)c(-c4c(F)c(F)c(F)c(F)c4F)c4nc(c(-c5c(F)c(F)c(F)c(F)c5F)c5ccc2[nH]5)C=C4)C=C3)cc1
REMARK SMILES IDX 20 1 19 2 18 3 16 4 17 5 3 7 4 8 2 9 1 10 5 11 6 12 7 14
REMARK SMILES IDX 8 15 9 16 14 17 10 18 12 19 15 20 11 21 13 22 21 23 22 24
REMARK SMILES IDX 23 25 24 27 25 28 26 29 87 30 27 31 86 32 28 33 29 34 30 35
REMARK SMILES IDX 80 36 31 37 85 38 79 39 81 40 32 41 84 42 78 43 77 44 33 46
REMARK SMILES IDX 65 47 45 48 64 49 46 50 49 51 63 52 82 53 47 54 48 55 62 57
REMARK SMILES IDX 83 58 50 59 34 60 35 61 43 62 36 63 37 64 41 65 44 66 38 67
REMARK SMILES IDX 39 68 42 69 40 70 66 71 67 72 75 73 68 74 69 75 73 76 76 77
REMARK SMILES IDX 70 78 71 79 74 80 72 81 51 82 52 83 60 84 53 85 54 86 58 87
REMARK SMILES IDX 61 88 55 89 56 90 59 91 57 92
REMARK H PARENT 18 6 5 13 22 26 81 45 49 56
REMARK Flexibility Score: inf
ROOT
ATOM      1  C   UNL A   1      31.439  32.090  26.546  1.00  0.00     0.042 C 
ENDROOT
BRANCH   1   2
ATOM      2  C   UNL A   1      31.612  30.616  26.043  1.00  0.00     0.117 C 
BRANCH   2   3
ATOM      3  N   UNL A   1      31.344  30.271  24.641  1.00  0.00    -0.354 N 
ATOM      4  C   UNL A   1      31.397  29.157  23.838  1.00  0.00     0.245 C 
ATOM      5  O   UNL A   1      30.659  29.249  22.843  1.00  0.00    -0.272 OA
ATOM      6  H   UNL A   1      31.040  31.058  24.134  1.00  0.00     0.163 HD
BRANCH   4   7
ATOM      7  C   UNL A   1      32.303  27.856  23.998  1.00  0.00     0.116 C 
ATOM      8  C   UNL A   1      33.778  28.255  24.191  1.00  0.00     0.045 C 
BRANCH   7   9
ATOM      9  C   UNL A   1      31.849  27.038  25.268  1.00  0.00     0.035 C 
ATOM     10  C   UNL A   1      32.768  27.034  26.487  1.00  0.00     0.007 C 
ENDBRANCH   7   9
BRANCH   7  11
ATOM     11  N   UNL A   1      32.275  26.849  22.871  1.00  0.00    -0.338 N 
ATOM     12  C   UNL A   1      33.118  25.775  22.623  1.00  0.00     0.252 C 
ATOM     13  H   UNL A   1      31.552  26.974  22.216  1.00  0.00     0.164 HD
ATOM     14  O   UNL A   1      33.537  25.597  21.482  1.00  0.00    -0.269 OA
BRANCH  12  15
ATOM     15  C   UNL A   1      33.445  24.787  23.682  1.00  0.00     0.043 A 
ATOM     16  C   UNL A   1      34.776  24.477  23.985  1.00  0.00     0.014 A 
ATOM     17  C   UNL A   1      32.445  23.981  24.224  1.00  0.00    -0.024 A 
ATOM     18  C   UNL A   1      35.073  23.513  24.953  1.00  0.00     0.002 A 
ATOM     19  C   UNL A   1      32.733  23.273  25.397  1.00  0.00     0.021 A 
ATOM     20  C   UNL A   1      31.316  23.617  23.298  1.00  0.00     0.046 C 
ATOM     21  C   UNL A   1      34.050  22.982  25.723  1.00  0.00     0.016 A 
ATOM     22  Br  UNL A   1      31.474  22.916  26.764  1.00  0.00    -0.051 Br
ENDBRANCH  12  15
ENDBRANCH   7  11
ENDBRANCH   4   7
ENDBRANCH   2   3
ENDBRANCH   1   2
BRANCH   1  23
ATOM     23  C   UNL A   1      32.551  32.843  27.300  1.00  0.00     0.118 C 
BRANCH  23  24
ATOM     24  N   UNL A   1      32.300  34.226  27.647  1.00  0.00    -0.352 N 
ATOM     25  C   UNL A   1      32.931  35.021  28.585  1.00  0.00     0.251 C 
ATOM     26  H   UNL A   1      31.575  34.661  27.143  1.00  0.00     0.163 HD
ATOM     27  O   UNL A   1      32.522  36.165  28.771  1.00  0.00    -0.269 OA
BRANCH  25  28
ATOM     28  C   UNL A   1      34.088  34.550  29.399  1.00  0.00     0.039 A 
ATOM     29  C   UNL A   1      35.361  34.552  28.812  1.00  0.00     0.014 A 
ATOM     30  C   UNL A   1      33.925  33.949  30.651  1.00  0.00     0.014 A 
ATOM     31  C   UNL A   1      36.463  33.981  29.474  1.00  0.00     0.010 A 
ATOM     32  C   UNL A   1      35.033  33.391  31.321  1.00  0.00     0.010 A 
ATOM     33  C   UNL A   1      36.315  33.389  30.738  1.00  0.00    -0.014 A 
BRANCH  33  34
ATOM     34  C   UNL A   1      37.473  32.723  31.417  1.00  0.00     0.031 A 
ATOM     35  C   UNL A   1      38.210  31.591  30.745  1.00  0.00     0.074 A 
ATOM     36  C   UNL A   1      37.867  33.113  32.647  1.00  0.00     0.049 A 
ATOM     37  N   UNL A   1      39.196  30.850  31.193  1.00  0.00    -0.248 NA
ATOM     38  C   UNL A   1      37.766  31.234  29.390  1.00  0.00     0.031 C 
ATOM     39  C   UNL A   1      37.252  34.182  33.430  1.00  0.00     0.029 A 
ATOM     40  N   UNL A   1      38.875  32.645  33.462  1.00  0.00    -0.354 N 
ATOM     41  C   UNL A   1      39.471  29.928  30.190  1.00  0.00     0.074 A 
ATOM     42  C   UNL A   1      38.527  30.182  29.122  1.00  0.00     0.031 C 
ATOM     43  C   UNL A   1      37.894  34.294  34.606  1.00  0.00     0.029 A 
ATOM     44  C   UNL A   1      38.951  33.286  34.675  1.00  0.00     0.049 A 
ATOM     45  H   UNL A   1      39.484  31.917  33.199  1.00  0.00     0.167 HD
ATOM     46  C   UNL A   1      40.429  28.967  30.150  1.00  0.00     0.037 A 
ATOM     47  C   UNL A   1      39.771  33.087  35.727  1.00  0.00     0.037 A 
ATOM     48  C   UNL A   1      41.398  28.729  31.192  1.00  0.00     0.049 A 
ATOM     49  C   UNL A   1      40.832  32.017  35.660  1.00  0.00     0.074 A 
ATOM     50  C   UNL A   1      42.434  27.810  31.216  1.00  0.00     0.029 A 
ATOM     51  N   UNL A   1      41.452  29.418  32.393  1.00  0.00    -0.354 N 
ATOM     52  N   UNL A   1      41.105  31.183  34.687  1.00  0.00    -0.248 NA
ATOM     53  C   UNL A   1      41.704  31.867  36.836  1.00  0.00     0.031 C 
ATOM     54  C   UNL A   1      43.093  27.920  32.445  1.00  0.00     0.029 A 
ATOM     55  C   UNL A   1      42.496  28.938  33.168  1.00  0.00     0.049 A 
ATOM     56  H   UNL A   1      40.840  30.143  32.656  1.00  0.00     0.167 HD
ATOM     57  C   UNL A   1      42.193  30.435  35.117  1.00  0.00     0.074 A 
ATOM     58  C   UNL A   1      42.540  30.919  36.435  1.00  0.00     0.031 C 
ATOM     59  C   UNL A   1      42.847  29.437  34.473  1.00  0.00     0.037 A 
BRANCH  46  60
ATOM     60  C   UNL A   1      40.481  28.086  28.932  1.00  0.00     0.064 A 
ATOM     61  C   UNL A   1      39.757  26.887  28.861  1.00  0.00     0.173 A 
ATOM     62  C   UNL A   1      41.233  28.464  27.809  1.00  0.00     0.173 A 
ATOM     63  F   UNL A   1      39.023  26.478  29.907  1.00  0.00    -0.203 F 
ATOM     64  C   UNL A   1      39.815  26.080  27.726  1.00  0.00     0.198 A 
ATOM     65  C   UNL A   1      41.266  27.670  26.666  1.00  0.00     0.198 A 
ATOM     66  F   UNL A   1      41.933  29.609  27.818  1.00  0.00    -0.203 F 
ATOM     67  F   UNL A   1      39.155  24.913  27.702  1.00  0.00    -0.200 F 
ATOM     68  C   UNL A   1      40.565  26.473  26.629  1.00  0.00     0.200 A 
ATOM     69  F   UNL A   1      41.978  28.059  25.599  1.00  0.00    -0.200 F 
ATOM     70  F   UNL A   1      40.618  25.697  25.538  1.00  0.00    -0.200 F 
ENDBRANCH  46  60
BRANCH  47  71
ATOM     71  C   UNL A   1      39.642  33.935  36.943  1.00  0.00     0.064 A 
ATOM     72  C   UNL A   1      38.863  33.521  38.032  1.00  0.00     0.173 A 
ATOM     73  C   UNL A   1      40.282  35.179  37.037  1.00  0.00     0.173 A 
ATOM     74  F   UNL A   1      38.207  32.352  37.978  1.00  0.00    -0.203 F 
ATOM     75  C   UNL A   1      38.715  34.324  39.161  1.00  0.00     0.198 A 
ATOM     76  C   UNL A   1      40.156  35.971  38.178  1.00  0.00     0.198 A 
ATOM     77  F   UNL A   1      41.038  35.625  36.022  1.00  0.00    -0.203 F 
ATOM     78  F   UNL A   1      37.928  33.922  40.169  1.00  0.00    -0.200 F 
ATOM     79  C   UNL A   1      39.367  35.546  39.236  1.00  0.00     0.200 A 
ATOM     80  F   UNL A   1      40.796  37.146  38.251  1.00  0.00    -0.200 F 
ATOM     81  F   UNL A   1      39.229  36.315  40.324  1.00  0.00    -0.200 F 
ENDBRANCH  47  71
BRANCH  59  82
ATOM     82  C   UNL A   1      44.034  28.826  35.160  1.00  0.00     0.064 A 
ATOM     83  C   UNL A   1      45.329  29.339  34.991  1.00  0.00     0.173 A 
ATOM     84  C   UNL A   1      43.866  27.745  36.038  1.00  0.00     0.173 A 
ATOM     85  F   UNL A   1      45.544  30.363  34.150  1.00  0.00    -0.203 F 
ATOM     86  C   UNL A   1      46.413  28.780  35.660  1.00  0.00     0.198 A 
ATOM     87  C   UNL A   1      44.949  27.204  36.727  1.00  0.00     0.198 A 
ATOM     88  F   UNL A   1      42.647  27.222  36.240  1.00  0.00    -0.203 F 
ATOM     89  F   UNL A   1      47.647  29.261  35.454  1.00  0.00    -0.200 F 
ATOM     90  C   UNL A   1      46.222  27.718  36.533  1.00  0.00     0.200 A 
ATOM     91  F   UNL A   1      44.760  26.186  37.578  1.00  0.00    -0.200 F 
ATOM     92  F   UNL A   1      47.266  27.188  37.183  1.00  0.00    -0.200 F 
ENDBRANCH  59  82
ENDBRANCH  33  34
ENDBRANCH  25  28
ENDBRANCH  23  24
ENDBRANCH   1  23
TORSDOF 13
ENDMDL
MODEL 2
REMARK VINA RESULT:     -12.3      2.127      3.436
REMARK SMILES CC[C@@](C)(NC(=O)c1cccc(Br)c1C)C(=O)NCCCNC(=O)c1ccc(-c2c3nc(c(-c4c(F)c(F)c(F)c(F)c4F)c4ccc([nH]4)c(-c4c(F)c(F)c(F)c(F)c4F)c4nc(c(-c5c(F)c(F)c(F)c(F)c5F)c5ccc2[nH]5)C=C4)C=C3)cc1
REMARK SMILES IDX 20 1 19 2 18 3 16 4 17 5 3 7 4 8 2 9 1 10 5 11 6 12 7 14
REMARK SMILES IDX 8 15 9 16 14 17 10 18 12 19 15 20 11 21 13 22 21 23 22 24
REMARK SMILES IDX 23 25 24 27 25 28 26 29 87 30 27 31 86 32 28 33 29 34 30 35
REMARK SMILES IDX 80 36 31 37 85 38 79 39 81 40 32 41 84 42 78 43 77 44 33 46
REMARK SMILES IDX 65 47 45 48 64 49 46 50 49 51 63 52 82 53 47 54 48 55 62 57
REMARK SMILES IDX 83 58 50 59 34 60 35 61 43 62 36 63 37 64 41 65 44 66 38 67
REMARK SMILES IDX 39 68 42 69 40 70 66 71 67 72 75 73 68 74 69 75 73 76 76 77
REMARK SMILES IDX 70 78 71 79 74 80 72 81 51 82 52 83 60 84 53 85 54 86 58 87
REMARK SMILES IDX 61 88 55 89 56 90 59 91 57 92
REMARK H PARENT 18 6 5 13 22 26 81 45 49 56
REMARK Flexibility Score: inf
ROOT
ATOM      1  C   UNL A   1      32.478  28.656  23.498  1.00  0.00     0.042 C 
ENDROOT
BRANCH   1   2
ATOM      2  C   UNL A   1      31.026  28.099  23.697  1.00  0.00     0.117 C 
BRANCH   2   3
ATOM      3  N   UNL A   1      30.673  27.359  24.916  1.00  0.00    -0.354 N 
ATOM      4  C   UNL A   1      31.242  26.412  25.732  1.00  0.00     0.245 C 
ATOM      5  O   UNL A   1      30.761  26.417  26.878  1.00  0.00    -0.272 OA
ATOM      6  H   UNL A   1      29.779  27.614  25.238  1.00  0.00     0.163 HD
BRANCH   4   7
ATOM      7  C   UNL A   1      32.344  25.319  25.373  1.00  0.00     0.116 C 
ATOM      8  C   UNL A   1      33.746  25.830  25.755  1.00  0.00     0.045 C 
BRANCH   7   9
ATOM      9  C   UNL A   1      32.071  23.994  26.185  1.00  0.00     0.035 C 
ATOM     10  C   UNL A   1      30.794  23.214  25.879  1.00  0.00     0.007 C 
ENDBRANCH   7   9
BRANCH   7  11
ATOM     11  N   UNL A   1      32.430  24.868  23.933  1.00  0.00    -0.338 N 
ATOM     12  C   UNL A   1      33.464  24.224  23.267  1.00  0.00     0.252 C 
ATOM     13  H   UNL A   1      31.635  25.059  23.386  1.00  0.00     0.164 HD
ATOM     14  O   UNL A   1      33.793  24.622  22.153  1.00  0.00    -0.269 OA
BRANCH  12  15
ATOM     15  C   UNL A   1      34.110  23.012  23.829  1.00  0.00     0.043 A 
ATOM     16  C   UNL A   1      35.477  23.003  24.127  1.00  0.00     0.014 A 
ATOM     17  C   UNL A   1      33.428  21.796  23.848  1.00  0.00    -0.024 A 
ATOM     18  C   UNL A   1      36.087  21.842  24.615  1.00  0.00     0.002 A 
ATOM     19  C   UNL A   1      33.952  20.759  24.628  1.00  0.00     0.021 A 
ATOM     20  C   UNL A   1      32.449  21.572  22.727  1.00  0.00     0.046 C 
ATOM     21  C   UNL A   1      35.301  20.751  24.952  1.00  0.00     0.016 A 
ATOM     22  Br  UNL A   1      32.902  19.479  25.547  1.00  0.00    -0.051 Br
ENDBRANCH  12  15
ENDBRANCH   7  11
ENDBRANCH   4   7
ENDBRANCH   2   3
ENDBRANCH   1   2
BRANCH   1  23
ATOM     23  C   UNL A   1      33.272  29.319  24.638  1.00  0.00     0.118 C 
BRANCH  23  24
ATOM     24  N   UNL A   1      32.573  30.281  25.463  1.00  0.00    -0.352 N 
ATOM     25  C   UNL A   1      32.972  30.873  26.647  1.00  0.00     0.251 C 
ATOM     26  H   UNL A   1      31.685  30.552  25.133  1.00  0.00     0.163 HD
ATOM     27  O   UNL A   1      32.196  31.628  27.230  1.00  0.00    -0.269 OA
BRANCH  25  28
ATOM     28  C   UNL A   1      34.307  30.630  27.264  1.00  0.00     0.039 A 
ATOM     29  C   UNL A   1      34.634  29.323  27.652  1.00  0.00     0.014 A 
ATOM     30  C   UNL A   1      35.164  31.674  27.626  1.00  0.00     0.014 A 
ATOM     31  C   UNL A   1      35.812  29.057  28.374  1.00  0.00     0.010 A 
ATOM     32  C   UNL A   1      36.353  31.405  28.335  1.00  0.00     0.010 A 
ATOM     33  C   UNL A   1      36.688  30.095  28.729  1.00  0.00    -0.014 A 
BRANCH  33  34
ATOM     34  C   UNL A   1      37.911  29.824  29.552  1.00  0.00     0.031 A 
ATOM     35  C   UNL A   1      38.991  28.902  29.041  1.00  0.00     0.074 A 
ATOM     36  C   UNL A   1      38.060  30.384  30.769  1.00  0.00     0.049 A 
ATOM     37  N   UNL A   1      40.092  28.496  29.628  1.00  0.00    -0.248 NA
ATOM     38  C   UNL A   1      38.797  28.350  27.693  1.00  0.00     0.031 C 
ATOM     39  C   UNL A   1      37.102  31.286  31.405  1.00  0.00     0.029 A 
ATOM     40  N   UNL A   1      39.071  30.269  31.698  1.00  0.00    -0.354 N 
ATOM     41  C   UNL A   1      40.707  27.626  28.734  1.00  0.00     0.074 A 
ATOM     42  C   UNL A   1      39.839  27.539  27.578  1.00  0.00     0.031 C 
ATOM     43  C   UNL A   1      37.570  31.646  32.613  1.00  0.00     0.029 A 
ATOM     44  C   UNL A   1      38.850  30.981  32.853  1.00  0.00     0.049 A 
ATOM     45  H   UNL A   1      39.879  29.725  31.548  1.00  0.00     0.167 HD
ATOM     46  C   UNL A   1      41.889  26.971  28.853  1.00  0.00     0.037 A 
ATOM     47  C   UNL A   1      39.585  31.085  33.978  1.00  0.00     0.037 A 
ATOM     48  C   UNL A   1      42.778  27.079  29.984  1.00  0.00     0.049 A 
ATOM     49  C   UNL A   1      40.898  30.353  34.088  1.00  0.00     0.074 A 
ATOM     50  C   UNL A   1      44.018  26.490  30.169  1.00  0.00     0.029 A 
ATOM     51  N   UNL A   1      42.523  27.831  31.120  1.00  0.00    -0.354 N 
ATOM     52  N   UNL A   1      41.483  29.569  33.216  1.00  0.00    -0.248 NA
ATOM     53  C   UNL A   1      41.657  30.527  35.336  1.00  0.00     0.031 C 
ATOM     54  C   UNL A   1      44.497  26.857  31.431  1.00  0.00     0.029 A 
ATOM     55  C   UNL A   1      43.576  27.711  32.013  1.00  0.00     0.049 A 
ATOM     56  H   UNL A   1      41.714  28.370  31.270  1.00  0.00     0.167 HD
ATOM     57  C   UNL A   1      42.686  29.184  33.793  1.00  0.00     0.074 A 
ATOM     58  C   UNL A   1      42.755  29.827  35.087  1.00  0.00     0.031 C 
ATOM     59  C   UNL A   1      43.647  28.369  33.292  1.00  0.00     0.037 A 
BRANCH  46  60
ATOM     60  C   UNL A   1      42.299  26.065  27.725  1.00  0.00     0.064 A 
ATOM     61  C   UNL A   1      43.182  26.491  26.722  1.00  0.00     0.173 A 
ATOM     62  C   UNL A   1      41.832  24.742  27.666  1.00  0.00     0.173 A 
ATOM     63  F   UNL A   1      43.656  27.746  26.730  1.00  0.00    -0.203 F 
ATOM     64  C   UNL A   1      43.552  25.641  25.682  1.00  0.00     0.198 A 
ATOM     65  C   UNL A   1      42.226  23.886  26.642  1.00  0.00     0.198 A 
ATOM     66  F   UNL A   1      40.997  24.277  28.608  1.00  0.00    -0.203 F 
ATOM     67  F   UNL A   1      44.356  26.088  24.707  1.00  0.00    -0.200 F 
ATOM     68  C   UNL A   1      43.078  24.339  25.645  1.00  0.00     0.200 A 
ATOM     69  F   UNL A   1      41.781  22.622  26.616  1.00  0.00    -0.200 F 
ATOM     70  F   UNL A   1      43.437  23.521  24.645  1.00  0.00    -0.200 F 
ENDBRANCH  46  60
BRANCH  47  71
ATOM     71  C   UNL A   1      39.109  31.939  35.101  1.00  0.00     0.064 A 
ATOM     72  C   UNL A   1      39.356  33.318  35.112  1.00  0.00     0.173 A 
ATOM     73  C   UNL A   1      38.413  31.394  36.189  1.00  0.00     0.173 A 
ATOM     74  F   UNL A   1      40.044  33.883  34.108  1.00  0.00    -0.203 F 
ATOM     75  C   UNL A   1      38.938  34.118  36.174  1.00  0.00     0.198 A 
ATOM     76  C   UNL A   1      37.971  32.198  37.239  1.00  0.00     0.198 A 
ATOM     77  F   UNL A   1      38.153  30.078  36.230  1.00  0.00    -0.203 F 
ATOM     78  F   UNL A   1      39.226  35.427  36.179  1.00  0.00    -0.200 F 
ATOM     79  C   UNL A   1      38.240  33.558  37.234  1.00  0.00     0.200 A 
ATOM     80  F   UNL A   1      37.288  31.655  38.256  1.00  0.00    -0.200 F 
ATOM     81  F   UNL A   1      37.834  34.328  38.253  1.00  0.00    -0.200 F 
ENDBRANCH  47  71
BRANCH  59  82
ATOM     82  C   UNL A   1      44.882  28.159  34.120  1.00  0.00     0.064 A 
ATOM     83  C   UNL A   1      45.985  29.021  34.031  1.00  0.00     0.173 A 
ATOM     84  C   UNL A   1      44.941  27.111  35.051  1.00  0.00     0.173 A 
ATOM     85  F   UNL A   1      45.983  30.029  33.145  1.00  0.00    -0.203 F 
ATOM     86  C   UNL A   1      47.110  28.829  34.829  1.00  0.00     0.198 A 
ATOM     87  C   UNL A   1      46.056  26.938  35.867  1.00  0.00     0.198 A 
ATOM     88  F   UNL A   1      43.910  26.263  35.181  1.00  0.00    -0.203 F 
ATOM     89  F   UNL A   1      48.168  29.641  34.700  1.00  0.00    -0.200 F 
ATOM     90  C   UNL A   1      47.141  27.793  35.751  1.00  0.00     0.200 A 
ATOM     91  F   UNL A   1      46.080  25.943  36.765  1.00  0.00    -0.200 F 
ATOM     92  F   UNL A   1      48.221  27.616  36.526  1.00  0.00    -0.200 F 
ENDBRANCH  59  82
ENDBRANCH  33  34
ENDBRANCH  25  28
ENDBRANCH  23  24
ENDBRANCH   1  23
TORSDOF 13
ENDMDL
MODEL 3
REMARK VINA RESULT:     -12.3      5.822     10.811
REMARK SMILES CC[C@@](C)(NC(=O)c1cccc(Br)c1C)C(=O)NCCCNC(=O)c1ccc(-c2c3nc(c(-c4c(F)c(F)c(F)c(F)c4F)c4ccc([nH]4)c(-c4c(F)c(F)c(F)c(F)c4F)c4nc(c(-c5c(F)c(F)c(F)c(F)c5F)c5ccc2[nH]5)C=C4)C=C3)cc1
REMARK SMILES IDX 20 1 19 2 18 3 16 4 17 5 3 7 4 8 2 9 1 10 5 11 6 12 7 14
REMARK SMILES IDX 8 15 9 16 14 17 10 18 12 19 15 20 11 21 13 22 21 23 22 24
REMARK SMILES IDX 23 25 24 27 25 28 26 29 87 30 27 31 86 32 28 33 29 34 30 35
REMARK SMILES IDX 80 36 31 37 85 38 79 39 81 40 32 41 84 42 78 43 77 44 33 46
REMARK SMILES IDX 65 47 45 48 64 49 46 50 49 51 63 52 82 53 47 54 48 55 62 57
REMARK SMILES IDX 83 58 50 59 34 60 35 61 43 62 36 63 37 64 41 65 44 66 38 67
REMARK SMILES IDX 39 68 42 69 40 70 66 71 67 72 75 73 68 74 69 75 73 76 76 77
REMARK SMILES IDX 70 78 71 79 74 80 72 81 51 82 52 83 60 84 53 85 54 86 58 87
REMARK SMILES IDX 61 88 55 89 56 90 59 91 57 92
REMARK H PARENT 18 6 5 13 22 26 81 45 49 56
REMARK Flexibility Score: inf
ROOT
ATOM      1  C   UNL A   1      37.786  19.897  25.001  1.00  0.00     0.042 C 
ENDROOT
BRANCH   1   2
ATOM      2  C   UNL A   1      36.682  20.984  24.762  1.00  0.00     0.117 C 
BRANCH   2   3
ATOM      3  N   UNL A   1      35.865  21.475  25.879  1.00  0.00    -0.354 N 
ATOM      4  C   UNL A   1      34.545  21.455  26.261  1.00  0.00     0.245 C 
ATOM      5  O   UNL A   1      34.398  21.606  27.485  1.00  0.00    -0.272 OA
ATOM      6  H   UNL A   1      36.418  21.949  26.541  1.00  0.00     0.163 HD
BRANCH   4   7
ATOM      7  C   UNL A   1      33.245  21.335  25.347  1.00  0.00     0.116 C 
ATOM      8  C   UNL A   1      33.554  21.815  23.916  1.00  0.00     0.045 C 
BRANCH   7   9
ATOM      9  C   UNL A   1      32.782  19.829  25.266  1.00  0.00     0.035 C 
ATOM     10  C   UNL A   1      33.575  18.880  24.371  1.00  0.00     0.007 C 
ENDBRANCH   7   9
BRANCH   7  11
ATOM     11  N   UNL A   1      32.012  22.085  25.793  1.00  0.00    -0.338 N 
ATOM     12  C   UNL A   1      31.887  23.388  26.257  1.00  0.00     0.252 C 
ATOM     13  H   UNL A   1      31.172  21.575  25.749  1.00  0.00     0.164 HD
ATOM     14  O   UNL A   1      31.200  23.602  27.253  1.00  0.00    -0.269 OA
BRANCH  12  15
ATOM     15  C   UNL A   1      32.484  24.532  25.523  1.00  0.00     0.043 A 
ATOM     16  C   UNL A   1      33.452  25.342  26.126  1.00  0.00     0.014 A 
ATOM     17  C   UNL A   1      31.927  24.961  24.319  1.00  0.00    -0.024 A 
ATOM     18  C   UNL A   1      33.976  26.444  25.443  1.00  0.00     0.002 A 
ATOM     19  C   UNL A   1      32.672  25.844  23.528  1.00  0.00     0.021 A 
ATOM     20  C   UNL A   1      30.440  24.781  24.178  1.00  0.00     0.046 C 
ATOM     21  C   UNL A   1      33.652  26.635  24.109  1.00  0.00     0.016 A 
ATOM     22  Br  UNL A   1      32.659  25.850  21.635  1.00  0.00    -0.051 Br
ENDBRANCH  12  15
ENDBRANCH   7  11
ENDBRANCH   4   7
ENDBRANCH   2   3
ENDBRANCH   1   2
BRANCH   1  23
ATOM     23  C   UNL A   1      39.097  20.202  25.749  1.00  0.00     0.118 C 
BRANCH  23  24
ATOM     24  N   UNL A   1      40.103  19.161  25.778  1.00  0.00    -0.352 N 
ATOM     25  C   UNL A   1      41.461  19.261  26.018  1.00  0.00     0.251 C 
ATOM     26  H   UNL A   1      39.771  18.250  25.602  1.00  0.00     0.163 HD
ATOM     27  O   UNL A   1      42.159  18.253  25.936  1.00  0.00    -0.269 OA
BRANCH  25  28
ATOM     28  C   UNL A   1      42.129  20.549  26.362  1.00  0.00     0.039 A 
ATOM     29  C   UNL A   1      42.155  20.948  27.705  1.00  0.00     0.014 A 
ATOM     30  C   UNL A   1      42.568  21.447  25.384  1.00  0.00     0.014 A 
ATOM     31  C   UNL A   1      42.636  22.218  28.072  1.00  0.00     0.010 A 
ATOM     32  C   UNL A   1      43.065  22.714  25.754  1.00  0.00     0.010 A 
ATOM     33  C   UNL A   1      43.095  23.122  27.101  1.00  0.00    -0.014 A 
BRANCH  33  34
ATOM     34  C   UNL A   1      43.547  24.499  27.483  1.00  0.00     0.031 A 
ATOM     35  C   UNL A   1      42.543  25.557  27.871  1.00  0.00     0.074 A 
ATOM     36  C   UNL A   1      44.856  24.823  27.471  1.00  0.00     0.049 A 
ATOM     37  N   UNL A   1      42.731  26.819  28.174  1.00  0.00    -0.248 NA
ATOM     38  C   UNL A   1      41.134  25.140  27.907  1.00  0.00     0.031 C 
ATOM     39  C   UNL A   1      45.945  23.917  27.110  1.00  0.00     0.029 A 
ATOM     40  N   UNL A   1      45.495  26.009  27.759  1.00  0.00    -0.354 N 
ATOM     41  C   UNL A   1      41.468  27.351  28.411  1.00  0.00     0.074 A 
ATOM     42  C   UNL A   1      40.519  26.281  28.186  1.00  0.00     0.031 C 
ATOM     43  C   UNL A   1      47.114  24.574  27.202  1.00  0.00     0.029 A 
ATOM     44  C   UNL A   1      46.860  25.957  27.603  1.00  0.00     0.049 A 
ATOM     45  H   UNL A   1      45.018  26.819  28.051  1.00  0.00     0.167 HD
ATOM     46  C   UNL A   1      41.126  28.607  28.796  1.00  0.00     0.037 A 
ATOM     47  C   UNL A   1      47.801  26.910  27.758  1.00  0.00     0.037 A 
ATOM     48  C   UNL A   1      42.065  29.669  29.059  1.00  0.00     0.049 A 
ATOM     49  C   UNL A   1      47.400  28.298  28.190  1.00  0.00     0.074 A 
ATOM     50  C   UNL A   1      41.812  30.958  29.499  1.00  0.00     0.029 A 
ATOM     51  N   UNL A   1      43.439  29.564  28.910  1.00  0.00    -0.354 N 
ATOM     52  N   UNL A   1      46.206  28.770  28.451  1.00  0.00    -0.248 NA
ATOM     53  C   UNL A   1      48.481  29.283  28.359  1.00  0.00     0.031 C 
ATOM     54  C   UNL A   1      43.029  31.643  29.584  1.00  0.00     0.029 A 
ATOM     55  C   UNL A   1      44.044  30.767  29.239  1.00  0.00     0.049 A 
ATOM     56  H   UNL A   1      43.915  28.754  28.615  1.00  0.00     0.167 HD
ATOM     57  C   UNL A   1      46.393  30.090  28.842  1.00  0.00     0.074 A 
ATOM     58  C   UNL A   1      47.816  30.344  28.796  1.00  0.00     0.031 C 
ATOM     59  C   UNL A   1      45.464  31.007  29.208  1.00  0.00     0.037 A 
BRANCH  46  60
ATOM     60  C   UNL A   1      39.662  28.911  28.956  1.00  0.00     0.064 A 
ATOM     61  C   UNL A   1      39.023  28.814  30.200  1.00  0.00     0.173 A 
ATOM     62  C   UNL A   1      38.898  29.339  27.859  1.00  0.00     0.173 A 
ATOM     63  F   UNL A   1      39.706  28.407  31.281  1.00  0.00    -0.203 F 
ATOM     64  C   UNL A   1      37.664  29.098  30.333  1.00  0.00     0.198 A 
ATOM     65  C   UNL A   1      37.549  29.650  28.001  1.00  0.00     0.198 A 
ATOM     66  F   UNL A   1      39.463  29.463  26.648  1.00  0.00    -0.203 F 
ATOM     67  F   UNL A   1      37.064  28.948  31.523  1.00  0.00    -0.200 F 
ATOM     68  C   UNL A   1      36.930  29.519  29.236  1.00  0.00     0.200 A 
ATOM     69  F   UNL A   1      36.843  30.074  26.943  1.00  0.00    -0.200 F 
ATOM     70  F   UNL A   1      35.625  29.794  29.366  1.00  0.00    -0.200 F 
ENDBRANCH  46  60
BRANCH  47  71
ATOM     71  C   UNL A   1      49.235  26.586  27.522  1.00  0.00     0.064 A 
ATOM     72  C   UNL A   1      50.112  26.378  28.595  1.00  0.00     0.173 A 
ATOM     73  C   UNL A   1      49.758  26.491  26.225  1.00  0.00     0.173 A 
ATOM     74  F   UNL A   1      49.666  26.486  29.855  1.00  0.00    -0.203 F 
ATOM     75  C   UNL A   1      51.462  26.102  28.380  1.00  0.00     0.198 A 
ATOM     76  C   UNL A   1      51.102  26.189  26.010  1.00  0.00     0.198 A 
ATOM     77  F   UNL A   1      48.962  26.685  25.162  1.00  0.00    -0.203 F 
ATOM     78  F   UNL A   1      52.287  25.951  29.425  1.00  0.00    -0.200 F 
ATOM     79  C   UNL A   1      51.954  26.001  27.088  1.00  0.00     0.200 A 
ATOM     80  F   UNL A   1      51.573  26.082  24.760  1.00  0.00    -0.200 F 
ATOM     81  F   UNL A   1      53.250  25.731  26.882  1.00  0.00    -0.200 F 
ENDBRANCH  47  71
BRANCH  59  82
ATOM     82  C   UNL A   1      45.955  32.361  29.633  1.00  0.00     0.064 A 
ATOM     83  C   UNL A   1      46.078  33.420  28.721  1.00  0.00     0.173 A 
ATOM     84  C   UNL A   1      46.257  32.616  30.979  1.00  0.00     0.173 A 
ATOM     85  F   UNL A   1      45.816  33.224  27.420  1.00  0.00    -0.203 F 
ATOM     86  C   UNL A   1      46.505  34.678  29.138  1.00  0.00     0.198 A 
ATOM     87  C   UNL A   1      46.658  33.882  31.398  1.00  0.00     0.198 A 
ATOM     88  F   UNL A   1      46.149  31.639  31.892  1.00  0.00    -0.203 F 
ATOM     89  F   UNL A   1      46.653  35.665  28.244  1.00  0.00    -0.200 F 
ATOM     90  C   UNL A   1      46.787  34.910  30.477  1.00  0.00     0.200 A 
ATOM     91  F   UNL A   1      46.919  34.107  32.693  1.00  0.00    -0.200 F 
ATOM     92  F   UNL A   1      47.188  36.124  30.877  1.00  0.00    -0.200 F 
ENDBRANCH  59  82
ENDBRANCH  33  34
ENDBRANCH  25  28
ENDBRANCH  23  24
ENDBRANCH   1  23
TORSDOF 13
ENDMDL
