MODEL 1
REMARK VINA RESULT:     -11.6      0.000      0.000
REMARK SMILES CC(C)Oc1ccc([C@H](O)[C@@H](F)C(=O)NCCCNC(=O)c2ccc(-c3c4nc(c(-c5c(F)c(F)c(F)c(F)c5F)c5ccc([nH]5)c(-c5c(F)c(F)c(F)c(F)c5F)c5nc(c(-c6c(F)c(F)c(F)c(F)c6F)c6ccc3[nH]6)C=C5)C=C4)cc2)cc1
REMARK SMILES IDX 16 1 15 2 13 3 14 4 11 6 12 7 9 8 8 9 5 10 6 11 86 12 7 13
REMARK SMILES IDX 85 14 4 15 2 16 1 17 3 18 10 19 17 21 18 22 19 23 20 24
REMARK SMILES IDX 21 26 22 27 23 28 84 29 24 30 83 31 25 32 26 33 27 34 77 35
REMARK SMILES IDX 28 36 82 37 76 38 78 39 29 40 81 41 75 42 74 43 30 45 62 46
REMARK SMILES IDX 42 47 61 48 43 49 46 50 60 51 79 52 44 53 45 54 59 56 80 57
REMARK SMILES IDX 47 58 31 59 32 60 40 61 33 62 34 63 38 64 41 65 35 66 36 67
REMARK SMILES IDX 39 68 37 69 63 70 64 71 72 72 65 73 66 74 70 75 73 76 67 77
REMARK SMILES IDX 68 78 71 79 69 80 48 81 49 82 57 83 50 84 51 85 55 86 58 87
REMARK SMILES IDX 52 88 53 89 56 90 54 91
REMARK H PARENT 15 5 10 20 19 25 78 44 46 55
REMARK Flexibility Score: inf
ROOT
ATOM      1  C   UNL A   1      31.554  30.847  26.021  1.00  0.00     0.117 C 
ENDROOT
BRANCH   1   2
ATOM      2  N   UNL A   1      31.625  29.814  27.037  1.00  0.00    -0.353 N 
ATOM      3  C   UNL A   1      31.697  28.459  26.908  1.00  0.00     0.257 C 
ATOM      4  O   UNL A   1      31.800  27.798  27.946  1.00  0.00    -0.272 OA
ATOM      5  H   UNL A   1      31.620  30.143  27.965  1.00  0.00     0.163 HD
BRANCH   3   6
ATOM      6  C   UNL A   1      31.660  27.781  25.542  1.00  0.00     0.288 C 
ATOM      7  F   UNL A   1      31.120  26.517  25.639  1.00  0.00    -0.234 F 
BRANCH   6   8
ATOM      8  C   UNL A   1      33.027  27.628  24.864  1.00  0.00     0.188 C 
BRANCH   8   9
ATOM      9  C   UNL A   1      33.606  26.248  24.629  1.00  0.00    -0.016 A 
ATOM     10  C   UNL A   1      34.652  23.704  24.011  1.00  0.00     0.119 A 
ATOM     11  C   UNL A   1      34.679  24.176  25.321  1.00  0.00     0.047 A 
ATOM     12  C   UNL A   1      34.065  24.469  23.014  1.00  0.00     0.047 A 
ATOM     13  C   UNL A   1      34.177  25.447  25.627  1.00  0.00     0.010 A 
ATOM     14  C   UNL A   1      33.562  25.735  23.319  1.00  0.00     0.010 A 
BRANCH  10  15
ATOM     15  O   UNL A   1      35.123  22.444  23.779  1.00  0.00    -0.491 OA
BRANCH  15  16
ATOM     16  C   UNL A   1      35.149  21.543  24.902  1.00  0.00     0.167 C 
ATOM     17  C   UNL A   1      33.943  20.607  24.936  1.00  0.00     0.052 C 
ATOM     18  C   UNL A   1      36.470  20.795  25.090  1.00  0.00     0.052 C 
ENDBRANCH  15  16
ENDBRANCH  10  15
ENDBRANCH   8   9
BRANCH   8  19
ATOM     19  O   UNL A   1      34.002  28.354  25.640  1.00  0.00    -0.385 OA
ATOM     20  H   UNL A   1      33.625  29.201  25.923  1.00  0.00     0.211 HD
ENDBRANCH   8  19
ENDBRANCH   6   8
ENDBRANCH   3   6
ENDBRANCH   1   2
BRANCH   1  21
ATOM     21  C   UNL A   1      31.326  32.229  26.630  1.00  0.00     0.042 C 
BRANCH  21  22
ATOM     22  C   UNL A   1      32.564  32.841  27.280  1.00  0.00     0.118 C 
BRANCH  22  23
ATOM     23  N   UNL A   1      32.371  34.232  27.666  1.00  0.00    -0.352 N 
ATOM     24  C   UNL A   1      32.992  34.979  28.631  1.00  0.00     0.251 C 
ATOM     25  H   UNL A   1      31.683  34.711  27.150  1.00  0.00     0.163 HD
ATOM     26  O   UNL A   1      32.546  36.091  28.920  1.00  0.00    -0.269 OA
BRANCH  24  27
ATOM     27  C   UNL A   1      34.178  34.463  29.347  1.00  0.00     0.039 A 
ATOM     28  C   UNL A   1      34.001  33.848  30.590  1.00  0.00     0.014 A 
ATOM     29  C   UNL A   1      35.463  34.608  28.817  1.00  0.00     0.014 A 
ATOM     30  C   UNL A   1      35.102  33.319  31.268  1.00  0.00     0.010 A 
ATOM     31  C   UNL A   1      36.548  34.014  29.457  1.00  0.00     0.010 A 
ATOM     32  C   UNL A   1      36.379  33.362  30.688  1.00  0.00    -0.014 A 
BRANCH  32  33
ATOM     33  C   UNL A   1      37.551  32.728  31.344  1.00  0.00     0.031 A 
ATOM     34  C   UNL A   1      38.269  31.591  30.675  1.00  0.00     0.074 A 
ATOM     35  C   UNL A   1      37.918  33.125  32.579  1.00  0.00     0.049 A 
ATOM     36  N   UNL A   1      39.239  30.838  31.131  1.00  0.00    -0.248 NA
ATOM     37  C   UNL A   1      37.820  31.233  29.320  1.00  0.00     0.031 C 
ATOM     38  C   UNL A   1      37.277  34.191  33.349  1.00  0.00     0.029 A 
ATOM     39  N   UNL A   1      38.907  32.663  33.412  1.00  0.00    -0.354 N 
ATOM     40  C   UNL A   1      39.502  29.911  30.131  1.00  0.00     0.074 A 
ATOM     41  C   UNL A   1      38.559  30.163  29.063  1.00  0.00     0.031 C 
ATOM     42  C   UNL A   1      37.896  34.311  34.534  1.00  0.00     0.029 A 
ATOM     43  C   UNL A   1      38.946  33.301  34.627  1.00  0.00     0.049 A 
ATOM     44  H   UNL A   1      39.530  31.942  33.161  1.00  0.00     0.167 HD
ATOM     45  C   UNL A   1      40.455  28.949  30.100  1.00  0.00     0.037 A 
ATOM     46  C   UNL A   1      39.727  33.085  35.703  1.00  0.00     0.037 A 
ATOM     47  C   UNL A   1      41.406  28.717  31.157  1.00  0.00     0.049 A 
ATOM     48  C   UNL A   1      40.766  31.997  35.650  1.00  0.00     0.074 A 
ATOM     49  C   UNL A   1      42.449  27.809  31.194  1.00  0.00     0.029 A 
ATOM     50  N   UNL A   1      41.424  29.396  32.367  1.00  0.00    -0.354 N 
ATOM     51  N   UNL A   1      41.048  31.169  34.674  1.00  0.00    -0.248 NA
ATOM     52  C   UNL A   1      41.597  31.814  36.849  1.00  0.00     0.031 C 
ATOM     53  C   UNL A   1      43.065  27.902  32.445  1.00  0.00     0.029 A 
ATOM     54  C   UNL A   1      42.444  28.908  33.167  1.00  0.00     0.049 A 
ATOM     55  H   UNL A   1      40.804  30.119  32.618  1.00  0.00     0.167 HD
ATOM     56  C   UNL A   1      42.106  30.392  35.125  1.00  0.00     0.074 A 
ATOM     57  C   UNL A   1      42.423  30.854  36.461  1.00  0.00     0.031 C 
ATOM     58  C   UNL A   1      42.757  29.386  34.490  1.00  0.00     0.037 A 
BRANCH  45  59
ATOM     59  C   UNL A   1      40.518  28.069  28.885  1.00  0.00     0.064 A 
ATOM     60  C   UNL A   1      39.789  26.874  28.801  1.00  0.00     0.173 A 
ATOM     61  C   UNL A   1      41.285  28.448  27.771  1.00  0.00     0.173 A 
ATOM     62  F   UNL A   1      39.047  26.462  29.841  1.00  0.00    -0.203 F 
ATOM     63  C   UNL A   1      39.847  26.076  27.661  1.00  0.00     0.198 A 
ATOM     64  C   UNL A   1      41.316  27.664  26.622  1.00  0.00     0.198 A 
ATOM     65  F   UNL A   1      41.996  29.585  27.794  1.00  0.00    -0.203 F 
ATOM     66  F   UNL A   1      39.181  24.914  27.624  1.00  0.00    -0.200 F 
ATOM     67  C   UNL A   1      40.604  26.475  26.570  1.00  0.00     0.200 A 
ATOM     68  F   UNL A   1      42.034  28.059  25.561  1.00  0.00    -0.200 F 
ATOM     69  F   UNL A   1      40.652  25.711  25.470  1.00  0.00    -0.200 F 
ENDBRANCH  45  59
BRANCH  46  70
ATOM     70  C   UNL A   1      39.564  33.923  36.919  1.00  0.00     0.064 A 
ATOM     71  C   UNL A   1      40.207  35.164  37.029  1.00  0.00     0.173 A 
ATOM     72  C   UNL A   1      38.770  33.504  37.996  1.00  0.00     0.173 A 
ATOM     73  F   UNL A   1      40.994  35.600  36.034  1.00  0.00    -0.203 F 
ATOM     74  C   UNL A   1      40.080  35.943  38.177  1.00  0.00     0.198 A 
ATOM     75  C   UNL A   1      38.617  34.298  39.131  1.00  0.00     0.198 A 
ATOM     76  F   UNL A   1      38.128  32.329  37.940  1.00  0.00    -0.203 F 
ATOM     77  F   UNL A   1      40.743  37.104  38.274  1.00  0.00    -0.200 F 
ATOM     78  C   UNL A   1      39.280  35.514  39.225  1.00  0.00     0.200 A 
ATOM     79  F   UNL A   1      37.830  33.886  40.134  1.00  0.00    -0.200 F 
ATOM     80  F   UNL A   1      39.153  36.265  40.326  1.00  0.00    -0.200 F 
ENDBRANCH  46  70
BRANCH  58  81
ATOM     81  C   UNL A   1      43.906  28.741  35.208  1.00  0.00     0.064 A 
ATOM     82  C   UNL A   1      43.720  27.653  36.073  1.00  0.00     0.173 A 
ATOM     83  C   UNL A   1      45.219  29.186  34.985  1.00  0.00     0.173 A 
ATOM     84  F   UNL A   1      42.484  27.201  36.333  1.00  0.00    -0.203 F 
ATOM     85  C   UNL A   1      44.804  27.047  36.703  1.00  0.00     0.198 A 
ATOM     86  C   UNL A   1      46.302  28.557  35.591  1.00  0.00     0.198 A 
ATOM     87  F   UNL A   1      45.452  30.219  34.162  1.00  0.00    -0.203 F 
ATOM     88  F   UNL A   1      44.599  26.035  37.559  1.00  0.00    -0.200 F 
ATOM     89  C   UNL A   1      46.094  27.492  36.454  1.00  0.00     0.200 A 
ATOM     90  F   UNL A   1      47.549  28.979  35.337  1.00  0.00    -0.200 F 
ATOM     91  F   UNL A   1      47.137  26.897  37.050  1.00  0.00    -0.200 F 
ENDBRANCH  58  81
ENDBRANCH  32  33
ENDBRANCH  24  27
ENDBRANCH  22  23
ENDBRANCH  21  22
ENDBRANCH   1  21
TORSDOF 15
ENDMDL
MODEL 2
REMARK VINA RESULT:     -11.4      5.610     11.277
REMARK SMILES CC(C)Oc1ccc([C@H](O)[C@@H](F)C(=O)NCCCNC(=O)c2ccc(-c3c4nc(c(-c5c(F)c(F)c(F)c(F)c5F)c5ccc([nH]5)c(-c5c(F)c(F)c(F)c(F)c5F)c5nc(c(-c6c(F)c(F)c(F)c(F)c6F)c6ccc3[nH]6)C=C5)C=C4)cc2)cc1
REMARK SMILES IDX 16 1 15 2 13 3 14 4 11 6 12 7 9 8 8 9 5 10 6 11 86 12 7 13
REMARK SMILES IDX 85 14 4 15 2 16 1 17 3 18 10 19 17 21 18 22 19 23 20 24
REMARK SMILES IDX 21 26 22 27 23 28 84 29 24 30 83 31 25 32 26 33 27 34 77 35
REMARK SMILES IDX 28 36 82 37 76 38 78 39 29 40 81 41 75 42 74 43 30 45 62 46
REMARK SMILES IDX 42 47 61 48 43 49 46 50 60 51 79 52 44 53 45 54 59 56 80 57
REMARK SMILES IDX 47 58 31 59 32 60 40 61 33 62 34 63 38 64 41 65 35 66 36 67
REMARK SMILES IDX 39 68 37 69 63 70 64 71 72 72 65 73 66 74 70 75 73 76 67 77
REMARK SMILES IDX 68 78 71 79 69 80 48 81 49 82 57 83 50 84 51 85 55 86 58 87
REMARK SMILES IDX 52 88 53 89 56 90 54 91
REMARK H PARENT 15 5 10 20 19 25 78 44 46 55
REMARK Flexibility Score: inf
ROOT
ATOM      1  C   UNL A   1      36.598  20.787  24.922  1.00  0.00     0.117 C 
ENDROOT
BRANCH   1   2
ATOM      2  N   UNL A   1      35.316  20.120  25.046  1.00  0.00    -0.353 N 
ATOM      3  C   UNL A   1      34.203  20.480  25.746  1.00  0.00     0.257 C 
ATOM      4  O   UNL A   1      33.212  19.751  25.642  1.00  0.00    -0.272 OA
ATOM      5  H   UNL A   1      35.238  19.275  24.547  1.00  0.00     0.163 HD
BRANCH   3   6
ATOM      6  C   UNL A   1      34.174  21.732  26.616  1.00  0.00     0.288 C 
ATOM      7  F   UNL A   1      34.429  21.417  27.933  1.00  0.00    -0.234 F 
BRANCH   6   8
ATOM      8  C   UNL A   1      32.845  22.498  26.594  1.00  0.00     0.188 C 
BRANCH   8   9
ATOM      9  C   UNL A   1      32.833  23.985  26.308  1.00  0.00    -0.016 A 
ATOM     10  C   UNL A   1      32.980  26.737  25.708  1.00  0.00     0.119 A 
ATOM     11  C   UNL A   1      31.807  26.191  26.221  1.00  0.00     0.047 A 
ATOM     12  C   UNL A   1      34.098  25.932  25.537  1.00  0.00     0.047 A 
ATOM     13  C   UNL A   1      31.725  24.821  26.502  1.00  0.00     0.010 A 
ATOM     14  C   UNL A   1      34.018  24.567  25.819  1.00  0.00     0.010 A 
BRANCH  10  15
ATOM     15  O   UNL A   1      33.013  28.083  25.487  1.00  0.00    -0.491 OA
BRANCH  15  16
ATOM     16  C   UNL A   1      31.800  28.814  25.751  1.00  0.00     0.167 C 
ATOM     17  C   UNL A   1      31.978  29.880  26.831  1.00  0.00     0.052 C 
ATOM     18  C   UNL A   1      31.100  29.359  24.506  1.00  0.00     0.052 C 
ENDBRANCH  15  16
ENDBRANCH  10  15
ENDBRANCH   8   9
BRANCH   8  19
ATOM     19  O   UNL A   1      32.197  22.321  27.870  1.00  0.00    -0.385 OA
ATOM     20  H   UNL A   1      32.051  21.375  28.030  1.00  0.00     0.211 HD
ENDBRANCH   8  19
ENDBRANCH   6   8
ENDBRANCH   3   6
ENDBRANCH   1   2
BRANCH   1  21
ATOM     21  C   UNL A   1      37.759  19.796  24.939  1.00  0.00     0.042 C 
BRANCH  21  22
ATOM     22  C   UNL A   1      38.955  20.244  25.775  1.00  0.00     0.118 C 
BRANCH  22  23
ATOM     23  N   UNL A   1      39.994  19.227  25.866  1.00  0.00    -0.352 N 
ATOM     24  C   UNL A   1      41.345  19.353  26.054  1.00  0.00     0.251 C 
ATOM     25  H   UNL A   1      39.673  18.300  25.777  1.00  0.00     0.163 HD
ATOM     26  O   UNL A   1      42.072  18.368  25.914  1.00  0.00    -0.269 OA
BRANCH  24  27
ATOM     27  C   UNL A   1      41.946  20.657  26.404  1.00  0.00     0.039 A 
ATOM     28  C   UNL A   1      42.266  21.549  25.377  1.00  0.00     0.014 A 
ATOM     29  C   UNL A   1      42.223  20.994  27.732  1.00  0.00     0.014 A 
ATOM     30  C   UNL A   1      42.799  22.803  25.684  1.00  0.00     0.010 A 
ATOM     31  C   UNL A   1      42.684  22.270  28.042  1.00  0.00     0.010 A 
ATOM     32  C   UNL A   1      42.975  23.190  27.022  1.00  0.00    -0.014 A 
BRANCH  32  33
ATOM     33  C   UNL A   1      43.455  24.549  27.380  1.00  0.00     0.031 A 
ATOM     34  C   UNL A   1      42.496  25.573  27.918  1.00  0.00     0.074 A 
ATOM     35  C   UNL A   1      44.739  24.884  27.147  1.00  0.00     0.049 A 
ATOM     36  N   UNL A   1      42.697  26.839  28.184  1.00  0.00    -0.248 NA
ATOM     37  C   UNL A   1      41.117  25.120  28.163  1.00  0.00     0.031 C 
ATOM     38  C   UNL A   1      45.759  23.992  26.594  1.00  0.00     0.029 A 
ATOM     39  N   UNL A   1      45.402  26.073  27.326  1.00  0.00    -0.354 N 
ATOM     40  C   UNL A   1      41.471  27.336  28.609  1.00  0.00     0.074 A 
ATOM     41  C   UNL A   1      40.521  26.249  28.521  1.00  0.00     0.031 C 
ATOM     42  C   UNL A   1      46.919  24.659  26.492  1.00  0.00     0.029 A 
ATOM     43  C   UNL A   1      46.715  26.038  26.927  1.00  0.00     0.049 A 
ATOM     44  H   UNL A   1      44.975  26.876  27.706  1.00  0.00     0.167 HD
ATOM     45  C   UNL A   1      41.172  28.581  29.051  1.00  0.00     0.037 A 
ATOM     46  C   UNL A   1      47.647  27.010  26.897  1.00  0.00     0.037 A 
ATOM     47  C   UNL A   1      42.127  29.653  29.158  1.00  0.00     0.049 A 
ATOM     48  C   UNL A   1      47.283  28.391  27.375  1.00  0.00     0.074 A 
ATOM     49  C   UNL A   1      41.937  30.932  29.652  1.00  0.00     0.029 A 
ATOM     50  N   UNL A   1      43.454  29.573  28.760  1.00  0.00    -0.354 N 
ATOM     51  N   UNL A   1      46.138  28.832  27.836  1.00  0.00    -0.248 NA
ATOM     52  C   UNL A   1      48.342  29.409  27.331  1.00  0.00     0.031 C 
ATOM     53  C   UNL A   1      43.132  31.641  29.503  1.00  0.00     0.029 A 
ATOM     54  C   UNL A   1      44.085  30.788  28.971  1.00  0.00     0.049 A 
ATOM     55  H   UNL A   1      43.883  28.771  28.383  1.00  0.00     0.167 HD
ATOM     56  C   UNL A   1      46.346  30.164  28.166  1.00  0.00     0.074 A 
ATOM     57  C   UNL A   1      47.732  30.458  27.862  1.00  0.00     0.031 C 
ATOM     58  C   UNL A   1      45.469  31.062  28.676  1.00  0.00     0.037 A 
BRANCH  45  59
ATOM     59  C   UNL A   1      39.751  28.856  29.450  1.00  0.00     0.064 A 
ATOM     60  C   UNL A   1      38.808  29.343  28.532  1.00  0.00     0.173 A 
ATOM     61  C   UNL A   1      39.314  28.588  30.757  1.00  0.00     0.173 A 
ATOM     62  F   UNL A   1      39.176  29.623  27.272  1.00  0.00    -0.203 F 
ATOM     63  C   UNL A   1      37.490  29.579  28.915  1.00  0.00     0.198 A 
ATOM     64  C   UNL A   1      37.988  28.796  31.127  1.00  0.00     0.198 A 
ATOM     65  F   UNL A   1      40.171  28.114  31.674  1.00  0.00    -0.203 F 
ATOM     66  F   UNL A   1      36.620  30.092  28.033  1.00  0.00    -0.200 F 
ATOM     67  C   UNL A   1      37.080  29.299  30.209  1.00  0.00     0.200 A 
ATOM     68  F   UNL A   1      37.589  28.508  32.374  1.00  0.00    -0.200 F 
ATOM     69  F   UNL A   1      35.808  29.518  30.573  1.00  0.00    -0.200 F 
ENDBRANCH  45  59
BRANCH  46  70
ATOM     70  C   UNL A   1      49.017  26.711  26.406  1.00  0.00     0.064 A 
ATOM     71  C   UNL A   1      49.995  26.199  27.270  1.00  0.00     0.173 A 
ATOM     72  C   UNL A   1      49.381  26.933  25.070  1.00  0.00     0.173 A 
ATOM     73  F   UNL A   1      49.703  25.988  28.562  1.00  0.00    -0.203 F 
ATOM     74  C   UNL A   1      51.289  25.941  26.823  1.00  0.00     0.198 A 
ATOM     75  C   UNL A   1      50.666  26.645  24.615  1.00  0.00     0.198 A 
ATOM     76  F   UNL A   1      48.482  27.416  24.200  1.00  0.00    -0.203 F 
ATOM     77  F   UNL A   1      52.217  25.496  27.681  1.00  0.00    -0.200 F 
ATOM     78  C   UNL A   1      51.622  26.158  25.494  1.00  0.00     0.200 A 
ATOM     79  F   UNL A   1      50.978  26.842  23.327  1.00  0.00    -0.200 F 
ATOM     80  F   UNL A   1      52.864  25.905  25.063  1.00  0.00    -0.200 F 
ENDBRANCH  46  70
BRANCH  58  81
ATOM     81  C   UNL A   1      45.984  32.439  28.980  1.00  0.00     0.064 A 
ATOM     82  C   UNL A   1      45.855  33.495  28.067  1.00  0.00     0.173 A 
ATOM     83  C   UNL A   1      46.569  32.716  30.227  1.00  0.00     0.173 A 
ATOM     84  F   UNL A   1      45.319  33.279  26.856  1.00  0.00    -0.203 F 
ATOM     85  C   UNL A   1      46.308  34.773  28.383  1.00  0.00     0.198 A 
ATOM     86  C   UNL A   1      46.991  34.001  30.551  1.00  0.00     0.198 A 
ATOM     87  F   UNL A   1      46.710  31.742  31.138  1.00  0.00    -0.203 F 
ATOM     88  F   UNL A   1      46.213  35.758  27.478  1.00  0.00    -0.200 F 
ATOM     89  C   UNL A   1      46.867  35.028  29.627  1.00  0.00     0.200 A 
ATOM     90  F   UNL A   1      47.516  34.248  31.759  1.00  0.00    -0.200 F 
ATOM     91  F   UNL A   1      47.289  36.262  29.934  1.00  0.00    -0.200 F 
ENDBRANCH  58  81
ENDBRANCH  32  33
ENDBRANCH  24  27
ENDBRANCH  22  23
ENDBRANCH  21  22
ENDBRANCH   1  21
TORSDOF 15
ENDMDL
MODEL 3
REMARK VINA RESULT:     -11.4      1.696      3.753
REMARK SMILES CC(C)Oc1ccc([C@H](O)[C@@H](F)C(=O)NCCCNC(=O)c2ccc(-c3c4nc(c(-c5c(F)c(F)c(F)c(F)c5F)c5ccc([nH]5)c(-c5c(F)c(F)c(F)c(F)c5F)c5nc(c(-c6c(F)c(F)c(F)c(F)c6F)c6ccc3[nH]6)C=C5)C=C4)cc2)cc1
REMARK SMILES IDX 16 1 15 2 13 3 14 4 11 6 12 7 9 8 8 9 5 10 6 11 86 12 7 13
REMARK SMILES IDX 85 14 4 15 2 16 1 17 3 18 10 19 17 21 18 22 19 23 20 24
REMARK SMILES IDX 21 26 22 27 23 28 84 29 24 30 83 31 25 32 26 33 27 34 77 35
REMARK SMILES IDX 28 36 82 37 76 38 78 39 29 40 81 41 75 42 74 43 30 45 62 46
REMARK SMILES IDX 42 47 61 48 43 49 46 50 60 51 79 52 44 53 45 54 59 56 80 57
REMARK SMILES IDX 47 58 31 59 32 60 40 61 33 62 34 63 38 64 41 65 35 66 36 67
REMARK SMILES IDX 39 68 37 69 63 70 64 71 72 72 65 73 66 74 70 75 73 76 67 77
REMARK SMILES IDX 68 78 71 79 69 80 48 81 49 82 57 83 50 84 51 85 55 86 58 87
REMARK SMILES IDX 52 88 53 89 56 90 54 91
REMARK H PARENT 15 5 10 20 19 25 78 44 46 55
REMARK Flexibility Score: inf
ROOT
ATOM      1  C   UNL A   1      31.534  30.714  26.208  1.00  0.00     0.117 C 
ENDROOT
BRANCH   1   2
ATOM      2  N   UNL A   1      32.870  30.226  26.498  1.00  0.00    -0.353 N 
ATOM      3  C   UNL A   1      33.368  28.959  26.466  1.00  0.00     0.257 C 
ATOM      4  O   UNL A   1      34.570  28.818  26.711  1.00  0.00    -0.272 OA
ATOM      5  H   UNL A   1      33.517  30.921  26.759  1.00  0.00     0.163 HD
BRANCH   3   6
ATOM      6  C   UNL A   1      32.486  27.759  26.135  1.00  0.00     0.288 C 
ATOM      7  F   UNL A   1      32.944  26.626  26.772  1.00  0.00    -0.234 F 
BRANCH   6   8
ATOM      8  C   UNL A   1      32.396  27.421  24.642  1.00  0.00     0.188 C 
BRANCH   8   9
ATOM      9  C   UNL A   1      31.335  28.075  23.780  1.00  0.00    -0.016 A 
ATOM     10  C   UNL A   1      29.234  29.199  22.272  1.00  0.00     0.119 A 
ATOM     11  C   UNL A   1      30.550  29.597  22.051  1.00  0.00     0.047 A 
ATOM     12  C   UNL A   1      28.961  28.209  23.206  1.00  0.00     0.047 A 
ATOM     13  C   UNL A   1      31.593  29.054  22.812  1.00  0.00     0.010 A 
ATOM     14  C   UNL A   1      30.000  27.665  23.963  1.00  0.00     0.010 A 
BRANCH  10  15
ATOM     15  O   UNL A   1      28.263  29.735  21.477  1.00  0.00    -0.491 OA
BRANCH  15  16
ATOM     16  C   UNL A   1      27.688  30.984  21.907  1.00  0.00     0.167 C 
ATOM     17  C   UNL A   1      27.811  31.201  23.414  1.00  0.00     0.052 C 
ATOM     18  C   UNL A   1      28.141  32.205  21.106  1.00  0.00     0.052 C 
ENDBRANCH  15  16
ENDBRANCH  10  15
ENDBRANCH   8   9
BRANCH   8  19
ATOM     19  O   UNL A   1      32.211  25.997  24.508  1.00  0.00    -0.385 OA
ATOM     20  H   UNL A   1      31.428  25.822  23.963  1.00  0.00     0.211 HD
ENDBRANCH   8  19
ENDBRANCH   6   8
ENDBRANCH   3   6
ENDBRANCH   1   2
BRANCH   1  21
ATOM     21  C   UNL A   1      31.385  32.196  26.539  1.00  0.00     0.042 C 
BRANCH  21  22
ATOM     22  C   UNL A   1      32.614  32.821  27.195  1.00  0.00     0.118 C 
BRANCH  22  23
ATOM     23  N   UNL A   1      32.391  34.197  27.617  1.00  0.00    -0.352 N 
ATOM     24  C   UNL A   1      32.994  34.930  28.605  1.00  0.00     0.251 C 
ATOM     25  H   UNL A   1      31.696  34.677  27.111  1.00  0.00     0.163 HD
ATOM     26  O   UNL A   1      32.525  36.026  28.920  1.00  0.00    -0.269 OA
BRANCH  24  27
ATOM     27  C   UNL A   1      34.186  34.419  29.312  1.00  0.00     0.039 A 
ATOM     28  C   UNL A   1      34.016  33.768  30.538  1.00  0.00     0.014 A 
ATOM     29  C   UNL A   1      35.471  34.603  28.793  1.00  0.00     0.014 A 
ATOM     30  C   UNL A   1      35.124  33.242  31.207  1.00  0.00     0.010 A 
ATOM     31  C   UNL A   1      36.564  34.014  29.421  1.00  0.00     0.010 A 
ATOM     32  C   UNL A   1      36.403  33.326  30.635  1.00  0.00    -0.014 A 
BRANCH  32  33
ATOM     33  C   UNL A   1      37.584  32.697  31.279  1.00  0.00     0.031 A 
ATOM     34  C   UNL A   1      38.296  31.557  30.607  1.00  0.00     0.074 A 
ATOM     35  C   UNL A   1      37.966  33.102  32.507  1.00  0.00     0.049 A 
ATOM     36  N   UNL A   1      39.273  30.809  31.055  1.00  0.00    -0.248 NA
ATOM     37  C   UNL A   1      37.830  31.191  29.260  1.00  0.00     0.031 C 
ATOM     38  C   UNL A   1      37.334  34.171  33.279  1.00  0.00     0.029 A 
ATOM     39  N   UNL A   1      38.967  32.646  33.329  1.00  0.00    -0.354 N 
ATOM     40  C   UNL A   1      39.524  29.876  30.057  1.00  0.00     0.074 A 
ATOM     41  C   UNL A   1      38.568  30.121  29.000  1.00  0.00     0.031 C 
ATOM     42  C   UNL A   1      37.968  34.299  34.455  1.00  0.00     0.029 A 
ATOM     43  C   UNL A   1      39.020  33.291  34.541  1.00  0.00     0.049 A 
ATOM     44  H   UNL A   1      39.588  31.925  33.074  1.00  0.00     0.167 HD
ATOM     45  C   UNL A   1      40.479  28.917  30.020  1.00  0.00     0.037 A 
ATOM     46  C   UNL A   1      39.815  33.083  35.608  1.00  0.00     0.037 A 
ATOM     47  C   UNL A   1      41.443  28.692  31.065  1.00  0.00     0.049 A 
ATOM     48  C   UNL A   1      40.856  31.996  35.548  1.00  0.00     0.074 A 
ATOM     49  C   UNL A   1      42.488  27.785  31.095  1.00  0.00     0.029 A 
ATOM     50  N   UNL A   1      41.476  29.378  32.271  1.00  0.00    -0.354 N 
ATOM     51  N   UNL A   1      41.127  31.163  34.572  1.00  0.00    -0.248 NA
ATOM     52  C   UNL A   1      41.702  31.821  36.736  1.00  0.00     0.031 C 
ATOM     53  C   UNL A   1      43.120  27.887  32.337  1.00  0.00     0.029 A 
ATOM     54  C   UNL A   1      42.507  28.896  33.061  1.00  0.00     0.049 A 
ATOM     55  H   UNL A   1      40.858  30.101  32.526  1.00  0.00     0.167 HD
ATOM     56  C   UNL A   1      42.191  30.390  35.015  1.00  0.00     0.074 A 
ATOM     57  C   UNL A   1      42.525  30.861  36.344  1.00  0.00     0.031 C 
ATOM     58  C   UNL A   1      42.836  29.382  34.377  1.00  0.00     0.037 A 
BRANCH  45  59
ATOM     59  C   UNL A   1      40.528  28.029  28.809  1.00  0.00     0.064 A 
ATOM     60  C   UNL A   1      41.300  28.359  27.684  1.00  0.00     0.173 A 
ATOM     61  C   UNL A   1      39.830  26.812  28.789  1.00  0.00     0.173 A 
ATOM     62  F   UNL A   1      41.981  29.515  27.648  1.00  0.00    -0.203 F 
ATOM     63  C   UNL A   1      41.346  27.518  26.575  1.00  0.00     0.198 A 
ATOM     64  C   UNL A   1      39.904  25.960  27.691  1.00  0.00     0.198 A 
ATOM     65  F   UNL A   1      39.082  26.444  29.841  1.00  0.00    -0.203 F 
ATOM     66  F   UNL A   1      42.050  27.878  25.493  1.00  0.00    -0.200 F 
ATOM     67  C   UNL A   1      40.654  26.317  26.582  1.00  0.00     0.200 A 
ATOM     68  F   UNL A   1      39.248  24.790  27.706  1.00  0.00    -0.200 F 
ATOM     69  F   UNL A   1      40.708  25.504  25.517  1.00  0.00    -0.200 F 
ENDBRANCH  45  59
BRANCH  46  70
ATOM     70  C   UNL A   1      39.667  33.928  36.821  1.00  0.00     0.064 A 
ATOM     71  C   UNL A   1      38.872  33.510  37.897  1.00  0.00     0.173 A 
ATOM     72  C   UNL A   1      40.308  35.171  36.930  1.00  0.00     0.173 A 
ATOM     73  F   UNL A   1      38.221  32.338  37.832  1.00  0.00    -0.203 F 
ATOM     74  C   UNL A   1      38.707  34.309  39.026  1.00  0.00     0.198 A 
ATOM     75  C   UNL A   1      40.169  35.956  38.073  1.00  0.00     0.198 A 
ATOM     76  F   UNL A   1      41.085  35.616  35.932  1.00  0.00    -0.203 F 
ATOM     77  F   UNL A   1      37.905  33.905  40.020  1.00  0.00    -0.200 F 
ATOM     78  C   UNL A   1      39.361  35.528  39.116  1.00  0.00     0.200 A 
ATOM     79  F   UNL A   1      40.815  37.126  38.162  1.00  0.00    -0.200 F 
ATOM     80  F   UNL A   1      39.207  36.295  40.203  1.00  0.00    -0.200 F 
ENDBRANCH  46  70
BRANCH  58  81
ATOM     81  C   UNL A   1      43.995  28.744  35.084  1.00  0.00     0.064 A 
ATOM     82  C   UNL A   1      45.304  29.227  34.942  1.00  0.00     0.173 A 
ATOM     83  C   UNL A   1      43.784  27.665  35.958  1.00  0.00     0.173 A 
ATOM     84  F   UNL A   1      45.561  30.244  34.107  1.00  0.00    -0.203 F 
ATOM     85  C   UNL A   1      46.361  28.642  35.634  1.00  0.00     0.198 A 
ATOM     86  C   UNL A   1      44.838  27.104  36.673  1.00  0.00     0.198 A 
ATOM     87  F   UNL A   1      42.551  27.169  36.134  1.00  0.00    -0.203 F 
ATOM     88  F   UNL A   1      47.611  29.092  35.451  1.00  0.00    -0.200 F 
ATOM     89  C   UNL A   1      46.127  27.588  36.506  1.00  0.00     0.200 A 
ATOM     90  F   UNL A   1      44.607  26.096  37.525  1.00  0.00    -0.200 F 
ATOM     91  F   UNL A   1      47.144  27.036  37.182  1.00  0.00    -0.200 F 
ENDBRANCH  58  81
ENDBRANCH  32  33
ENDBRANCH  24  27
ENDBRANCH  22  23
ENDBRANCH  21  22
ENDBRANCH   1  21
TORSDOF 15
ENDMDL
