MODEL 1
REMARK VINA RESULT:     -13.2      0.000      0.000
REMARK SMILES N#C/C(=C\c1cn(CC(=O)NCCCNC(=O)c2ccc(-c3c4nc(c(-c5c(F)c(F)c(F)c(F)c5F)c5ccc([nH]5)c(-c5c(F)c(F)c(F)c(F)c5F)c5nc(c(-c6c(F)c(F)c(F)c(F)c6F)c6ccc3[nH]6)C=C5)C=C4)cc2)c2ccccc12)C(=O)N1CCCC[C@@H]1C#N
REMARK SMILES IDX 9 1 10 2 11 3 8 5 7 6 5 7 6 8 86 9 81 10 85 11 82 12 84 13
REMARK SMILES IDX 83 14 4 15 3 16 2 17 1 18 87 19 88 20 89 21 90 22 94 23
REMARK SMILES IDX 91 24 93 25 92 26 95 27 96 28 12 29 13 30 14 31 15 32 16 33
REMARK SMILES IDX 17 35 18 36 19 37 80 38 20 39 79 40 21 41 22 42 23 43 73 44
REMARK SMILES IDX 24 45 78 46 72 47 74 48 25 49 77 50 71 51 70 52 26 54 58 55
REMARK SMILES IDX 38 56 57 57 39 58 42 59 56 60 75 61 40 62 41 63 55 65 76 66
REMARK SMILES IDX 43 67 27 68 28 69 36 70 29 71 30 72 34 73 37 74 31 75 32 76
REMARK SMILES IDX 35 77 33 78 59 79 60 80 68 81 61 82 62 83 66 84 69 85 63 86
REMARK SMILES IDX 64 87 67 88 65 89 44 90 45 91 53 92 46 93 47 94 51 95 54 96
REMARK SMILES IDX 48 97 49 98 52 99 50 100
REMARK H PARENT 11 4 15 34 74 53 42 64
REMARK Flexibility Score: inf
ROOT
ATOM      1  C   UNL A   1      38.737  22.099  26.084  1.00  0.00     0.239 C 
ATOM      2  O   UNL A   1      38.370  23.209  26.476  1.00  0.00    -0.273 OA
ATOM      3  N   UNL A   1      39.858  21.563  26.645  1.00  0.00    -0.354 N 
ATOM      4  H   UNL A   1      40.284  22.126  27.333  1.00  0.00     0.163 HD
ENDROOT
BRANCH   1   5
ATOM      5  C   UNL A   1      37.926  21.325  25.067  1.00  0.00     0.222 C 
BRANCH   5   6
ATOM      6  N   UNL A   1      36.494  21.555  25.169  1.00  0.00    -0.337 N 
ATOM      7  C   UNL A   1      34.583  22.584  25.638  1.00  0.00     0.002 A 
ATOM      8  C   UNL A   1      35.934  22.775  25.460  1.00  0.00     0.095 A 
ATOM      9  C   UNL A   1      34.283  21.248  25.224  1.00  0.00     0.007 A 
ATOM     10  C   UNL A   1      35.507  20.606  25.000  1.00  0.00     0.049 A 
ATOM     11  C   UNL A   1      33.098  20.494  25.055  1.00  0.00     0.011 A 
ATOM     12  C   UNL A   1      35.587  19.237  24.695  1.00  0.00     0.027 A 
ATOM     13  C   UNL A   1      33.169  19.127  24.774  1.00  0.00     0.001 A 
ATOM     14  C   UNL A   1      34.400  18.506  24.610  1.00  0.00     0.002 A 
BRANCH   7  15
ATOM     15  C   UNL A   1      33.738  23.620  26.153  1.00  0.00     0.035 C 
ATOM     16  C   UNL A   1      33.045  24.554  25.462  1.00  0.00     0.118 C 
BRANCH  16  17
ATOM     17  C   UNL A   1      32.995  24.324  23.960  1.00  0.00     0.105 C 
ATOM     18  N   UNL A   1      32.954  24.132  22.714  1.00  0.00    -0.192 NA
ENDBRANCH  16  17
BRANCH  16  19
ATOM     19  C   UNL A   1      32.171  25.546  26.138  1.00  0.00     0.265 C 
ATOM     20  O   UNL A   1      31.283  25.129  26.880  1.00  0.00    -0.268 OA
BRANCH  19  21
ATOM     21  N   UNL A   1      32.441  26.910  26.013  1.00  0.00    -0.322 N 
ATOM     22  C   UNL A   1      31.350  27.830  26.320  1.00  0.00     0.121 C 
ATOM     23  C   UNL A   1      33.720  27.575  25.625  1.00  0.00     0.189 C 
ATOM     24  C   UNL A   1      31.778  28.687  27.505  1.00  0.00     0.022 C 
ATOM     25  C   UNL A   1      34.168  28.575  26.721  1.00  0.00     0.041 C 
ATOM     26  C   UNL A   1      33.035  29.488  27.190  1.00  0.00     0.005 C 
BRANCH  23  27
ATOM     27  C   UNL A   1      33.609  28.289  24.330  1.00  0.00     0.087 C 
ATOM     28  N   UNL A   1      33.568  28.851  23.307  1.00  0.00    -0.196 NA
ENDBRANCH  23  27
ENDBRANCH  19  21
ENDBRANCH  16  19
ENDBRANCH   7  15
ENDBRANCH   5   6
ENDBRANCH   1   5
BRANCH   3  29
ATOM     29  C   UNL A   1      40.526  20.298  26.393  1.00  0.00     0.117 C 
BRANCH  29  30
ATOM     30  C   UNL A   1      42.051  20.405  26.506  1.00  0.00     0.042 C 
BRANCH  30  31
ATOM     31  C   UNL A   1      42.783  19.118  26.117  1.00  0.00     0.118 C 
BRANCH  31  32
ATOM     32  N   UNL A   1      43.680  19.285  24.988  1.00  0.00    -0.352 N 
ATOM     33  C   UNL A   1      44.512  20.265  24.533  1.00  0.00     0.251 C 
ATOM     34  H   UNL A   1      43.690  18.492  24.405  1.00  0.00     0.163 HD
ATOM     35  O   UNL A   1      45.204  19.964  23.557  1.00  0.00    -0.269 OA
BRANCH  33  36
ATOM     36  C   UNL A   1      44.583  21.656  25.046  1.00  0.00     0.039 A 
ATOM     37  C   UNL A   1      45.351  22.089  26.126  1.00  0.00     0.014 A 
ATOM     38  C   UNL A   1      43.688  22.566  24.444  1.00  0.00     0.014 A 
ATOM     39  C   UNL A   1      45.104  23.335  26.691  1.00  0.00     0.010 A 
ATOM     40  C   UNL A   1      43.458  23.819  24.988  1.00  0.00     0.010 A 
ATOM     41  C   UNL A   1      44.102  24.161  26.167  1.00  0.00    -0.014 A 
BRANCH  41  42
ATOM     42  C   UNL A   1      43.791  25.401  26.872  1.00  0.00     0.031 A 
ATOM     43  C   UNL A   1      44.776  26.487  26.624  1.00  0.00     0.074 A 
ATOM     44  C   UNL A   1      42.696  25.554  27.648  1.00  0.00     0.049 A 
ATOM     45  N   UNL A   1      45.598  27.014  27.471  1.00  0.00    -0.248 NA
ATOM     46  C   UNL A   1      44.979  26.941  25.239  1.00  0.00     0.031 C 
ATOM     47  C   UNL A   1      41.533  24.664  27.762  1.00  0.00     0.029 A 
ATOM     48  N   UNL A   1      42.355  26.593  28.467  1.00  0.00    -0.354 N 
ATOM     49  C   UNL A   1      46.310  27.985  26.769  1.00  0.00     0.074 A 
ATOM     50  C   UNL A   1      45.982  27.810  25.379  1.00  0.00     0.031 C 
ATOM     51  C   UNL A   1      40.528  25.308  28.402  1.00  0.00     0.029 A 
ATOM     52  C   UNL A   1      41.028  26.580  28.890  1.00  0.00     0.049 A 
ATOM     53  H   UNL A   1      42.993  27.292  28.735  1.00  0.00     0.167 HD
ATOM     54  C   UNL A   1      46.927  29.008  27.425  1.00  0.00     0.037 A 
ATOM     55  C   UNL A   1      40.392  27.571  29.562  1.00  0.00     0.037 A 
ATOM     56  C   UNL A   1      47.041  28.724  28.830  1.00  0.00     0.049 A 
ATOM     57  C   UNL A   1      41.430  28.397  30.215  1.00  0.00     0.074 A 
ATOM     58  C   UNL A   1      47.878  27.999  29.647  1.00  0.00     0.029 A 
ATOM     59  N   UNL A   1      45.882  28.945  29.520  1.00  0.00    -0.354 N 
ATOM     60  N   UNL A   1      42.181  27.965  31.189  1.00  0.00    -0.248 NA
ATOM     61  C   UNL A   1      41.894  29.612  29.556  1.00  0.00     0.031 C 
ATOM     62  C   UNL A   1      47.095  27.628  30.787  1.00  0.00     0.029 A 
ATOM     63  C   UNL A   1      45.826  28.184  30.653  1.00  0.00     0.049 A 
ATOM     64  H   UNL A   1      45.178  29.572  29.237  1.00  0.00     0.167 HD
ATOM     65  C   UNL A   1      43.398  28.583  30.976  1.00  0.00     0.074 A 
ATOM     66  C   UNL A   1      43.117  29.700  30.085  1.00  0.00     0.031 C 
ATOM     67  C   UNL A   1      44.559  27.940  31.289  1.00  0.00     0.037 A 
BRANCH  54  68
ATOM     68  C   UNL A   1      46.972  30.431  26.920  1.00  0.00     0.064 A 
ATOM     69  C   UNL A   1      48.175  31.163  26.991  1.00  0.00     0.173 A 
ATOM     70  C   UNL A   1      45.811  31.197  26.676  1.00  0.00     0.173 A 
ATOM     71  F   UNL A   1      49.334  30.546  27.267  1.00  0.00    -0.203 F 
ATOM     72  C   UNL A   1      48.203  32.557  26.864  1.00  0.00     0.198 A 
ATOM     73  C   UNL A   1      45.848  32.579  26.501  1.00  0.00     0.198 A 
ATOM     74  F   UNL A   1      44.587  30.656  26.716  1.00  0.00    -0.203 F 
ATOM     75  F   UNL A   1      49.353  33.223  27.041  1.00  0.00    -0.200 F 
ATOM     76  C   UNL A   1      47.039  33.264  26.618  1.00  0.00     0.200 A 
ATOM     77  F   UNL A   1      44.703  33.249  26.301  1.00  0.00    -0.200 F 
ATOM     78  F   UNL A   1      47.053  34.601  26.545  1.00  0.00    -0.200 F 
ENDBRANCH  54  68
BRANCH  55  79
ATOM     79  C   UNL A   1      39.009  28.078  29.391  1.00  0.00     0.064 A 
ATOM     80  C   UNL A   1      38.188  28.331  30.506  1.00  0.00     0.173 A 
ATOM     81  C   UNL A   1      38.608  28.652  28.172  1.00  0.00     0.173 A 
ATOM     82  F   UNL A   1      38.521  27.848  31.711  1.00  0.00    -0.203 F 
ATOM     83  C   UNL A   1      37.063  29.158  30.415  1.00  0.00     0.198 A 
ATOM     84  C   UNL A   1      37.486  29.479  28.083  1.00  0.00     0.198 A 
ATOM     85  F   UNL A   1      39.362  28.513  27.072  1.00  0.00    -0.203 F 
ATOM     86  F   UNL A   1      36.348  29.442  31.512  1.00  0.00    -0.200 F 
ATOM     87  C   UNL A   1      36.726  29.748  29.207  1.00  0.00     0.200 A 
ATOM     88  F   UNL A   1      37.194  30.078  26.920  1.00  0.00    -0.200 F 
ATOM     89  F   UNL A   1      35.701  30.609  29.136  1.00  0.00    -0.200 F 
ENDBRANCH  55  79
BRANCH  67  90
ATOM     90  C   UNL A   1      44.438  26.839  32.285  1.00  0.00     0.064 A 
ATOM     91  C   UNL A   1      44.377  25.475  31.957  1.00  0.00     0.173 A 
ATOM     92  C   UNL A   1      44.332  27.197  33.633  1.00  0.00     0.173 A 
ATOM     93  F   UNL A   1      44.585  25.057  30.702  1.00  0.00    -0.203 F 
ATOM     94  C   UNL A   1      44.104  24.523  32.934  1.00  0.00     0.198 A 
ATOM     95  C   UNL A   1      44.094  26.242  34.609  1.00  0.00     0.198 A 
ATOM     96  F   UNL A   1      44.460  28.481  34.001  1.00  0.00    -0.203 F 
ATOM     97  F   UNL A   1      44.034  23.222  32.613  1.00  0.00    -0.200 F 
ATOM     98  C   UNL A   1      43.929  24.915  34.253  1.00  0.00     0.200 A 
ATOM     99  F   UNL A   1      44.032  26.603  35.898  1.00  0.00    -0.200 F 
ATOM    100  F   UNL A   1      43.649  24.004  35.194  1.00  0.00    -0.200 F 
ENDBRANCH  67  90
ENDBRANCH  41  42
ENDBRANCH  33  36
ENDBRANCH  31  32
ENDBRANCH  30  31
ENDBRANCH  29  30
ENDBRANCH   3  29
TORSDOF 16
ENDMDL
MODEL 2
REMARK VINA RESULT:     -12.7      2.685      3.929
REMARK SMILES N#C/C(=C\c1cn(CC(=O)NCCCNC(=O)c2ccc(-c3c4nc(c(-c5c(F)c(F)c(F)c(F)c5F)c5ccc([nH]5)c(-c5c(F)c(F)c(F)c(F)c5F)c5nc(c(-c6c(F)c(F)c(F)c(F)c6F)c6ccc3[nH]6)C=C5)C=C4)cc2)c2ccccc12)C(=O)N1CCCC[C@@H]1C#N
REMARK SMILES IDX 9 1 10 2 11 3 8 5 7 6 5 7 6 8 86 9 81 10 85 11 82 12 84 13
REMARK SMILES IDX 83 14 4 15 3 16 2 17 1 18 87 19 88 20 89 21 90 22 94 23
REMARK SMILES IDX 91 24 93 25 92 26 95 27 96 28 12 29 13 30 14 31 15 32 16 33
REMARK SMILES IDX 17 35 18 36 19 37 80 38 20 39 79 40 21 41 22 42 23 43 73 44
REMARK SMILES IDX 24 45 78 46 72 47 74 48 25 49 77 50 71 51 70 52 26 54 58 55
REMARK SMILES IDX 38 56 57 57 39 58 42 59 56 60 75 61 40 62 41 63 55 65 76 66
REMARK SMILES IDX 43 67 27 68 28 69 36 70 29 71 30 72 34 73 37 74 31 75 32 76
REMARK SMILES IDX 35 77 33 78 59 79 60 80 68 81 61 82 62 83 66 84 69 85 63 86
REMARK SMILES IDX 64 87 67 88 65 89 44 90 45 91 53 92 46 93 47 94 51 95 54 96
REMARK SMILES IDX 48 97 49 98 52 99 50 100
REMARK H PARENT 11 4 15 34 74 53 42 64
REMARK Flexibility Score: inf
ROOT
ATOM      1  C   UNL A   1      37.610  22.811  25.558  1.00  0.00     0.239 C 
ATOM      2  O   UNL A   1      37.356  23.847  26.177  1.00  0.00    -0.273 OA
ATOM      3  N   UNL A   1      38.426  21.896  26.155  1.00  0.00    -0.354 N 
ATOM      4  H   UNL A   1      38.746  22.151  27.052  1.00  0.00     0.163 HD
ENDROOT
BRANCH   1   5
ATOM      5  C   UNL A   1      36.976  22.532  24.213  1.00  0.00     0.222 C 
BRANCH   5   6
ATOM      6  N   UNL A   1      35.524  22.626  24.224  1.00  0.00    -0.337 N 
ATOM      7  C   UNL A   1      33.502  23.541  24.255  1.00  0.00     0.002 A 
ATOM      8  C   UNL A   1      34.832  23.792  24.007  1.00  0.00     0.095 A 
ATOM      9  C   UNL A   1      33.356  22.126  24.411  1.00  0.00     0.007 A 
ATOM     10  C   UNL A   1      34.648  21.587  24.454  1.00  0.00     0.049 A 
ATOM     11  C   UNL A   1      32.262  21.243  24.566  1.00  0.00     0.011 A 
ATOM     12  C   UNL A   1      34.879  20.226  24.722  1.00  0.00     0.027 A 
ATOM     13  C   UNL A   1      32.484  19.894  24.854  1.00  0.00     0.001 A 
ATOM     14  C   UNL A   1      33.778  19.397  24.944  1.00  0.00     0.002 A 
BRANCH   7  15
ATOM     15  C   UNL A   1      32.536  24.598  24.319  1.00  0.00     0.035 C 
ATOM     16  C   UNL A   1      31.620  24.835  25.286  1.00  0.00     0.118 C 
BRANCH  16  17
ATOM     17  C   UNL A   1      31.799  24.005  26.546  1.00  0.00     0.105 C 
ATOM     18  N   UNL A   1      31.948  23.316  27.592  1.00  0.00    -0.192 NA
ENDBRANCH  16  17
BRANCH  16  19
ATOM     19  C   UNL A   1      30.706  26.004  25.233  1.00  0.00     0.265 C 
ATOM     20  O   UNL A   1      29.563  25.870  25.666  1.00  0.00    -0.268 OA
BRANCH  19  21
ATOM     21  N   UNL A   1      31.186  27.244  24.807  1.00  0.00    -0.322 N 
ATOM     22  C   UNL A   1      31.935  28.032  25.781  1.00  0.00     0.121 C 
ATOM     23  C   UNL A   1      31.062  27.879  23.461  1.00  0.00     0.189 C 
ATOM     24  C   UNL A   1      33.351  28.216  25.248  1.00  0.00     0.022 C 
ATOM     25  C   UNL A   1      32.461  28.228  22.892  1.00  0.00     0.041 C 
ATOM     26  C   UNL A   1      33.353  28.941  23.908  1.00  0.00     0.005 C 
BRANCH  23  27
ATOM     27  C   UNL A   1      30.231  29.106  23.497  1.00  0.00     0.087 C 
ATOM     28  N   UNL A   1      29.595  30.084  23.565  1.00  0.00    -0.196 NA
ENDBRANCH  23  27
ENDBRANCH  19  21
ENDBRANCH  16  19
ENDBRANCH   7  15
ENDBRANCH   5   6
ENDBRANCH   1   5
BRANCH   3  29
ATOM     29  C   UNL A   1      38.900  20.607  25.684  1.00  0.00     0.117 C 
BRANCH  29  30
ATOM     30  C   UNL A   1      40.198  20.169  26.371  1.00  0.00     0.042 C 
BRANCH  30  31
ATOM     31  C   UNL A   1      40.908  21.304  27.113  1.00  0.00     0.118 C 
BRANCH  31  32
ATOM     32  N   UNL A   1      41.902  21.987  26.305  1.00  0.00    -0.352 N 
ATOM     33  C   UNL A   1      42.380  23.261  26.207  1.00  0.00     0.251 C 
ATOM     34  H   UNL A   1      42.340  21.378  25.668  1.00  0.00     0.163 HD
ATOM     35  O   UNL A   1      43.333  23.413  25.438  1.00  0.00    -0.269 OA
BRANCH  33  36
ATOM     36  C   UNL A   1      41.803  24.461  26.864  1.00  0.00     0.039 A 
ATOM     37  C   UNL A   1      40.833  25.300  26.320  1.00  0.00     0.014 A 
ATOM     38  C   UNL A   1      42.402  24.823  28.090  1.00  0.00     0.014 A 
ATOM     39  C   UNL A   1      40.597  26.544  26.896  1.00  0.00     0.010 A 
ATOM     40  C   UNL A   1      42.151  26.050  28.681  1.00  0.00     0.010 A 
ATOM     41  C   UNL A   1      41.316  26.944  28.028  1.00  0.00    -0.014 A 
BRANCH  41  42
ATOM     42  C   UNL A   1      41.129  28.306  28.519  1.00  0.00     0.031 A 
ATOM     43  C   UNL A   1      42.186  29.250  28.068  1.00  0.00     0.074 A 
ATOM     44  C   UNL A   1      40.077  28.678  29.282  1.00  0.00     0.049 A 
ATOM     45  N   UNL A   1      43.076  29.841  28.795  1.00  0.00    -0.248 NA
ATOM     46  C   UNL A   1      42.375  29.447  26.622  1.00  0.00     0.031 C 
ATOM     47  C   UNL A   1      38.853  27.919  29.571  1.00  0.00     0.029 A 
ATOM     48  N   UNL A   1      39.848  29.864  29.920  1.00  0.00    -0.354 N 
ATOM     49  C   UNL A   1      43.837  30.618  27.923  1.00  0.00     0.074 A 
ATOM     50  C   UNL A   1      43.446  30.241  26.591  1.00  0.00     0.031 C 
ATOM     51  C   UNL A   1      37.925  28.743  30.114  1.00  0.00     0.029 A 
ATOM     52  C   UNL A   1      38.540  30.033  30.368  1.00  0.00     0.049 A 
ATOM     53  H   UNL A   1      40.548  30.542  30.051  1.00  0.00     0.167 HD
ATOM     54  C   UNL A   1      44.555  31.681  28.382  1.00  0.00     0.037 A 
ATOM     55  C   UNL A   1      38.008  31.172  30.875  1.00  0.00     0.037 A 
ATOM     56  C   UNL A   1      44.696  31.629  29.811  1.00  0.00     0.049 A 
ATOM     57  C   UNL A   1      39.130  32.006  31.355  1.00  0.00     0.074 A 
ATOM     58  C   UNL A   1      45.502  30.984  30.722  1.00  0.00     0.029 A 
ATOM     59  N   UNL A   1      43.584  32.057  30.480  1.00  0.00    -0.354 N 
ATOM     60  N   UNL A   1      39.880  31.683  32.371  1.00  0.00    -0.248 NA
ATOM     61  C   UNL A   1      39.664  33.050  30.489  1.00  0.00     0.031 C 
ATOM     62  C   UNL A   1      44.735  30.876  31.925  1.00  0.00     0.029 A 
ATOM     63  C   UNL A   1      43.509  31.505  31.727  1.00  0.00     0.049 A 
ATOM     64  H   UNL A   1      42.922  32.684  30.110  1.00  0.00     0.167 HD
ATOM     65  C   UNL A   1      41.133  32.153  32.030  1.00  0.00     0.074 A 
ATOM     66  C   UNL A   1      40.908  33.124  30.969  1.00  0.00     0.031 C 
ATOM     67  C   UNL A   1      42.250  31.477  32.423  1.00  0.00     0.037 A 
BRANCH  54  68
ATOM     68  C   UNL A   1      44.693  32.991  27.641  1.00  0.00     0.064 A 
ATOM     69  C   UNL A   1      45.901  33.301  26.983  1.00  0.00     0.173 A 
ATOM     70  C   UNL A   1      43.811  34.078  27.831  1.00  0.00     0.173 A 
ATOM     71  F   UNL A   1      46.836  32.357  26.793  1.00  0.00    -0.203 F 
ATOM     72  C   UNL A   1      46.212  34.606  26.581  1.00  0.00     0.198 A 
ATOM     73  C   UNL A   1      44.102  35.366  27.386  1.00  0.00     0.198 A 
ATOM     74  F   UNL A   1      42.692  33.960  28.556  1.00  0.00    -0.203 F 
ATOM     75  F   UNL A   1      47.414  34.874  26.052  1.00  0.00    -0.200 F 
ATOM     76  C   UNL A   1      45.312  35.636  26.782  1.00  0.00     0.200 A 
ATOM     77  F   UNL A   1      43.231  36.358  27.623  1.00  0.00    -0.200 F 
ATOM     78  F   UNL A   1      45.625  36.894  26.443  1.00  0.00    -0.200 F 
ENDBRANCH  54  68
BRANCH  55  79
ATOM     79  C   UNL A   1      36.664  31.756  30.651  1.00  0.00     0.064 A 
ATOM     80  C   UNL A   1      35.816  32.057  31.733  1.00  0.00     0.173 A 
ATOM     81  C   UNL A   1      36.344  32.350  29.417  1.00  0.00     0.173 A 
ATOM     82  F   UNL A   1      36.073  31.557  32.950  1.00  0.00    -0.203 F 
ATOM     83  C   UNL A   1      34.744  32.947  31.598  1.00  0.00     0.198 A 
ATOM     84  C   UNL A   1      35.275  33.240  29.286  1.00  0.00     0.198 A 
ATOM     85  F   UNL A   1      37.131  32.167  28.347  1.00  0.00    -0.203 F 
ATOM     86  F   UNL A   1      34.004  33.272  32.668  1.00  0.00    -0.200 F 
ATOM     87  C   UNL A   1      34.488  33.553  30.379  1.00  0.00     0.200 A 
ATOM     88  F   UNL A   1      35.062  33.852  28.112  1.00  0.00    -0.200 F 
ATOM     89  F   UNL A   1      33.517  34.471  30.269  1.00  0.00    -0.200 F 
ENDBRANCH  55  79
BRANCH  67  90
ATOM     90  C   UNL A   1      42.079  30.573  33.594  1.00  0.00     0.064 A 
ATOM     91  C   UNL A   1      42.170  30.983  34.934  1.00  0.00     0.173 A 
ATOM     92  C   UNL A   1      41.856  29.217  33.335  1.00  0.00     0.173 A 
ATOM     93  F   UNL A   1      42.268  32.280  35.253  1.00  0.00    -0.203 F 
ATOM     94  C   UNL A   1      42.155  30.048  35.964  1.00  0.00     0.198 A 
ATOM     95  C   UNL A   1      41.807  28.291  34.366  1.00  0.00     0.198 A 
ATOM     96  F   UNL A   1      41.686  28.791  32.074  1.00  0.00    -0.203 F 
ATOM     97  F   UNL A   1      42.256  30.445  37.241  1.00  0.00    -0.200 F 
ATOM     98  C   UNL A   1      42.007  28.701  35.672  1.00  0.00     0.200 A 
ATOM     99  F   UNL A   1      41.557  27.003  34.097  1.00  0.00    -0.200 F 
ATOM    100  F   UNL A   1      42.010  27.795  36.660  1.00  0.00    -0.200 F 
ENDBRANCH  67  90
ENDBRANCH  41  42
ENDBRANCH  33  36
ENDBRANCH  31  32
ENDBRANCH  30  31
ENDBRANCH  29  30
ENDBRANCH   3  29
TORSDOF 16
ENDMDL
MODEL 3
REMARK VINA RESULT:     -12.6      2.844      8.967
REMARK SMILES N#C/C(=C\c1cn(CC(=O)NCCCNC(=O)c2ccc(-c3c4nc(c(-c5c(F)c(F)c(F)c(F)c5F)c5ccc([nH]5)c(-c5c(F)c(F)c(F)c(F)c5F)c5nc(c(-c6c(F)c(F)c(F)c(F)c6F)c6ccc3[nH]6)C=C5)C=C4)cc2)c2ccccc12)C(=O)N1CCCC[C@@H]1C#N
REMARK SMILES IDX 9 1 10 2 11 3 8 5 7 6 5 7 6 8 86 9 81 10 85 11 82 12 84 13
REMARK SMILES IDX 83 14 4 15 3 16 2 17 1 18 87 19 88 20 89 21 90 22 94 23
REMARK SMILES IDX 91 24 93 25 92 26 95 27 96 28 12 29 13 30 14 31 15 32 16 33
REMARK SMILES IDX 17 35 18 36 19 37 80 38 20 39 79 40 21 41 22 42 23 43 73 44
REMARK SMILES IDX 24 45 78 46 72 47 74 48 25 49 77 50 71 51 70 52 26 54 58 55
REMARK SMILES IDX 38 56 57 57 39 58 42 59 56 60 75 61 40 62 41 63 55 65 76 66
REMARK SMILES IDX 43 67 27 68 28 69 36 70 29 71 30 72 34 73 37 74 31 75 32 76
REMARK SMILES IDX 35 77 33 78 59 79 60 80 68 81 61 82 62 83 66 84 69 85 63 86
REMARK SMILES IDX 64 87 67 88 65 89 44 90 45 91 53 92 46 93 47 94 51 95 54 96
REMARK SMILES IDX 48 97 49 98 52 99 50 100
REMARK H PARENT 11 4 15 34 74 53 42 64
REMARK Flexibility Score: inf
ROOT
ATOM      1  C   UNL A   1      34.190  30.047  27.201  1.00  0.00     0.239 C 
ATOM      2  O   UNL A   1      35.078  29.259  26.868  1.00  0.00    -0.273 OA
ATOM      3  N   UNL A   1      34.562  31.306  27.569  1.00  0.00    -0.354 N 
ATOM      4  H   UNL A   1      35.531  31.478  27.533  1.00  0.00     0.163 HD
ENDROOT
BRANCH   1   5
ATOM      5  C   UNL A   1      32.731  29.652  27.132  1.00  0.00     0.222 C 
BRANCH   5   6
ATOM      6  N   UNL A   1      32.501  28.400  26.428  1.00  0.00    -0.337 N 
ATOM      7  C   UNL A   1      32.730  26.267  25.854  1.00  0.00     0.002 A 
ATOM      8  C   UNL A   1      33.005  27.189  26.837  1.00  0.00     0.095 A 
ATOM      9  C   UNL A   1      31.839  26.890  24.922  1.00  0.00     0.007 A 
ATOM     10  C   UNL A   1      31.768  28.244  25.270  1.00  0.00     0.049 A 
ATOM     11  C   UNL A   1      31.115  26.457  23.787  1.00  0.00     0.011 A 
ATOM     12  C   UNL A   1      31.071  29.180  24.487  1.00  0.00     0.027 A 
ATOM     13  C   UNL A   1      30.438  27.385  22.990  1.00  0.00     0.001 A 
ATOM     14  C   UNL A   1      30.430  28.731  23.331  1.00  0.00     0.002 A 
BRANCH   7  15
ATOM     15  C   UNL A   1      33.297  24.952  25.875  1.00  0.00     0.035 C 
ATOM     16  C   UNL A   1      32.747  23.813  26.355  1.00  0.00     0.118 C 
BRANCH  16  17
ATOM     17  C   UNL A   1      31.272  23.920  26.706  1.00  0.00     0.105 C 
ATOM     18  N   UNL A   1      30.048  24.009  26.997  1.00  0.00    -0.192 NA
ENDBRANCH  16  17
BRANCH  16  19
ATOM     19  C   UNL A   1      33.446  22.505  26.269  1.00  0.00     0.265 C 
ATOM     20  O   UNL A   1      33.062  21.591  26.997  1.00  0.00    -0.268 OA
BRANCH  19  21
ATOM     21  N   UNL A   1      34.432  22.306  25.301  1.00  0.00    -0.322 N 
ATOM     22  C   UNL A   1      33.978  22.109  23.928  1.00  0.00     0.121 C 
ATOM     23  C   UNL A   1      35.915  22.290  25.471  1.00  0.00     0.189 C 
ATOM     24  C   UNL A   1      34.531  23.251  23.083  1.00  0.00     0.022 C 
ATOM     25  C   UNL A   1      36.581  23.337  24.543  1.00  0.00     0.041 C 
ATOM     26  C   UNL A   1      36.055  23.278  23.109  1.00  0.00     0.005 C 
BRANCH  23  27
ATOM     27  C   UNL A   1      36.495  20.954  25.194  1.00  0.00     0.087 C 
ATOM     28  N   UNL A   1      36.927  19.884  25.010  1.00  0.00    -0.196 NA
ENDBRANCH  23  27
ENDBRANCH  19  21
ENDBRANCH  16  19
ENDBRANCH   7  15
ENDBRANCH   5   6
ENDBRANCH   1   5
BRANCH   3  29
ATOM     29  C   UNL A   1      33.759  32.436  28.006  1.00  0.00     0.117 C 
BRANCH  29  30
ATOM     30  C   UNL A   1      34.494  33.773  27.858  1.00  0.00     0.042 C 
BRANCH  30  31
ATOM     31  C   UNL A   1      35.552  34.010  28.938  1.00  0.00     0.118 C 
BRANCH  31  32
ATOM     32  N   UNL A   1      35.237  33.370  30.202  1.00  0.00    -0.352 N 
ATOM     33  C   UNL A   1      35.750  32.342  30.936  1.00  0.00     0.251 C 
ATOM     34  H   UNL A   1      34.457  33.782  30.639  1.00  0.00     0.163 HD
ATOM     35  O   UNL A   1      35.237  32.173  32.046  1.00  0.00    -0.269 OA
BRANCH  33  36
ATOM     36  C   UNL A   1      36.784  31.378  30.482  1.00  0.00     0.039 A 
ATOM     37  C   UNL A   1      36.583  30.020  30.242  1.00  0.00     0.014 A 
ATOM     38  C   UNL A   1      38.098  31.890  30.418  1.00  0.00     0.014 A 
ATOM     39  C   UNL A   1      37.679  29.173  30.115  1.00  0.00     0.010 A 
ATOM     40  C   UNL A   1      39.192  31.054  30.266  1.00  0.00     0.010 A 
ATOM     41  C   UNL A   1      38.979  29.685  30.208  1.00  0.00    -0.014 A 
BRANCH  41  42
ATOM     42  C   UNL A   1      40.093  28.742  30.199  1.00  0.00     0.031 A 
ATOM     43  C   UNL A   1      40.666  28.488  31.548  1.00  0.00     0.074 A 
ATOM     44  C   UNL A   1      40.538  28.136  29.076  1.00  0.00     0.049 A 
ATOM     45  N   UNL A   1      41.839  28.815  31.980  1.00  0.00    -0.248 NA
ATOM     46  C   UNL A   1      39.782  27.938  32.588  1.00  0.00     0.031 C 
ATOM     47  C   UNL A   1      39.904  28.101  27.752  1.00  0.00     0.029 A 
ATOM     48  N   UNL A   1      41.643  27.351  28.896  1.00  0.00    -0.354 N 
ATOM     49  C   UNL A   1      41.907  28.365  33.297  1.00  0.00     0.074 A 
ATOM     50  C   UNL A   1      40.578  27.951  33.659  1.00  0.00     0.031 C 
ATOM     51  C   UNL A   1      40.497  27.153  26.988  1.00  0.00     0.029 A 
ATOM     52  C   UNL A   1      41.653  26.638  27.700  1.00  0.00     0.049 A 
ATOM     53  H   UNL A   1      42.369  27.295  29.557  1.00  0.00     0.167 HD
ATOM     54  C   UNL A   1      43.110  28.150  33.899  1.00  0.00     0.037 A 
ATOM     55  C   UNL A   1      42.535  25.669  27.353  1.00  0.00     0.037 A 
ATOM     56  C   UNL A   1      44.174  28.775  33.162  1.00  0.00     0.049 A 
ATOM     57  C   UNL A   1      43.747  25.862  28.178  1.00  0.00     0.074 A 
ATOM     58  C   UNL A   1      44.717  30.035  33.046  1.00  0.00     0.029 A 
ATOM     59  N   UNL A   1      44.565  28.058  32.066  1.00  0.00    -0.354 N 
ATOM     60  N   UNL A   1      44.541  26.889  28.057  1.00  0.00    -0.248 NA
ATOM     61  C   UNL A   1      43.907  25.087  29.402  1.00  0.00     0.031 C 
ATOM     62  C   UNL A   1      45.289  30.101  31.736  1.00  0.00     0.029 A 
ATOM     63  C   UNL A   1      45.126  28.865  31.117  1.00  0.00     0.049 A 
ATOM     64  H   UNL A   1      44.455  27.085  31.971  1.00  0.00     0.167 HD
ATOM     65  C   UNL A   1      44.974  27.135  29.345  1.00  0.00     0.074 A 
ATOM     66  C   UNL A   1      44.703  25.913  30.087  1.00  0.00     0.031 C 
ATOM     67  C   UNL A   1      45.216  28.413  29.755  1.00  0.00     0.037 A 
BRANCH  54  68
ATOM     68  C   UNL A   1      43.394  26.997  34.834  1.00  0.00     0.064 A 
ATOM     69  C   UNL A   1      43.699  27.249  36.187  1.00  0.00     0.173 A 
ATOM     70  C   UNL A   1      43.696  25.695  34.377  1.00  0.00     0.173 A 
ATOM     71  F   UNL A   1      43.500  28.466  36.716  1.00  0.00    -0.203 F 
ATOM     72  C   UNL A   1      44.293  26.280  37.006  1.00  0.00     0.198 A 
ATOM     73  C   UNL A   1      44.243  24.718  35.207  1.00  0.00     0.198 A 
ATOM     74  F   UNL A   1      43.585  25.356  33.087  1.00  0.00    -0.203 F 
ATOM     75  F   UNL A   1      44.660  26.595  38.256  1.00  0.00    -0.200 F 
ATOM     76  C   UNL A   1      44.563  25.016  36.515  1.00  0.00     0.200 A 
ATOM     77  F   UNL A   1      44.531  23.510  34.702  1.00  0.00    -0.200 F 
ATOM     78  F   UNL A   1      45.176  24.103  37.280  1.00  0.00    -0.200 F 
ENDBRANCH  54  68
BRANCH  55  79
ATOM     79  C   UNL A   1      42.289  24.389  26.646  1.00  0.00     0.064 A 
ATOM     80  C   UNL A   1      43.177  23.926  25.658  1.00  0.00     0.173 A 
ATOM     81  C   UNL A   1      41.389  23.447  27.176  1.00  0.00     0.173 A 
ATOM     82  F   UNL A   1      44.088  24.754  25.128  1.00  0.00    -0.203 F 
ATOM     83  C   UNL A   1      43.200  22.582  25.265  1.00  0.00     0.198 A 
ATOM     84  C   UNL A   1      41.415  22.107  26.784  1.00  0.00     0.198 A 
ATOM     85  F   UNL A   1      40.549  23.786  28.163  1.00  0.00    -0.203 F 
ATOM     86  F   UNL A   1      44.111  22.158  24.379  1.00  0.00    -0.200 F 
ATOM     87  C   UNL A   1      42.332  21.671  25.845  1.00  0.00     0.200 A 
ATOM     88  F   UNL A   1      40.600  21.226  27.381  1.00  0.00    -0.200 F 
ATOM     89  F   UNL A   1      42.410  20.369  25.535  1.00  0.00    -0.200 F 
ENDBRANCH  55  79
BRANCH  67  90
ATOM     90  C   UNL A   1      45.481  29.399  28.670  1.00  0.00     0.064 A 
ATOM     91  C   UNL A   1      46.736  29.607  28.075  1.00  0.00     0.173 A 
ATOM     92  C   UNL A   1      44.413  30.199  28.251  1.00  0.00     0.173 A 
ATOM     93  F   UNL A   1      47.771  28.802  28.348  1.00  0.00    -0.203 F 
ATOM     94  C   UNL A   1      46.932  30.656  27.182  1.00  0.00     0.198 A 
ATOM     95  C   UNL A   1      44.604  31.221  27.334  1.00  0.00     0.198 A 
ATOM     96  F   UNL A   1      43.180  29.985  28.735  1.00  0.00    -0.203 F 
ATOM     97  F   UNL A   1      48.136  30.858  26.627  1.00  0.00    -0.200 F 
ATOM     98  C   UNL A   1      45.870  31.481  26.841  1.00  0.00     0.200 A 
ATOM     99  F   UNL A   1      43.560  31.952  26.919  1.00  0.00    -0.200 F 
ATOM    100  F   UNL A   1      46.058  32.503  25.994  1.00  0.00    -0.200 F 
ENDBRANCH  67  90
ENDBRANCH  41  42
ENDBRANCH  33  36
ENDBRANCH  31  32
ENDBRANCH  30  31
ENDBRANCH  29  30
ENDBRANCH   3  29
TORSDOF 16
ENDMDL
