MODEL 1
REMARK VINA RESULT:     -12.8      0.000      0.000
REMARK SMILES CC(=O)NS(=O)(=O)c1ccc(-c2ccn(C(F)F)c(=O)c2)cc1C(=O)NCCCNC(=O)c1ccc(-c2c3nc(c(-c4c(F)c(F)c(F)c(F)c4F)c4ccc([nH]4)c(-c4c(F)c(F)c(F)c(F)c4F)c4nc(c(-c5c(F)c(F)c(F)c(F)c5F)c5ccc2[nH]5)C=C4)C=C3)cc1
REMARK SMILES IDX 28 1 27 2 26 3 24 4 25 5 23 7 8 8 9 9 10 10 22 11 11 12 5 13
REMARK SMILES IDX 6 14 7 15 4 16 1 17 2 18 3 19 12 21 13 22 21 23 14 24 19 25
REMARK SMILES IDX 15 26 20 27 16 28 17 29 18 30 29 31 30 32 31 33 32 35 33 36
REMARK SMILES IDX 34 37 95 38 35 39 94 40 36 41 37 42 38 43 88 44 39 45 93 46
REMARK SMILES IDX 87 47 89 48 40 49 92 50 86 51 85 52 41 54 73 55 53 56 72 57
REMARK SMILES IDX 54 58 57 59 71 60 90 61 55 62 56 63 70 65 91 66 58 67 42 68
REMARK SMILES IDX 43 69 51 70 44 71 45 72 49 73 52 74 46 75 47 76 50 77 48 78
REMARK SMILES IDX 74 79 75 80 83 81 76 82 77 83 81 84 84 85 78 86 79 87 82 88
REMARK SMILES IDX 80 89 59 90 60 91 68 92 61 93 62 94 66 95 69 96 63 97 64 98
REMARK SMILES IDX 67 99 65 100
REMARK H PARENT 26 6 4 20 30 34 89 53 57 64
REMARK Flexibility Score: inf
ROOT
ATOM      1  C   UNL A   1      32.675  27.953  25.733  1.00  0.00     0.042 C 
ENDROOT
BRANCH   1   2
ATOM      2  C   UNL A   1      33.716  26.876  26.057  1.00  0.00     0.118 C 
BRANCH   2   3
ATOM      3  N   UNL A   1      33.091  25.641  26.504  1.00  0.00    -0.352 N 
ATOM      4  C   UNL A   1      33.272  24.336  26.141  1.00  0.00     0.252 C 
ATOM      5  O   UNL A   1      32.687  23.452  26.767  1.00  0.00    -0.269 OA
ATOM      6  H   UNL A   1      32.407  25.770  27.200  1.00  0.00     0.163 HD
BRANCH   4   7
ATOM      7  C   UNL A   1      34.214  23.913  25.083  1.00  0.00     0.060 A 
ATOM      8  C   UNL A   1      33.882  23.657  23.752  1.00  0.00     0.100 A 
ATOM      9  C   UNL A   1      34.862  23.194  22.860  1.00  0.00     0.024 A 
ATOM     10  C   UNL A   1      36.133  22.848  23.327  1.00  0.00     0.010 A 
ATOM     11  C   UNL A   1      35.504  23.568  25.537  1.00  0.00     0.024 A 
ATOM     12  C   UNL A   1      36.452  22.983  24.683  1.00  0.00    -0.017 A 
BRANCH   8  13
ATOM     13  S   UNL A   1      32.206  23.688  23.192  1.00  0.00     0.264 S 
ATOM     14  O   UNL A   1      31.547  24.743  23.930  1.00  0.00    -0.201 OA
ATOM     15  O   UNL A   1      31.681  22.345  23.137  1.00  0.00    -0.201 OA
BRANCH  13  16
ATOM     16  N   UNL A   1      32.304  24.233  21.626  1.00  0.00    -0.249 N 
ATOM     17  C   UNL A   1      32.292  26.706  22.001  1.00  0.00     0.115 C 
ATOM     18  C   UNL A   1      32.714  25.506  21.203  1.00  0.00     0.230 C 
ATOM     19  O   UNL A   1      33.257  25.612  20.112  1.00  0.00    -0.274 OA
ATOM     20  H   UNL A   1      32.048  23.596  20.921  1.00  0.00     0.183 HD
ENDBRANCH  13  16
ENDBRANCH   8  13
BRANCH  12  21
ATOM     21  C   UNL A   1      37.681  22.367  25.239  1.00  0.00    -0.011 A 
ATOM     22  C   UNL A   1      38.560  23.102  26.136  1.00  0.00     0.027 A 
ATOM     23  C   UNL A   1      37.961  21.074  24.993  1.00  0.00     0.080 A 
ATOM     24  C   UNL A   1      39.599  22.505  26.729  1.00  0.00     0.095 A 
ATOM     25  C   UNL A   1      39.117  20.392  25.647  1.00  0.00     0.255 A 
ATOM     26  N   UNL A   1      39.877  21.172  26.501  1.00  0.00    -0.258 N 
ATOM     27  O   UNL A   1      39.302  19.203  25.408  1.00  0.00    -0.269 OA
BRANCH  26  28
ATOM     28  C   UNL A   1      40.968  20.528  27.189  1.00  0.00     0.451 C 
ATOM     29  F   UNL A   1      42.027  20.356  26.361  1.00  0.00    -0.185 F 
ATOM     30  F   UNL A   1      41.378  21.259  28.253  1.00  0.00    -0.185 F 
ENDBRANCH  26  28
ENDBRANCH  12  21
ENDBRANCH   4   7
ENDBRANCH   2   3
ENDBRANCH   1   2
BRANCH   1  31
ATOM     31  C   UNL A   1      33.266  29.217  25.104  1.00  0.00     0.118 C 
BRANCH  31  32
ATOM     32  N   UNL A   1      32.774  30.412  25.772  1.00  0.00    -0.352 N 
ATOM     33  C   UNL A   1      33.214  31.070  26.891  1.00  0.00     0.251 C 
ATOM     34  H   UNL A   1      31.987  30.821  25.344  1.00  0.00     0.163 HD
ATOM     35  O   UNL A   1      32.474  31.903  27.414  1.00  0.00    -0.269 OA
BRANCH  33  36
ATOM     36  C   UNL A   1      34.553  30.832  27.483  1.00  0.00     0.039 A 
ATOM     37  C   UNL A   1      34.819  29.567  28.027  1.00  0.00     0.014 A 
ATOM     38  C   UNL A   1      35.485  31.858  27.653  1.00  0.00     0.014 A 
ATOM     39  C   UNL A   1      36.007  29.329  28.725  1.00  0.00     0.010 A 
ATOM     40  C   UNL A   1      36.692  31.609  28.315  1.00  0.00     0.010 A 
ATOM     41  C   UNL A   1      36.955  30.351  28.879  1.00  0.00    -0.014 A 
BRANCH  41  42
ATOM     42  C   UNL A   1      38.183  30.143  29.690  1.00  0.00     0.031 A 
ATOM     43  C   UNL A   1      39.328  29.343  29.129  1.00  0.00     0.074 A 
ATOM     44  C   UNL A   1      38.271  30.637  30.939  1.00  0.00     0.049 A 
ATOM     45  N   UNL A   1      40.427  28.940  29.719  1.00  0.00    -0.248 NA
ATOM     46  C   UNL A   1      39.213  28.925  27.724  1.00  0.00     0.031 C 
ATOM     47  C   UNL A   1      37.241  31.426  31.613  1.00  0.00     0.029 A 
ATOM     48  N   UNL A   1      39.278  30.537  31.868  1.00  0.00    -0.354 N 
ATOM     49  C   UNL A   1      41.106  28.181  28.775  1.00  0.00     0.074 A 
ATOM     50  C   UNL A   1      40.302  28.184  27.571  1.00  0.00     0.031 C 
ATOM     51  C   UNL A   1      37.673  31.748  32.844  1.00  0.00     0.029 A 
ATOM     52  C   UNL A   1      38.996  31.166  33.055  1.00  0.00     0.049 A 
ATOM     53  H   UNL A   1      40.123  30.060  31.698  1.00  0.00     0.167 HD
ATOM     54  C   UNL A   1      42.290  27.535  28.900  1.00  0.00     0.037 A 
ATOM     55  C   UNL A   1      39.717  31.251  34.189  1.00  0.00     0.037 A 
ATOM     56  C   UNL A   1      43.130  27.577  30.066  1.00  0.00     0.049 A 
ATOM     57  C   UNL A   1      41.061  30.584  34.278  1.00  0.00     0.074 A 
ATOM     58  C   UNL A   1      44.366  26.984  30.263  1.00  0.00     0.029 A 
ATOM     59  N   UNL A   1      42.829  28.270  31.227  1.00  0.00    -0.354 N 
ATOM     60  N   UNL A   1      41.684  29.859  33.384  1.00  0.00    -0.248 NA
ATOM     61  C   UNL A   1      41.799  30.746  35.541  1.00  0.00     0.031 C 
ATOM     62  C   UNL A   1      44.811  27.314  31.548  1.00  0.00     0.029 A 
ATOM     63  C   UNL A   1      43.858  28.122  32.143  1.00  0.00     0.049 A 
ATOM     64  H   UNL A   1      42.006  28.789  31.379  1.00  0.00     0.167 HD
ATOM     65  C   UNL A   1      42.887  29.488  33.966  1.00  0.00     0.074 A 
ATOM     66  C   UNL A   1      42.914  30.073  35.290  1.00  0.00     0.031 C 
ATOM     67  C   UNL A   1      43.878  28.724  33.448  1.00  0.00     0.037 A 
BRANCH  54  68
ATOM     68  C   UNL A   1      42.744  26.706  27.741  1.00  0.00     0.064 A 
ATOM     69  C   UNL A   1      42.405  25.351  27.631  1.00  0.00     0.173 A 
ATOM     70  C   UNL A   1      43.495  27.287  26.710  1.00  0.00     0.173 A 
ATOM     71  F   UNL A   1      41.699  24.752  28.601  1.00  0.00    -0.203 F 
ATOM     72  C   UNL A   1      42.815  24.602  26.531  1.00  0.00     0.198 A 
ATOM     73  C   UNL A   1      43.889  26.539  25.605  1.00  0.00     0.198 A 
ATOM     74  F   UNL A   1      43.840  28.581  26.773  1.00  0.00    -0.203 F 
ATOM     75  F   UNL A   1      42.503  23.301  26.456  1.00  0.00    -0.200 F 
ATOM     76  C   UNL A   1      43.552  25.196  25.518  1.00  0.00     0.200 A 
ATOM     77  F   UNL A   1      44.598  27.115  24.625  1.00  0.00    -0.200 F 
ATOM     78  F   UNL A   1      43.943  24.474  24.460  1.00  0.00    -0.200 F 
ENDBRANCH  54  68
BRANCH  55  79
ATOM     79  C   UNL A   1      39.184  32.016  35.339  1.00  0.00     0.064 A 
ATOM     80  C   UNL A   1      38.409  31.384  36.319  1.00  0.00     0.173 A 
ATOM     81  C   UNL A   1      39.434  33.387  35.479  1.00  0.00     0.173 A 
ATOM     82  F   UNL A   1      38.125  30.078  36.208  1.00  0.00    -0.203 F 
ATOM     83  C   UNL A   1      37.895  32.100  37.398  1.00  0.00     0.198 A 
ATOM     84  C   UNL A   1      38.930  34.099  36.565  1.00  0.00     0.198 A 
ATOM     85  F   UNL A   1      40.166  34.032  34.560  1.00  0.00    -0.203 F 
ATOM     86  F   UNL A   1      37.132  31.480  38.308  1.00  0.00    -0.200 F 
ATOM     87  C   UNL A   1      38.159  33.455  37.521  1.00  0.00     0.200 A 
ATOM     88  F   UNL A   1      39.188  35.408  36.684  1.00  0.00    -0.200 F 
ATOM     89  F   UNL A   1      37.663  34.144  38.559  1.00  0.00    -0.200 F 
ENDBRANCH  55  79
BRANCH  67  90
ATOM     90  C   UNL A   1      45.084  28.496  34.303  1.00  0.00     0.064 A 
ATOM     91  C   UNL A   1      46.178  29.372  34.264  1.00  0.00     0.173 A 
ATOM     92  C   UNL A   1      45.129  27.420  35.199  1.00  0.00     0.173 A 
ATOM     93  F   UNL A   1      46.183  30.408  33.412  1.00  0.00    -0.203 F 
ATOM     94  C   UNL A   1      47.281  29.171  35.089  1.00  0.00     0.198 A 
ATOM     95  C   UNL A   1      46.229  27.227  36.029  1.00  0.00     0.198 A 
ATOM     96  F   UNL A   1      44.104  26.556  35.268  1.00  0.00    -0.203 F 
ATOM     97  F   UNL A   1      48.327  30.006  35.022  1.00  0.00    -0.200 F 
ATOM     98  C   UNL A   1      47.304  28.102  35.973  1.00  0.00     0.200 A 
ATOM     99  F   UNL A   1      46.251  26.195  36.884  1.00  0.00    -0.200 F 
ATOM    100  F   UNL A   1      48.367  27.910  36.766  1.00  0.00    -0.200 F 
ENDBRANCH  67  90
ENDBRANCH  41  42
ENDBRANCH  33  36
ENDBRANCH  31  32
ENDBRANCH   1  31
TORSDOF 14
ENDMDL
MODEL 2
REMARK VINA RESULT:     -12.8      3.074      5.477
REMARK SMILES CC(=O)NS(=O)(=O)c1ccc(-c2ccn(C(F)F)c(=O)c2)cc1C(=O)NCCCNC(=O)c1ccc(-c2c3nc(c(-c4c(F)c(F)c(F)c(F)c4F)c4ccc([nH]4)c(-c4c(F)c(F)c(F)c(F)c4F)c4nc(c(-c5c(F)c(F)c(F)c(F)c5F)c5ccc2[nH]5)C=C4)C=C3)cc1
REMARK SMILES IDX 28 1 27 2 26 3 24 4 25 5 23 7 8 8 9 9 10 10 22 11 11 12 5 13
REMARK SMILES IDX 6 14 7 15 4 16 1 17 2 18 3 19 12 21 13 22 21 23 14 24 19 25
REMARK SMILES IDX 15 26 20 27 16 28 17 29 18 30 29 31 30 32 31 33 32 35 33 36
REMARK SMILES IDX 34 37 95 38 35 39 94 40 36 41 37 42 38 43 88 44 39 45 93 46
REMARK SMILES IDX 87 47 89 48 40 49 92 50 86 51 85 52 41 54 73 55 53 56 72 57
REMARK SMILES IDX 54 58 57 59 71 60 90 61 55 62 56 63 70 65 91 66 58 67 42 68
REMARK SMILES IDX 43 69 51 70 44 71 45 72 49 73 52 74 46 75 47 76 50 77 48 78
REMARK SMILES IDX 74 79 75 80 83 81 76 82 77 83 81 84 84 85 78 86 79 87 82 88
REMARK SMILES IDX 80 89 59 90 60 91 68 92 61 93 62 94 66 95 69 96 63 97 64 98
REMARK SMILES IDX 67 99 65 100
REMARK H PARENT 26 6 4 20 30 34 89 53 57 64
REMARK Flexibility Score: inf
ROOT
ATOM      1  C   UNL A   1      32.437  27.999  26.476  1.00  0.00     0.042 C 
ENDROOT
BRANCH   1   2
ATOM      2  C   UNL A   1      33.305  26.737  26.498  1.00  0.00     0.118 C 
BRANCH   2   3
ATOM      3  N   UNL A   1      32.499  25.530  26.589  1.00  0.00    -0.352 N 
ATOM      4  C   UNL A   1      31.785  24.830  25.657  1.00  0.00     0.252 C 
ATOM      5  O   UNL A   1      31.275  23.756  25.975  1.00  0.00    -0.269 OA
ATOM      6  H   UNL A   1      32.460  25.145  27.493  1.00  0.00     0.163 HD
BRANCH   4   7
ATOM      7  C   UNL A   1      31.666  25.251  24.245  1.00  0.00     0.060 A 
ATOM      8  C   UNL A   1      32.484  24.829  23.197  1.00  0.00     0.100 A 
ATOM      9  C   UNL A   1      32.307  25.359  21.909  1.00  0.00     0.024 A 
ATOM     10  C   UNL A   1      31.414  26.412  21.698  1.00  0.00     0.010 A 
ATOM     11  C   UNL A   1      30.762  26.308  24.014  1.00  0.00     0.024 A 
ATOM     12  C   UNL A   1      30.668  26.934  22.761  1.00  0.00    -0.017 A 
BRANCH   8  13
ATOM     13  S   UNL A   1      33.893  23.800  23.478  1.00  0.00     0.264 S 
ATOM     14  O   UNL A   1      34.687  24.461  24.490  1.00  0.00    -0.201 OA
ATOM     15  O   UNL A   1      34.453  23.376  22.217  1.00  0.00    -0.201 OA
BRANCH  13  16
ATOM     16  N   UNL A   1      33.275  22.443  24.212  1.00  0.00    -0.249 N 
ATOM     17  C   UNL A   1      31.989  21.443  22.315  1.00  0.00     0.115 C 
ATOM     18  C   UNL A   1      32.789  21.292  23.577  1.00  0.00     0.230 C 
ATOM     19  O   UNL A   1      32.887  20.219  24.157  1.00  0.00    -0.274 OA
ATOM     20  H   UNL A   1      33.248  22.449  25.196  1.00  0.00     0.183 HD
ENDBRANCH  13  16
ENDBRANCH   8  13
BRANCH  12  21
ATOM     21  C   UNL A   1      29.936  28.217  22.617  1.00  0.00    -0.011 A 
ATOM     22  C   UNL A   1      30.496  29.330  21.867  1.00  0.00     0.027 A 
ATOM     23  C   UNL A   1      28.689  28.343  23.107  1.00  0.00     0.080 A 
ATOM     24  C   UNL A   1      29.783  30.438  21.637  1.00  0.00     0.095 A 
ATOM     25  C   UNL A   1      27.879  29.573  22.861  1.00  0.00     0.255 A 
ATOM     26  N   UNL A   1      28.494  30.565  22.116  1.00  0.00    -0.258 N 
ATOM     27  O   UNL A   1      26.737  29.617  23.306  1.00  0.00    -0.269 OA
BRANCH  26  28
ATOM     28  C   UNL A   1      27.718  31.741  21.815  1.00  0.00     0.451 C 
ATOM     29  F   UNL A   1      28.309  32.851  22.319  1.00  0.00    -0.185 F 
ATOM     30  F   UNL A   1      27.577  31.908  20.478  1.00  0.00    -0.185 F 
ENDBRANCH  26  28
ENDBRANCH  12  21
ENDBRANCH   4   7
ENDBRANCH   2   3
ENDBRANCH   1   2
BRANCH   1  31
ATOM     31  C   UNL A   1      32.930  29.075  25.507  1.00  0.00     0.118 C 
BRANCH  31  32
ATOM     32  N   UNL A   1      32.585  30.406  25.982  1.00  0.00    -0.352 N 
ATOM     33  C   UNL A   1      33.135  31.188  26.963  1.00  0.00     0.251 C 
ATOM     34  H   UNL A   1      31.820  30.817  25.517  1.00  0.00     0.163 HD
ATOM     35  O   UNL A   1      32.502  32.165  27.363  1.00  0.00    -0.269 OA
BRANCH  33  36
ATOM     36  C   UNL A   1      34.471  30.916  27.546  1.00  0.00     0.039 A 
ATOM     37  C   UNL A   1      34.723  29.631  28.050  1.00  0.00     0.014 A 
ATOM     38  C   UNL A   1      35.416  31.925  27.748  1.00  0.00     0.014 A 
ATOM     39  C   UNL A   1      35.909  29.358  28.739  1.00  0.00     0.010 A 
ATOM     40  C   UNL A   1      36.620  31.641  28.400  1.00  0.00     0.010 A 
ATOM     41  C   UNL A   1      36.869  30.363  28.924  1.00  0.00    -0.014 A 
BRANCH  41  42
ATOM     42  C   UNL A   1      38.094  30.115  29.728  1.00  0.00     0.031 A 
ATOM     43  C   UNL A   1      39.193  29.247  29.174  1.00  0.00     0.074 A 
ATOM     44  C   UNL A   1      38.221  30.634  30.963  1.00  0.00     0.049 A 
ATOM     45  N   UNL A   1      40.278  28.806  29.761  1.00  0.00    -0.248 NA
ATOM     46  C   UNL A   1      39.042  28.803  27.781  1.00  0.00     0.031 C 
ATOM     47  C   UNL A   1      37.238  31.488  31.628  1.00  0.00     0.029 A 
ATOM     48  N   UNL A   1      39.232  30.508  31.883  1.00  0.00    -0.354 N 
ATOM     49  C   UNL A   1      40.908  27.993  28.829  1.00  0.00     0.074 A 
ATOM     50  C   UNL A   1      40.092  28.007  27.634  1.00  0.00     0.031 C 
ATOM     51  C   UNL A   1      37.699  31.818  32.847  1.00  0.00     0.029 A 
ATOM     52  C   UNL A   1      38.995  31.177  33.058  1.00  0.00     0.049 A 
ATOM     53  H   UNL A   1      40.052  29.986  31.716  1.00  0.00     0.167 HD
ATOM     54  C   UNL A   1      42.061  27.294  28.958  1.00  0.00     0.037 A 
ATOM     55  C   UNL A   1      39.733  31.254  34.181  1.00  0.00     0.037 A 
ATOM     56  C   UNL A   1      42.917  27.322  30.113  1.00  0.00     0.049 A 
ATOM     57  C   UNL A   1      41.044  30.525  34.273  1.00  0.00     0.074 A 
ATOM     58  C   UNL A   1      44.124  26.675  30.312  1.00  0.00     0.029 A 
ATOM     59  N   UNL A   1      42.663  28.056  31.260  1.00  0.00    -0.354 N 
ATOM     60  N   UNL A   1      41.621  29.750  33.390  1.00  0.00    -0.248 NA
ATOM     61  C   UNL A   1      41.803  30.681  35.524  1.00  0.00     0.031 C 
ATOM     62  C   UNL A   1      44.600  27.013  31.584  1.00  0.00     0.029 A 
ATOM     63  C   UNL A   1      43.694  27.881  32.169  1.00  0.00     0.049 A 
ATOM     64  H   UNL A   1      41.868  28.618  31.408  1.00  0.00     0.167 HD
ATOM     65  C   UNL A   1      42.811  29.335  33.968  1.00  0.00     0.074 A 
ATOM     66  C   UNL A   1      42.882  29.949  35.277  1.00  0.00     0.031 C 
ATOM     67  C   UNL A   1      43.758  28.511  33.459  1.00  0.00     0.037 A 
BRANCH  54  68
ATOM     68  C   UNL A   1      42.461  26.416  27.814  1.00  0.00     0.064 A 
ATOM     69  C   UNL A   1      41.912  25.139  27.643  1.00  0.00     0.173 A 
ATOM     70  C   UNL A   1      43.377  26.877  26.858  1.00  0.00     0.173 A 
ATOM     71  F   UNL A   1      41.043  24.653  28.541  1.00  0.00    -0.203 F 
ATOM     72  C   UNL A   1      42.277  24.347  26.557  1.00  0.00     0.198 A 
ATOM     73  C   UNL A   1      43.728  26.089  25.767  1.00  0.00     0.198 A 
ATOM     74  F   UNL A   1      43.927  28.095  26.982  1.00  0.00    -0.203 F 
ATOM     75  F   UNL A   1      41.761  23.118  26.424  1.00  0.00    -0.200 F 
ATOM     76  C   UNL A   1      43.181  24.823  25.619  1.00  0.00     0.200 A 
ATOM     77  F   UNL A   1      44.598  26.552  24.860  1.00  0.00    -0.200 F 
ATOM     78  F   UNL A   1      43.528  24.060  24.575  1.00  0.00    -0.200 F 
ENDBRANCH  54  68
BRANCH  55  79
ATOM     79  C   UNL A   1      39.250  32.071  35.319  1.00  0.00     0.064 A 
ATOM     80  C   UNL A   1      39.530  33.442  35.383  1.00  0.00     0.173 A 
ATOM     81  C   UNL A   1      38.509  31.500  36.361  1.00  0.00     0.173 A 
ATOM     82  F   UNL A   1      40.260  34.021  34.417  1.00  0.00    -0.203 F 
ATOM     83  C   UNL A   1      39.090  34.214  36.454  1.00  0.00     0.198 A 
ATOM     84  C   UNL A   1      38.058  32.276  37.426  1.00  0.00     0.198 A 
ATOM     85  F   UNL A   1      38.225  30.191  36.342  1.00  0.00    -0.203 F 
ATOM     86  F   UNL A   1      39.394  35.517  36.508  1.00  0.00    -0.200 F 
ATOM     87  C   UNL A   1      38.351  33.631  37.473  1.00  0.00     0.200 A 
ATOM     88  F   UNL A   1      37.343  31.712  38.408  1.00  0.00    -0.200 F 
ATOM     89  F   UNL A   1      37.929  34.374  38.506  1.00  0.00    -0.200 F 
ENDBRANCH  55  79
BRANCH  67  90
ATOM     90  C   UNL A   1      44.962  28.246  34.306  1.00  0.00     0.064 A 
ATOM     91  C   UNL A   1      45.004  27.158  35.188  1.00  0.00     0.173 A 
ATOM     92  C   UNL A   1      46.098  29.061  34.203  1.00  0.00     0.173 A 
ATOM     93  F   UNL A   1      43.935  26.360  35.326  1.00  0.00    -0.203 F 
ATOM     94  C   UNL A   1      46.143  26.900  35.946  1.00  0.00     0.198 A 
ATOM     95  C   UNL A   1      47.238  28.794  34.956  1.00  0.00     0.198 A 
ATOM     96  F   UNL A   1      46.099  30.115  33.372  1.00  0.00    -0.203 F 
ATOM     97  F   UNL A   1      46.157  25.867  36.800  1.00  0.00    -0.200 F 
ATOM     98  C   UNL A   1      47.259  27.715  35.827  1.00  0.00     0.200 A 
ATOM     99  F   UNL A   1      48.316  29.582  34.840  1.00  0.00    -0.200 F 
ATOM    100  F   UNL A   1      48.354  27.465  36.558  1.00  0.00    -0.200 F 
ENDBRANCH  67  90
ENDBRANCH  41  42
ENDBRANCH  33  36
ENDBRANCH  31  32
ENDBRANCH   1  31
TORSDOF 14
ENDMDL
MODEL 3
REMARK VINA RESULT:     -12.7      1.019      2.070
REMARK SMILES CC(=O)NS(=O)(=O)c1ccc(-c2ccn(C(F)F)c(=O)c2)cc1C(=O)NCCCNC(=O)c1ccc(-c2c3nc(c(-c4c(F)c(F)c(F)c(F)c4F)c4ccc([nH]4)c(-c4c(F)c(F)c(F)c(F)c4F)c4nc(c(-c5c(F)c(F)c(F)c(F)c5F)c5ccc2[nH]5)C=C4)C=C3)cc1
REMARK SMILES IDX 28 1 27 2 26 3 24 4 25 5 23 7 8 8 9 9 10 10 22 11 11 12 5 13
REMARK SMILES IDX 6 14 7 15 4 16 1 17 2 18 3 19 12 21 13 22 21 23 14 24 19 25
REMARK SMILES IDX 15 26 20 27 16 28 17 29 18 30 29 31 30 32 31 33 32 35 33 36
REMARK SMILES IDX 34 37 95 38 35 39 94 40 36 41 37 42 38 43 88 44 39 45 93 46
REMARK SMILES IDX 87 47 89 48 40 49 92 50 86 51 85 52 41 54 73 55 53 56 72 57
REMARK SMILES IDX 54 58 57 59 71 60 90 61 55 62 56 63 70 65 91 66 58 67 42 68
REMARK SMILES IDX 43 69 51 70 44 71 45 72 49 73 52 74 46 75 47 76 50 77 48 78
REMARK SMILES IDX 74 79 75 80 83 81 76 82 77 83 81 84 84 85 78 86 79 87 82 88
REMARK SMILES IDX 80 89 59 90 60 91 68 92 61 93 62 94 66 95 69 96 63 97 64 98
REMARK SMILES IDX 67 99 65 100
REMARK H PARENT 26 6 4 20 30 34 89 53 57 64
REMARK Flexibility Score: inf
ROOT
ATOM      1  C   UNL A   1      33.173  27.660  25.667  1.00  0.00     0.042 C 
ENDROOT
BRANCH   1   2
ATOM      2  C   UNL A   1      33.981  26.452  25.183  1.00  0.00     0.118 C 
BRANCH   2   3
ATOM      3  N   UNL A   1      33.857  26.260  23.747  1.00  0.00    -0.352 N 
ATOM      4  C   UNL A   1      33.826  25.137  22.970  1.00  0.00     0.252 C 
ATOM      5  O   UNL A   1      33.593  25.246  21.766  1.00  0.00    -0.269 OA
ATOM      6  H   UNL A   1      33.781  27.099  23.239  1.00  0.00     0.163 HD
BRANCH   4   7
ATOM      7  C   UNL A   1      33.971  23.771  23.515  1.00  0.00     0.060 A 
ATOM      8  C   UNL A   1      32.931  22.959  23.968  1.00  0.00     0.100 A 
ATOM      9  C   UNL A   1      33.211  21.703  24.529  1.00  0.00     0.024 A 
ATOM     10  C   UNL A   1      34.532  21.320  24.771  1.00  0.00     0.010 A 
ATOM     11  C   UNL A   1      35.300  23.365  23.758  1.00  0.00     0.024 A 
ATOM     12  C   UNL A   1      35.592  22.170  24.435  1.00  0.00    -0.017 A 
BRANCH   8  13
ATOM     13  S   UNL A   1      31.268  23.551  24.062  1.00  0.00     0.264 S 
ATOM     14  O   UNL A   1      30.562  22.965  22.943  1.00  0.00    -0.201 OA
ATOM     15  O   UNL A   1      31.264  24.971  24.315  1.00  0.00    -0.201 OA
BRANCH  13  16
ATOM     16  N   UNL A   1      30.644  22.817  25.416  1.00  0.00    -0.249 N 
ATOM     17  C   UNL A   1      32.087  23.829  27.190  1.00  0.00     0.115 C 
ATOM     18  C   UNL A   1      30.775  23.251  26.743  1.00  0.00     0.230 C 
ATOM     19  O   UNL A   1      29.878  22.992  27.534  1.00  0.00    -0.274 OA
ATOM     20  H   UNL A   1      30.128  21.992  25.271  1.00  0.00     0.183 HD
ENDBRANCH  13  16
ENDBRANCH   8  13
BRANCH  12  21
ATOM     21  C   UNL A   1      36.964  21.907  24.933  1.00  0.00    -0.011 A 
ATOM     22  C   UNL A   1      37.723  22.927  25.641  1.00  0.00     0.027 A 
ATOM     23  C   UNL A   1      37.502  20.679  24.818  1.00  0.00     0.080 A 
ATOM     24  C   UNL A   1      38.908  22.648  26.193  1.00  0.00     0.095 A 
ATOM     25  C   UNL A   1      38.824  20.350  25.428  1.00  0.00     0.255 A 
ATOM     26  N   UNL A   1      39.455  21.383  26.100  1.00  0.00    -0.258 N 
ATOM     27  O   UNL A   1      39.249  19.205  25.317  1.00  0.00    -0.269 OA
BRANCH  26  28
ATOM     28  C   UNL A   1      40.708  21.082  26.747  1.00  0.00     0.451 C 
ATOM     29  F   UNL A   1      40.575  20.030  27.590  1.00  0.00    -0.185 F 
ATOM     30  F   UNL A   1      41.668  20.779  25.841  1.00  0.00    -0.185 F 
ENDBRANCH  26  28
ENDBRANCH  12  21
ENDBRANCH   4   7
ENDBRANCH   2   3
ENDBRANCH   1   2
BRANCH   1  31
ATOM     31  C   UNL A   1      33.622  28.991  25.059  1.00  0.00     0.118 C 
BRANCH  31  32
ATOM     32  N   UNL A   1      33.031  30.116  25.767  1.00  0.00    -0.352 N 
ATOM     33  C   UNL A   1      33.424  30.781  26.900  1.00  0.00     0.251 C 
ATOM     34  H   UNL A   1      32.203  30.461  25.362  1.00  0.00     0.163 HD
ATOM     35  O   UNL A   1      32.618  31.525  27.456  1.00  0.00    -0.269 OA
BRANCH  33  36
ATOM     36  C   UNL A   1      34.788  30.652  27.468  1.00  0.00     0.039 A 
ATOM     37  C   UNL A   1      35.178  29.403  27.973  1.00  0.00     0.014 A 
ATOM     38  C   UNL A   1      35.623  31.756  27.656  1.00  0.00     0.014 A 
ATOM     39  C   UNL A   1      36.394  29.259  28.650  1.00  0.00     0.010 A 
ATOM     40  C   UNL A   1      36.858  31.603  28.296  1.00  0.00     0.010 A 
ATOM     41  C   UNL A   1      37.245  30.360  28.821  1.00  0.00    -0.014 A 
BRANCH  41  42
ATOM     42  C   UNL A   1      38.499  30.245  29.611  1.00  0.00     0.031 A 
ATOM     43  C   UNL A   1      39.676  29.495  29.048  1.00  0.00     0.074 A 
ATOM     44  C   UNL A   1      38.584  30.781  30.843  1.00  0.00     0.049 A 
ATOM     45  N   UNL A   1      40.808  29.172  29.625  1.00  0.00    -0.248 NA
ATOM     46  C   UNL A   1      39.556  29.030  27.658  1.00  0.00     0.031 C 
ATOM     47  C   UNL A   1      37.524  31.530  31.517  1.00  0.00     0.029 A 
ATOM     48  N   UNL A   1      39.613  30.765  31.752  1.00  0.00    -0.354 N 
ATOM     49  C   UNL A   1      41.509  28.425  28.688  1.00  0.00     0.074 A 
ATOM     50  C   UNL A   1      40.682  28.347  27.502  1.00  0.00     0.031 C 
ATOM     51  C   UNL A   1      37.962  31.912  32.729  1.00  0.00     0.029 A 
ATOM     52  C   UNL A   1      39.320  31.411  32.927  1.00  0.00     0.049 A 
ATOM     53  H   UNL A   1      40.480  30.331  31.577  1.00  0.00     0.167 HD
ATOM     54  C   UNL A   1      42.730  27.850  28.806  1.00  0.00     0.037 A 
ATOM     55  C   UNL A   1      40.058  31.570  34.042  1.00  0.00     0.037 A 
ATOM     56  C   UNL A   1      43.590  27.974  29.951  1.00  0.00     0.049 A 
ATOM     57  C   UNL A   1      41.439  30.983  34.121  1.00  0.00     0.074 A 
ATOM     58  C   UNL A   1      44.861  27.457  30.138  1.00  0.00     0.029 A 
ATOM     59  N   UNL A   1      43.274  28.683  31.099  1.00  0.00    -0.354 N 
ATOM     60  N   UNL A   1      42.084  30.268  33.234  1.00  0.00    -0.248 NA
ATOM     61  C   UNL A   1      42.191  31.223  35.362  1.00  0.00     0.031 C 
ATOM     62  C   UNL A   1      45.313  27.849  31.404  1.00  0.00     0.029 A 
ATOM     63  C   UNL A   1      44.327  28.620  31.996  1.00  0.00     0.049 A 
ATOM     64  H   UNL A   1      42.426  29.159  31.253  1.00  0.00     0.167 HD
ATOM     65  C   UNL A   1      43.318  29.982  33.800  1.00  0.00     0.074 A 
ATOM     66  C   UNL A   1      43.338  30.607  35.106  1.00  0.00     0.031 C 
ATOM     67  C   UNL A   1      44.340  29.260  33.283  1.00  0.00     0.037 A 
BRANCH  54  68
ATOM     68  C   UNL A   1      43.207  27.014  27.661  1.00  0.00     0.064 A 
ATOM     69  C   UNL A   1      43.988  27.555  26.633  1.00  0.00     0.173 A 
ATOM     70  C   UNL A   1      42.910  25.644  27.617  1.00  0.00     0.173 A 
ATOM     71  F   UNL A   1      44.286  28.862  26.628  1.00  0.00    -0.203 F 
ATOM     72  C   UNL A   1      44.446  26.753  25.589  1.00  0.00     0.198 A 
ATOM     73  C   UNL A   1      43.381  24.844  26.582  1.00  0.00     0.198 A 
ATOM     74  F   UNL A   1      42.166  25.084  28.583  1.00  0.00    -0.203 F 
ATOM     75  F   UNL A   1      45.170  27.294  24.600  1.00  0.00    -0.200 F 
ATOM     76  C   UNL A   1      44.145  25.400  25.566  1.00  0.00     0.200 A 
ATOM     77  F   UNL A   1      43.093  23.536  26.563  1.00  0.00    -0.200 F 
ATOM     78  F   UNL A   1      44.588  24.631  24.563  1.00  0.00    -0.200 F 
ENDBRANCH  54  68
BRANCH  55  79
ATOM     79  C   UNL A   1      39.505  32.338  35.181  1.00  0.00     0.064 A 
ATOM     80  C   UNL A   1      38.754  31.699  36.176  1.00  0.00     0.173 A 
ATOM     81  C   UNL A   1      39.712  33.718  35.296  1.00  0.00     0.173 A 
ATOM     82  F   UNL A   1      38.512  30.383  36.088  1.00  0.00    -0.203 F 
ATOM     83  C   UNL A   1      38.223  32.416  37.244  1.00  0.00     0.198 A 
ATOM     84  C   UNL A   1      39.190  34.432  36.372  1.00  0.00     0.198 A 
ATOM     85  F   UNL A   1      40.419  34.370  34.363  1.00  0.00    -0.203 F 
ATOM     86  F   UNL A   1      37.483  31.788  38.168  1.00  0.00    -0.200 F 
ATOM     87  C   UNL A   1      38.444  33.781  37.343  1.00  0.00     0.200 A 
ATOM     88  F   UNL A   1      39.407  35.751  36.467  1.00  0.00    -0.200 F 
ATOM     89  F   UNL A   1      37.930  34.472  38.371  1.00  0.00    -0.200 F 
ENDBRANCH  55  79
BRANCH  67  90
ATOM     90  C   UNL A   1      45.574  29.126  34.117  1.00  0.00     0.064 A 
ATOM     91  C   UNL A   1      46.603  30.076  34.050  1.00  0.00     0.173 A 
ATOM     92  C   UNL A   1      45.709  28.064  35.022  1.00  0.00     0.173 A 
ATOM     93  F   UNL A   1      46.519  31.101  33.189  1.00  0.00    -0.203 F 
ATOM     94  C   UNL A   1      47.732  29.961  34.856  1.00  0.00     0.198 A 
ATOM     95  C   UNL A   1      46.835  27.958  35.833  1.00  0.00     0.198 A 
ATOM     96  F   UNL A   1      44.749  27.132  35.117  1.00  0.00    -0.203 F 
ATOM     97  F   UNL A   1      48.715  30.866  34.763  1.00  0.00    -0.200 F 
ATOM     98  C   UNL A   1      47.845  28.905  35.749  1.00  0.00     0.200 A 
ATOM     99  F   UNL A   1      46.944  26.938  36.696  1.00  0.00    -0.200 F 
ATOM    100  F   UNL A   1      48.932  28.796  36.525  1.00  0.00    -0.200 F 
ENDBRANCH  67  90
ENDBRANCH  41  42
ENDBRANCH  33  36
ENDBRANCH  31  32
ENDBRANCH   1  31
TORSDOF 14
ENDMDL
