MODEL 1
REMARK VINA RESULT:     -13.7      0.000      0.000
REMARK SMILES CC1=CC[C@](C(=O)NCCCNC(=O)c2ccc(-c3c4nc(c(-c5c(F)c(F)c(F)c(F)c5F)c5ccc([nH]5)c(-c5c(F)c(F)c(F)c(F)c5F)c5nc(c(-c6c(F)c(F)c(F)c(F)c6F)c6ccc3[nH]6)C=C5)C=C4)cc2)(C(=O)N/N=C/C2=C([O-])CC(C)(C)CC2=O)C[C@@H]1c1ccccc1
REMARK SMILES IDX 9 1 8 2 6 3 7 4 5 6 1 7 2 8 3 9 94 10 4 11 93 12 95 13 96 14
REMARK SMILES IDX 100 15 97 16 99 17 98 18 78 19 79 20 80 21 81 23 82 24 83 25
REMARK SMILES IDX 84 26 91 27 85 28 86 29 90 30 92 31 87 32 88 33 89 34 10 35
REMARK SMILES IDX 11 36 12 37 13 38 14 40 15 41 16 42 77 43 17 44 76 45 18 46
REMARK SMILES IDX 19 47 20 48 70 49 21 50 75 51 69 52 71 53 22 54 74 55 68 56
REMARK SMILES IDX 67 57 23 59 55 60 35 61 54 62 36 63 39 64 53 65 72 66 37 67
REMARK SMILES IDX 38 68 52 70 73 71 40 72 24 73 25 74 33 75 26 76 27 77 31 78
REMARK SMILES IDX 34 79 28 80 29 81 32 82 30 83 56 84 57 85 65 86 58 87 59 88
REMARK SMILES IDX 63 89 66 90 60 91 61 92 64 93 62 94 41 95 42 96 50 97 43 98
REMARK SMILES IDX 44 99 48 100 51 101 45 102 46 103 49 104 47 105
REMARK H PARENT 8 5 80 22 12 39 71 58 39 69
REMARK Flexibility Score: inf
ROOT
ATOM      1  C   UNL A   1      32.070  28.198  27.439  1.00  0.00     0.117 C 
ENDROOT
BRANCH   1   2
ATOM      2  N   UNL A   1      30.957  27.288  27.210  1.00  0.00    -0.355 N 
ATOM      3  C   UNL A   1      30.775  26.108  26.568  1.00  0.00     0.236 C 
ATOM      4  O   UNL A   1      29.671  25.592  26.795  1.00  0.00    -0.274 OA
ATOM      5  H   UNL A   1      30.126  27.610  27.629  1.00  0.00     0.163 HD
BRANCH   3   6
ATOM      6  C   UNL A   1      31.809  25.363  25.697  1.00  0.00     0.133 C 
ATOM      7  C   UNL A   1      35.868  23.699  24.828  1.00  0.00     0.040 C 
ATOM      8  C   UNL A   1      34.510  24.261  25.161  1.00  0.00    -0.070 C 
ATOM      9  C   UNL A   1      33.811  23.798  26.213  1.00  0.00    -0.026 C 
ATOM     10  C   UNL A   1      34.009  25.409  24.297  1.00  0.00     0.046 C 
ATOM     11  C   UNL A   1      32.477  24.337  26.658  1.00  0.00     0.054 C 
ATOM     12  C   UNL A   1      32.914  26.228  25.047  1.00  0.00     0.040 C 
BRANCH  10  13
ATOM     13  C   UNL A   1      33.599  25.036  22.873  1.00  0.00    -0.041 A 
ATOM     14  C   UNL A   1      33.196  26.054  21.990  1.00  0.00     0.004 A 
ATOM     15  C   UNL A   1      33.568  23.712  22.402  1.00  0.00     0.004 A 
ATOM     16  C   UNL A   1      32.747  25.758  20.700  1.00  0.00     0.000 A 
ATOM     17  C   UNL A   1      33.135  23.418  21.105  1.00  0.00     0.000 A 
ATOM     18  C   UNL A   1      32.718  24.439  20.258  1.00  0.00     0.000 A 
ENDBRANCH  10  13
BRANCH   6  19
ATOM     19  C   UNL A   1      31.009  24.584  24.607  1.00  0.00     0.256 C 
ATOM     20  O   UNL A   1      31.063  23.351  24.508  1.00  0.00    -0.272 OA
ATOM     21  N   UNL A   1      30.185  25.244  23.711  1.00  0.00    -0.246 N 
ATOM     22  H   UNL A   1      29.565  24.682  23.192  1.00  0.00     0.193 HD
BRANCH  21  23
ATOM     23  N   UNL A   1      30.138  26.580  23.468  1.00  0.00    -0.181 NA
ATOM     24  C   UNL A   1      28.977  27.044  23.125  1.00  0.00     0.144 C 
BRANCH  24  25
ATOM     25  C   UNL A   1      28.767  28.488  22.886  1.00  0.00     0.026 C 
ATOM     26  C   UNL A   1      29.697  29.235  22.264  1.00  0.00    -0.119 C 
ATOM     27  C   UNL A   1      27.498  29.125  23.300  1.00  0.00     0.164 C 
ATOM     28  O   UNL A   1      30.934  28.753  21.879  1.00  0.00    -0.875 OA
ATOM     29  C   UNL A   1      29.483  30.693  21.957  1.00  0.00     0.026 C 
ATOM     30  C   UNL A   1      27.404  30.637  23.364  1.00  0.00     0.087 C 
ATOM     31  O   UNL A   1      26.529  28.430  23.615  1.00  0.00    -0.294 OA
ATOM     32  C   UNL A   1      28.704  31.403  23.076  1.00  0.00    -0.025 C 
ATOM     33  C   UNL A   1      29.562  31.511  24.356  1.00  0.00     0.012 C 
ATOM     34  C   UNL A   1      28.344  32.830  22.632  1.00  0.00     0.012 C 
ENDBRANCH  24  25
ENDBRANCH  21  23
ENDBRANCH   6  19
ENDBRANCH   3   6
ENDBRANCH   1   2
BRANCH   1  35
ATOM     35  C   UNL A   1      31.657  29.666  27.258  1.00  0.00     0.042 C 
BRANCH  35  36
ATOM     36  C   UNL A   1      32.640  30.478  26.394  1.00  0.00     0.118 C 
BRANCH  36  37
ATOM     37  N   UNL A   1      32.631  31.900  26.699  1.00  0.00    -0.352 N 
ATOM     38  C   UNL A   1      33.455  32.696  27.461  1.00  0.00     0.251 C 
ATOM     39  H   UNL A   1      31.889  32.389  26.278  1.00  0.00     0.163 HD
ATOM     40  O   UNL A   1      33.116  33.867  27.634  1.00  0.00    -0.269 OA
BRANCH  38  41
ATOM     41  C   UNL A   1      34.714  32.226  28.110  1.00  0.00     0.039 A 
ATOM     42  C   UNL A   1      34.678  30.987  28.765  1.00  0.00     0.014 A 
ATOM     43  C   UNL A   1      35.876  32.991  28.217  1.00  0.00     0.014 A 
ATOM     44  C   UNL A   1      35.791  30.504  29.473  1.00  0.00     0.010 A 
ATOM     45  C   UNL A   1      37.014  32.475  28.870  1.00  0.00     0.010 A 
ATOM     46  C   UNL A   1      36.997  31.224  29.513  1.00  0.00    -0.014 A 
BRANCH  46  47
ATOM     47  C   UNL A   1      38.203  30.662  30.215  1.00  0.00     0.031 A 
ATOM     48  C   UNL A   1      38.521  31.006  31.654  1.00  0.00     0.074 A 
ATOM     49  C   UNL A   1      39.063  29.847  29.563  1.00  0.00     0.049 A 
ATOM     50  N   UNL A   1      39.523  30.603  32.403  1.00  0.00    -0.248 NA
ATOM     51  C   UNL A   1      37.617  31.945  32.331  1.00  0.00     0.031 C 
ATOM     52  C   UNL A   1      38.964  29.460  28.155  1.00  0.00     0.029 A 
ATOM     53  N   UNL A   1      40.201  29.202  29.998  1.00  0.00    -0.354 N 
ATOM     54  C   UNL A   1      39.382  31.256  33.622  1.00  0.00     0.074 A 
ATOM     55  C   UNL A   1      38.229  32.124  33.493  1.00  0.00     0.031 C 
ATOM     56  C   UNL A   1      39.972  28.627  27.852  1.00  0.00     0.029 A 
ATOM     57  C   UNL A   1      40.807  28.430  29.035  1.00  0.00     0.049 A 
ATOM     58  H   UNL A   1      40.548  29.286  30.915  1.00  0.00     0.167 HD
ATOM     59  C   UNL A   1      40.113  31.130  34.759  1.00  0.00     0.037 A 
ATOM     60  C   UNL A   1      41.900  27.642  29.085  1.00  0.00     0.037 A 
ATOM     61  C   UNL A   1      41.226  30.233  34.940  1.00  0.00     0.049 A 
ATOM     62  C   UNL A   1      42.669  27.480  30.369  1.00  0.00     0.074 A 
ATOM     63  C   UNL A   1      41.956  29.986  36.092  1.00  0.00     0.029 A 
ATOM     64  N   UNL A   1      41.772  29.435  33.949  1.00  0.00    -0.354 N 
ATOM     65  N   UNL A   1      42.458  28.032  31.535  1.00  0.00    -0.248 NA
ATOM     66  C   UNL A   1      43.824  26.565  30.341  1.00  0.00     0.031 C 
ATOM     67  C   UNL A   1      42.965  29.065  35.790  1.00  0.00     0.029 A 
ATOM     68  C   UNL A   1      42.838  28.706  34.460  1.00  0.00     0.049 A 
ATOM     69  H   UNL A   1      41.453  29.391  33.019  1.00  0.00     0.167 HD
ATOM     70  C   UNL A   1      43.425  27.508  32.386  1.00  0.00     0.074 A 
ATOM     71  C   UNL A   1      44.221  26.588  31.605  1.00  0.00     0.031 C 
ATOM     72  C   UNL A   1      43.624  27.770  33.700  1.00  0.00     0.037 A 
BRANCH  59  73
ATOM     73  C   UNL A   1      39.716  31.982  35.932  1.00  0.00     0.064 A 
ATOM     74  C   UNL A   1      38.655  31.621  36.776  1.00  0.00     0.173 A 
ATOM     75  C   UNL A   1      40.429  33.151  36.240  1.00  0.00     0.173 A 
ATOM     76  F   UNL A   1      37.941  30.513  36.525  1.00  0.00    -0.203 F 
ATOM     77  C   UNL A   1      38.297  32.419  37.860  1.00  0.00     0.198 A 
ATOM     78  C   UNL A   1      40.088  33.930  37.342  1.00  0.00     0.198 A 
ATOM     79  F   UNL A   1      41.464  33.533  35.476  1.00  0.00    -0.203 F 
ATOM     80  F   UNL A   1      37.244  32.082  38.617  1.00  0.00    -0.200 F 
ATOM     81  C   UNL A   1      39.016  33.569  38.144  1.00  0.00     0.200 A 
ATOM     82  F   UNL A   1      40.795  35.032  37.627  1.00  0.00    -0.200 F 
ATOM     83  F   UNL A   1      38.670  34.335  39.189  1.00  0.00    -0.200 F 
ENDBRANCH  59  73
BRANCH  60  84
ATOM     84  C   UNL A   1      42.319  26.886  27.875  1.00  0.00     0.064 A 
ATOM     85  C   UNL A   1      41.831  25.594  27.634  1.00  0.00     0.173 A 
ATOM     86  C   UNL A   1      43.226  27.427  26.955  1.00  0.00     0.173 A 
ATOM     87  F   UNL A   1      40.980  25.027  28.502  1.00  0.00    -0.203 F 
ATOM     88  C   UNL A   1      42.252  24.862  26.526  1.00  0.00     0.198 A 
ATOM     89  C   UNL A   1      43.629  26.703  25.835  1.00  0.00     0.198 A 
ATOM     90  F   UNL A   1      43.719  28.660  27.143  1.00  0.00    -0.203 F 
ATOM     91  F   UNL A   1      41.806  23.612  26.344  1.00  0.00    -0.200 F 
ATOM     92  C   UNL A   1      43.148  25.418  25.625  1.00  0.00     0.200 A 
ATOM     93  F   UNL A   1      44.486  27.246  24.961  1.00  0.00    -0.200 F 
ATOM     94  F   UNL A   1      43.553  24.714  24.561  1.00  0.00    -0.200 F 
ENDBRANCH  60  84
BRANCH  72  95
ATOM     95  C   UNL A   1      44.715  27.019  34.408  1.00  0.00     0.064 A 
ATOM     96  C   UNL A   1      46.016  27.532  34.522  1.00  0.00     0.173 A 
ATOM     97  C   UNL A   1      44.446  25.782  35.015  1.00  0.00     0.173 A 
ATOM     98  F   UNL A   1      46.332  28.702  33.947  1.00  0.00    -0.203 F 
ATOM     99  C   UNL A   1      47.009  26.827  35.198  1.00  0.00     0.198 A 
ATOM    100  C   UNL A   1      45.434  25.090  35.712  1.00  0.00     0.198 A 
ATOM    101  F   UNL A   1      43.218  25.245  34.939  1.00  0.00    -0.203 F 
ATOM    102  F   UNL A   1      48.255  27.318  35.259  1.00  0.00    -0.200 F 
ATOM    103  C   UNL A   1      46.716  25.610  35.799  1.00  0.00     0.200 A 
ATOM    104  F   UNL A   1      45.145  23.922  36.299  1.00  0.00    -0.200 F 
ATOM    105  F   UNL A   1      47.671  24.937  36.454  1.00  0.00    -0.200 F 
ENDBRANCH  72  95
ENDBRANCH  46  47
ENDBRANCH  38  41
ENDBRANCH  36  37
ENDBRANCH  35  36
ENDBRANCH   1  35
TORSDOF 14
ENDMDL
MODEL 2
REMARK VINA RESULT:     -13.6      1.131      1.787
REMARK SMILES CC1=CC[C@](C(=O)NCCCNC(=O)c2ccc(-c3c4nc(c(-c5c(F)c(F)c(F)c(F)c5F)c5ccc([nH]5)c(-c5c(F)c(F)c(F)c(F)c5F)c5nc(c(-c6c(F)c(F)c(F)c(F)c6F)c6ccc3[nH]6)C=C5)C=C4)cc2)(C(=O)N/N=C/C2=C([O-])CC(C)(C)CC2=O)C[C@@H]1c1ccccc1
REMARK SMILES IDX 9 1 8 2 6 3 7 4 5 6 1 7 2 8 3 9 94 10 4 11 93 12 95 13 96 14
REMARK SMILES IDX 100 15 97 16 99 17 98 18 78 19 79 20 80 21 81 23 82 24 83 25
REMARK SMILES IDX 84 26 91 27 85 28 86 29 90 30 92 31 87 32 88 33 89 34 10 35
REMARK SMILES IDX 11 36 12 37 13 38 14 40 15 41 16 42 77 43 17 44 76 45 18 46
REMARK SMILES IDX 19 47 20 48 70 49 21 50 75 51 69 52 71 53 22 54 74 55 68 56
REMARK SMILES IDX 67 57 23 59 55 60 35 61 54 62 36 63 39 64 53 65 72 66 37 67
REMARK SMILES IDX 38 68 52 70 73 71 40 72 24 73 25 74 33 75 26 76 27 77 31 78
REMARK SMILES IDX 34 79 28 80 29 81 32 82 30 83 56 84 57 85 65 86 58 87 59 88
REMARK SMILES IDX 63 89 66 90 60 91 61 92 64 93 62 94 41 95 42 96 50 97 43 98
REMARK SMILES IDX 44 99 48 100 51 101 45 102 46 103 49 104 47 105
REMARK H PARENT 8 5 80 22 12 39 71 58 39 69
REMARK Flexibility Score: inf
ROOT
ATOM      1  C   UNL A   1      31.832  28.189  27.595  1.00  0.00     0.117 C 
ENDROOT
BRANCH   1   2
ATOM      2  N   UNL A   1      30.730  27.313  27.228  1.00  0.00    -0.355 N 
ATOM      3  C   UNL A   1      30.586  26.164  26.522  1.00  0.00     0.236 C 
ATOM      4  O   UNL A   1      29.457  25.665  26.625  1.00  0.00    -0.274 OA
ATOM      5  H   UNL A   1      29.869  27.636  27.582  1.00  0.00     0.163 HD
BRANCH   3   6
ATOM      6  C   UNL A   1      31.682  25.433  25.718  1.00  0.00     0.133 C 
ATOM      7  C   UNL A   1      35.846  23.952  25.038  1.00  0.00     0.040 C 
ATOM      8  C   UNL A   1      34.452  24.456  25.307  1.00  0.00    -0.070 C 
ATOM      9  C   UNL A   1      33.749  24.010  26.365  1.00  0.00    -0.026 C 
ATOM     10  C   UNL A   1      33.913  25.528  24.372  1.00  0.00     0.046 C 
ATOM     11  C   UNL A   1      32.377  24.497  26.748  1.00  0.00     0.054 C 
ATOM     12  C   UNL A   1      32.756  26.323  25.049  1.00  0.00     0.040 C 
BRANCH  10  13
ATOM     13  C   UNL A   1      33.563  25.059  22.959  1.00  0.00    -0.041 A 
ATOM     14  C   UNL A   1      33.197  26.016  21.995  1.00  0.00     0.004 A 
ATOM     15  C   UNL A   1      33.551  23.708  22.577  1.00  0.00     0.004 A 
ATOM     16  C   UNL A   1      32.803  25.633  20.710  1.00  0.00     0.000 A 
ATOM     17  C   UNL A   1      33.174  23.326  21.286  1.00  0.00     0.000 A 
ATOM     18  C   UNL A   1      32.792  24.287  20.356  1.00  0.00     0.000 A 
ENDBRANCH  10  13
BRANCH   6  19
ATOM     19  C   UNL A   1      30.955  24.557  24.651  1.00  0.00     0.256 C 
ATOM     20  O   UNL A   1      31.017  23.320  24.663  1.00  0.00    -0.272 OA
ATOM     21  N   UNL A   1      30.188  25.129  23.651  1.00  0.00    -0.246 N 
ATOM     22  H   UNL A   1      29.603  24.519  23.145  1.00  0.00     0.193 HD
BRANCH  21  23
ATOM     23  N   UNL A   1      30.153  26.439  23.289  1.00  0.00    -0.181 NA
ATOM     24  C   UNL A   1      28.984  26.997  23.327  1.00  0.00     0.144 C 
BRANCH  24  25
ATOM     25  C   UNL A   1      28.807  28.432  23.016  1.00  0.00     0.026 C 
ATOM     26  C   UNL A   1      29.787  29.144  22.430  1.00  0.00    -0.119 C 
ATOM     27  C   UNL A   1      27.520  29.097  23.313  1.00  0.00     0.164 C 
ATOM     28  O   UNL A   1      31.042  28.636  22.153  1.00  0.00    -0.875 OA
ATOM     29  C   UNL A   1      29.612  30.590  22.049  1.00  0.00     0.026 C 
ATOM     30  C   UNL A   1      27.439  30.610  23.309  1.00  0.00     0.087 C 
ATOM     31  O   UNL A   1      26.523  28.424  23.588  1.00  0.00    -0.294 OA
ATOM     32  C   UNL A   1      28.765  31.353  23.081  1.00  0.00    -0.025 C 
ATOM     33  C   UNL A   1      29.533  31.507  24.412  1.00  0.00     0.012 C 
ATOM     34  C   UNL A   1      28.453  32.763  22.554  1.00  0.00     0.012 C 
ENDBRANCH  24  25
ENDBRANCH  21  23
ENDBRANCH   6  19
ENDBRANCH   3   6
ENDBRANCH   1   2
BRANCH   1  35
ATOM     35  C   UNL A   1      31.788  29.519  26.830  1.00  0.00     0.042 C 
BRANCH  35  36
ATOM     36  C   UNL A   1      33.180  30.123  26.565  1.00  0.00     0.118 C 
BRANCH  36  37
ATOM     37  N   UNL A   1      33.292  31.511  26.983  1.00  0.00    -0.352 N 
ATOM     38  C   UNL A   1      34.170  32.168  27.814  1.00  0.00     0.251 C 
ATOM     39  H   UNL A   1      32.603  32.097  26.595  1.00  0.00     0.163 HD
ATOM     40  O   UNL A   1      33.933  33.347  28.076  1.00  0.00    -0.269 OA
BRANCH  38  41
ATOM     41  C   UNL A   1      35.372  31.538  28.436  1.00  0.00     0.039 A 
ATOM     42  C   UNL A   1      36.589  32.225  28.327  1.00  0.00     0.014 A 
ATOM     43  C   UNL A   1      35.387  30.262  29.001  1.00  0.00     0.014 A 
ATOM     44  C   UNL A   1      37.785  31.669  28.810  1.00  0.00     0.010 A 
ATOM     45  C   UNL A   1      36.576  29.736  29.546  1.00  0.00     0.010 A 
ATOM     46  C   UNL A   1      37.799  30.426  29.462  1.00  0.00    -0.014 A 
BRANCH  46  47
ATOM     47  C   UNL A   1      39.075  29.875  30.038  1.00  0.00     0.031 A 
ATOM     48  C   UNL A   1      39.645  30.384  31.344  1.00  0.00     0.074 A 
ATOM     49  C   UNL A   1      39.773  28.920  29.382  1.00  0.00     0.049 A 
ATOM     50  N   UNL A   1      40.736  30.012  31.976  1.00  0.00    -0.248 NA
ATOM     51  C   UNL A   1      38.916  31.469  32.013  1.00  0.00     0.031 C 
ATOM     52  C   UNL A   1      39.421  28.356  28.078  1.00  0.00     0.029 A 
ATOM     53  N   UNL A   1      40.932  28.256  29.721  1.00  0.00    -0.354 N 
ATOM     54  C   UNL A   1      40.834  30.829  33.096  1.00  0.00     0.074 A 
ATOM     55  C   UNL A   1      39.721  31.755  33.027  1.00  0.00     0.031 C 
ATOM     56  C   UNL A   1      40.320  27.418  27.742  1.00  0.00     0.029 A 
ATOM     57  C   UNL A   1      41.329  27.320  28.794  1.00  0.00     0.049 A 
ATOM     58  H   UNL A   1      41.431  28.436  30.550  1.00  0.00     0.167 HD
ATOM     59  C   UNL A   1      41.736  30.802  34.109  1.00  0.00     0.037 A 
ATOM     60  C   UNL A   1      42.374  26.468  28.784  1.00  0.00     0.037 A 
ATOM     61  C   UNL A   1      42.817  29.859  34.238  1.00  0.00     0.049 A 
ATOM     62  C   UNL A   1      43.337  26.422  29.940  1.00  0.00     0.074 A 
ATOM     63  C   UNL A   1      43.715  29.714  35.285  1.00  0.00     0.029 A 
ATOM     64  N   UNL A   1      43.149  28.898  33.299  1.00  0.00    -0.354 N 
ATOM     65  N   UNL A   1      43.352  27.138  31.034  1.00  0.00    -0.248 NA
ATOM     66  C   UNL A   1      44.423  25.429  29.862  1.00  0.00     0.031 C 
ATOM     67  C   UNL A   1      44.612  28.689  34.963  1.00  0.00     0.029 A 
ATOM     68  C   UNL A   1      44.247  28.167  33.735  1.00  0.00     0.049 A 
ATOM     69  H   UNL A   1      42.678  28.754  32.446  1.00  0.00     0.167 HD
ATOM     70  C   UNL A   1      44.418  26.663  31.787  1.00  0.00     0.074 A 
ATOM     71  C   UNL A   1      45.026  25.591  31.031  1.00  0.00     0.031 C 
ATOM     72  C   UNL A   1      44.847  27.083  33.003  1.00  0.00     0.037 A 
BRANCH  59  73
ATOM     73  C   UNL A   1      41.584  31.831  35.196  1.00  0.00     0.064 A 
ATOM     74  C   UNL A   1      42.371  32.991  35.223  1.00  0.00     0.173 A 
ATOM     75  C   UNL A   1      40.613  31.673  36.197  1.00  0.00     0.173 A 
ATOM     76  F   UNL A   1      43.314  33.189  34.289  1.00  0.00    -0.203 F 
ATOM     77  C   UNL A   1      42.220  33.936  36.234  1.00  0.00     0.198 A 
ATOM     78  C   UNL A   1      40.444  32.635  37.189  1.00  0.00     0.198 A 
ATOM     79  F   UNL A   1      39.821  30.589  36.208  1.00  0.00    -0.203 F 
ATOM     80  F   UNL A   1      43.023  35.009  36.270  1.00  0.00    -0.200 F 
ATOM     81  C   UNL A   1      41.254  33.760  37.213  1.00  0.00     0.200 A 
ATOM     82  F   UNL A   1      39.498  32.472  38.125  1.00  0.00    -0.200 F 
ATOM     83  F   UNL A   1      41.110  34.671  38.185  1.00  0.00    -0.200 F 
ENDBRANCH  59  73
BRANCH  60  84
ATOM     84  C   UNL A   1      42.547  25.528  27.644  1.00  0.00     0.064 A 
ATOM     85  C   UNL A   1      41.848  24.313  27.606  1.00  0.00     0.173 A 
ATOM     86  C   UNL A   1      43.424  25.814  26.590  1.00  0.00     0.173 A 
ATOM     87  F   UNL A   1      41.017  23.987  28.607  1.00  0.00    -0.203 F 
ATOM     88  C   UNL A   1      42.037  23.408  26.564  1.00  0.00     0.198 A 
ATOM     89  C   UNL A   1      43.594  24.919  25.536  1.00  0.00     0.198 A 
ATOM     90  F   UNL A   1      44.113  26.964  26.582  1.00  0.00    -0.203 F 
ATOM     91  F   UNL A   1      41.392  22.234  26.576  1.00  0.00    -0.200 F 
ATOM     92  C   UNL A   1      42.907  23.713  25.528  1.00  0.00     0.200 A 
ATOM     93  F   UNL A   1      44.427  25.220  24.532  1.00  0.00    -0.200 F 
ATOM     94  F   UNL A   1      43.089  22.842  24.527  1.00  0.00    -0.200 F 
ENDBRANCH  60  84
BRANCH  72  95
ATOM     95  C   UNL A   1      46.001  26.354  33.629  1.00  0.00     0.064 A 
ATOM     96  C   UNL A   1      47.328  26.772  33.450  1.00  0.00     0.173 A 
ATOM     97  C   UNL A   1      45.772  25.241  34.454  1.00  0.00     0.173 A 
ATOM     98  F   UNL A   1      47.604  27.820  32.660  1.00  0.00    -0.203 F 
ATOM     99  C   UNL A   1      48.383  26.092  34.056  1.00  0.00     0.198 A 
ATOM    100  C   UNL A   1      46.827  24.578  35.079  1.00  0.00     0.198 A 
ATOM    101  F   UNL A   1      44.522  24.799  34.662  1.00  0.00    -0.203 F 
ATOM    102  F   UNL A   1      49.645  26.486  33.836  1.00  0.00    -0.200 F 
ATOM    103  C   UNL A   1      48.132  25.001  34.875  1.00  0.00     0.200 A 
ATOM    104  F   UNL A   1      46.580  23.531  35.877  1.00  0.00    -0.200 F 
ATOM    105  F   UNL A   1      49.147  24.352  35.461  1.00  0.00    -0.200 F 
ENDBRANCH  72  95
ENDBRANCH  46  47
ENDBRANCH  38  41
ENDBRANCH  36  37
ENDBRANCH  35  36
ENDBRANCH   1  35
TORSDOF 14
ENDMDL
MODEL 3
REMARK VINA RESULT:     -13.5      0.336      2.121
REMARK SMILES CC1=CC[C@](C(=O)NCCCNC(=O)c2ccc(-c3c4nc(c(-c5c(F)c(F)c(F)c(F)c5F)c5ccc([nH]5)c(-c5c(F)c(F)c(F)c(F)c5F)c5nc(c(-c6c(F)c(F)c(F)c(F)c6F)c6ccc3[nH]6)C=C5)C=C4)cc2)(C(=O)N/N=C/C2=C([O-])CC(C)(C)CC2=O)C[C@@H]1c1ccccc1
REMARK SMILES IDX 9 1 8 2 6 3 7 4 5 6 1 7 2 8 3 9 94 10 4 11 93 12 95 13 96 14
REMARK SMILES IDX 100 15 97 16 99 17 98 18 78 19 79 20 80 21 81 23 82 24 83 25
REMARK SMILES IDX 84 26 91 27 85 28 86 29 90 30 92 31 87 32 88 33 89 34 10 35
REMARK SMILES IDX 11 36 12 37 13 38 14 40 15 41 16 42 77 43 17 44 76 45 18 46
REMARK SMILES IDX 19 47 20 48 70 49 21 50 75 51 69 52 71 53 22 54 74 55 68 56
REMARK SMILES IDX 67 57 23 59 55 60 35 61 54 62 36 63 39 64 53 65 72 66 37 67
REMARK SMILES IDX 38 68 52 70 73 71 40 72 24 73 25 74 33 75 26 76 27 77 31 78
REMARK SMILES IDX 34 79 28 80 29 81 32 82 30 83 56 84 57 85 65 86 58 87 59 88
REMARK SMILES IDX 63 89 66 90 60 91 61 92 64 93 62 94 41 95 42 96 50 97 43 98
REMARK SMILES IDX 44 99 48 100 51 101 45 102 46 103 49 104 47 105
REMARK H PARENT 8 5 80 22 12 39 71 58 39 69
REMARK Flexibility Score: inf
ROOT
ATOM      1  C   UNL A   1      31.889  28.099  27.345  1.00  0.00     0.117 C 
ENDROOT
BRANCH   1   2
ATOM      2  N   UNL A   1      30.812  27.142  27.135  1.00  0.00    -0.355 N 
ATOM      3  C   UNL A   1      30.670  25.955  26.497  1.00  0.00     0.236 C 
ATOM      4  O   UNL A   1      29.592  25.394  26.741  1.00  0.00    -0.274 OA
ATOM      5  H   UNL A   1      29.974  27.431  27.566  1.00  0.00     0.163 HD
BRANCH   3   6
ATOM      6  C   UNL A   1      31.721  25.252  25.611  1.00  0.00     0.133 C 
ATOM      7  C   UNL A   1      35.817  23.701  24.708  1.00  0.00     0.040 C 
ATOM      8  C   UNL A   1      34.446  24.225  25.052  1.00  0.00    -0.070 C 
ATOM      9  C   UNL A   1      33.758  23.724  26.094  1.00  0.00    -0.026 C 
ATOM     10  C   UNL A   1      33.918  25.379  24.213  1.00  0.00     0.046 C 
ATOM     11  C   UNL A   1      32.412  24.223  26.550  1.00  0.00     0.054 C 
ATOM     12  C   UNL A   1      32.805  26.156  24.979  1.00  0.00     0.040 C 
BRANCH  10  13
ATOM     13  C   UNL A   1      33.517  25.027  22.781  1.00  0.00    -0.041 A 
ATOM     14  C   UNL A   1      33.569  23.682  22.370  1.00  0.00     0.004 A 
ATOM     15  C   UNL A   1      33.129  25.986  21.830  1.00  0.00     0.004 A 
ATOM     16  C   UNL A   1      33.277  23.315  21.053  1.00  0.00     0.000 A 
ATOM     17  C   UNL A   1      32.821  25.617  20.517  1.00  0.00     0.000 A 
ATOM     18  C   UNL A   1      32.904  24.285  20.127  1.00  0.00     0.000 A 
ENDBRANCH  10  13
BRANCH   6  19
ATOM     19  C   UNL A   1      30.938  24.479  24.504  1.00  0.00     0.256 C 
ATOM     20  O   UNL A   1      30.969  23.244  24.419  1.00  0.00    -0.272 OA
ATOM     21  N   UNL A   1      30.156  25.146  23.577  1.00  0.00    -0.246 N 
ATOM     22  H   UNL A   1      29.541  24.591  23.045  1.00  0.00     0.193 HD
BRANCH  21  23
ATOM     23  N   UNL A   1      30.144  26.481  23.319  1.00  0.00    -0.181 NA
ATOM     24  C   UNL A   1      29.007  27.074  23.505  1.00  0.00     0.144 C 
BRANCH  24  25
ATOM     25  C   UNL A   1      28.862  28.533  23.319  1.00  0.00     0.026 C 
ATOM     26  C   UNL A   1      27.655  29.126  23.368  1.00  0.00    -0.119 C 
ATOM     27  C   UNL A   1      30.063  29.373  23.115  1.00  0.00     0.164 C 
ATOM     28  O   UNL A   1      26.467  28.434  23.506  1.00  0.00    -0.875 OA
ATOM     29  C   UNL A   1      27.486  30.617  23.240  1.00  0.00     0.026 C 
ATOM     30  C   UNL A   1      29.909  30.790  22.600  1.00  0.00     0.087 C 
ATOM     31  O   UNL A   1      31.186  28.913  23.337  1.00  0.00    -0.294 OA
ATOM     32  C   UNL A   1      28.480  31.220  22.233  1.00  0.00    -0.025 C 
ATOM     33  C   UNL A   1      28.136  30.776  20.794  1.00  0.00     0.012 C 
ATOM     34  C   UNL A   1      28.401  32.753  22.282  1.00  0.00     0.012 C 
ENDBRANCH  24  25
ENDBRANCH  21  23
ENDBRANCH   6  19
ENDBRANCH   3   6
ENDBRANCH   1   2
BRANCH   1  35
ATOM     35  C   UNL A   1      31.516  29.502  26.845  1.00  0.00     0.042 C 
BRANCH  35  36
ATOM     36  C   UNL A   1      32.716  30.300  26.303  1.00  0.00     0.118 C 
BRANCH  36  37
ATOM     37  N   UNL A   1      32.663  31.714  26.638  1.00  0.00    -0.352 N 
ATOM     38  C   UNL A   1      33.447  32.514  27.437  1.00  0.00     0.251 C 
ATOM     39  H   UNL A   1      31.919  32.194  26.209  1.00  0.00     0.163 HD
ATOM     40  O   UNL A   1      33.073  33.672  27.627  1.00  0.00    -0.269 OA
BRANCH  38  41
ATOM     41  C   UNL A   1      34.701  32.063  28.108  1.00  0.00     0.039 A 
ATOM     42  C   UNL A   1      34.676  30.816  28.748  1.00  0.00     0.014 A 
ATOM     43  C   UNL A   1      35.845  32.850  28.247  1.00  0.00     0.014 A 
ATOM     44  C   UNL A   1      35.785  30.348  29.475  1.00  0.00     0.010 A 
ATOM     45  C   UNL A   1      36.980  32.349  28.918  1.00  0.00     0.010 A 
ATOM     46  C   UNL A   1      36.974  31.091  29.547  1.00  0.00    -0.014 A 
BRANCH  46  47
ATOM     47  C   UNL A   1      38.177  30.545  30.268  1.00  0.00     0.031 A 
ATOM     48  C   UNL A   1      38.480  30.913  31.705  1.00  0.00     0.074 A 
ATOM     49  C   UNL A   1      39.047  29.726  29.636  1.00  0.00     0.049 A 
ATOM     50  N   UNL A   1      39.476  30.526  32.469  1.00  0.00    -0.248 NA
ATOM     51  C   UNL A   1      37.565  31.857  32.359  1.00  0.00     0.031 C 
ATOM     52  C   UNL A   1      38.962  29.317  28.234  1.00  0.00     0.029 A 
ATOM     53  N   UNL A   1      40.183  29.093  30.092  1.00  0.00    -0.354 N 
ATOM     54  C   UNL A   1      39.321  31.196  33.677  1.00  0.00     0.074 A 
ATOM     55  C   UNL A   1      38.166  32.056  33.525  1.00  0.00     0.031 C 
ATOM     56  C   UNL A   1      39.977  28.485  27.952  1.00  0.00     0.029 A 
ATOM     57  C   UNL A   1      40.802  28.310  29.145  1.00  0.00     0.049 A 
ATOM     58  H   UNL A   1      40.522  29.192  31.010  1.00  0.00     0.167 HD
ATOM     59  C   UNL A   1      40.042  31.090  34.822  1.00  0.00     0.037 A 
ATOM     60  C   UNL A   1      41.898  27.528  29.217  1.00  0.00     0.037 A 
ATOM     61  C   UNL A   1      41.159  30.203  35.026  1.00  0.00     0.049 A 
ATOM     62  C   UNL A   1      42.657  27.389  30.510  1.00  0.00     0.074 A 
ATOM     63  C   UNL A   1      41.879  29.976  36.189  1.00  0.00     0.029 A 
ATOM     64  N   UNL A   1      41.718  29.393  34.052  1.00  0.00    -0.354 N 
ATOM     65  N   UNL A   1      42.433  27.957  31.666  1.00  0.00    -0.248 NA
ATOM     66  C   UNL A   1      43.817  26.480  30.506  1.00  0.00     0.031 C 
ATOM     67  C   UNL A   1      42.896  29.055  35.910  1.00  0.00     0.029 A 
ATOM     68  C   UNL A   1      42.782  28.677  34.584  1.00  0.00     0.049 A 
ATOM     69  H   UNL A   1      41.407  29.333  33.120  1.00  0.00     0.167 HD
ATOM     70  C   UNL A   1      43.394  27.451  32.533  1.00  0.00     0.074 A 
ATOM     71  C   UNL A   1      44.202  26.523  31.773  1.00  0.00     0.031 C 
ATOM     72  C   UNL A   1      43.580  27.734  33.845  1.00  0.00     0.037 A 
BRANCH  59  73
ATOM     73  C   UNL A   1      39.630  31.958  35.979  1.00  0.00     0.064 A 
ATOM     74  C   UNL A   1      40.266  33.180  36.242  1.00  0.00     0.173 A 
ATOM     75  C   UNL A   1      38.562  31.583  36.808  1.00  0.00     0.173 A 
ATOM     76  F   UNL A   1      41.293  33.584  35.480  1.00  0.00    -0.203 F 
ATOM     77  C   UNL A   1      39.875  33.975  37.317  1.00  0.00     0.198 A 
ATOM     78  C   UNL A   1      38.153  32.395  37.863  1.00  0.00     0.198 A 
ATOM     79  F   UNL A   1      37.907  30.431  36.590  1.00  0.00    -0.203 F 
ATOM     80  F   UNL A   1      40.535  35.111  37.582  1.00  0.00    -0.200 F 
ATOM     81  C   UNL A   1      38.817  33.584  38.123  1.00  0.00     0.200 A 
ATOM     82  F   UNL A   1      37.119  32.025  38.630  1.00  0.00    -0.200 F 
ATOM     83  F   UNL A   1      38.441  34.352  39.156  1.00  0.00    -0.200 F 
ENDBRANCH  59  73
BRANCH  60  84
ATOM     84  C   UNL A   1      42.332  26.757  28.022  1.00  0.00     0.064 A 
ATOM     85  C   UNL A   1      43.245  27.305  27.110  1.00  0.00     0.173 A 
ATOM     86  C   UNL A   1      41.830  25.476  27.758  1.00  0.00     0.173 A 
ATOM     87  F   UNL A   1      43.731  28.539  27.309  1.00  0.00    -0.203 F 
ATOM     88  C   UNL A   1      43.624  26.607  25.965  1.00  0.00     0.198 A 
ATOM     89  C   UNL A   1      42.228  24.769  26.626  1.00  0.00     0.198 A 
ATOM     90  F   UNL A   1      40.956  24.910  28.603  1.00  0.00    -0.203 F 
ATOM     91  F   UNL A   1      44.462  27.172  25.086  1.00  0.00    -0.200 F 
ATOM     92  C   UNL A   1      43.118  25.338  25.725  1.00  0.00     0.200 A 
ATOM     93  F   UNL A   1      41.746  23.539  26.402  1.00  0.00    -0.200 F 
ATOM     94  F   UNL A   1      43.482  24.667  24.625  1.00  0.00    -0.200 F 
ENDBRANCH  60  84
BRANCH  72  95
ATOM     95  C   UNL A   1      44.668  26.998  34.574  1.00  0.00     0.064 A 
ATOM     96  C   UNL A   1      44.445  25.755  35.184  1.00  0.00     0.173 A 
ATOM     97  C   UNL A   1      45.967  27.529  34.630  1.00  0.00     0.173 A 
ATOM     98  F   UNL A   1      43.219  25.211  35.174  1.00  0.00    -0.203 F 
ATOM     99  C   UNL A   1      45.473  25.082  35.840  1.00  0.00     0.198 A 
ATOM    100  C   UNL A   1      47.000  26.842  35.264  1.00  0.00     0.198 A 
ATOM    101  F   UNL A   1      46.238  28.714  34.060  1.00  0.00    -0.203 F 
ATOM    102  F   UNL A   1      45.225  23.915  36.451  1.00  0.00    -0.200 F 
ATOM    103  C   UNL A   1      46.751  25.621  35.873  1.00  0.00     0.200 A 
ATOM    104  F   UNL A   1      48.235  27.361  35.285  1.00  0.00    -0.200 F 
ATOM    105  F   UNL A   1      47.740  24.969  36.498  1.00  0.00    -0.200 F 
ENDBRANCH  72  95
ENDBRANCH  46  47
ENDBRANCH  38  41
ENDBRANCH  36  37
ENDBRANCH  35  36
ENDBRANCH   1  35
TORSDOF 14
ENDMDL
