MODEL 1
REMARK VINA RESULT:     -11.7      0.000      0.000
REMARK SMILES CCCC1(C(=O)NCCCNC(=O)c2ccc(-c3c4nc(c(-c5c(F)c(F)c(F)c(F)c5F)c5ccc([nH]5)c(-c5c(F)c(F)c(F)c(F)c5F)c5nc(c(-c6c(F)c(F)c(F)c(F)c6F)c6ccc3[nH]6)C=C5)C=C4)cc2)CC[NH+]([C@H](C)[C@H](C)O)CC1
REMARK SMILES IDX 8 1 7 2 5 3 6 4 4 6 77 7 86 8 78 9 85 10 79 11 3 13 2 14
REMARK SMILES IDX 1 15 80 16 81 17 82 18 83 19 84 20 9 22 10 23 11 24 12 25
REMARK SMILES IDX 13 27 14 28 15 29 76 30 16 31 75 32 17 33 18 34 19 35 69 36
REMARK SMILES IDX 20 37 74 38 68 39 70 40 21 41 73 42 67 43 66 44 22 46 54 47
REMARK SMILES IDX 34 48 53 49 35 50 38 51 52 52 71 53 36 54 37 55 51 57 72 58
REMARK SMILES IDX 39 59 23 60 24 61 32 62 25 63 26 64 30 65 33 66 27 67 28 68
REMARK SMILES IDX 31 69 29 70 55 71 56 72 64 73 57 74 58 75 62 76 65 77 59 78
REMARK SMILES IDX 60 79 63 80 61 81 40 82 41 83 49 84 42 85 43 86 47 87 50 88
REMARK SMILES IDX 44 89 45 90 48 91 46 92
REMARK H PARENT 7 5 79 12 84 21 11 26 70 45 38 56
REMARK Flexibility Score: inf
ROOT
ATOM      1  C   UNL A   1      31.420  30.831  26.205  1.00  0.00     0.117 C 
ENDROOT
BRANCH   1   2
ATOM      2  N   UNL A   1      32.763  30.310  26.288  1.00  0.00    -0.356 N 
ATOM      3  C   UNL A   1      33.336  29.206  25.741  1.00  0.00     0.226 C 
ATOM      4  O   UNL A   1      34.395  28.869  26.282  1.00  0.00    -0.274 OA
ATOM      5  H   UNL A   1      33.374  30.851  26.840  1.00  0.00     0.163 HD
BRANCH   3   6
ATOM      6  C   UNL A   1      32.685  28.344  24.619  1.00  0.00     0.060 C 
ATOM      7  C   UNL A   1      31.341  27.843  25.234  1.00  0.00     0.078 C 
ATOM      8  C   UNL A   1      32.441  29.080  23.272  1.00  0.00     0.078 C 
ATOM      9  C   UNL A   1      30.354  27.253  24.236  1.00  0.00     0.263 C 
ATOM     10  C   UNL A   1      31.332  28.459  22.399  1.00  0.00     0.263 C 
ATOM     11  N   UNL A   1      30.101  28.135  23.116  1.00  0.00    -0.331 N 
ATOM     12  H   UNL A   1      29.499  27.529  22.559  1.00  0.00     0.348 HD
BRANCH   6  13
ATOM     13  C   UNL A   1      33.610  27.092  24.362  1.00  0.00     0.017 C 
BRANCH  13  14
ATOM     14  C   UNL A   1      33.552  25.896  25.339  1.00  0.00    -0.002 C 
ATOM     15  C   UNL A   1      34.280  24.627  24.922  1.00  0.00     0.004 C 
ENDBRANCH  13  14
ENDBRANCH   6  13
BRANCH  11  16
ATOM     16  C   UNL A   1      28.971  29.083  23.044  1.00  0.00     0.209 C 
ATOM     17  C   UNL A   1      27.556  28.492  23.127  1.00  0.00     0.078 C 
BRANCH  16  18
ATOM     18  C   UNL A   1      28.963  30.208  21.946  1.00  0.00     0.169 C 
ATOM     19  C   UNL A   1      28.807  31.655  22.411  1.00  0.00     0.045 C 
BRANCH  18  20
ATOM     20  O   UNL A   1      27.970  29.937  20.955  1.00  0.00    -0.387 OA
ATOM     21  H   UNL A   1      28.038  29.010  20.675  1.00  0.00     0.211 HD
ENDBRANCH  18  20
ENDBRANCH  16  18
ENDBRANCH  11  16
ENDBRANCH   3   6
ENDBRANCH   1   2
BRANCH   1  22
ATOM     22  C   UNL A   1      31.356  32.327  26.474  1.00  0.00     0.042 C 
BRANCH  22  23
ATOM     23  C   UNL A   1      32.581  32.869  27.183  1.00  0.00     0.118 C 
BRANCH  23  24
ATOM     24  N   UNL A   1      32.396  34.244  27.624  1.00  0.00    -0.352 N 
ATOM     25  C   UNL A   1      32.988  34.942  28.647  1.00  0.00     0.251 C 
ATOM     26  H   UNL A   1      31.738  34.759  27.103  1.00  0.00     0.163 HD
ATOM     27  O   UNL A   1      32.529  36.031  28.976  1.00  0.00    -0.269 OA
BRANCH  25  28
ATOM     28  C   UNL A   1      34.158  34.391  29.369  1.00  0.00     0.039 A 
ATOM     29  C   UNL A   1      33.947  33.696  30.564  1.00  0.00     0.014 A 
ATOM     30  C   UNL A   1      35.461  34.580  28.902  1.00  0.00     0.014 A 
ATOM     31  C   UNL A   1      35.031  33.143  31.249  1.00  0.00     0.010 A 
ATOM     32  C   UNL A   1      36.526  33.938  29.524  1.00  0.00     0.010 A 
ATOM     33  C   UNL A   1      36.326  33.227  30.715  1.00  0.00    -0.014 A 
BRANCH  33  34
ATOM     34  C   UNL A   1      37.489  32.600  31.391  1.00  0.00     0.031 A 
ATOM     35  C   UNL A   1      38.218  31.460  30.734  1.00  0.00     0.074 A 
ATOM     36  C   UNL A   1      37.843  33.007  32.625  1.00  0.00     0.049 A 
ATOM     37  N   UNL A   1      39.199  30.725  31.196  1.00  0.00    -0.248 NA
ATOM     38  C   UNL A   1      37.763  31.070  29.390  1.00  0.00     0.031 C 
ATOM     39  C   UNL A   1      37.182  34.067  33.388  1.00  0.00     0.029 A 
ATOM     40  N   UNL A   1      38.839  32.568  33.462  1.00  0.00    -0.354 N 
ATOM     41  C   UNL A   1      39.459  29.780  30.212  1.00  0.00     0.074 A 
ATOM     42  C   UNL A   1      38.496  29.993  29.155  1.00  0.00     0.031 C 
ATOM     43  C   UNL A   1      37.804  34.214  34.567  1.00  0.00     0.029 A 
ATOM     44  C   UNL A   1      38.880  33.232  34.664  1.00  0.00     0.049 A 
ATOM     45  H   UNL A   1      39.465  31.848  33.222  1.00  0.00     0.167 HD
ATOM     46  C   UNL A   1      40.431  28.837  30.181  1.00  0.00     0.037 A 
ATOM     47  C   UNL A   1      39.688  33.060  35.726  1.00  0.00     0.037 A 
ATOM     48  C   UNL A   1      41.404  28.648  31.225  1.00  0.00     0.049 A 
ATOM     49  C   UNL A   1      40.759  32.005  35.669  1.00  0.00     0.074 A 
ATOM     50  C   UNL A   1      42.468  27.766  31.263  1.00  0.00     0.029 A 
ATOM     51  N   UNL A   1      41.427  29.355  32.419  1.00  0.00    -0.354 N 
ATOM     52  N   UNL A   1      41.042  31.164  34.703  1.00  0.00    -0.248 NA
ATOM     53  C   UNL A   1      41.627  31.879  36.847  1.00  0.00     0.031 C 
ATOM     54  C   UNL A   1      43.104  27.901  32.502  1.00  0.00     0.029 A 
ATOM     55  C   UNL A   1      42.473  28.910  33.212  1.00  0.00     0.049 A 
ATOM     56  H   UNL A   1      40.794  30.067  32.666  1.00  0.00     0.167 HD
ATOM     57  C   UNL A   1      42.136  30.430  35.144  1.00  0.00     0.074 A 
ATOM     58  C   UNL A   1      42.474  30.936  36.458  1.00  0.00     0.031 C 
ATOM     59  C   UNL A   1      42.800  29.429  34.516  1.00  0.00     0.037 A 
BRANCH  46  60
ATOM     60  C   UNL A   1      40.488  27.937  28.979  1.00  0.00     0.064 A 
ATOM     61  C   UNL A   1      39.741  26.751  28.908  1.00  0.00     0.173 A 
ATOM     62  C   UNL A   1      41.280  28.277  27.872  1.00  0.00     0.173 A 
ATOM     63  F   UNL A   1      38.975  26.372  29.943  1.00  0.00    -0.203 F 
ATOM     64  C   UNL A   1      39.813  25.922  27.791  1.00  0.00     0.198 A 
ATOM     65  C   UNL A   1      41.323  27.463  26.742  1.00  0.00     0.198 A 
ATOM     66  F   UNL A   1      42.010  29.403  27.882  1.00  0.00    -0.203 F 
ATOM     67  F   UNL A   1      39.137  24.765  27.773  1.00  0.00    -0.200 F 
ATOM     68  C   UNL A   1      40.597  26.282  26.707  1.00  0.00     0.200 A 
ATOM     69  F   UNL A   1      42.070  27.821  25.689  1.00  0.00    -0.200 F 
ATOM     70  F   UNL A   1      40.661  25.487  25.631  1.00  0.00    -0.200 F 
ENDBRANCH  46  60
BRANCH  47  71
ATOM     71  C   UNL A   1      39.533  33.928  36.922  1.00  0.00     0.064 A 
ATOM     72  C   UNL A   1      40.151  35.185  36.984  1.00  0.00     0.173 A 
ATOM     73  C   UNL A   1      38.761  33.527  38.022  1.00  0.00     0.173 A 
ATOM     74  F   UNL A   1      40.915  35.606  35.966  1.00  0.00    -0.203 F 
ATOM     75  C   UNL A   1      40.018  35.998  38.108  1.00  0.00     0.198 A 
ATOM     76  C   UNL A   1      38.605  34.353  39.132  1.00  0.00     0.198 A 
ATOM     77  F   UNL A   1      38.142  32.337  38.010  1.00  0.00    -0.203 F 
ATOM     78  F   UNL A   1      40.657  37.175  38.159  1.00  0.00    -0.200 F 
ATOM     79  C   UNL A   1      39.240  35.585  39.179  1.00  0.00     0.200 A 
ATOM     80  F   UNL A   1      37.839  33.956  40.158  1.00  0.00    -0.200 F 
ATOM     81  F   UNL A   1      39.108  36.370  40.256  1.00  0.00    -0.200 F 
ENDBRANCH  47  71
BRANCH  59  82
ATOM     82  C   UNL A   1      43.985  28.839  35.224  1.00  0.00     0.064 A 
ATOM     83  C   UNL A   1      45.282  29.337  35.034  1.00  0.00     0.173 A 
ATOM     84  C   UNL A   1      43.812  27.788  36.138  1.00  0.00     0.173 A 
ATOM     85  F   UNL A   1      45.502  30.331  34.161  1.00  0.00    -0.203 F 
ATOM     86  C   UNL A   1      46.366  28.786  35.713  1.00  0.00     0.198 A 
ATOM     87  C   UNL A   1      44.893  27.262  36.839  1.00  0.00     0.198 A 
ATOM     88  F   UNL A   1      42.590  27.280  36.363  1.00  0.00    -0.203 F 
ATOM     89  F   UNL A   1      47.604  29.243  35.478  1.00  0.00    -0.200 F 
ATOM     90  C   UNL A   1      46.170  27.755  36.620  1.00  0.00     0.200 A 
ATOM     91  F   UNL A   1      44.699  26.277  37.727  1.00  0.00    -0.200 F 
ATOM     92  F   UNL A   1      47.214  27.233  37.279  1.00  0.00    -0.200 F 
ENDBRANCH  59  82
ENDBRANCH  33  34
ENDBRANCH  25  28
ENDBRANCH  23  24
ENDBRANCH  22  23
ENDBRANCH   1  22
TORSDOF 15
ENDMDL
MODEL 2
REMARK VINA RESULT:     -11.5      1.372      2.573
REMARK SMILES CCCC1(C(=O)NCCCNC(=O)c2ccc(-c3c4nc(c(-c5c(F)c(F)c(F)c(F)c5F)c5ccc([nH]5)c(-c5c(F)c(F)c(F)c(F)c5F)c5nc(c(-c6c(F)c(F)c(F)c(F)c6F)c6ccc3[nH]6)C=C5)C=C4)cc2)CC[NH+]([C@H](C)[C@H](C)O)CC1
REMARK SMILES IDX 8 1 7 2 5 3 6 4 4 6 77 7 86 8 78 9 85 10 79 11 3 13 2 14
REMARK SMILES IDX 1 15 80 16 81 17 82 18 83 19 84 20 9 22 10 23 11 24 12 25
REMARK SMILES IDX 13 27 14 28 15 29 76 30 16 31 75 32 17 33 18 34 19 35 69 36
REMARK SMILES IDX 20 37 74 38 68 39 70 40 21 41 73 42 67 43 66 44 22 46 54 47
REMARK SMILES IDX 34 48 53 49 35 50 38 51 52 52 71 53 36 54 37 55 51 57 72 58
REMARK SMILES IDX 39 59 23 60 24 61 32 62 25 63 26 64 30 65 33 66 27 67 28 68
REMARK SMILES IDX 31 69 29 70 55 71 56 72 64 73 57 74 58 75 62 76 65 77 59 78
REMARK SMILES IDX 60 79 63 80 61 81 40 82 41 83 49 84 42 85 43 86 47 87 50 88
REMARK SMILES IDX 44 89 45 90 48 91 46 92
REMARK H PARENT 7 5 79 12 84 21 11 26 70 45 38 56
REMARK Flexibility Score: inf
ROOT
ATOM      1  C   UNL A   1      31.287  30.715  26.270  1.00  0.00     0.117 C 
ENDROOT
BRANCH   1   2
ATOM      2  N   UNL A   1      31.884  30.276  25.031  1.00  0.00    -0.356 N 
ATOM      3  C   UNL A   1      32.616  29.173  24.726  1.00  0.00     0.226 C 
ATOM      4  O   UNL A   1      33.257  29.270  23.673  1.00  0.00    -0.274 OA
ATOM      5  H   UNL A   1      31.734  30.885  24.272  1.00  0.00     0.163 HD
BRANCH   3   6
ATOM      6  C   UNL A   1      32.760  27.931  25.655  1.00  0.00     0.060 C 
ATOM      7  C   UNL A   1      31.309  27.377  25.804  1.00  0.00     0.078 C 
ATOM      8  C   UNL A   1      33.729  26.827  25.145  1.00  0.00     0.078 C 
ATOM      9  C   UNL A   1      31.211  25.975  26.390  1.00  0.00     0.263 C 
ATOM     10  C   UNL A   1      33.453  25.424  25.719  1.00  0.00     0.263 C 
ATOM     11  N   UNL A   1      32.049  25.021  25.696  1.00  0.00    -0.331 N 
ATOM     12  H   UNL A   1      31.892  24.201  26.282  1.00  0.00     0.348 HD
BRANCH   6  13
ATOM     13  C   UNL A   1      33.247  28.430  27.070  1.00  0.00     0.017 C 
BRANCH  13  14
ATOM     14  C   UNL A   1      34.693  28.953  27.230  1.00  0.00    -0.002 C 
ATOM     15  C   UNL A   1      34.859  30.412  27.631  1.00  0.00     0.004 C 
ENDBRANCH  13  14
ENDBRANCH   6  13
BRANCH  11  16
ATOM     16  C   UNL A   1      31.582  24.147  24.600  1.00  0.00     0.209 C 
ATOM     17  C   UNL A   1      32.592  23.142  24.028  1.00  0.00     0.078 C 
BRANCH  16  18
ATOM     18  C   UNL A   1      30.778  24.763  23.398  1.00  0.00     0.169 C 
ATOM     19  C   UNL A   1      31.446  25.875  22.591  1.00  0.00     0.045 C 
BRANCH  18  20
ATOM     20  O   UNL A   1      29.496  25.221  23.833  1.00  0.00    -0.387 OA
ATOM     21  H   UNL A   1      29.106  24.568  24.434  1.00  0.00     0.211 HD
ENDBRANCH  18  20
ENDBRANCH  16  18
ENDBRANCH  11  16
ENDBRANCH   3   6
ENDBRANCH   1   2
BRANCH   1  22
ATOM     22  C   UNL A   1      31.302  32.229  26.421  1.00  0.00     0.042 C 
BRANCH  22  23
ATOM     23  C   UNL A   1      32.520  32.754  27.153  1.00  0.00     0.118 C 
BRANCH  23  24
ATOM     24  N   UNL A   1      32.362  34.144  27.556  1.00  0.00    -0.352 N 
ATOM     25  C   UNL A   1      32.989  34.867  28.540  1.00  0.00     0.251 C 
ATOM     26  H   UNL A   1      31.693  34.649  27.038  1.00  0.00     0.163 HD
ATOM     27  O   UNL A   1      32.550  35.970  28.848  1.00  0.00    -0.269 OA
BRANCH  25  28
ATOM     28  C   UNL A   1      34.174  34.326  29.245  1.00  0.00     0.039 A 
ATOM     29  C   UNL A   1      33.981  33.563  30.400  1.00  0.00     0.014 A 
ATOM     30  C   UNL A   1      35.472  34.591  28.802  1.00  0.00     0.014 A 
ATOM     31  C   UNL A   1      35.080  33.018  31.068  1.00  0.00     0.010 A 
ATOM     32  C   UNL A   1      36.557  33.961  29.403  1.00  0.00     0.010 A 
ATOM     33  C   UNL A   1      36.376  33.182  30.553  1.00  0.00    -0.014 A 
BRANCH  33  34
ATOM     34  C   UNL A   1      37.557  32.567  31.208  1.00  0.00     0.031 A 
ATOM     35  C   UNL A   1      38.303  31.454  30.527  1.00  0.00     0.074 A 
ATOM     36  C   UNL A   1      37.914  32.961  32.446  1.00  0.00     0.049 A 
ATOM     37  N   UNL A   1      39.302  30.731  30.967  1.00  0.00    -0.248 NA
ATOM     38  C   UNL A   1      37.843  31.077  29.180  1.00  0.00     0.031 C 
ATOM     39  C   UNL A   1      37.238  33.995  33.232  1.00  0.00     0.029 A 
ATOM     40  N   UNL A   1      38.926  32.529  33.266  1.00  0.00    -0.354 N 
ATOM     41  C   UNL A   1      39.573  29.808  29.966  1.00  0.00     0.074 A 
ATOM     42  C   UNL A   1      38.596  30.019  28.920  1.00  0.00     0.031 C 
ATOM     43  C   UNL A   1      37.868  34.135  34.408  1.00  0.00     0.029 A 
ATOM     44  C   UNL A   1      38.964  33.174  34.479  1.00  0.00     0.049 A 
ATOM     45  H   UNL A   1      39.564  31.825  33.010  1.00  0.00     0.167 HD
ATOM     46  C   UNL A   1      40.563  28.885  29.910  1.00  0.00     0.037 A 
ATOM     47  C   UNL A   1      39.785  33.001  35.531  1.00  0.00     0.037 A 
ATOM     48  C   UNL A   1      41.549  28.699  30.943  1.00  0.00     0.049 A 
ATOM     49  C   UNL A   1      40.876  31.968  35.447  1.00  0.00     0.074 A 
ATOM     50  C   UNL A   1      42.631  27.838  30.957  1.00  0.00     0.029 A 
ATOM     51  N   UNL A   1      41.568  29.386  32.148  1.00  0.00    -0.354 N 
ATOM     52  N   UNL A   1      41.167  31.149  34.465  1.00  0.00    -0.248 NA
ATOM     53  C   UNL A   1      41.757  31.841  36.616  1.00  0.00     0.031 C 
ATOM     54  C   UNL A   1      43.275  27.965  32.192  1.00  0.00     0.029 A 
ATOM     55  C   UNL A   1      42.630  28.950  32.924  1.00  0.00     0.049 A 
ATOM     56  H   UNL A   1      40.923  30.081  32.413  1.00  0.00     0.167 HD
ATOM     57  C   UNL A   1      42.280  30.431  34.884  1.00  0.00     0.074 A 
ATOM     58  C   UNL A   1      42.619  30.922  36.203  1.00  0.00     0.031 C 
ATOM     59  C   UNL A   1      42.958  29.454  34.234  1.00  0.00     0.037 A 
BRANCH  46  60
ATOM     60  C   UNL A   1      40.627  28.007  28.693  1.00  0.00     0.064 A 
ATOM     61  C   UNL A   1      41.377  28.366  27.562  1.00  0.00     0.173 A 
ATOM     62  C   UNL A   1      39.952  26.777  28.666  1.00  0.00     0.173 A 
ATOM     63  F   UNL A   1      42.034  29.536  27.530  1.00  0.00    -0.203 F 
ATOM     64  C   UNL A   1      41.417  27.545  26.437  1.00  0.00     0.198 A 
ATOM     65  C   UNL A   1      40.023  25.943  27.552  1.00  0.00     0.198 A 
ATOM     66  F   UNL A   1      39.225  26.381  29.721  1.00  0.00    -0.203 F 
ATOM     67  F   UNL A   1      42.092  27.939  25.348  1.00  0.00    -0.200 F 
ATOM     68  C   UNL A   1      40.748  26.333  26.436  1.00  0.00     0.200 A 
ATOM     69  F   UNL A   1      39.386  24.764  27.559  1.00  0.00    -0.200 F 
ATOM     70  F   UNL A   1      40.792  25.542  25.355  1.00  0.00    -0.200 F 
ENDBRANCH  46  60
BRANCH  47  71
ATOM     71  C   UNL A   1      39.623  33.846  36.743  1.00  0.00     0.064 A 
ATOM     72  C   UNL A   1      40.233  35.105  36.829  1.00  0.00     0.173 A 
ATOM     73  C   UNL A   1      38.852  33.419  37.834  1.00  0.00     0.173 A 
ATOM     74  F   UNL A   1      40.996  35.550  35.819  1.00  0.00    -0.203 F 
ATOM     75  C   UNL A   1      40.094  35.896  37.967  1.00  0.00     0.198 A 
ATOM     76  C   UNL A   1      38.690  34.224  38.960  1.00  0.00     0.198 A 
ATOM     77  F   UNL A   1      38.242  32.226  37.800  1.00  0.00    -0.203 F 
ATOM     78  F   UNL A   1      40.726  37.077  38.040  1.00  0.00    -0.200 F 
ATOM     79  C   UNL A   1      39.318  35.458  39.029  1.00  0.00     0.200 A 
ATOM     80  F   UNL A   1      37.926  33.803  39.977  1.00  0.00    -0.200 F 
ATOM     81  F   UNL A   1      39.180  36.223  40.121  1.00  0.00    -0.200 F 
ENDBRANCH  47  71
BRANCH  59  82
ATOM     82  C   UNL A   1      44.161  28.876  34.922  1.00  0.00     0.064 A 
ATOM     83  C   UNL A   1      44.068  27.741  35.741  1.00  0.00     0.173 A 
ATOM     84  C   UNL A   1      45.430  29.441  34.724  1.00  0.00     0.173 A 
ATOM     85  F   UNL A   1      42.875  27.172  35.974  1.00  0.00    -0.203 F 
ATOM     86  C   UNL A   1      45.198  27.210  36.358  1.00  0.00     0.198 A 
ATOM     87  C   UNL A   1      46.562  28.888  35.316  1.00  0.00     0.198 A 
ATOM     88  F   UNL A   1      45.576  30.522  33.943  1.00  0.00    -0.203 F 
ATOM     89  F   UNL A   1      45.079  26.156  37.177  1.00  0.00    -0.200 F 
ATOM     90  C   UNL A   1      46.445  27.778  36.138  1.00  0.00     0.200 A 
ATOM     91  F   UNL A   1      47.767  29.429  35.089  1.00  0.00    -0.200 F 
ATOM     92  F   UNL A   1      47.531  27.259  36.726  1.00  0.00    -0.200 F 
ENDBRANCH  59  82
ENDBRANCH  33  34
ENDBRANCH  25  28
ENDBRANCH  23  24
ENDBRANCH  22  23
ENDBRANCH   1  22
TORSDOF 15
ENDMDL
MODEL 3
REMARK VINA RESULT:     -11.5      4.024      7.810
REMARK SMILES CCCC1(C(=O)NCCCNC(=O)c2ccc(-c3c4nc(c(-c5c(F)c(F)c(F)c(F)c5F)c5ccc([nH]5)c(-c5c(F)c(F)c(F)c(F)c5F)c5nc(c(-c6c(F)c(F)c(F)c(F)c6F)c6ccc3[nH]6)C=C5)C=C4)cc2)CC[NH+]([C@H](C)[C@H](C)O)CC1
REMARK SMILES IDX 8 1 7 2 5 3 6 4 4 6 77 7 86 8 78 9 85 10 79 11 3 13 2 14
REMARK SMILES IDX 1 15 80 16 81 17 82 18 83 19 84 20 9 22 10 23 11 24 12 25
REMARK SMILES IDX 13 27 14 28 15 29 76 30 16 31 75 32 17 33 18 34 19 35 69 36
REMARK SMILES IDX 20 37 74 38 68 39 70 40 21 41 73 42 67 43 66 44 22 46 54 47
REMARK SMILES IDX 34 48 53 49 35 50 38 51 52 52 71 53 36 54 37 55 51 57 72 58
REMARK SMILES IDX 39 59 23 60 24 61 32 62 25 63 26 64 30 65 33 66 27 67 28 68
REMARK SMILES IDX 31 69 29 70 55 71 56 72 64 73 57 74 58 75 62 76 65 77 59 78
REMARK SMILES IDX 60 79 63 80 61 81 40 82 41 83 49 84 42 85 43 86 47 87 50 88
REMARK SMILES IDX 44 89 45 90 48 91 46 92
REMARK H PARENT 7 5 79 12 84 21 11 26 70 45 38 56
REMARK Flexibility Score: inf
ROOT
ATOM      1  C   UNL A   1      34.177  24.684  24.921  1.00  0.00     0.117 C 
ENDROOT
BRANCH   1   2
ATOM      2  N   UNL A   1      32.967  24.801  25.699  1.00  0.00    -0.356 N 
ATOM      3  C   UNL A   1      32.274  25.888  26.129  1.00  0.00     0.226 C 
ATOM      4  O   UNL A   1      31.487  25.650  27.052  1.00  0.00    -0.274 OA
ATOM      5  H   UNL A   1      32.574  23.939  25.968  1.00  0.00     0.163 HD
BRANCH   3   6
ATOM      6  C   UNL A   1      32.515  27.340  25.618  1.00  0.00     0.060 C 
ATOM      7  C   UNL A   1      32.373  27.243  24.068  1.00  0.00     0.078 C 
ATOM      8  C   UNL A   1      31.557  28.417  26.200  1.00  0.00     0.078 C 
ATOM      9  C   UNL A   1      32.234  28.577  23.347  1.00  0.00     0.263 C 
ATOM     10  C   UNL A   1      31.404  29.674  25.320  1.00  0.00     0.263 C 
ATOM     11  N   UNL A   1      31.182  29.402  23.902  1.00  0.00    -0.331 N 
ATOM     12  H   UNL A   1      31.314  30.243  23.341  1.00  0.00     0.348 HD
BRANCH   6  13
ATOM     13  C   UNL A   1      34.004  27.739  25.955  1.00  0.00     0.017 C 
BRANCH  13  14
ATOM     14  C   UNL A   1      34.299  28.525  27.253  1.00  0.00    -0.002 C 
ATOM     15  C   UNL A   1      34.524  30.024  27.117  1.00  0.00     0.004 C 
ENDBRANCH  13  14
ENDBRANCH   6  13
BRANCH  11  16
ATOM     16  C   UNL A   1      29.800  29.448  23.381  1.00  0.00     0.209 C 
ATOM     17  C   UNL A   1      29.099  28.104  23.137  1.00  0.00     0.078 C 
BRANCH  16  18
ATOM     18  C   UNL A   1      29.447  30.403  22.183  1.00  0.00     0.169 C 
ATOM     19  C   UNL A   1      28.061  30.273  21.554  1.00  0.00     0.045 C 
BRANCH  18  20
ATOM     20  O   UNL A   1      30.429  30.297  21.150  1.00  0.00    -0.387 OA
ATOM     21  H   UNL A   1      30.791  31.176  20.957  1.00  0.00     0.211 HD
ENDBRANCH  18  20
ENDBRANCH  16  18
ENDBRANCH  11  16
ENDBRANCH   3   6
ENDBRANCH   1   2
BRANCH   1  22
ATOM     22  C   UNL A   1      35.168  23.701  25.526  1.00  0.00     0.042 C 
BRANCH  22  23
ATOM     23  C   UNL A   1      36.608  23.978  25.142  1.00  0.00     0.118 C 
BRANCH  23  24
ATOM     24  N   UNL A   1      37.496  22.890  25.525  1.00  0.00    -0.352 N 
ATOM     25  C   UNL A   1      38.714  22.910  26.157  1.00  0.00     0.251 C 
ATOM     26  H   UNL A   1      37.170  21.990  25.291  1.00  0.00     0.163 HD
ATOM     27  O   UNL A   1      39.391  21.887  26.192  1.00  0.00    -0.269 OA
BRANCH  25  28
ATOM     28  C   UNL A   1      39.230  24.152  26.777  1.00  0.00     0.039 A 
ATOM     29  C   UNL A   1      39.995  25.027  25.999  1.00  0.00     0.014 A 
ATOM     30  C   UNL A   1      39.000  24.447  28.123  1.00  0.00     0.014 A 
ATOM     31  C   UNL A   1      40.469  26.219  26.553  1.00  0.00     0.010 A 
ATOM     32  C   UNL A   1      39.379  25.681  28.642  1.00  0.00     0.010 A 
ATOM     33  C   UNL A   1      40.133  26.573  27.869  1.00  0.00    -0.014 A 
BRANCH  33  34
ATOM     34  C   UNL A   1      40.575  27.858  28.466  1.00  0.00     0.031 A 
ATOM     35  C   UNL A   1      42.010  28.046  28.872  1.00  0.00     0.074 A 
ATOM     36  C   UNL A   1      39.671  28.827  28.708  1.00  0.00     0.049 A 
ATOM     37  N   UNL A   1      42.575  29.057  29.485  1.00  0.00    -0.248 NA
ATOM     38  C   UNL A   1      42.932  26.936  28.581  1.00  0.00     0.031 C 
ATOM     39  C   UNL A   1      38.241  28.744  28.407  1.00  0.00     0.029 A 
ATOM     40  N   UNL A   1      39.819  30.068  29.276  1.00  0.00    -0.354 N 
ATOM     41  C   UNL A   1      43.903  28.694  29.669  1.00  0.00     0.074 A 
ATOM     42  C   UNL A   1      44.049  27.349  29.159  1.00  0.00     0.031 C 
ATOM     43  C   UNL A   1      37.648  29.892  28.769  1.00  0.00     0.029 A 
ATOM     44  C   UNL A   1      38.645  30.775  29.366  1.00  0.00     0.049 A 
ATOM     45  H   UNL A   1      40.684  30.418  29.588  1.00  0.00     0.167 HD
ATOM     46  C   UNL A   1      44.915  29.427  30.192  1.00  0.00     0.037 A 
ATOM     47  C   UNL A   1      38.400  31.994  29.881  1.00  0.00     0.037 A 
ATOM     48  C   UNL A   1      44.769  30.776  30.672  1.00  0.00     0.049 A 
ATOM     49  C   UNL A   1      39.541  32.788  30.458  1.00  0.00     0.074 A 
ATOM     50  C   UNL A   1      45.742  31.629  31.160  1.00  0.00     0.029 A 
ATOM     51  N   UNL A   1      43.567  31.467  30.727  1.00  0.00    -0.354 N 
ATOM     52  N   UNL A   1      40.807  32.463  30.561  1.00  0.00    -0.248 NA
ATOM     53  C   UNL A   1      39.218  34.122  30.983  1.00  0.00     0.031 C 
ATOM     54  C   UNL A   1      45.123  32.817  31.560  1.00  0.00     0.029 A 
ATOM     55  C   UNL A   1      43.771  32.728  31.265  1.00  0.00     0.049 A 
ATOM     56  H   UNL A   1      42.698  31.114  30.428  1.00  0.00     0.167 HD
ATOM     57  C   UNL A   1      41.437  33.560  31.136  1.00  0.00     0.074 A 
ATOM     58  C   UNL A   1      40.415  34.564  31.344  1.00  0.00     0.031 C 
ATOM     59  C   UNL A   1      42.743  33.720  31.460  1.00  0.00     0.037 A 
BRANCH  46  60
ATOM     60  C   UNL A   1      46.271  28.783  30.270  1.00  0.00     0.064 A 
ATOM     61  C   UNL A   1      47.184  28.850  29.206  1.00  0.00     0.173 A 
ATOM     62  C   UNL A   1      46.673  28.111  31.435  1.00  0.00     0.173 A 
ATOM     63  F   UNL A   1      46.846  29.471  28.065  1.00  0.00    -0.203 F 
ATOM     64  C   UNL A   1      48.432  28.238  29.291  1.00  0.00     0.198 A 
ATOM     65  C   UNL A   1      47.936  27.530  31.529  1.00  0.00     0.198 A 
ATOM     66  F   UNL A   1      45.844  28.021  32.485  1.00  0.00    -0.203 F 
ATOM     67  F   UNL A   1      49.262  28.266  28.239  1.00  0.00    -0.200 F 
ATOM     68  C   UNL A   1      48.810  27.586  30.453  1.00  0.00     0.200 A 
ATOM     69  F   UNL A   1      48.305  26.913  32.659  1.00  0.00    -0.200 F 
ATOM     70  F   UNL A   1      50.013  27.003  30.536  1.00  0.00    -0.200 F 
ENDBRANCH  46  60
BRANCH  47  71
ATOM     71  C   UNL A   1      37.022  32.548  29.848  1.00  0.00     0.064 A 
ATOM     72  C   UNL A   1      36.555  33.250  28.728  1.00  0.00     0.173 A 
ATOM     73  C   UNL A   1      36.141  32.383  30.927  1.00  0.00     0.173 A 
ATOM     74  F   UNL A   1      37.366  33.451  27.678  1.00  0.00    -0.203 F 
ATOM     75  C   UNL A   1      35.268  33.782  28.696  1.00  0.00     0.198 A 
ATOM     76  C   UNL A   1      34.844  32.890  30.882  1.00  0.00     0.198 A 
ATOM     77  F   UNL A   1      36.535  31.713  32.020  1.00  0.00    -0.203 F 
ATOM     78  F   UNL A   1      34.864  34.488  27.630  1.00  0.00    -0.200 F 
ATOM     79  C   UNL A   1      34.411  33.596  29.770  1.00  0.00     0.200 A 
ATOM     80  F   UNL A   1      34.014  32.694  31.916  1.00  0.00    -0.200 F 
ATOM     81  F   UNL A   1      33.171  34.103  29.735  1.00  0.00    -0.200 F 
ENDBRANCH  47  71
BRANCH  59  82
ATOM     82  C   UNL A   1      43.152  35.043  32.039  1.00  0.00     0.064 A 
ATOM     83  C   UNL A   1      43.157  35.273  33.423  1.00  0.00     0.173 A 
ATOM     84  C   UNL A   1      43.586  36.080  31.199  1.00  0.00     0.173 A 
ATOM     85  F   UNL A   1      42.737  34.319  34.268  1.00  0.00    -0.203 F 
ATOM     86  C   UNL A   1      43.555  36.503  33.941  1.00  0.00     0.198 A 
ATOM     87  C   UNL A   1      44.015  37.296  31.723  1.00  0.00     0.198 A 
ATOM     88  F   UNL A   1      43.609  35.909  29.868  1.00  0.00    -0.203 F 
ATOM     89  F   UNL A   1      43.503  36.718  35.263  1.00  0.00    -0.200 F 
ATOM     90  C   UNL A   1      43.991  37.510  33.092  1.00  0.00     0.200 A 
ATOM     91  F   UNL A   1      44.451  38.261  30.902  1.00  0.00    -0.200 F 
ATOM     92  F   UNL A   1      44.383  38.688  33.595  1.00  0.00    -0.200 F 
ENDBRANCH  59  82
ENDBRANCH  33  34
ENDBRANCH  25  28
ENDBRANCH  23  24
ENDBRANCH  22  23
ENDBRANCH   1  22
TORSDOF 15
ENDMDL
