MODEL 1
REMARK VINA RESULT:     -13.8      0.000      0.000
REMARK SMILES O=C(NCCCNC(=O)c1ccc2nc(-c3c[nH]nc3-c3ccc(F)cc3F)[nH]c2c1)c1ccc(-c2c3nc(c(-c4c(F)c(F)c(F)c(F)c4F)c4ccc([nH]4)c(-c4c(F)c(F)c(F)c(F)c4F)c4nc(c(-c5c(F)c(F)c(F)c(F)c5F)c5ccc2[nH]5)C=C4)C=C3)cc1
REMARK SMILES IDX 5 1 4 2 3 3 1 4 2 5 32 7 33 8 94 9 34 10 93 11 35 12 36 13
REMARK SMILES IDX 37 14 87 15 38 16 92 17 86 18 88 19 39 20 91 21 85 22 84 23
REMARK SMILES IDX 40 25 72 26 52 27 71 28 53 29 56 30 70 31 89 32 54 33 55 34
REMARK SMILES IDX 69 36 90 37 57 38 41 39 42 40 50 41 43 42 44 43 48 44 51 45
REMARK SMILES IDX 45 46 46 47 49 48 47 49 73 50 74 51 82 52 75 53 76 54 80 55
REMARK SMILES IDX 83 56 77 57 78 58 81 59 79 60 58 61 59 62 67 63 60 64 61 65
REMARK SMILES IDX 65 66 68 67 62 68 63 69 66 70 64 71 6 72 7 73 8 74 9 76
REMARK SMILES IDX 10 77 11 78 31 79 12 80 30 81 13 82 29 83 14 84 15 85 16 87
REMARK SMILES IDX 17 88 20 89 18 90 19 91 21 93 22 94 27 95 23 96 26 97 28 98
REMARK SMILES IDX 24 99 25 100
REMARK H PARENT 3 6 88 24 56 35 7 75 29 86 18 92
REMARK Flexibility Score: inf
ROOT
ATOM      1  C   UNL A   1      31.801  28.371  25.945  1.00  0.00     0.042 C 
ENDROOT
BRANCH   1   2
ATOM      2  C   UNL A   1      32.164  29.244  27.136  1.00  0.00     0.118 C 
BRANCH   2   3
ATOM      3  N   UNL A   1      32.111  30.670  26.834  1.00  0.00    -0.352 N 
ATOM      4  O   UNL A   1      32.655  32.853  26.969  1.00  0.00    -0.269 OA
ATOM      5  C   UNL A   1      32.970  31.685  27.180  1.00  0.00     0.251 C 
ATOM      6  H   UNL A   1      31.334  30.950  26.297  1.00  0.00     0.163 HD
BRANCH   5   7
ATOM      7  C   UNL A   1      34.263  31.377  27.827  1.00  0.00     0.039 A 
ATOM      8  C   UNL A   1      34.596  30.066  28.158  1.00  0.00     0.014 A 
ATOM      9  C   UNL A   1      35.164  32.413  28.095  1.00  0.00     0.014 A 
ATOM     10  C   UNL A   1      35.726  29.813  28.921  1.00  0.00     0.010 A 
ATOM     11  C   UNL A   1      36.366  32.139  28.755  1.00  0.00     0.010 A 
ATOM     12  C   UNL A   1      36.640  30.842  29.208  1.00  0.00    -0.014 A 
BRANCH  12  13
ATOM     13  C   UNL A   1      37.898  30.487  29.912  1.00  0.00     0.031 A 
ATOM     14  C   UNL A   1      38.149  30.894  31.335  1.00  0.00     0.074 A 
ATOM     15  C   UNL A   1      38.788  29.710  29.262  1.00  0.00     0.049 A 
ATOM     16  N   UNL A   1      39.141  30.553  32.121  1.00  0.00    -0.248 NA
ATOM     17  C   UNL A   1      37.178  31.804  31.957  1.00  0.00     0.031 C 
ATOM     18  C   UNL A   1      38.655  29.279  27.868  1.00  0.00     0.029 A 
ATOM     19  N   UNL A   1      39.940  29.103  29.689  1.00  0.00    -0.354 N 
ATOM     20  C   UNL A   1      38.927  31.226  33.317  1.00  0.00     0.074 A 
ATOM     21  C   UNL A   1      37.722  32.010  33.149  1.00  0.00     0.031 C 
ATOM     22  C   UNL A   1      39.627  28.404  27.585  1.00  0.00     0.029 A 
ATOM     23  C   UNL A   1      40.493  28.266  28.750  1.00  0.00     0.049 A 
ATOM     24  H   UNL A   1      40.333  29.252  30.579  1.00  0.00     0.167 HD
ATOM     25  C   UNL A   1      39.668  31.182  34.449  1.00  0.00     0.037 A 
ATOM     26  C   UNL A   1      41.575  27.469  28.817  1.00  0.00     0.037 A 
ATOM     27  C   UNL A   1      40.850  30.372  34.614  1.00  0.00     0.049 A 
ATOM     28  C   UNL A   1      42.369  27.428  30.087  1.00  0.00     0.074 A 
ATOM     29  C   UNL A   1      41.640  30.221  35.741  1.00  0.00     0.029 A 
ATOM     30  N   UNL A   1      41.411  29.581  33.623  1.00  0.00    -0.354 N 
ATOM     31  N   UNL A   1      42.136  28.040  31.221  1.00  0.00    -0.248 NA
ATOM     32  C   UNL A   1      43.581  26.598  30.085  1.00  0.00     0.031 C 
ATOM     33  C   UNL A   1      42.704  29.375  35.418  1.00  0.00     0.029 A 
ATOM     34  C   UNL A   1      42.553  28.959  34.105  1.00  0.00     0.049 A 
ATOM     35  H   UNL A   1      41.053  29.476  32.712  1.00  0.00     0.167 HD
ATOM     36  C   UNL A   1      43.169  27.676  32.070  1.00  0.00     0.074 A 
ATOM     37  C   UNL A   1      44.020  26.767  31.326  1.00  0.00     0.031 C 
ATOM     38  C   UNL A   1      43.392  28.065  33.348  1.00  0.00     0.037 A 
BRANCH  25  39
ATOM     39  C   UNL A   1      39.241  32.041  35.604  1.00  0.00     0.064 A 
ATOM     40  C   UNL A   1      39.744  33.344  35.740  1.00  0.00     0.173 A 
ATOM     41  C   UNL A   1      38.390  31.558  36.609  1.00  0.00     0.173 A 
ATOM     42  F   UNL A   1      40.567  33.852  34.811  1.00  0.00    -0.203 F 
ATOM     43  C   UNL A   1      39.418  34.128  36.844  1.00  0.00     0.198 A 
ATOM     44  C   UNL A   1      38.046  32.354  37.699  1.00  0.00     0.198 A 
ATOM     45  F   UNL A   1      37.875  30.322  36.522  1.00  0.00    -0.203 F 
ATOM     46  F   UNL A   1      39.933  35.359  36.966  1.00  0.00    -0.200 F 
ATOM     47  C   UNL A   1      38.566  33.634  37.820  1.00  0.00     0.200 A 
ATOM     48  F   UNL A   1      37.206  31.884  38.631  1.00  0.00    -0.200 F 
ATOM     49  F   UNL A   1      38.244  34.393  38.876  1.00  0.00    -0.200 F 
ENDBRANCH  25  39
BRANCH  26  50
ATOM     50  C   UNL A   1      41.928  26.638  27.639  1.00  0.00     0.064 A 
ATOM     51  C   UNL A   1      41.346  25.377  27.440  1.00  0.00     0.173 A 
ATOM     52  C   UNL A   1      42.927  27.046  26.745  1.00  0.00     0.173 A 
ATOM     53  F   UNL A   1      40.394  24.938  28.276  1.00  0.00    -0.203 F 
ATOM     54  C   UNL A   1      41.778  24.540  26.414  1.00  0.00     0.198 A 
ATOM     55  C   UNL A   1      43.338  26.219  25.703  1.00  0.00     0.198 A 
ATOM     56  F   UNL A   1      43.503  28.248  26.889  1.00  0.00    -0.203 F 
ATOM     57  F   UNL A   1      41.246  23.316  26.283  1.00  0.00    -0.200 F 
ATOM     58  C   UNL A   1      42.774  24.961  25.547  1.00  0.00     0.200 A 
ATOM     59  F   UNL A   1      44.291  26.634  24.857  1.00  0.00    -0.200 F 
ATOM     60  F   UNL A   1      43.194  24.152  24.565  1.00  0.00    -0.200 F 
ENDBRANCH  26  50
BRANCH  38  61
ATOM     61  C   UNL A   1      44.607  27.516  34.034  1.00  0.00     0.064 A 
ATOM     62  C   UNL A   1      44.534  26.318  34.759  1.00  0.00     0.173 A 
ATOM     63  C   UNL A   1      45.819  28.220  34.039  1.00  0.00     0.173 A 
ATOM     64  F   UNL A   1      43.393  25.613  34.786  1.00  0.00    -0.203 F 
ATOM     65  C   UNL A   1      45.629  25.853  35.481  1.00  0.00     0.198 A 
ATOM     66  C   UNL A   1      46.919  27.740  34.744  1.00  0.00     0.198 A 
ATOM     67  F   UNL A   1      45.940  29.363  33.348  1.00  0.00    -0.203 F 
ATOM     68  F   UNL A   1      45.528  24.722  36.193  1.00  0.00    -0.200 F 
ATOM     69  C   UNL A   1      46.820  26.563  35.472  1.00  0.00     0.200 A 
ATOM     70  F   UNL A   1      48.077  28.415  34.718  1.00  0.00    -0.200 F 
ATOM     71  F   UNL A   1      47.875  26.111  36.164  1.00  0.00    -0.200 F 
ENDBRANCH  38  61
ENDBRANCH  12  13
ENDBRANCH   5   7
ENDBRANCH   2   3
ENDBRANCH   1   2
BRANCH   1  72
ATOM     72  C   UNL A   1      32.023  29.052  24.603  1.00  0.00     0.118 C 
BRANCH  72  73
ATOM     73  N   UNL A   1      30.809  29.053  23.801  1.00  0.00    -0.352 N 
ATOM     74  C   UNL A   1      30.451  28.218  22.776  1.00  0.00     0.251 C 
ATOM     75  H   UNL A   1      30.152  29.752  24.026  1.00  0.00     0.163 HD
ATOM     76  O   UNL A   1      29.543  28.526  22.012  1.00  0.00    -0.269 OA
BRANCH  74  77
ATOM     77  C   UNL A   1      31.155  26.933  22.601  1.00  0.00     0.042 A 
ATOM     78  C   UNL A   1      32.218  26.847  21.690  1.00  0.00     0.016 A 
ATOM     79  C   UNL A   1      30.784  25.848  23.413  1.00  0.00     0.042 A 
ATOM     80  C   UNL A   1      32.936  25.659  21.547  1.00  0.00     0.031 A 
ATOM     81  C   UNL A   1      31.522  24.675  23.245  1.00  0.00     0.067 A 
ATOM     82  C   UNL A   1      32.592  24.575  22.364  1.00  0.00     0.089 A 
ATOM     83  N   UNL A   1      31.452  23.433  23.831  1.00  0.00    -0.338 N 
ATOM     84  N   UNL A   1      33.206  23.363  22.479  1.00  0.00    -0.228 NA
ATOM     85  C   UNL A   1      32.526  22.702  23.391  1.00  0.00     0.142 A 
ATOM     86  H   UNL A   1      30.756  23.123  24.455  1.00  0.00     0.168 HD
BRANCH  85  87
ATOM     87  C   UNL A   1      32.938  21.375  23.895  1.00  0.00     0.063 A 
ATOM     88  C   UNL A   1      32.196  20.221  23.908  1.00  0.00     0.117 A 
ATOM     89  C   UNL A   1      34.186  21.045  24.497  1.00  0.00     0.106 A 
ATOM     90  N   UNL A   1      33.035  19.265  24.407  1.00  0.00    -0.284 N 
ATOM     91  N   UNL A   1      34.222  19.742  24.817  1.00  0.00    -0.175 NA
ATOM     92  H   UNL A   1      32.792  18.313  24.461  1.00  0.00     0.189 HD
BRANCH  89  93
ATOM     93  C   UNL A   1      35.244  21.965  24.899  1.00  0.00     0.039 A 
ATOM     94  C   UNL A   1      36.469  21.949  24.204  1.00  0.00     0.016 A 
ATOM     95  C   UNL A   1      35.086  22.847  25.970  1.00  0.00     0.135 A 
ATOM     96  C   UNL A   1      37.512  22.792  24.590  1.00  0.00     0.040 A 
ATOM     97  C   UNL A   1      36.124  23.696  26.354  1.00  0.00     0.079 A 
ATOM     98  F   UNL A   1      33.944  22.883  26.672  1.00  0.00    -0.206 F 
ATOM     99  C   UNL A   1      37.327  23.657  25.661  1.00  0.00     0.126 A 
ATOM    100  F   UNL A   1      38.330  24.464  26.031  1.00  0.00    -0.207 F 
ENDBRANCH  89  93
ENDBRANCH  85  87
ENDBRANCH  74  77
ENDBRANCH  72  73
ENDBRANCH   1  72
TORSDOF 12
ENDMDL
MODEL 2
REMARK VINA RESULT:     -13.8      1.963      3.036
REMARK SMILES O=C(NCCCNC(=O)c1ccc2nc(-c3c[nH]nc3-c3ccc(F)cc3F)[nH]c2c1)c1ccc(-c2c3nc(c(-c4c(F)c(F)c(F)c(F)c4F)c4ccc([nH]4)c(-c4c(F)c(F)c(F)c(F)c4F)c4nc(c(-c5c(F)c(F)c(F)c(F)c5F)c5ccc2[nH]5)C=C4)C=C3)cc1
REMARK SMILES IDX 5 1 4 2 3 3 1 4 2 5 32 7 33 8 94 9 34 10 93 11 35 12 36 13
REMARK SMILES IDX 37 14 87 15 38 16 92 17 86 18 88 19 39 20 91 21 85 22 84 23
REMARK SMILES IDX 40 25 72 26 52 27 71 28 53 29 56 30 70 31 89 32 54 33 55 34
REMARK SMILES IDX 69 36 90 37 57 38 41 39 42 40 50 41 43 42 44 43 48 44 51 45
REMARK SMILES IDX 45 46 46 47 49 48 47 49 73 50 74 51 82 52 75 53 76 54 80 55
REMARK SMILES IDX 83 56 77 57 78 58 81 59 79 60 58 61 59 62 67 63 60 64 61 65
REMARK SMILES IDX 65 66 68 67 62 68 63 69 66 70 64 71 6 72 7 73 8 74 9 76
REMARK SMILES IDX 10 77 11 78 31 79 12 80 30 81 13 82 29 83 14 84 15 85 16 87
REMARK SMILES IDX 17 88 20 89 18 90 19 91 21 93 22 94 27 95 23 96 26 97 28 98
REMARK SMILES IDX 24 99 25 100
REMARK H PARENT 3 6 88 24 56 35 7 75 29 86 18 92
REMARK Flexibility Score: inf
ROOT
ATOM      1  C   UNL A   1      31.511  32.126  26.897  1.00  0.00     0.042 C 
ENDROOT
BRANCH   1   2
ATOM      2  C   UNL A   1      32.728  33.033  26.995  1.00  0.00     0.118 C 
BRANCH   2   3
ATOM      3  N   UNL A   1      32.458  34.271  27.717  1.00  0.00    -0.352 N 
ATOM      4  O   UNL A   1      32.570  35.778  29.389  1.00  0.00    -0.269 OA
ATOM      5  C   UNL A   1      33.060  34.798  28.834  1.00  0.00     0.251 C 
ATOM      6  H   UNL A   1      31.728  34.816  27.344  1.00  0.00     0.163 HD
BRANCH   5   7
ATOM      7  C   UNL A   1      34.283  34.176  29.384  1.00  0.00     0.039 A 
ATOM      8  C   UNL A   1      34.196  33.161  30.335  1.00  0.00     0.014 A 
ATOM      9  C   UNL A   1      35.537  34.602  28.933  1.00  0.00     0.014 A 
ATOM     10  C   UNL A   1      35.344  32.712  30.971  1.00  0.00     0.010 A 
ATOM     11  C   UNL A   1      36.700  34.058  29.487  1.00  0.00     0.010 A 
ATOM     12  C   UNL A   1      36.613  33.135  30.538  1.00  0.00    -0.014 A 
BRANCH  12  13
ATOM     13  C   UNL A   1      37.809  32.520  31.166  1.00  0.00     0.031 A 
ATOM     14  C   UNL A   1      38.237  32.868  32.562  1.00  0.00     0.074 A 
ATOM     15  C   UNL A   1      38.466  31.567  30.474  1.00  0.00     0.049 A 
ATOM     16  N   UNL A   1      39.182  32.324  33.289  1.00  0.00    -0.248 NA
ATOM     17  C   UNL A   1      37.527  33.969  33.230  1.00  0.00     0.031 C 
ATOM     18  C   UNL A   1      38.151  31.170  29.100  1.00  0.00     0.029 A 
ATOM     19  N   UNL A   1      39.486  30.727  30.837  1.00  0.00    -0.354 N 
ATOM     20  C   UNL A   1      39.198  33.031  34.483  1.00  0.00     0.074 A 
ATOM     21  C   UNL A   1      38.182  34.057  34.380  1.00  0.00     0.031 C 
ATOM     22  C   UNL A   1      38.890  30.104  28.770  1.00  0.00     0.029 A 
ATOM     23  C   UNL A   1      39.782  29.787  29.879  1.00  0.00     0.049 A 
ATOM     24  H   UNL A   1      39.960  30.791  31.697  1.00  0.00     0.167 HD
ATOM     25  C   UNL A   1      39.986  32.832  35.566  1.00  0.00     0.037 A 
ATOM     26  C   UNL A   1      40.670  28.775  29.890  1.00  0.00     0.037 A 
ATOM     27  C   UNL A   1      40.974  31.787  35.669  1.00  0.00     0.049 A 
ATOM     28  C   UNL A   1      41.519  28.568  31.107  1.00  0.00     0.074 A 
ATOM     29  C   UNL A   1      41.787  31.474  36.745  1.00  0.00     0.029 A 
ATOM     30  N   UNL A   1      41.285  30.890  34.658  1.00  0.00    -0.354 N 
ATOM     31  N   UNL A   1      41.499  29.220  32.243  1.00  0.00    -0.248 NA
ATOM     32  C   UNL A   1      42.521  27.497  31.042  1.00  0.00     0.031 C 
ATOM     33  C   UNL A   1      42.620  30.417  36.369  1.00  0.00     0.029 A 
ATOM     34  C   UNL A   1      42.296  30.038  35.076  1.00  0.00     0.049 A 
ATOM     35  H   UNL A   1      40.852  30.862  33.775  1.00  0.00     0.167 HD
ATOM     36  C   UNL A   1      42.484  28.645  33.030  1.00  0.00     0.074 A 
ATOM     37  C   UNL A   1      43.068  27.571  32.248  1.00  0.00     0.031 C 
ATOM     38  C   UNL A   1      42.871  28.981  34.284  1.00  0.00     0.037 A 
BRANCH  25  39
ATOM     39  C   UNL A   1      39.832  33.768  36.731  1.00  0.00     0.064 A 
ATOM     40  C   UNL A   1      38.991  33.431  37.802  1.00  0.00     0.173 A 
ATOM     41  C   UNL A   1      40.459  35.022  36.758  1.00  0.00     0.173 A 
ATOM     42  F   UNL A   1      38.361  32.247  37.821  1.00  0.00    -0.203 F 
ATOM     43  C   UNL A   1      38.776  34.319  38.853  1.00  0.00     0.198 A 
ATOM     44  C   UNL A   1      40.262  35.897  37.824  1.00  0.00     0.198 A 
ATOM     45  F   UNL A   1      41.280  35.389  35.763  1.00  0.00    -0.203 F 
ATOM     46  F   UNL A   1      37.947  33.986  39.852  1.00  0.00    -0.200 F 
ATOM     47  C   UNL A   1      39.415  35.549  38.866  1.00  0.00     0.200 A 
ATOM     48  F   UNL A   1      40.897  37.077  37.846  1.00  0.00    -0.200 F 
ATOM     49  F   UNL A   1      39.218  36.398  39.884  1.00  0.00    -0.200 F 
ENDBRANCH  25  39
BRANCH  26  50
ATOM     50  C   UNL A   1      40.756  27.883  28.707  1.00  0.00     0.064 A 
ATOM     51  C   UNL A   1      41.535  28.228  27.594  1.00  0.00     0.173 A 
ATOM     52  C   UNL A   1      39.983  26.717  28.630  1.00  0.00     0.173 A 
ATOM     53  F   UNL A   1      42.284  29.341  27.617  1.00  0.00    -0.203 F 
ATOM     54  C   UNL A   1      41.507  27.462  26.431  1.00  0.00     0.198 A 
ATOM     55  C   UNL A   1      39.977  25.937  27.476  1.00  0.00     0.198 A 
ATOM     56  F   UNL A   1      39.232  26.341  29.674  1.00  0.00    -0.203 F 
ATOM     57  F   UNL A   1      42.216  27.847  25.360  1.00  0.00    -0.200 F 
ATOM     58  C   UNL A   1      40.727  26.317  26.373  1.00  0.00     0.200 A 
ATOM     59  F   UNL A   1      39.233  24.823  27.427  1.00  0.00    -0.200 F 
ATOM     60  F   UNL A   1      40.695  25.585  25.252  1.00  0.00    -0.200 F 
ENDBRANCH  26  50
BRANCH  38  61
ATOM     61  C   UNL A   1      43.982  28.185  34.899  1.00  0.00     0.064 A 
ATOM     62  C   UNL A   1      43.703  27.020  35.628  1.00  0.00     0.173 A 
ATOM     63  C   UNL A   1      45.312  28.624  34.835  1.00  0.00     0.173 A 
ATOM     64  F   UNL A   1      42.444  26.566  35.721  1.00  0.00    -0.203 F 
ATOM     65  C   UNL A   1      44.717  26.331  36.287  1.00  0.00     0.198 A 
ATOM     66  C   UNL A   1      46.326  27.919  35.477  1.00  0.00     0.198 A 
ATOM     67  F   UNL A   1      45.628  29.725  34.138  1.00  0.00    -0.203 F 
ATOM     68  F   UNL A   1      44.423  25.237  37.004  1.00  0.00    -0.200 F 
ATOM     69  C   UNL A   1      46.026  26.779  36.210  1.00  0.00     0.200 A 
ATOM     70  F   UNL A   1      47.595  28.340  35.384  1.00  0.00    -0.200 F 
ATOM     71  F   UNL A   1      47.002  26.112  36.841  1.00  0.00    -0.200 F 
ENDBRANCH  38  61
ENDBRANCH  12  13
ENDBRANCH   5   7
ENDBRANCH   2   3
ENDBRANCH   1   2
BRANCH   1  72
ATOM     72  C   UNL A   1      31.841  30.649  27.049  1.00  0.00     0.118 C 
BRANCH  72  73
ATOM     73  N   UNL A   1      33.216  30.454  27.483  1.00  0.00    -0.352 N 
ATOM     74  C   UNL A   1      34.065  29.412  27.217  1.00  0.00     0.251 C 
ATOM     75  H   UNL A   1      33.589  31.171  28.046  1.00  0.00     0.163 HD
ATOM     76  O   UNL A   1      35.077  29.250  27.889  1.00  0.00    -0.269 OA
BRANCH  74  77
ATOM     77  C   UNL A   1      33.764  28.489  26.106  1.00  0.00     0.042 A 
ATOM     78  C   UNL A   1      34.073  28.868  24.791  1.00  0.00     0.016 A 
ATOM     79  C   UNL A   1      33.242  27.221  26.411  1.00  0.00     0.042 A 
ATOM     80  C   UNL A   1      33.850  27.991  23.729  1.00  0.00     0.031 A 
ATOM     81  C   UNL A   1      33.031  26.368  25.325  1.00  0.00     0.067 A 
ATOM     82  C   UNL A   1      33.350  26.715  24.017  1.00  0.00     0.089 A 
ATOM     83  N   UNL A   1      32.537  25.090  25.221  1.00  0.00    -0.338 N 
ATOM     84  N   UNL A   1      33.152  25.664  23.172  1.00  0.00    -0.228 NA
ATOM     85  C   UNL A   1      32.694  24.684  23.920  1.00  0.00     0.142 A 
ATOM     86  H   UNL A   1      32.141  24.559  25.950  1.00  0.00     0.168 HD
BRANCH  85  87
ATOM     87  C   UNL A   1      32.457  23.321  23.401  1.00  0.00     0.063 A 
ATOM     88  C   UNL A   1      31.305  22.832  22.838  1.00  0.00     0.117 A 
ATOM     89  C   UNL A   1      33.377  22.235  23.413  1.00  0.00     0.106 A 
ATOM     90  N   UNL A   1      31.607  21.554  22.463  1.00  0.00    -0.284 N 
ATOM     91  N   UNL A   1      32.830  21.149  22.842  1.00  0.00    -0.175 NA
ATOM     92  H   UNL A   1      30.984  20.980  21.960  1.00  0.00     0.189 HD
BRANCH  89  93
ATOM     93  C   UNL A   1      34.670  22.180  24.086  1.00  0.00     0.039 A 
ATOM     94  C   UNL A   1      35.761  22.879  23.535  1.00  0.00     0.016 A 
ATOM     95  C   UNL A   1      34.865  21.434  25.250  1.00  0.00     0.135 A 
ATOM     96  C   UNL A   1      37.019  22.816  24.136  1.00  0.00     0.040 A 
ATOM     97  C   UNL A   1      36.118  21.374  25.858  1.00  0.00     0.079 A 
ATOM     98  F   UNL A   1      33.859  20.737  25.799  1.00  0.00    -0.206 F 
ATOM     99  C   UNL A   1      37.183  22.064  25.292  1.00  0.00     0.126 A 
ATOM    100  F   UNL A   1      38.392  22.002  25.867  1.00  0.00    -0.207 F 
ENDBRANCH  89  93
ENDBRANCH  85  87
ENDBRANCH  74  77
ENDBRANCH  72  73
ENDBRANCH   1  72
TORSDOF 12
ENDMDL
MODEL 3
REMARK VINA RESULT:     -13.8      4.395      9.370
REMARK SMILES O=C(NCCCNC(=O)c1ccc2nc(-c3c[nH]nc3-c3ccc(F)cc3F)[nH]c2c1)c1ccc(-c2c3nc(c(-c4c(F)c(F)c(F)c(F)c4F)c4ccc([nH]4)c(-c4c(F)c(F)c(F)c(F)c4F)c4nc(c(-c5c(F)c(F)c(F)c(F)c5F)c5ccc2[nH]5)C=C4)C=C3)cc1
REMARK SMILES IDX 5 1 4 2 3 3 1 4 2 5 32 7 33 8 94 9 34 10 93 11 35 12 36 13
REMARK SMILES IDX 37 14 87 15 38 16 92 17 86 18 88 19 39 20 91 21 85 22 84 23
REMARK SMILES IDX 40 25 72 26 52 27 71 28 53 29 56 30 70 31 89 32 54 33 55 34
REMARK SMILES IDX 69 36 90 37 57 38 41 39 42 40 50 41 43 42 44 43 48 44 51 45
REMARK SMILES IDX 45 46 46 47 49 48 47 49 73 50 74 51 82 52 75 53 76 54 80 55
REMARK SMILES IDX 83 56 77 57 78 58 81 59 79 60 58 61 59 62 67 63 60 64 61 65
REMARK SMILES IDX 65 66 68 67 62 68 63 69 66 70 64 71 6 72 7 73 8 74 9 76
REMARK SMILES IDX 10 77 11 78 31 79 12 80 30 81 13 82 29 83 14 84 15 85 16 87
REMARK SMILES IDX 17 88 20 89 18 90 19 91 21 93 22 94 27 95 23 96 26 97 28 98
REMARK SMILES IDX 24 99 25 100
REMARK H PARENT 3 6 88 24 56 35 7 75 29 86 18 92
REMARK Flexibility Score: inf
ROOT
ATOM      1  C   UNL A   1      35.396  21.990  25.866  1.00  0.00     0.042 C 
ENDROOT
BRANCH   1   2
ATOM      2  C   UNL A   1      36.799  22.578  25.859  1.00  0.00     0.118 C 
BRANCH   2   3
ATOM      3  N   UNL A   1      37.842  21.560  25.872  1.00  0.00    -0.352 N 
ATOM      4  O   UNL A   1      39.929  20.713  25.957  1.00  0.00    -0.269 OA
ATOM      5  C   UNL A   1      39.180  21.662  26.171  1.00  0.00     0.251 C 
ATOM      6  H   UNL A   1      37.541  20.655  25.626  1.00  0.00     0.163 HD
BRANCH   5   7
ATOM      7  C   UNL A   1      39.725  22.918  26.729  1.00  0.00     0.039 A 
ATOM      8  C   UNL A   1      39.409  24.145  26.151  1.00  0.00     0.014 A 
ATOM      9  C   UNL A   1      40.552  22.871  27.855  1.00  0.00     0.014 A 
ATOM     10  C   UNL A   1      40.064  25.293  26.571  1.00  0.00     0.010 A 
ATOM     11  C   UNL A   1      41.116  24.048  28.357  1.00  0.00     0.010 A 
ATOM     12  C   UNL A   1      40.907  25.265  27.695  1.00  0.00    -0.014 A 
BRANCH  12  13
ATOM     13  C   UNL A   1      41.474  26.549  28.179  1.00  0.00     0.031 A 
ATOM     14  C   UNL A   1      42.902  26.931  27.915  1.00  0.00     0.074 A 
ATOM     15  C   UNL A   1      40.645  27.412  28.799  1.00  0.00     0.049 A 
ATOM     16  N   UNL A   1      43.505  28.068  28.164  1.00  0.00    -0.248 NA
ATOM     17  C   UNL A   1      43.770  25.914  27.306  1.00  0.00     0.031 C 
ATOM     18  C   UNL A   1      39.246  27.131  29.130  1.00  0.00     0.029 A 
ATOM     19  N   UNL A   1      40.830  28.706  29.211  1.00  0.00    -0.354 N 
ATOM     20  C   UNL A   1      44.824  27.894  27.768  1.00  0.00     0.074 A 
ATOM     21  C   UNL A   1      44.941  26.537  27.279  1.00  0.00     0.031 C 
ATOM     22  C   UNL A   1      38.674  28.245  29.602  1.00  0.00     0.029 A 
ATOM     23  C   UNL A   1      39.681  29.297  29.677  1.00  0.00     0.049 A 
ATOM     24  H   UNL A   1      41.700  29.166  29.179  1.00  0.00     0.167 HD
ATOM     25  C   UNL A   1      45.837  28.792  27.805  1.00  0.00     0.037 A 
ATOM     26  C   UNL A   1      39.455  30.551  30.112  1.00  0.00     0.037 A 
ATOM     27  C   UNL A   1      45.699  30.151  28.265  1.00  0.00     0.049 A 
ATOM     28  C   UNL A   1      40.590  31.529  30.127  1.00  0.00     0.074 A 
ATOM     29  C   UNL A   1      46.656  31.151  28.293  1.00  0.00     0.029 A 
ATOM     30  N   UNL A   1      44.534  30.698  28.781  1.00  0.00    -0.354 N 
ATOM     31  N   UNL A   1      41.823  31.363  29.717  1.00  0.00    -0.248 NA
ATOM     32  C   UNL A   1      40.310  32.861  30.678  1.00  0.00     0.031 C 
ATOM     33  C   UNL A   1      46.082  32.288  28.868  1.00  0.00     0.029 A 
ATOM     34  C   UNL A   1      44.754  32.014  29.154  1.00  0.00     0.049 A 
ATOM     35  H   UNL A   1      43.677  30.221  28.870  1.00  0.00     0.167 HD
ATOM     36  C   UNL A   1      42.470  32.565  29.959  1.00  0.00     0.074 A 
ATOM     37  C   UNL A   1      41.484  33.461  30.531  1.00  0.00     0.031 C 
ATOM     38  C   UNL A   1      43.765  32.890  29.730  1.00  0.00     0.037 A 
BRANCH  25  39
ATOM     39  C   UNL A   1      47.194  28.340  27.349  1.00  0.00     0.064 A 
ATOM     40  C   UNL A   1      47.515  28.330  25.982  1.00  0.00     0.173 A 
ATOM     41  C   UNL A   1      48.153  27.855  28.251  1.00  0.00     0.173 A 
ATOM     42  F   UNL A   1      46.630  28.776  25.077  1.00  0.00    -0.203 F 
ATOM     43  C   UNL A   1      48.740  27.843  25.535  1.00  0.00     0.198 A 
ATOM     44  C   UNL A   1      49.388  27.393  27.802  1.00  0.00     0.198 A 
ATOM     45  F   UNL A   1      47.899  27.852  29.568  1.00  0.00    -0.203 F 
ATOM     46  F   UNL A   1      49.013  27.818  24.224  1.00  0.00    -0.200 F 
ATOM     47  C   UNL A   1      49.678  27.379  26.446  1.00  0.00     0.200 A 
ATOM     48  F   UNL A   1      50.301  26.964  28.684  1.00  0.00    -0.200 F 
ATOM     49  F   UNL A   1      50.861  26.922  26.016  1.00  0.00    -0.200 F 
ENDBRANCH  25  39
BRANCH  26  50
ATOM     50  C   UNL A   1      38.083  30.928  30.534  1.00  0.00     0.064 A 
ATOM     51  C   UNL A   1      37.100  31.263  29.591  1.00  0.00     0.173 A 
ATOM     52  C   UNL A   1      37.760  31.057  31.891  1.00  0.00     0.173 A 
ATOM     53  F   UNL A   1      37.367  31.166  28.280  1.00  0.00    -0.203 F 
ATOM     54  C   UNL A   1      35.858  31.749  29.990  1.00  0.00     0.198 A 
ATOM     55  C   UNL A   1      36.507  31.519  32.288  1.00  0.00     0.198 A 
ATOM     56  F   UNL A   1      38.664  30.738  32.828  1.00  0.00    -0.203 F 
ATOM     57  F   UNL A   1      34.958  32.118  29.067  1.00  0.00    -0.200 F 
ATOM     58  C   UNL A   1      35.563  31.878  31.338  1.00  0.00     0.200 A 
ATOM     59  F   UNL A   1      36.218  31.628  33.593  1.00  0.00    -0.200 F 
ATOM     60  F   UNL A   1      34.370  32.353  31.721  1.00  0.00    -0.200 F 
ENDBRANCH  26  50
BRANCH  38  61
ATOM     61  C   UNL A   1      44.203  34.275  30.100  1.00  0.00     0.064 A 
ATOM     62  C   UNL A   1      44.706  34.543  31.381  1.00  0.00     0.173 A 
ATOM     63  C   UNL A   1      44.045  35.348  29.213  1.00  0.00     0.173 A 
ATOM     64  F   UNL A   1      44.869  33.548  32.265  1.00  0.00    -0.203 F 
ATOM     65  C   UNL A   1      45.021  35.843  31.767  1.00  0.00     0.198 A 
ATOM     66  C   UNL A   1      44.383  36.644  29.594  1.00  0.00     0.198 A 
ATOM     67  F   UNL A   1      43.581  35.138  27.973  1.00  0.00    -0.203 F 
ATOM     68  F   UNL A   1      45.471  36.081  33.007  1.00  0.00    -0.200 F 
ATOM     69  C   UNL A   1      44.861  36.891  30.874  1.00  0.00     0.200 A 
ATOM     70  F   UNL A   1      44.248  37.654  28.724  1.00  0.00    -0.200 F 
ATOM     71  F   UNL A   1      45.168  38.141  31.245  1.00  0.00    -0.200 F 
ENDBRANCH  38  61
ENDBRANCH  12  13
ENDBRANCH   5   7
ENDBRANCH   2   3
ENDBRANCH   1   2
BRANCH   1  72
ATOM     72  C   UNL A   1      34.784  21.865  24.478  1.00  0.00     0.118 C 
BRANCH  72  73
ATOM     73  N   UNL A   1      33.791  20.802  24.431  1.00  0.00    -0.352 N 
ATOM     74  C   UNL A   1      32.483  20.826  24.836  1.00  0.00     0.251 C 
ATOM     75  H   UNL A   1      34.102  19.947  24.054  1.00  0.00     0.163 HD
ATOM     76  O   UNL A   1      31.866  19.780  25.005  1.00  0.00    -0.269 OA
BRANCH  74  77
ATOM     77  C   UNL A   1      31.809  22.120  25.057  1.00  0.00     0.042 A 
ATOM     78  C   UNL A   1      31.386  22.467  26.348  1.00  0.00     0.016 A 
ATOM     79  C   UNL A   1      31.679  23.001  23.970  1.00  0.00     0.042 A 
ATOM     80  C   UNL A   1      30.798  23.709  26.592  1.00  0.00     0.031 A 
ATOM     81  C   UNL A   1      31.085  24.234  24.249  1.00  0.00     0.067 A 
ATOM     82  C   UNL A   1      30.679  24.607  25.525  1.00  0.00     0.089 A 
ATOM     83  N   UNL A   1      30.782  25.325  23.469  1.00  0.00    -0.338 N 
ATOM     84  N   UNL A   1      30.241  25.898  25.539  1.00  0.00    -0.228 NA
ATOM     85  C   UNL A   1      30.342  26.324  24.299  1.00  0.00     0.142 A 
ATOM     86  H   UNL A   1      30.866  25.380  22.489  1.00  0.00     0.168 HD
BRANCH  85  87
ATOM     87  C   UNL A   1      30.070  27.723  23.906  1.00  0.00     0.063 A 
ATOM     88  C   UNL A   1      29.167  28.166  22.972  1.00  0.00     0.117 A 
ATOM     89  C   UNL A   1      30.719  28.887  24.406  1.00  0.00     0.106 A 
ATOM     90  N   UNL A   1      29.244  29.529  23.022  1.00  0.00    -0.284 N 
ATOM     91  N   UNL A   1      30.205  29.991  23.839  1.00  0.00    -0.175 NA
ATOM     92  H   UNL A   1      28.649  30.120  22.507  1.00  0.00     0.189 HD
BRANCH  89  93
ATOM     93  C   UNL A   1      31.894  28.942  25.269  1.00  0.00     0.039 A 
ATOM     94  C   UNL A   1      31.790  29.559  26.530  1.00  0.00     0.016 A 
ATOM     95  C   UNL A   1      33.126  28.420  24.872  1.00  0.00     0.135 A 
ATOM     96  C   UNL A   1      32.906  29.659  27.363  1.00  0.00     0.040 A 
ATOM     97  C   UNL A   1      34.241  28.512  25.704  1.00  0.00     0.079 A 
ATOM     98  F   UNL A   1      33.276  27.840  23.671  1.00  0.00    -0.206 F 
ATOM     99  C   UNL A   1      34.120  29.133  26.940  1.00  0.00     0.126 A 
ATOM    100  F   UNL A   1      35.190  29.232  27.739  1.00  0.00    -0.207 F 
ENDBRANCH  89  93
ENDBRANCH  85  87
ENDBRANCH  74  77
ENDBRANCH  72  73
ENDBRANCH   1  72
TORSDOF 12
ENDMDL
