MODEL 1
REMARK VINA RESULT:     -11.4      0.000      0.000
REMARK SMILES CCN(CC(=O)NC)C(=O)c1ccncc1/C=C/C(=O)NCCCNC(=O)c1ccc(-c2c3nc(c(-c4c(F)c(F)c(F)c(F)c4F)c4ccc([nH]4)c(-c4c(F)c(F)c(F)c(F)c4F)c4nc(c(-c5c(F)c(F)c(F)c(F)c5F)c5ccc2[nH]5)C=C4)C=C3)cc1
REMARK SMILES IDX 19 1 20 2 21 3 18 5 17 6 16 7 11 8 12 9 13 10 15 11 14 12
REMARK SMILES IDX 9 13 10 14 3 15 2 16 1 17 4 18 5 19 6 20 7 21 8 22 22 24
REMARK SMILES IDX 23 25 24 26 25 27 26 28 27 30 28 31 29 32 90 33 30 34 89 35
REMARK SMILES IDX 31 36 32 37 33 38 83 39 34 40 88 41 82 42 84 43 35 44 87 45
REMARK SMILES IDX 81 46 80 47 36 49 68 50 48 51 67 52 49 53 52 54 66 55 85 56
REMARK SMILES IDX 50 57 51 58 65 60 86 61 53 62 37 63 38 64 46 65 39 66 40 67
REMARK SMILES IDX 44 68 47 69 41 70 42 71 45 72 43 73 69 74 70 75 78 76 71 77
REMARK SMILES IDX 72 78 76 79 79 80 73 81 74 82 77 83 75 84 54 85 55 86 63 87
REMARK SMILES IDX 56 88 57 89 61 90 64 91 58 92 59 93 62 94 60 95
REMARK H PARENT 21 4 7 23 25 29 84 48 52 59
REMARK Flexibility Score: inf
ROOT
ATOM      1  C   UNL A   1      37.460  23.229  25.768  1.00  0.00     0.244 C 
ATOM      2  O   UNL A   1      38.187  24.139  26.158  1.00  0.00    -0.270 OA
ATOM      3  N   UNL A   1      38.003  22.165  25.125  1.00  0.00    -0.352 N 
ATOM      4  H   UNL A   1      38.977  22.211  24.993  1.00  0.00     0.163 HD
ENDROOT
BRANCH   1   5
ATOM      5  C   UNL A   1      36.019  23.257  26.106  1.00  0.00     0.072 C 
ATOM      6  C   UNL A   1      35.124  24.183  25.720  1.00  0.00     0.016 C 
BRANCH   6   7
ATOM      7  C   UNL A   1      33.710  24.084  26.116  1.00  0.00     0.006 A 
ATOM      8  C   UNL A   1      32.688  24.917  25.625  1.00  0.00     0.050 A 
ATOM      9  C   UNL A   1      31.357  24.652  25.962  1.00  0.00     0.034 A 
ATOM     10  C   UNL A   1      31.092  23.644  26.870  1.00  0.00     0.112 A 
ATOM     11  C   UNL A   1      33.319  23.103  27.030  1.00  0.00     0.119 A 
ATOM     12  N   UNL A   1      32.045  22.875  27.424  1.00  0.00    -0.264 NA
BRANCH   8  13
ATOM     13  C   UNL A   1      32.957  26.004  24.647  1.00  0.00     0.255 C 
ATOM     14  O   UNL A   1      32.811  25.739  23.455  1.00  0.00    -0.269 OA
BRANCH  13  15
ATOM     15  N   UNL A   1      33.360  27.273  25.092  1.00  0.00    -0.330 N 
BRANCH  15  16
ATOM     16  C   UNL A   1      33.745  28.270  24.087  1.00  0.00     0.117 C 
ATOM     17  C   UNL A   1      32.590  29.132  23.614  1.00  0.00     0.027 C 
ENDBRANCH  15  16
BRANCH  15  18
ATOM     18  C   UNL A   1      33.554  27.637  26.504  1.00  0.00     0.219 C 
BRANCH  18  19
ATOM     19  C   UNL A   1      32.419  28.379  27.236  1.00  0.00     0.239 C 
ATOM     20  O   UNL A   1      31.490  27.740  27.741  1.00  0.00    -0.273 OA
ATOM     21  N   UNL A   1      32.438  29.720  27.471  1.00  0.00    -0.358 N 
ATOM     22  C   UNL A   1      33.451  30.702  27.186  1.00  0.00     0.142 C 
ATOM     23  H   UNL A   1      31.627  30.075  27.903  1.00  0.00     0.163 HD
ENDBRANCH  18  19
ENDBRANCH  15  18
ENDBRANCH  13  15
ENDBRANCH   8  13
ENDBRANCH   6   7
ENDBRANCH   1   5
BRANCH   3  24
ATOM     24  C   UNL A   1      37.370  20.970  24.602  1.00  0.00     0.118 C 
BRANCH  24  25
ATOM     25  C   UNL A   1      38.230  19.749  24.909  1.00  0.00     0.042 C 
BRANCH  25  26
ATOM     26  C   UNL A   1      39.205  19.970  26.055  1.00  0.00     0.118 C 
BRANCH  26  27
ATOM     27  N   UNL A   1      40.363  19.088  25.962  1.00  0.00    -0.352 N 
ATOM     28  C   UNL A   1      41.706  19.366  26.006  1.00  0.00     0.251 C 
ATOM     29  H   UNL A   1      40.146  18.135  25.847  1.00  0.00     0.163 HD
ATOM     30  O   UNL A   1      42.513  18.505  25.672  1.00  0.00    -0.269 OA
BRANCH  28  31
ATOM     31  C   UNL A   1      42.192  20.693  26.443  1.00  0.00     0.039 A 
ATOM     32  C   UNL A   1      42.592  21.618  25.472  1.00  0.00     0.014 A 
ATOM     33  C   UNL A   1      42.308  21.012  27.797  1.00  0.00     0.014 A 
ATOM     34  C   UNL A   1      43.055  22.878  25.859  1.00  0.00     0.010 A 
ATOM     35  C   UNL A   1      42.680  22.297  28.179  1.00  0.00     0.010 A 
ATOM     36  C   UNL A   1      43.072  23.237  27.215  1.00  0.00    -0.014 A 
BRANCH  36  37
ATOM     37  C   UNL A   1      43.524  24.580  27.659  1.00  0.00     0.031 A 
ATOM     38  C   UNL A   1      42.508  25.628  28.023  1.00  0.00     0.074 A 
ATOM     39  C   UNL A   1      44.837  24.877  27.659  1.00  0.00     0.049 A 
ATOM     40  N   UNL A   1      42.687  26.890  28.319  1.00  0.00    -0.248 NA
ATOM     41  C   UNL A   1      41.098  25.207  28.019  1.00  0.00     0.031 C 
ATOM     42  C   UNL A   1      45.913  23.956  27.291  1.00  0.00     0.029 A 
ATOM     43  N   UNL A   1      45.489  26.045  27.966  1.00  0.00    -0.354 N 
ATOM     44  C   UNL A   1      41.417  27.415  28.515  1.00  0.00     0.074 A 
ATOM     45  C   UNL A   1      40.473  26.352  28.249  1.00  0.00     0.031 C 
ATOM     46  C   UNL A   1      47.092  24.588  27.412  1.00  0.00     0.029 A 
ATOM     47  C   UNL A   1      46.853  25.968  27.823  1.00  0.00     0.049 A 
ATOM     48  H   UNL A   1      45.023  26.861  28.260  1.00  0.00     0.167 HD
ATOM     49  C   UNL A   1      41.070  28.665  28.905  1.00  0.00     0.037 A 
ATOM     50  C   UNL A   1      47.800  26.909  27.992  1.00  0.00     0.037 A 
ATOM     51  C   UNL A   1      42.016  29.709  29.196  1.00  0.00     0.049 A 
ATOM     52  C   UNL A   1      47.388  28.293  28.416  1.00  0.00     0.074 A 
ATOM     53  C   UNL A   1      41.772  30.994  29.647  1.00  0.00     0.029 A 
ATOM     54  N   UNL A   1      43.392  29.585  29.063  1.00  0.00    -0.354 N 
ATOM     55  N   UNL A   1      46.188  28.764  28.654  1.00  0.00    -0.248 NA
ATOM     56  C   UNL A   1      48.465  29.276  28.602  1.00  0.00     0.031 C 
ATOM     57  C   UNL A   1      42.998  31.662  29.746  1.00  0.00     0.029 A 
ATOM     58  C   UNL A   1      44.009  30.776  29.408  1.00  0.00     0.049 A 
ATOM     59  H   UNL A   1      43.860  28.771  28.767  1.00  0.00     0.167 HD
ATOM     60  C   UNL A   1      46.365  30.083  29.049  1.00  0.00     0.074 A 
ATOM     61  C   UNL A   1      47.791  30.334  29.029  1.00  0.00     0.031 C 
ATOM     62  C   UNL A   1      45.432  31.001  29.399  1.00  0.00     0.037 A 
BRANCH  49  63
ATOM     63  C   UNL A   1      39.604  28.967  29.043  1.00  0.00     0.064 A 
ATOM     64  C   UNL A   1      38.826  29.356  27.941  1.00  0.00     0.173 A 
ATOM     65  C   UNL A   1      38.964  28.842  30.285  1.00  0.00     0.173 A 
ATOM     66  F   UNL A   1      39.390  29.502  26.734  1.00  0.00    -0.203 F 
ATOM     67  C   UNL A   1      37.471  29.642  28.086  1.00  0.00     0.198 A 
ATOM     68  C   UNL A   1      37.602  29.097  30.419  1.00  0.00     0.198 A 
ATOM     69  F   UNL A   1      39.659  28.468  31.370  1.00  0.00    -0.203 F 
ATOM     70  F   UNL A   1      36.762  30.066  27.031  1.00  0.00    -0.200 F 
ATOM     71  C   UNL A   1      36.859  29.505  29.322  1.00  0.00     0.200 A 
ATOM     72  F   UNL A   1      37.008  28.950  31.611  1.00  0.00    -0.200 F 
ATOM     73  F   UNL A   1      35.552  29.776  29.458  1.00  0.00    -0.200 F 
ENDBRANCH  49  63
BRANCH  50  74
ATOM     74  C   UNL A   1      49.232  26.569  27.790  1.00  0.00     0.064 A 
ATOM     75  C   UNL A   1      50.075  26.335  28.886  1.00  0.00     0.173 A 
ATOM     76  C   UNL A   1      49.788  26.468  26.507  1.00  0.00     0.173 A 
ATOM     77  F   UNL A   1      49.595  26.437  30.133  1.00  0.00    -0.203 F 
ATOM     78  C   UNL A   1      51.424  26.037  28.706  1.00  0.00     0.198 A 
ATOM     79  C   UNL A   1      51.131  26.140  26.327  1.00  0.00     0.198 A 
ATOM     80  F   UNL A   1      49.022  26.672  25.425  1.00  0.00    -0.203 F 
ATOM     81  F   UNL A   1      52.217  25.863  29.772  1.00  0.00    -0.200 F 
ATOM     82  C   UNL A   1      51.949  25.934  27.427  1.00  0.00     0.200 A 
ATOM     83  F   UNL A   1      51.630  26.023  25.089  1.00  0.00    -0.200 F 
ATOM     84  F   UNL A   1      53.245  25.640  27.254  1.00  0.00    -0.200 F 
ENDBRANCH  50  74
BRANCH  62  85
ATOM     85  C   UNL A   1      45.923  32.350  29.838  1.00  0.00     0.064 A 
ATOM     86  C   UNL A   1      46.241  32.622  31.176  1.00  0.00     0.173 A 
ATOM     87  C   UNL A   1      46.121  33.370  28.894  1.00  0.00     0.173 A 
ATOM     88  F   UNL A   1      46.054  31.684  32.117  1.00  0.00    -0.203 F 
ATOM     89  C   UNL A   1      46.717  33.873  31.558  1.00  0.00     0.198 A 
ATOM     90  C   UNL A   1      46.626  34.610  29.275  1.00  0.00     0.198 A 
ATOM     91  F   UNL A   1      45.838  33.160  27.600  1.00  0.00    -0.203 F 
ATOM     92  F   UNL A   1      46.971  34.125  32.849  1.00  0.00    -0.200 F 
ATOM     93  C   UNL A   1      46.917  34.863  30.607  1.00  0.00     0.200 A 
ATOM     94  F   UNL A   1      46.832  35.559  28.352  1.00  0.00    -0.200 F 
ATOM     95  F   UNL A   1      47.384  36.063  30.975  1.00  0.00    -0.200 F 
ENDBRANCH  62  85
ENDBRANCH  36  37
ENDBRANCH  28  31
ENDBRANCH  26  27
ENDBRANCH  25  26
ENDBRANCH  24  25
ENDBRANCH   3  24
TORSDOF 16
ENDMDL
MODEL 2
REMARK VINA RESULT:     -11.3      5.191     10.353
REMARK SMILES CCN(CC(=O)NC)C(=O)c1ccncc1/C=C/C(=O)NCCCNC(=O)c1ccc(-c2c3nc(c(-c4c(F)c(F)c(F)c(F)c4F)c4ccc([nH]4)c(-c4c(F)c(F)c(F)c(F)c4F)c4nc(c(-c5c(F)c(F)c(F)c(F)c5F)c5ccc2[nH]5)C=C4)C=C3)cc1
REMARK SMILES IDX 19 1 20 2 21 3 18 5 17 6 16 7 11 8 12 9 13 10 15 11 14 12
REMARK SMILES IDX 9 13 10 14 3 15 2 16 1 17 4 18 5 19 6 20 7 21 8 22 22 24
REMARK SMILES IDX 23 25 24 26 25 27 26 28 27 30 28 31 29 32 90 33 30 34 89 35
REMARK SMILES IDX 31 36 32 37 33 38 83 39 34 40 88 41 82 42 84 43 35 44 87 45
REMARK SMILES IDX 81 46 80 47 36 49 68 50 48 51 67 52 49 53 52 54 66 55 85 56
REMARK SMILES IDX 50 57 51 58 65 60 86 61 53 62 37 63 38 64 46 65 39 66 40 67
REMARK SMILES IDX 44 68 47 69 41 70 42 71 45 72 43 73 69 74 70 75 78 76 71 77
REMARK SMILES IDX 72 78 76 79 79 80 73 81 74 82 77 83 75 84 54 85 55 86 63 87
REMARK SMILES IDX 56 88 57 89 61 90 64 91 58 92 59 93 62 94 60 95
REMARK H PARENT 21 4 7 23 25 29 84 48 52 59
REMARK Flexibility Score: inf
ROOT
ATOM      1  C   UNL A   1      34.137  29.261  27.464  1.00  0.00     0.244 C 
ATOM      2  O   UNL A   1      35.111  29.336  28.209  1.00  0.00    -0.270 OA
ATOM      3  N   UNL A   1      33.086  30.100  27.647  1.00  0.00    -0.352 N 
ATOM      4  H   UNL A   1      33.175  30.719  28.406  1.00  0.00     0.163 HD
ENDROOT
BRANCH   1   5
ATOM      5  C   UNL A   1      34.175  28.331  26.314  1.00  0.00     0.072 C 
ATOM      6  C   UNL A   1      33.373  27.272  26.112  1.00  0.00     0.016 C 
BRANCH   6   7
ATOM      7  C   UNL A   1      33.508  26.433  24.910  1.00  0.00     0.006 A 
ATOM      8  C   UNL A   1      32.990  26.767  23.646  1.00  0.00     0.050 A 
ATOM      9  C   UNL A   1      33.291  25.965  22.541  1.00  0.00     0.034 A 
ATOM     10  C   UNL A   1      33.995  24.794  22.744  1.00  0.00     0.112 A 
ATOM     11  C   UNL A   1      34.200  25.223  24.992  1.00  0.00     0.119 A 
ATOM     12  N   UNL A   1      34.442  24.397  23.948  1.00  0.00    -0.264 NA
BRANCH   8  13
ATOM     13  C   UNL A   1      32.231  28.024  23.410  1.00  0.00     0.255 C 
ATOM     14  O   UNL A   1      32.880  29.030  23.130  1.00  0.00    -0.269 OA
BRANCH  13  15
ATOM     15  N   UNL A   1      30.830  28.035  23.511  1.00  0.00    -0.330 N 
BRANCH  15  16
ATOM     16  C   UNL A   1      30.120  26.755  23.429  1.00  0.00     0.117 C 
ATOM     17  C   UNL A   1      29.578  26.275  24.762  1.00  0.00     0.027 C 
ENDBRANCH  15  16
BRANCH  15  18
ATOM     18  C   UNL A   1      30.010  29.254  23.557  1.00  0.00     0.219 C 
BRANCH  18  19
ATOM     19  C   UNL A   1      29.133  29.598  22.336  1.00  0.00     0.239 C 
ATOM     20  O   UNL A   1      29.659  30.005  21.295  1.00  0.00    -0.273 OA
ATOM     21  N   UNL A   1      27.793  29.363  22.293  1.00  0.00    -0.358 N 
ATOM     22  C   UNL A   1      26.926  28.732  23.254  1.00  0.00     0.142 C 
ATOM     23  H   UNL A   1      27.345  29.677  21.475  1.00  0.00     0.163 HD
ENDBRANCH  18  19
ENDBRANCH  15  18
ENDBRANCH  13  15
ENDBRANCH   8  13
ENDBRANCH   6   7
ENDBRANCH   1   5
BRANCH   3  24
ATOM     24  C   UNL A   1      31.853  30.225  26.896  1.00  0.00     0.118 C 
BRANCH  24  25
ATOM     25  C   UNL A   1      31.462  31.694  26.777  1.00  0.00     0.042 C 
BRANCH  25  26
ATOM     26  C   UNL A   1      32.657  32.627  26.649  1.00  0.00     0.118 C 
BRANCH  26  27
ATOM     27  N   UNL A   1      32.407  33.919  27.278  1.00  0.00    -0.352 N 
ATOM     28  C   UNL A   1      32.954  34.491  28.399  1.00  0.00     0.251 C 
ATOM     29  H   UNL A   1      31.733  34.474  26.823  1.00  0.00     0.163 HD
ATOM     30  O   UNL A   1      32.431  35.488  28.886  1.00  0.00    -0.269 OA
BRANCH  28  31
ATOM     31  C   UNL A   1      34.159  33.916  29.033  1.00  0.00     0.039 A 
ATOM     32  C   UNL A   1      35.404  34.496  28.769  1.00  0.00     0.014 A 
ATOM     33  C   UNL A   1      34.080  32.779  29.842  1.00  0.00     0.014 A 
ATOM     34  C   UNL A   1      36.558  33.972  29.356  1.00  0.00     0.010 A 
ATOM     35  C   UNL A   1      35.213  32.314  30.500  1.00  0.00     0.010 A 
ATOM     36  C   UNL A   1      36.466  32.895  30.252  1.00  0.00    -0.014 A 
BRANCH  36  37
ATOM     37  C   UNL A   1      37.666  32.336  30.921  1.00  0.00     0.031 A 
ATOM     38  C   UNL A   1      38.462  31.252  30.246  1.00  0.00     0.074 A 
ATOM     39  C   UNL A   1      37.991  32.744  32.162  1.00  0.00     0.049 A 
ATOM     40  N   UNL A   1      39.466  30.551  30.706  1.00  0.00    -0.248 NA
ATOM     41  C   UNL A   1      38.051  30.887  28.881  1.00  0.00     0.031 C 
ATOM     42  C   UNL A   1      37.274  33.759  32.934  1.00  0.00     0.029 A 
ATOM     43  N   UNL A   1      39.001  32.342  33.000  1.00  0.00    -0.354 N 
ATOM     44  C   UNL A   1      39.790  29.651  29.699  1.00  0.00     0.074 A 
ATOM     45  C   UNL A   1      38.841  29.855  28.627  1.00  0.00     0.031 C 
ATOM     46  C   UNL A   1      37.877  33.915  34.123  1.00  0.00     0.029 A 
ATOM     47  C   UNL A   1      38.995  32.982  34.215  1.00  0.00     0.049 A 
ATOM     48  H   UNL A   1      39.666  31.660  32.753  1.00  0.00     0.167 HD
ATOM     49  C   UNL A   1      40.802  28.752  29.663  1.00  0.00     0.037 A 
ATOM     50  C   UNL A   1      39.796  32.823  35.286  1.00  0.00     0.037 A 
ATOM     51  C   UNL A   1      41.760  28.574  30.721  1.00  0.00     0.049 A 
ATOM     52  C   UNL A   1      40.907  31.810  35.224  1.00  0.00     0.074 A 
ATOM     53  C   UNL A   1      42.854  27.727  30.764  1.00  0.00     0.029 A 
ATOM     54  N   UNL A   1      41.736  29.259  31.928  1.00  0.00    -0.354 N 
ATOM     55  N   UNL A   1      41.239  31.004  34.246  1.00  0.00    -0.248 NA
ATOM     56  C   UNL A   1      41.759  31.689  36.416  1.00  0.00     0.031 C 
ATOM     57  C   UNL A   1      43.466  27.869  32.014  1.00  0.00     0.029 A 
ATOM     58  C   UNL A   1      42.786  28.842  32.730  1.00  0.00     0.049 A 
ATOM     59  H   UNL A   1      41.071  29.940  32.178  1.00  0.00     0.167 HD
ATOM     60  C   UNL A   1      42.356  30.306  34.687  1.00  0.00     0.074 A 
ATOM     61  C   UNL A   1      42.650  30.793  36.019  1.00  0.00     0.031 C 
ATOM     62  C   UNL A   1      43.073  29.352  34.047  1.00  0.00     0.037 A 
BRANCH  49  63
ATOM     63  C   UNL A   1      40.926  27.895  28.435  1.00  0.00     0.064 A 
ATOM     64  C   UNL A   1      40.284  26.650  28.337  1.00  0.00     0.173 A 
ATOM     65  C   UNL A   1      41.673  28.334  27.331  1.00  0.00     0.173 A 
ATOM     66  F   UNL A   1      39.567  26.178  29.367  1.00  0.00    -0.203 F 
ATOM     67  C   UNL A   1      40.415  25.862  27.197  1.00  0.00     0.198 A 
ATOM     68  C   UNL A   1      41.774  27.558  26.179  1.00  0.00     0.198 A 
ATOM     69  F   UNL A   1      42.302  29.518  27.367  1.00  0.00    -0.203 F 
ATOM     70  F   UNL A   1      39.839  24.654  27.150  1.00  0.00    -0.200 F 
ATOM     71  C   UNL A   1      41.153  26.320  26.116  1.00  0.00     0.200 A 
ATOM     72  F   UNL A   1      42.476  28.008  25.130  1.00  0.00    -0.200 F 
ATOM     73  F   UNL A   1      41.274  25.563  25.016  1.00  0.00    -0.200 F 
ENDBRANCH  49  63
BRANCH  50  74
ATOM     74  C   UNL A   1      39.594  33.660  36.497  1.00  0.00     0.064 A 
ATOM     75  C   UNL A   1      40.231  34.904  36.622  1.00  0.00     0.173 A 
ATOM     76  C   UNL A   1      38.766  33.243  37.548  1.00  0.00     0.173 A 
ATOM     77  F   UNL A   1      41.046  35.338  35.651  1.00  0.00    -0.203 F 
ATOM     78  C   UNL A   1      40.065  35.686  37.763  1.00  0.00     0.198 A 
ATOM     79  C   UNL A   1      38.577  34.040  38.676  1.00  0.00     0.198 A 
ATOM     80  F   UNL A   1      38.126  32.067  37.474  1.00  0.00    -0.203 F 
ATOM     81  F   UNL A   1      40.721  36.849  37.875  1.00  0.00    -0.200 F 
ATOM     82  C   UNL A   1      39.234  35.257  38.786  1.00  0.00     0.200 A 
ATOM     83  F   UNL A   1      37.759  33.631  39.654  1.00  0.00    -0.200 F 
ATOM     84  F   UNL A   1      39.069  36.013  39.880  1.00  0.00    -0.200 F 
ENDBRANCH  50  74
BRANCH  62  85
ATOM     85  C   UNL A   1      44.278  28.803  34.755  1.00  0.00     0.064 A 
ATOM     86  C   UNL A   1      45.535  29.418  34.659  1.00  0.00     0.173 A 
ATOM     87  C   UNL A   1      44.159  27.672  35.576  1.00  0.00     0.173 A 
ATOM     88  F   UNL A   1      45.703  30.492  33.874  1.00  0.00    -0.203 F 
ATOM     89  C   UNL A   1      46.635  28.906  35.343  1.00  0.00     0.198 A 
ATOM     90  C   UNL A   1      45.253  27.181  36.283  1.00  0.00     0.198 A 
ATOM     91  F   UNL A   1      42.977  27.050  35.706  1.00  0.00    -0.203 F 
ATOM     92  F   UNL A   1      47.836  29.482  35.201  1.00  0.00    -0.200 F 
ATOM     93  C   UNL A   1      46.491  27.794  36.160  1.00  0.00     0.200 A 
ATOM     94  F   UNL A   1      45.109  26.116  37.082  1.00  0.00    -0.200 F 
ATOM     95  F   UNL A   1      47.548  27.309  36.824  1.00  0.00    -0.200 F 
ENDBRANCH  62  85
ENDBRANCH  36  37
ENDBRANCH  28  31
ENDBRANCH  26  27
ENDBRANCH  25  26
ENDBRANCH  24  25
ENDBRANCH   3  24
TORSDOF 16
ENDMDL
MODEL 3
REMARK VINA RESULT:     -11.2      5.088     10.405
REMARK SMILES CCN(CC(=O)NC)C(=O)c1ccncc1/C=C/C(=O)NCCCNC(=O)c1ccc(-c2c3nc(c(-c4c(F)c(F)c(F)c(F)c4F)c4ccc([nH]4)c(-c4c(F)c(F)c(F)c(F)c4F)c4nc(c(-c5c(F)c(F)c(F)c(F)c5F)c5ccc2[nH]5)C=C4)C=C3)cc1
REMARK SMILES IDX 19 1 20 2 21 3 18 5 17 6 16 7 11 8 12 9 13 10 15 11 14 12
REMARK SMILES IDX 9 13 10 14 3 15 2 16 1 17 4 18 5 19 6 20 7 21 8 22 22 24
REMARK SMILES IDX 23 25 24 26 25 27 26 28 27 30 28 31 29 32 90 33 30 34 89 35
REMARK SMILES IDX 31 36 32 37 33 38 83 39 34 40 88 41 82 42 84 43 35 44 87 45
REMARK SMILES IDX 81 46 80 47 36 49 68 50 48 51 67 52 49 53 52 54 66 55 85 56
REMARK SMILES IDX 50 57 51 58 65 60 86 61 53 62 37 63 38 64 46 65 39 66 40 67
REMARK SMILES IDX 44 68 47 69 41 70 42 71 45 72 43 73 69 74 70 75 78 76 71 77
REMARK SMILES IDX 72 78 76 79 79 80 73 81 74 82 77 83 75 84 54 85 55 86 63 87
REMARK SMILES IDX 56 88 57 89 61 90 64 91 58 92 59 93 62 94 60 95
REMARK H PARENT 21 4 7 23 25 29 84 48 52 59
REMARK Flexibility Score: inf
ROOT
ATOM      1  C   UNL A   1      33.949  29.192  27.100  1.00  0.00     0.244 C 
ATOM      2  O   UNL A   1      34.978  29.123  27.767  1.00  0.00    -0.270 OA
ATOM      3  N   UNL A   1      32.944  30.010  27.500  1.00  0.00    -0.352 N 
ATOM      4  H   UNL A   1      33.110  30.494  28.341  1.00  0.00     0.163 HD
ENDROOT
BRANCH   1   5
ATOM      5  C   UNL A   1      33.870  28.465  25.814  1.00  0.00     0.072 C 
ATOM      6  C   UNL A   1      33.647  27.150  25.649  1.00  0.00     0.016 C 
BRANCH   6   7
ATOM      7  C   UNL A   1      33.577  26.553  24.305  1.00  0.00     0.006 A 
ATOM      8  C   UNL A   1      33.673  25.174  24.042  1.00  0.00     0.050 A 
ATOM      9  C   UNL A   1      33.458  24.700  22.745  1.00  0.00     0.034 A 
ATOM     10  C   UNL A   1      33.273  25.616  21.727  1.00  0.00     0.112 A 
ATOM     11  C   UNL A   1      33.392  27.380  23.195  1.00  0.00     0.119 A 
ATOM     12  N   UNL A   1      33.252  26.946  21.921  1.00  0.00    -0.264 NA
BRANCH   8  13
ATOM     13  C   UNL A   1      33.870  24.176  25.126  1.00  0.00     0.255 C 
ATOM     14  O   UNL A   1      35.018  24.000  25.529  1.00  0.00    -0.269 OA
BRANCH  13  15
ATOM     15  N   UNL A   1      32.772  23.476  25.652  1.00  0.00    -0.330 N 
BRANCH  15  16
ATOM     16  C   UNL A   1      32.213  22.372  24.865  1.00  0.00     0.117 C 
ATOM     17  C   UNL A   1      33.207  21.262  24.584  1.00  0.00     0.027 C 
ENDBRANCH  15  16
BRANCH  15  18
ATOM     18  C   UNL A   1      32.053  23.855  26.878  1.00  0.00     0.219 C 
BRANCH  18  19
ATOM     19  C   UNL A   1      30.512  23.812  26.871  1.00  0.00     0.239 C 
ATOM     20  O   UNL A   1      29.915  22.976  27.557  1.00  0.00    -0.273 OA
ATOM     21  N   UNL A   1      29.745  24.738  26.233  1.00  0.00    -0.358 N 
ATOM     22  C   UNL A   1      30.124  25.928  25.517  1.00  0.00     0.142 C 
ATOM     23  H   UNL A   1      28.777  24.565  26.265  1.00  0.00     0.163 HD
ENDBRANCH  18  19
ENDBRANCH  15  18
ENDBRANCH  13  15
ENDBRANCH   8  13
ENDBRANCH   6   7
ENDBRANCH   1   5
BRANCH   3  24
ATOM     24  C   UNL A   1      31.662  30.284  26.880  1.00  0.00     0.118 C 
BRANCH  24  25
ATOM     25  C   UNL A   1      31.451  31.789  26.764  1.00  0.00     0.042 C 
BRANCH  25  26
ATOM     26  C   UNL A   1      32.739  32.590  26.875  1.00  0.00     0.118 C 
BRANCH  26  27
ATOM     27  N   UNL A   1      32.506  33.922  27.420  1.00  0.00    -0.352 N 
ATOM     28  C   UNL A   1      33.043  34.549  28.516  1.00  0.00     0.251 C 
ATOM     29  H   UNL A   1      31.854  34.463  26.918  1.00  0.00     0.163 HD
ATOM     30  O   UNL A   1      32.534  35.584  28.931  1.00  0.00    -0.269 OA
BRANCH  28  31
ATOM     31  C   UNL A   1      34.223  33.987  29.208  1.00  0.00     0.039 A 
ATOM     32  C   UNL A   1      34.027  33.028  30.208  1.00  0.00     0.014 A 
ATOM     33  C   UNL A   1      35.514  34.435  28.920  1.00  0.00     0.014 A 
ATOM     34  C   UNL A   1      35.125  32.482  30.876  1.00  0.00     0.010 A 
ATOM     35  C   UNL A   1      36.611  33.825  29.518  1.00  0.00     0.010 A 
ATOM     36  C   UNL A   1      36.428  32.854  30.513  1.00  0.00    -0.014 A 
BRANCH  36  37
ATOM     37  C   UNL A   1      37.619  32.268  31.178  1.00  0.00     0.031 A 
ATOM     38  C   UNL A   1      38.379  31.158  30.505  1.00  0.00     0.074 A 
ATOM     39  C   UNL A   1      37.965  32.679  32.411  1.00  0.00     0.049 A 
ATOM     40  N   UNL A   1      39.368  30.434  30.962  1.00  0.00    -0.248 NA
ATOM     41  C   UNL A   1      37.946  30.792  29.147  1.00  0.00     0.031 C 
ATOM     42  C   UNL A   1      37.283  33.720  33.180  1.00  0.00     0.029 A 
ATOM     43  N   UNL A   1      38.972  32.257  33.244  1.00  0.00    -0.354 N 
ATOM     44  C   UNL A   1      39.658  29.516  29.961  1.00  0.00     0.074 A 
ATOM     45  C   UNL A   1      38.706  29.737  28.895  1.00  0.00     0.031 C 
ATOM     46  C   UNL A   1      37.901  33.870  34.363  1.00  0.00     0.029 A 
ATOM     47  C   UNL A   1      38.995  32.908  34.453  1.00  0.00     0.049 A 
ATOM     48  H   UNL A   1      39.616  31.555  32.998  1.00  0.00     0.167 HD
ATOM     49  C   UNL A   1      40.645  28.590  29.924  1.00  0.00     0.037 A 
ATOM     50  C   UNL A   1      39.800  32.736  35.519  1.00  0.00     0.037 A 
ATOM     51  C   UNL A   1      41.608  28.396  30.976  1.00  0.00     0.049 A 
ATOM     52  C   UNL A   1      40.883  31.693  35.456  1.00  0.00     0.074 A 
ATOM     53  C   UNL A   1      42.678  27.520  31.017  1.00  0.00     0.029 A 
ATOM     54  N   UNL A   1      41.613  29.092  32.176  1.00  0.00    -0.354 N 
ATOM     55  N   UNL A   1      41.184  30.870  34.482  1.00  0.00    -0.248 NA
ATOM     56  C   UNL A   1      41.742  31.560  36.641  1.00  0.00     0.031 C 
ATOM     57  C   UNL A   1      43.306  27.656  32.260  1.00  0.00     0.029 A 
ATOM     58  C   UNL A   1      42.659  28.654  32.972  1.00  0.00     0.049 A 
ATOM     59  H   UNL A   1      40.969  29.793  32.426  1.00  0.00     0.167 HD
ATOM     60  C   UNL A   1      42.286  30.146  34.920  1.00  0.00     0.074 A 
ATOM     61  C   UNL A   1      42.605  30.636  36.244  1.00  0.00     0.031 C 
ATOM     62  C   UNL A   1      42.972  29.167  34.282  1.00  0.00     0.037 A 
BRANCH  49  63
ATOM     63  C   UNL A   1      40.734  27.719  28.702  1.00  0.00     0.064 A 
ATOM     64  C   UNL A   1      41.561  28.053  27.618  1.00  0.00     0.173 A 
ATOM     65  C   UNL A   1      40.005  26.523  28.624  1.00  0.00     0.173 A 
ATOM     66  F   UNL A   1      42.272  29.190  27.636  1.00  0.00    -0.203 F 
ATOM     67  C   UNL A   1      41.627  27.242  26.489  1.00  0.00     0.198 A 
ATOM     68  C   UNL A   1      40.097  25.697  27.507  1.00  0.00     0.198 A 
ATOM     69  F   UNL A   1      39.203  26.153  29.634  1.00  0.00    -0.203 F 
ATOM     70  F   UNL A   1      42.380  27.610  25.444  1.00  0.00    -0.200 F 
ATOM     71  C   UNL A   1      40.901  26.062  26.437  1.00  0.00     0.200 A 
ATOM     72  F   UNL A   1      39.407  24.550  27.464  1.00  0.00    -0.200 F 
ATOM     73  F   UNL A   1      40.969  25.278  25.351  1.00  0.00    -0.200 F 
ENDBRANCH  49  63
BRANCH  50  74
ATOM     74  C   UNL A   1      39.632  33.590  36.723  1.00  0.00     0.064 A 
ATOM     75  C   UNL A   1      38.786  33.194  37.770  1.00  0.00     0.173 A 
ATOM     76  C   UNL A   1      40.307  34.811  36.857  1.00  0.00     0.173 A 
ATOM     77  F   UNL A   1      38.105  32.043  37.681  1.00  0.00    -0.203 F 
ATOM     78  C   UNL A   1      38.605  33.998  38.893  1.00  0.00     0.198 A 
ATOM     79  C   UNL A   1      40.148  35.601  37.995  1.00  0.00     0.198 A 
ATOM     80  F   UNL A   1      41.135  35.230  35.890  1.00  0.00    -0.203 F 
ATOM     81  F   UNL A   1      37.757  33.616  39.857  1.00  0.00    -0.200 F 
ATOM     82  C   UNL A   1      39.291  35.198  39.007  1.00  0.00     0.200 A 
ATOM     83  F   UNL A   1      40.827  36.750  38.110  1.00  0.00    -0.200 F 
ATOM     84  F   UNL A   1      39.122  35.968  40.091  1.00  0.00    -0.200 F 
ENDBRANCH  50  74
BRANCH  62  85
ATOM     85  C   UNL A   1      44.167  28.592  34.984  1.00  0.00     0.064 A 
ATOM     86  C   UNL A   1      45.442  29.163  34.860  1.00  0.00     0.173 A 
ATOM     87  C   UNL A   1      44.023  27.481  35.829  1.00  0.00     0.173 A 
ATOM     88  F   UNL A   1      45.634  30.216  34.052  1.00  0.00    -0.203 F 
ATOM     89  C   UNL A   1      46.534  28.628  35.539  1.00  0.00     0.198 A 
ATOM     90  C   UNL A   1      45.110  26.968  36.530  1.00  0.00     0.198 A 
ATOM     91  F   UNL A   1      42.823  26.902  35.987  1.00  0.00    -0.203 F 
ATOM     92  F   UNL A   1      47.751  29.161  35.370  1.00  0.00    -0.200 F 
ATOM     93  C   UNL A   1      46.365  27.537  36.379  1.00  0.00     0.200 A 
ATOM     94  F   UNL A   1      44.942  25.923  37.352  1.00  0.00    -0.200 F 
ATOM     95  F   UNL A   1      47.415  27.030  37.039  1.00  0.00    -0.200 F 
ENDBRANCH  62  85
ENDBRANCH  36  37
ENDBRANCH  28  31
ENDBRANCH  26  27
ENDBRANCH  25  26
ENDBRANCH  24  25
ENDBRANCH   3  24
TORSDOF 16
ENDMDL
