MODEL 1
REMARK VINA RESULT:     -14.6      0.000      0.000
REMARK SMILES Cc1c(C(=O)Nc2ccc(C(=O)Nc3ccccc3C(=O)NCCCNC(=O)c3ccc(-c4c5nc(c(-c6c(F)c(F)c(F)c(F)c6F)c6ccc([nH]6)c(-c6c(F)c(F)c(F)c(F)c6F)c6nc(c(-c7c(F)c(F)c(F)c(F)c7F)c7ccc4[nH]7)C=C6)C=C5)cc3)cc2)cccc1[N+](=O)[O-]
REMARK SMILES IDX 20 1 21 2 22 3 19 5 14 6 15 7 16 8 18 9 17 10 13 11 11 12
REMARK SMILES IDX 12 13 10 15 7 16 8 17 93 18 9 19 92 20 6 21 4 22 5 23 3 25
REMARK SMILES IDX 1 26 2 27 97 28 94 29 96 30 95 31 98 32 99 33 100 34 23 35
REMARK SMILES IDX 24 36 25 37 26 38 27 39 28 41 29 42 30 43 91 44 31 45 90 46
REMARK SMILES IDX 32 47 33 48 34 49 84 50 35 51 89 52 83 53 85 54 36 55 88 56
REMARK SMILES IDX 82 57 81 58 37 60 69 61 49 62 68 63 50 64 53 65 67 66 86 67
REMARK SMILES IDX 51 68 52 69 66 71 87 72 54 73 38 74 39 75 47 76 40 77 41 78
REMARK SMILES IDX 45 79 48 80 42 81 43 82 46 83 44 84 70 85 71 86 79 87 72 88
REMARK SMILES IDX 73 89 77 90 80 91 74 92 75 93 78 94 76 95 55 96 56 97 64 98
REMARK SMILES IDX 57 99 58 100 62 101 65 102 59 103 60 104 63 105 61 106
REMARK H PARENT 22 4 13 14 6 24 26 40 85 59 53 70
REMARK Flexibility Score: inf
ROOT
ATOM      1  C   UNL A   1      31.862  29.697  23.762  1.00  0.00     0.253 C 
ATOM      2  O   UNL A   1      32.645  29.362  22.875  1.00  0.00    -0.269 OA
ATOM      3  N   UNL A   1      32.406  29.948  25.007  1.00  0.00    -0.352 N 
ATOM      4  H   UNL A   1      33.368  29.739  25.048  1.00  0.00     0.163 HD
ENDROOT
BRANCH   1   5
ATOM      5  C   UNL A   1      30.401  29.785  23.463  1.00  0.00     0.063 A 
ATOM      6  C   UNL A   1      29.739  28.863  22.613  1.00  0.00     0.054 A 
ATOM      7  C   UNL A   1      28.363  29.025  22.356  1.00  0.00     0.027 A 
ATOM      8  C   UNL A   1      27.630  30.041  22.962  1.00  0.00     0.002 A 
ATOM      9  C   UNL A   1      29.665  30.882  23.936  1.00  0.00     0.016 A 
ATOM     10  C   UNL A   1      28.285  30.982  23.741  1.00  0.00     0.001 A 
BRANCH   6  11
ATOM     11  N   UNL A   1      30.303  27.750  21.959  1.00  0.00    -0.321 N 
ATOM     12  C   UNL A   1      31.099  26.709  22.380  1.00  0.00     0.255 C 
ATOM     13  O   UNL A   1      31.639  26.005  21.522  1.00  0.00    -0.269 OA
ATOM     14  H   UNL A   1      30.083  27.708  21.001  1.00  0.00     0.170 HD
BRANCH  12  15
ATOM     15  C   UNL A   1      31.141  26.251  23.800  1.00  0.00     0.040 A 
ATOM     16  C   UNL A   1      31.504  24.952  26.275  1.00  0.00     0.041 A 
ATOM     17  C   UNL A   1      30.269  24.950  25.648  1.00  0.00     0.027 A 
ATOM     18  C   UNL A   1      32.518  25.760  25.754  1.00  0.00     0.027 A 
ATOM     19  C   UNL A   1      30.116  25.517  24.388  1.00  0.00     0.016 A 
ATOM     20  C   UNL A   1      32.335  26.407  24.522  1.00  0.00     0.016 A 
BRANCH  16  21
ATOM     21  N   UNL A   1      31.806  24.091  27.342  1.00  0.00    -0.322 N 
ATOM     22  C   UNL A   1      32.396  22.837  27.354  1.00  0.00     0.256 C 
ATOM     23  O   UNL A   1      32.425  22.198  28.405  1.00  0.00    -0.269 OA
ATOM     24  H   UNL A   1      31.555  24.435  28.230  1.00  0.00     0.170 HD
BRANCH  22  25
ATOM     25  C   UNL A   1      32.998  22.215  26.134  1.00  0.00     0.049 A 
ATOM     26  C   UNL A   1      35.278  23.323  26.419  1.00  0.00     0.053 C 
ATOM     27  C   UNL A   1      34.272  22.545  25.613  1.00  0.00     0.039 A 
ATOM     28  C   UNL A   1      34.558  22.110  24.296  1.00  0.00     0.273 A 
ATOM     29  C   UNL A   1      32.179  21.286  25.465  1.00  0.00     0.014 A 
ATOM     30  C   UNL A   1      33.722  21.206  23.620  1.00  0.00     0.086 A 
ATOM     31  C   UNL A   1      32.556  20.757  24.231  1.00  0.00     0.008 A 
BRANCH  28  32
ATOM     32  N   UNL A   1      35.671  22.680  23.528  1.00  0.00     0.063 N 
ATOM     33  O   UNL A   1      36.774  22.126  23.624  1.00  0.00    -0.258 OA
ATOM     34  O   UNL A   1      35.419  23.630  22.774  1.00  0.00    -0.258 OA
ENDBRANCH  28  32
ENDBRANCH  22  25
ENDBRANCH  16  21
ENDBRANCH  12  15
ENDBRANCH   6  11
ENDBRANCH   1   5
BRANCH   3  35
ATOM     35  C   UNL A   1      31.885  30.450  26.275  1.00  0.00     0.118 C 
BRANCH  35  36
ATOM     36  C   UNL A   1      32.760  30.145  27.478  1.00  0.00     0.042 C 
BRANCH  36  37
ATOM     37  C   UNL A   1      34.218  30.549  27.307  1.00  0.00     0.118 C 
BRANCH  37  38
ATOM     38  N   UNL A   1      34.723  31.278  28.473  1.00  0.00    -0.352 N 
ATOM     39  C   UNL A   1      35.770  30.991  29.329  1.00  0.00     0.251 C 
ATOM     40  H   UNL A   1      34.237  32.108  28.681  1.00  0.00     0.163 HD
ATOM     41  O   UNL A   1      36.030  31.732  30.262  1.00  0.00    -0.269 OA
BRANCH  39  42
ATOM     42  C   UNL A   1      36.674  29.870  28.994  1.00  0.00     0.039 A 
ATOM     43  C   UNL A   1      37.011  28.998  30.035  1.00  0.00     0.014 A 
ATOM     44  C   UNL A   1      37.373  29.853  27.793  1.00  0.00     0.014 A 
ATOM     45  C   UNL A   1      38.220  28.317  29.977  1.00  0.00     0.010 A 
ATOM     46  C   UNL A   1      38.618  29.257  27.773  1.00  0.00     0.010 A 
ATOM     47  C   UNL A   1      39.071  28.561  28.899  1.00  0.00    -0.014 A 
BRANCH  47  48
ATOM     48  C   UNL A   1      40.485  28.215  28.928  1.00  0.00     0.031 A 
ATOM     49  C   UNL A   1      40.943  26.920  28.398  1.00  0.00     0.074 A 
ATOM     50  C   UNL A   1      41.383  29.100  29.413  1.00  0.00     0.049 A 
ATOM     51  N   UNL A   1      42.041  26.343  28.751  1.00  0.00    -0.248 NA
ATOM     52  C   UNL A   1      40.159  26.147  27.446  1.00  0.00     0.031 C 
ATOM     53  C   UNL A   1      42.840  29.027  29.327  1.00  0.00     0.029 A 
ATOM     54  N   UNL A   1      41.142  30.157  30.308  1.00  0.00    -0.354 N 
ATOM     55  C   UNL A   1      42.247  25.281  27.902  1.00  0.00     0.074 A 
ATOM     56  C   UNL A   1      41.016  25.165  27.150  1.00  0.00     0.031 C 
ATOM     57  C   UNL A   1      43.364  29.735  30.340  1.00  0.00     0.029 A 
ATOM     58  C   UNL A   1      42.260  30.161  31.179  1.00  0.00     0.049 A 
ATOM     59  H   UNL A   1      40.365  30.761  30.326  1.00  0.00     0.167 HD
ATOM     60  C   UNL A   1      43.483  24.705  27.850  1.00  0.00     0.037 A 
ATOM     61  C   UNL A   1      42.120  29.881  32.507  1.00  0.00     0.037 A 
ATOM     62  C   UNL A   1      44.392  25.278  28.843  1.00  0.00     0.049 A 
ATOM     63  C   UNL A   1      42.932  28.701  33.002  1.00  0.00     0.074 A 
ATOM     64  C   UNL A   1      45.428  26.199  28.801  1.00  0.00     0.029 A 
ATOM     65  N   UNL A   1      44.098  25.107  30.185  1.00  0.00    -0.354 N 
ATOM     66  N   UNL A   1      43.612  27.895  32.234  1.00  0.00    -0.248 NA
ATOM     67  C   UNL A   1      42.931  28.270  34.399  1.00  0.00     0.031 C 
ATOM     68  C   UNL A   1      45.773  26.549  30.138  1.00  0.00     0.029 A 
ATOM     69  C   UNL A   1      44.943  25.847  30.990  1.00  0.00     0.049 A 
ATOM     70  H   UNL A   1      43.375  24.532  30.524  1.00  0.00     0.167 HD
ATOM     71  C   UNL A   1      44.075  26.841  32.981  1.00  0.00     0.074 A 
ATOM     72  C   UNL A   1      43.614  27.115  34.328  1.00  0.00     0.031 C 
ATOM     73  C   UNL A   1      44.758  25.796  32.430  1.00  0.00     0.037 A 
BRANCH  60  74
ATOM     74  C   UNL A   1      43.935  23.803  26.721  1.00  0.00     0.064 A 
ATOM     75  C   UNL A   1      43.478  22.471  26.633  1.00  0.00     0.173 A 
ATOM     76  C   UNL A   1      44.868  24.167  25.733  1.00  0.00     0.173 A 
ATOM     77  F   UNL A   1      42.489  22.015  27.412  1.00  0.00    -0.203 F 
ATOM     78  C   UNL A   1      44.024  21.547  25.739  1.00  0.00     0.198 A 
ATOM     79  C   UNL A   1      45.461  23.232  24.879  1.00  0.00     0.198 A 
ATOM     80  F   UNL A   1      45.188  25.448  25.519  1.00  0.00    -0.203 F 
ATOM     81  F   UNL A   1      43.557  20.291  25.714  1.00  0.00    -0.200 F 
ATOM     82  C   UNL A   1      45.050  21.915  24.895  1.00  0.00     0.200 A 
ATOM     83  F   UNL A   1      46.434  23.618  24.043  1.00  0.00    -0.200 F 
ATOM     84  F   UNL A   1      45.617  21.016  24.080  1.00  0.00    -0.200 F 
ENDBRANCH  60  74
BRANCH  61  85
ATOM     85  C   UNL A   1      40.789  30.268  33.051  1.00  0.00     0.064 A 
ATOM     86  C   UNL A   1      40.480  31.636  33.188  1.00  0.00     0.173 A 
ATOM     87  C   UNL A   1      39.728  29.357  33.110  1.00  0.00     0.173 A 
ATOM     88  F   UNL A   1      41.456  32.555  33.136  1.00  0.00    -0.203 F 
ATOM     89  C   UNL A   1      39.159  32.076  33.261  1.00  0.00     0.198 A 
ATOM     90  C   UNL A   1      38.410  29.800  33.210  1.00  0.00     0.198 A 
ATOM     91  F   UNL A   1      39.950  28.043  32.961  1.00  0.00    -0.203 F 
ATOM     92  F   UNL A   1      38.891  33.389  33.266  1.00  0.00    -0.200 F 
ATOM     93  C   UNL A   1      38.125  31.157  33.250  1.00  0.00     0.200 A 
ATOM     94  F   UNL A   1      37.407  28.911  33.172  1.00  0.00    -0.200 F 
ATOM     95  F   UNL A   1      36.853  31.578  33.234  1.00  0.00    -0.200 F 
ENDBRANCH  61  85
BRANCH  73  96
ATOM     96  C   UNL A   1      45.282  24.617  33.208  1.00  0.00     0.064 A 
ATOM     97  C   UNL A   1      44.478  23.528  33.579  1.00  0.00     0.173 A 
ATOM     98  C   UNL A   1      46.609  24.591  33.696  1.00  0.00     0.173 A 
ATOM     99  F   UNL A   1      43.174  23.495  33.263  1.00  0.00    -0.203 F 
ATOM    100  C   UNL A   1      44.985  22.451  34.311  1.00  0.00     0.198 A 
ATOM    101  C   UNL A   1      47.098  23.543  34.473  1.00  0.00     0.198 A 
ATOM    102  F   UNL A   1      47.481  25.569  33.416  1.00  0.00    -0.203 F 
ATOM    103  F   UNL A   1      44.198  21.402  34.582  1.00  0.00    -0.200 F 
ATOM    104  C   UNL A   1      46.293  22.462  34.763  1.00  0.00     0.200 A 
ATOM    105  F   UNL A   1      48.358  23.586  34.930  1.00  0.00    -0.200 F 
ATOM    106  F   UNL A   1      46.775  21.435  35.476  1.00  0.00    -0.200 F 
ENDBRANCH  73  96
ENDBRANCH  47  48
ENDBRANCH  39  42
ENDBRANCH  37  38
ENDBRANCH  36  37
ENDBRANCH  35  36
ENDBRANCH   3  35
TORSDOF 15
ENDMDL
MODEL 2
REMARK VINA RESULT:     -14.5      3.769     10.139
REMARK SMILES Cc1c(C(=O)Nc2ccc(C(=O)Nc3ccccc3C(=O)NCCCNC(=O)c3ccc(-c4c5nc(c(-c6c(F)c(F)c(F)c(F)c6F)c6ccc([nH]6)c(-c6c(F)c(F)c(F)c(F)c6F)c6nc(c(-c7c(F)c(F)c(F)c(F)c7F)c7ccc4[nH]7)C=C6)C=C5)cc3)cc2)cccc1[N+](=O)[O-]
REMARK SMILES IDX 20 1 21 2 22 3 19 5 14 6 15 7 16 8 18 9 17 10 13 11 11 12
REMARK SMILES IDX 12 13 10 15 7 16 8 17 93 18 9 19 92 20 6 21 4 22 5 23 3 25
REMARK SMILES IDX 1 26 2 27 97 28 94 29 96 30 95 31 98 32 99 33 100 34 23 35
REMARK SMILES IDX 24 36 25 37 26 38 27 39 28 41 29 42 30 43 91 44 31 45 90 46
REMARK SMILES IDX 32 47 33 48 34 49 84 50 35 51 89 52 83 53 85 54 36 55 88 56
REMARK SMILES IDX 82 57 81 58 37 60 69 61 49 62 68 63 50 64 53 65 67 66 86 67
REMARK SMILES IDX 51 68 52 69 66 71 87 72 54 73 38 74 39 75 47 76 40 77 41 78
REMARK SMILES IDX 45 79 48 80 42 81 43 82 46 83 44 84 70 85 71 86 79 87 72 88
REMARK SMILES IDX 73 89 77 90 80 91 74 92 75 93 78 94 76 95 55 96 56 97 64 98
REMARK SMILES IDX 57 99 58 100 62 101 65 102 59 103 60 104 63 105 61 106
REMARK H PARENT 22 4 13 14 6 24 26 40 85 59 53 70
REMARK Flexibility Score: inf
ROOT
ATOM      1  C   UNL A   1      38.371  20.109  25.411  1.00  0.00     0.253 C 
ATOM      2  O   UNL A   1      37.821  19.062  25.070  1.00  0.00    -0.269 OA
ATOM      3  N   UNL A   1      39.698  20.019  25.782  1.00  0.00    -0.352 N 
ATOM      4  H   UNL A   1      40.022  19.090  25.807  1.00  0.00     0.163 HD
ENDROOT
BRANCH   1   5
ATOM      5  C   UNL A   1      37.587  21.380  25.434  1.00  0.00     0.063 A 
ATOM      6  C   UNL A   1      36.213  21.437  25.089  1.00  0.00     0.054 A 
ATOM      7  C   UNL A   1      35.546  22.678  25.109  1.00  0.00     0.027 A 
ATOM      8  C   UNL A   1      36.195  23.841  25.511  1.00  0.00     0.002 A 
ATOM      9  C   UNL A   1      38.246  22.592  25.690  1.00  0.00     0.016 A 
ATOM     10  C   UNL A   1      37.553  23.802  25.787  1.00  0.00     0.001 A 
BRANCH   6  11
ATOM     11  N   UNL A   1      35.384  20.362  24.710  1.00  0.00    -0.321 N 
ATOM     12  C   UNL A   1      34.146  19.930  25.127  1.00  0.00     0.255 C 
ATOM     13  O   UNL A   1      33.772  18.807  24.777  1.00  0.00    -0.269 OA
ATOM     14  H   UNL A   1      35.773  19.802  24.000  1.00  0.00     0.170 HD
BRANCH  12  15
ATOM     15  C   UNL A   1      33.150  20.839  25.769  1.00  0.00     0.040 A 
ATOM     16  C   UNL A   1      31.471  22.933  26.625  1.00  0.00     0.041 A 
ATOM     17  C   UNL A   1      32.539  22.518  27.403  1.00  0.00     0.027 A 
ATOM     18  C   UNL A   1      31.130  22.180  25.500  1.00  0.00     0.027 A 
ATOM     19  C   UNL A   1      33.415  21.544  26.938  1.00  0.00     0.016 A 
ATOM     20  C   UNL A   1      31.967  21.136  25.075  1.00  0.00     0.016 A 
BRANCH  16  21
ATOM     21  N   UNL A   1      30.795  24.140  26.863  1.00  0.00    -0.322 N 
ATOM     22  C   UNL A   1      31.005  25.412  26.353  1.00  0.00     0.256 C 
ATOM     23  O   UNL A   1      30.375  26.358  26.822  1.00  0.00    -0.269 OA
ATOM     24  H   UNL A   1      30.046  24.073  27.499  1.00  0.00     0.170 HD
BRANCH  22  25
ATOM     25  C   UNL A   1      31.978  25.690  25.252  1.00  0.00     0.049 A 
ATOM     26  C   UNL A   1      30.485  24.776  23.396  1.00  0.00     0.053 C 
ATOM     27  C   UNL A   1      31.812  25.269  23.910  1.00  0.00     0.039 A 
ATOM     28  C   UNL A   1      32.952  25.331  23.073  1.00  0.00     0.273 A 
ATOM     29  C   UNL A   1      33.147  26.371  25.638  1.00  0.00     0.014 A 
ATOM     30  C   UNL A   1      34.128  25.986  23.476  1.00  0.00     0.086 A 
ATOM     31  C   UNL A   1      34.202  26.550  24.745  1.00  0.00     0.008 A 
BRANCH  28  32
ATOM     32  N   UNL A   1      33.005  24.605  21.799  1.00  0.00     0.063 N 
ATOM     33  O   UNL A   1      33.036  25.277  20.759  1.00  0.00    -0.258 OA
ATOM     34  O   UNL A   1      33.092  23.370  21.846  1.00  0.00    -0.258 OA
ENDBRANCH  28  32
ENDBRANCH  22  25
ENDBRANCH  16  21
ENDBRANCH  12  15
ENDBRANCH   6  11
ENDBRANCH   1   5
BRANCH   3  35
ATOM     35  C   UNL A   1      40.732  20.985  26.145  1.00  0.00     0.118 C 
BRANCH  35  36
ATOM     36  C   UNL A   1      40.797  21.305  27.628  1.00  0.00     0.042 C 
BRANCH  36  37
ATOM     37  C   UNL A   1      41.217  22.734  27.940  1.00  0.00     0.118 C 
BRANCH  37  38
ATOM     38  N   UNL A   1      42.053  23.302  26.880  1.00  0.00    -0.352 N 
ATOM     39  C   UNL A   1      41.977  24.521  26.230  1.00  0.00     0.251 C 
ATOM     40  H   UNL A   1      42.789  22.721  26.581  1.00  0.00     0.163 HD
ATOM     41  O   UNL A   1      42.776  24.807  25.354  1.00  0.00    -0.269 OA
BRANCH  39  42
ATOM     42  C   UNL A   1      41.026  25.534  26.732  1.00  0.00     0.039 A 
ATOM     43  C   UNL A   1      40.996  26.760  26.058  1.00  0.00     0.014 A 
ATOM     44  C   UNL A   1      40.412  25.385  27.970  1.00  0.00     0.014 A 
ATOM     45  C   UNL A   1      40.603  27.898  26.749  1.00  0.00     0.010 A 
ATOM     46  C   UNL A   1      40.114  26.524  28.691  1.00  0.00     0.010 A 
ATOM     47  C   UNL A   1      40.292  27.781  28.104  1.00  0.00    -0.014 A 
BRANCH  47  48
ATOM     48  C   UNL A   1      40.247  28.931  28.997  1.00  0.00     0.031 A 
ATOM     49  C   UNL A   1      39.180  29.936  28.858  1.00  0.00     0.074 A 
ATOM     50  C   UNL A   1      41.170  29.057  29.975  1.00  0.00     0.049 A 
ATOM     51  N   UNL A   1      39.279  31.155  29.269  1.00  0.00    -0.248 NA
ATOM     52  C   UNL A   1      37.917  29.646  28.197  1.00  0.00     0.031 C 
ATOM     53  C   UNL A   1      41.164  30.006  31.086  1.00  0.00     0.029 A 
ATOM     54  N   UNL A   1      42.451  28.480  30.020  1.00  0.00    -0.354 N 
ATOM     55  C   UNL A   1      38.034  31.729  29.177  1.00  0.00     0.074 A 
ATOM     56  C   UNL A   1      37.237  30.769  28.446  1.00  0.00     0.031 C 
ATOM     57  C   UNL A   1      42.429  30.198  31.492  1.00  0.00     0.029 A 
ATOM     58  C   UNL A   1      43.287  29.486  30.563  1.00  0.00     0.049 A 
ATOM     59  H   UNL A   1      42.709  27.573  29.735  1.00  0.00     0.167 HD
ATOM     60  C   UNL A   1      37.793  32.897  29.842  1.00  0.00     0.037 A 
ATOM     61  C   UNL A   1      44.289  30.045  29.823  1.00  0.00     0.037 A 
ATOM     62  C   UNL A   1      39.001  33.420  30.478  1.00  0.00     0.049 A 
ATOM     63  C   UNL A   1      44.191  31.547  29.644  1.00  0.00     0.074 A 
ATOM     64  C   UNL A   1      39.495  33.429  31.774  1.00  0.00     0.029 A 
ATOM     65  N   UNL A   1      40.058  33.809  29.674  1.00  0.00    -0.354 N 
ATOM     66  N   UNL A   1      43.177  32.275  30.021  1.00  0.00    -0.248 NA
ATOM     67  C   UNL A   1      45.188  32.322  28.906  1.00  0.00     0.031 C 
ATOM     68  C   UNL A   1      40.851  33.864  31.736  1.00  0.00     0.029 A 
ATOM     69  C   UNL A   1      41.182  34.112  30.418  1.00  0.00     0.049 A 
ATOM     70  H   UNL A   1      40.015  33.863  28.692  1.00  0.00     0.167 HD
ATOM     71  C   UNL A   1      43.336  33.553  29.549  1.00  0.00     0.074 A 
ATOM     72  C   UNL A   1      44.604  33.530  28.848  1.00  0.00     0.031 C 
ATOM     73  C   UNL A   1      42.391  34.521  29.724  1.00  0.00     0.037 A 
BRANCH  60  74
ATOM     74  C   UNL A   1      36.401  33.422  30.125  1.00  0.00     0.064 A 
ATOM     75  C   UNL A   1      35.596  33.935  29.086  1.00  0.00     0.173 A 
ATOM     76  C   UNL A   1      35.827  33.512  31.406  1.00  0.00     0.173 A 
ATOM     77  F   UNL A   1      35.940  33.798  27.798  1.00  0.00    -0.203 F 
ATOM     78  C   UNL A   1      34.401  34.615  29.327  1.00  0.00     0.198 A 
ATOM     79  C   UNL A   1      34.664  34.245  31.658  1.00  0.00     0.198 A 
ATOM     80  F   UNL A   1      36.338  32.839  32.444  1.00  0.00    -0.203 F 
ATOM     81  F   UNL A   1      33.688  35.093  28.297  1.00  0.00    -0.200 F 
ATOM     82  C   UNL A   1      33.959  34.814  30.618  1.00  0.00     0.200 A 
ATOM     83  F   UNL A   1      34.234  34.397  32.918  1.00  0.00    -0.200 F 
ATOM     84  F   UNL A   1      32.846  35.519  30.856  1.00  0.00    -0.200 F 
ENDBRANCH  60  74
BRANCH  61  85
ATOM     85  C   UNL A   1      44.856  29.116  28.806  1.00  0.00     0.064 A 
ATOM     86  C   UNL A   1      45.747  28.109  29.226  1.00  0.00     0.173 A 
ATOM     87  C   UNL A   1      44.289  28.988  27.534  1.00  0.00     0.173 A 
ATOM     88  F   UNL A   1      46.319  28.177  30.438  1.00  0.00    -0.203 F 
ATOM     89  C   UNL A   1      45.966  26.969  28.454  1.00  0.00     0.198 A 
ATOM     90  C   UNL A   1      44.532  27.859  26.753  1.00  0.00     0.198 A 
ATOM     91  F   UNL A   1      43.413  29.898  27.084  1.00  0.00    -0.203 F 
ATOM     92  F   UNL A   1      46.723  25.971  28.933  1.00  0.00    -0.200 F 
ATOM     93  C   UNL A   1      45.341  26.837  27.227  1.00  0.00     0.200 A 
ATOM     94  F   UNL A   1      43.904  27.718  25.577  1.00  0.00    -0.200 F 
ATOM     95  F   UNL A   1      45.481  25.706  26.520  1.00  0.00    -0.200 F 
ENDBRANCH  61  85
BRANCH  73  96
ATOM     96  C   UNL A   1      42.519  35.936  29.221  1.00  0.00     0.064 A 
ATOM     97  C   UNL A   1      41.923  36.380  28.030  1.00  0.00     0.173 A 
ATOM     98  C   UNL A   1      43.339  36.879  29.883  1.00  0.00     0.173 A 
ATOM     99  F   UNL A   1      41.210  35.543  27.262  1.00  0.00    -0.203 F 
ATOM    100  C   UNL A   1      42.067  37.696  27.579  1.00  0.00     0.198 A 
ATOM    101  C   UNL A   1      43.525  38.173  29.402  1.00  0.00     0.198 A 
ATOM    102  F   UNL A   1      43.966  36.584  31.030  1.00  0.00    -0.203 F 
ATOM    103  F   UNL A   1      41.423  38.093  26.473  1.00  0.00    -0.200 F 
ATOM    104  C   UNL A   1      42.872  38.589  28.262  1.00  0.00     0.200 A 
ATOM    105  F   UNL A   1      44.335  39.016  30.060  1.00  0.00    -0.200 F 
ATOM    106  F   UNL A   1      43.020  39.846  27.821  1.00  0.00    -0.200 F 
ENDBRANCH  73  96
ENDBRANCH  47  48
ENDBRANCH  39  42
ENDBRANCH  37  38
ENDBRANCH  36  37
ENDBRANCH  35  36
ENDBRANCH   3  35
TORSDOF 15
ENDMDL
MODEL 3
REMARK VINA RESULT:     -14.4      3.907      9.833
REMARK SMILES Cc1c(C(=O)Nc2ccc(C(=O)Nc3ccccc3C(=O)NCCCNC(=O)c3ccc(-c4c5nc(c(-c6c(F)c(F)c(F)c(F)c6F)c6ccc([nH]6)c(-c6c(F)c(F)c(F)c(F)c6F)c6nc(c(-c7c(F)c(F)c(F)c(F)c7F)c7ccc4[nH]7)C=C6)C=C5)cc3)cc2)cccc1[N+](=O)[O-]
REMARK SMILES IDX 20 1 21 2 22 3 19 5 14 6 15 7 16 8 18 9 17 10 13 11 11 12
REMARK SMILES IDX 12 13 10 15 7 16 8 17 93 18 9 19 92 20 6 21 4 22 5 23 3 25
REMARK SMILES IDX 1 26 2 27 97 28 94 29 96 30 95 31 98 32 99 33 100 34 23 35
REMARK SMILES IDX 24 36 25 37 26 38 27 39 28 41 29 42 30 43 91 44 31 45 90 46
REMARK SMILES IDX 32 47 33 48 34 49 84 50 35 51 89 52 83 53 85 54 36 55 88 56
REMARK SMILES IDX 82 57 81 58 37 60 69 61 49 62 68 63 50 64 53 65 67 66 86 67
REMARK SMILES IDX 51 68 52 69 66 71 87 72 54 73 38 74 39 75 47 76 40 77 41 78
REMARK SMILES IDX 45 79 48 80 42 81 43 82 46 83 44 84 70 85 71 86 79 87 72 88
REMARK SMILES IDX 73 89 77 90 80 91 74 92 75 93 78 94 76 95 55 96 56 97 64 98
REMARK SMILES IDX 57 99 58 100 62 101 65 102 59 103 60 104 63 105 61 106
REMARK H PARENT 22 4 13 14 6 24 26 40 85 59 53 70
REMARK Flexibility Score: inf
ROOT
ATOM      1  C   UNL A   1      38.972  20.612  25.775  1.00  0.00     0.253 C 
ATOM      2  O   UNL A   1      38.716  19.646  25.058  1.00  0.00    -0.269 OA
ATOM      3  N   UNL A   1      40.091  20.510  26.578  1.00  0.00    -0.352 N 
ATOM      4  H   UNL A   1      40.506  19.618  26.536  1.00  0.00     0.163 HD
ENDROOT
BRANCH   1   5
ATOM      5  C   UNL A   1      38.067  21.801  25.761  1.00  0.00     0.063 A 
ATOM      6  C   UNL A   1      36.737  21.743  25.273  1.00  0.00     0.054 A 
ATOM      7  C   UNL A   1      35.952  22.913  25.267  1.00  0.00     0.027 A 
ATOM      8  C   UNL A   1      36.437  24.112  25.779  1.00  0.00     0.002 A 
ATOM      9  C   UNL A   1      38.573  23.057  26.130  1.00  0.00     0.016 A 
ATOM     10  C   UNL A   1      37.757  24.190  26.196  1.00  0.00     0.001 A 
BRANCH   6  11
ATOM     11  N   UNL A   1      36.063  20.613  24.769  1.00  0.00    -0.321 N 
ATOM     12  C   UNL A   1      34.858  20.020  25.069  1.00  0.00     0.255 C 
ATOM     13  O   UNL A   1      34.638  18.890  24.622  1.00  0.00    -0.269 OA
ATOM     14  H   UNL A   1      36.557  20.152  24.055  1.00  0.00     0.170 HD
BRANCH  12  15
ATOM     15  C   UNL A   1      33.726  20.766  25.694  1.00  0.00     0.040 A 
ATOM     16  C   UNL A   1      31.725  22.573  26.510  1.00  0.00     0.041 A 
ATOM     17  C   UNL A   1      32.846  22.357  27.294  1.00  0.00     0.027 A 
ATOM     18  C   UNL A   1      31.512  21.750  25.403  1.00  0.00     0.027 A 
ATOM     19  C   UNL A   1      33.871  21.530  26.847  1.00  0.00     0.016 A 
ATOM     20  C   UNL A   1      32.510  20.849  24.998  1.00  0.00     0.016 A 
BRANCH  16  21
ATOM     21  N   UNL A   1      30.858  23.657  26.724  1.00  0.00    -0.322 N 
ATOM     22  C   UNL A   1      30.910  24.962  26.261  1.00  0.00     0.256 C 
ATOM     23  O   UNL A   1      30.112  25.788  26.703  1.00  0.00    -0.269 OA
ATOM     24  H   UNL A   1      30.085  23.457  27.301  1.00  0.00     0.170 HD
BRANCH  22  25
ATOM     25  C   UNL A   1      31.905  25.420  25.243  1.00  0.00     0.049 A 
ATOM     26  C   UNL A   1      30.587  24.557  23.236  1.00  0.00     0.053 C 
ATOM     27  C   UNL A   1      31.840  25.110  23.863  1.00  0.00     0.039 A 
ATOM     28  C   UNL A   1      33.008  25.343  23.098  1.00  0.00     0.273 A 
ATOM     29  C   UNL A   1      32.991  26.158  25.750  1.00  0.00     0.014 A 
ATOM     30  C   UNL A   1      34.102  26.055  23.620  1.00  0.00     0.086 A 
ATOM     31  C   UNL A   1      34.067  26.504  24.934  1.00  0.00     0.008 A 
BRANCH  28  32
ATOM     32  N   UNL A   1      33.184  24.743  21.770  1.00  0.00     0.063 N 
ATOM     33  O   UNL A   1      33.091  25.492  20.788  1.00  0.00    -0.258 OA
ATOM     34  O   UNL A   1      33.490  23.544  21.719  1.00  0.00    -0.258 OA
ENDBRANCH  28  32
ENDBRANCH  22  25
ENDBRANCH  16  21
ENDBRANCH  12  15
ENDBRANCH   6  11
ENDBRANCH   1   5
BRANCH   3  35
ATOM     35  C   UNL A   1      40.799  21.418  27.476  1.00  0.00     0.118 C 
BRANCH  35  36
ATOM     36  C   UNL A   1      42.258  21.640  27.119  1.00  0.00     0.042 C 
BRANCH  36  37
ATOM     37  C   UNL A   1      42.482  22.181  25.713  1.00  0.00     0.118 C 
BRANCH  37  38
ATOM     38  N   UNL A   1      43.554  21.466  25.017  1.00  0.00    -0.352 N 
ATOM     39  C   UNL A   1      44.883  21.800  24.829  1.00  0.00     0.251 C 
ATOM     40  H   UNL A   1      43.285  20.607  24.618  1.00  0.00     0.163 HD
ATOM     41  O   UNL A   1      45.625  21.062  24.202  1.00  0.00    -0.269 OA
BRANCH  39  42
ATOM     42  C   UNL A   1      45.428  22.973  25.543  1.00  0.00     0.039 A 
ATOM     43  C   UNL A   1      45.754  22.796  26.892  1.00  0.00     0.014 A 
ATOM     44  C   UNL A   1      45.348  24.246  24.989  1.00  0.00     0.014 A 
ATOM     45  C   UNL A   1      45.717  23.893  27.742  1.00  0.00     0.010 A 
ATOM     46  C   UNL A   1      45.214  25.321  25.843  1.00  0.00     0.010 A 
ATOM     47  C   UNL A   1      45.316  25.124  27.225  1.00  0.00    -0.014 A 
BRANCH  47  48
ATOM     48  C   UNL A   1      44.876  26.222  28.075  1.00  0.00     0.031 A 
ATOM     49  C   UNL A   1      43.491  26.713  27.995  1.00  0.00     0.074 A 
ATOM     50  C   UNL A   1      45.736  26.770  28.961  1.00  0.00     0.049 A 
ATOM     51  N   UNL A   1      43.123  27.898  28.350  1.00  0.00    -0.248 NA
ATOM     52  C   UNL A   1      42.407  25.904  27.461  1.00  0.00     0.031 C 
ATOM     53  C   UNL A   1      45.428  27.715  30.032  1.00  0.00     0.029 A 
ATOM     54  N   UNL A   1      47.141  26.749  28.913  1.00  0.00    -0.354 N 
ATOM     55  C   UNL A   1      41.749  27.927  28.349  1.00  0.00     0.074 A 
ATOM     56  C   UNL A   1      41.354  26.681  27.728  1.00  0.00     0.031 C 
ATOM     57  C   UNL A   1      46.536  28.417  30.316  1.00  0.00     0.029 A 
ATOM     58  C   UNL A   1      47.542  28.039  29.340  1.00  0.00     0.049 A 
ATOM     59  H   UNL A   1      47.720  26.000  28.640  1.00  0.00     0.167 HD
ATOM     60  C   UNL A   1      41.108  28.948  28.988  1.00  0.00     0.037 A 
ATOM     61  C   UNL A   1      48.185  28.894  28.493  1.00  0.00     0.037 A 
ATOM     62  C   UNL A   1      42.048  29.948  29.494  1.00  0.00     0.049 A 
ATOM     63  C   UNL A   1      47.485  30.220  28.268  1.00  0.00     0.074 A 
ATOM     64  C   UNL A   1      42.583  30.241  30.739  1.00  0.00     0.029 A 
ATOM     65  N   UNL A   1      42.805  30.665  28.584  1.00  0.00    -0.354 N 
ATOM     66  N   UNL A   1      46.293  30.513  28.708  1.00  0.00    -0.248 NA
ATOM     67  C   UNL A   1      48.038  31.271  27.416  1.00  0.00     0.031 C 
ATOM     68  C   UNL A   1      43.648  31.172  30.563  1.00  0.00     0.029 A 
ATOM     69  C   UNL A   1      43.762  31.438  29.213  1.00  0.00     0.049 A 
ATOM     70  H   UNL A   1      42.678  30.629  27.609  1.00  0.00     0.167 HD
ATOM     71  C   UNL A   1      45.897  31.714  28.176  1.00  0.00     0.074 A 
ATOM     72  C   UNL A   1      47.019  32.144  27.365  1.00  0.00     0.031 C 
ATOM     73  C   UNL A   1      44.658  32.241  28.399  1.00  0.00     0.037 A 
BRANCH  60  74
ATOM     74  C   UNL A   1      39.645  28.901  29.375  1.00  0.00     0.064 A 
ATOM     75  C   UNL A   1      38.640  29.257  28.450  1.00  0.00     0.173 A 
ATOM     76  C   UNL A   1      39.169  28.579  30.659  1.00  0.00     0.173 A 
ATOM     77  F   UNL A   1      38.916  29.454  27.155  1.00  0.00    -0.203 F 
ATOM     78  C   UNL A   1      37.305  29.427  28.821  1.00  0.00     0.198 A 
ATOM     79  C   UNL A   1      37.846  28.809  31.049  1.00  0.00     0.198 A 
ATOM     80  F   UNL A   1      39.952  27.973  31.559  1.00  0.00    -0.203 F 
ATOM     81  F   UNL A   1      36.399  29.781  27.898  1.00  0.00    -0.200 F 
ATOM     82  C   UNL A   1      36.916  29.252  30.132  1.00  0.00     0.200 A 
ATOM     83  F   UNL A   1      37.482  28.599  32.322  1.00  0.00    -0.200 F 
ATOM     84  F   UNL A   1      35.648  29.475  30.502  1.00  0.00    -0.200 F 
ENDBRANCH  60  74
BRANCH  61  85
ATOM     85  C   UNL A   1      49.005  28.195  27.466  1.00  0.00     0.064 A 
ATOM     86  C   UNL A   1      50.317  27.801  27.794  1.00  0.00     0.173 A 
ATOM     87  C   UNL A   1      48.424  27.623  26.329  1.00  0.00     0.173 A 
ATOM     88  F   UNL A   1      50.925  28.313  28.875  1.00  0.00    -0.203 F 
ATOM     89  C   UNL A   1      50.969  26.793  27.084  1.00  0.00     0.198 A 
ATOM     90  C   UNL A   1      49.090  26.635  25.606  1.00  0.00     0.198 A 
ATOM     91  F   UNL A   1      47.169  27.936  25.976  1.00  0.00    -0.203 F 
ATOM     92  F   UNL A   1      52.167  26.352  27.495  1.00  0.00    -0.200 F 
ATOM     93  C   UNL A   1      50.344  26.197  26.004  1.00  0.00     0.200 A 
ATOM     94  F   UNL A   1      48.473  26.038  24.576  1.00  0.00    -0.200 F 
ATOM     95  F   UNL A   1      50.930  25.171  25.371  1.00  0.00    -0.200 F 
ENDBRANCH  61  85
BRANCH  73  96
ATOM     96  C   UNL A   1      44.177  33.553  27.833  1.00  0.00     0.064 A 
ATOM     97  C   UNL A   1      43.973  34.695  28.622  1.00  0.00     0.173 A 
ATOM     98  C   UNL A   1      43.809  33.675  26.473  1.00  0.00     0.173 A 
ATOM     99  F   UNL A   1      44.187  34.667  29.946  1.00  0.00    -0.203 F 
ATOM    100  C   UNL A   1      43.516  35.898  28.075  1.00  0.00     0.198 A 
ATOM    101  C   UNL A   1      43.300  34.857  25.942  1.00  0.00     0.198 A 
ATOM    102  F   UNL A   1      43.953  32.658  25.612  1.00  0.00    -0.203 F 
ATOM    103  F   UNL A   1      43.402  36.982  28.854  1.00  0.00    -0.200 F 
ATOM    104  C   UNL A   1      43.174  35.976  26.736  1.00  0.00     0.200 A 
ATOM    105  F   UNL A   1      42.944  34.905  24.649  1.00  0.00    -0.200 F 
ATOM    106  F   UNL A   1      42.723  37.126  26.216  1.00  0.00    -0.200 F 
ENDBRANCH  73  96
ENDBRANCH  47  48
ENDBRANCH  39  42
ENDBRANCH  37  38
ENDBRANCH  36  37
ENDBRANCH  35  36
ENDBRANCH   3  35
TORSDOF 15
ENDMDL
