MODEL 1
REMARK VINA RESULT:     -10.5      0.000      0.000
REMARK SMILES O=C(COC[C@@H]1CCCCO1)NCCCNC(=O)c1ccc(-c2c3nc(c(-c4c(F)c(F)c(F)c(F)c4F)c4ccc([nH]4)c(-c4c(F)c(F)c(F)c(F)c4F)c4nc(c(-c5c(F)c(F)c(F)c(F)c5F)c5ccc2[nH]5)C=C4)C=C3)cc1
REMARK SMILES IDX 13 1 12 2 1 3 2 4 3 6 4 7 5 8 6 9 7 10 11 11 8 12 10 13 9 14
REMARK SMILES IDX 14 15 15 16 16 17 17 18 18 20 19 21 20 22 81 23 21 24 80 25
REMARK SMILES IDX 22 26 23 27 24 28 74 29 25 30 79 31 73 32 75 33 26 34 78 35
REMARK SMILES IDX 72 36 71 37 27 39 59 40 39 41 58 42 40 43 43 44 57 45 76 46
REMARK SMILES IDX 41 47 42 48 56 50 77 51 44 52 28 53 29 54 37 55 30 56 31 57
REMARK SMILES IDX 35 58 38 59 32 60 33 61 36 62 34 63 60 64 61 65 69 66 62 67
REMARK SMILES IDX 63 68 67 69 70 70 64 71 65 72 68 73 66 74 45 75 46 76 54 77
REMARK SMILES IDX 47 78 48 79 52 80 55 81 49 82 50 83 53 84 51 85
REMARK H PARENT 12 5 16 19 75 38 43 49
REMARK Flexibility Score: inf
ROOT
ATOM      1  C   UNL A   1      42.530  19.552  26.240  1.00  0.00     0.117 C 
ENDROOT
BRANCH   1   2
ATOM      2  N   UNL A   1      43.776  20.103  25.753  1.00  0.00    -0.354 N 
ATOM      3  O   UNL A   1      44.768  18.077  25.311  1.00  0.00    -0.272 OA
ATOM      4  C   UNL A   1      44.785  19.303  25.259  1.00  0.00     0.246 C 
ATOM      5  H   UNL A   1      43.908  21.078  25.775  1.00  0.00     0.163 HD
BRANCH   4   6
ATOM      6  C   UNL A   1      45.963  20.085  24.663  1.00  0.00     0.260 C 
BRANCH   6   7
ATOM      7  O   UNL A   1      46.331  21.308  25.286  1.00  0.00    -0.369 OA
BRANCH   7   8
ATOM      8  C   UNL A   1      46.185  22.485  24.486  1.00  0.00     0.192 C 
BRANCH   8   9
ATOM      9  C   UNL A   1      46.221  23.835  25.233  1.00  0.00     0.144 C 
ATOM     10  C   UNL A   1      46.064  23.714  26.753  1.00  0.00     0.034 C 
ATOM     11  O   UNL A   1      45.266  24.756  24.685  1.00  0.00    -0.376 OA
ATOM     12  C   UNL A   1      44.621  23.458  27.173  1.00  0.00     0.005 C 
ATOM     13  C   UNL A   1      43.906  24.468  24.999  1.00  0.00     0.160 C 
ATOM     14  C   UNL A   1      43.685  24.456  26.502  1.00  0.00     0.029 C 
ENDBRANCH   8   9
ENDBRANCH   7   8
ENDBRANCH   6   7
ENDBRANCH   4   6
ENDBRANCH   1   2
BRANCH   1  15
ATOM     15  C   UNL A   1      41.667  20.574  26.973  1.00  0.00     0.042 C 
BRANCH  15  16
ATOM     16  C   UNL A   1      41.341  21.829  26.168  1.00  0.00     0.118 C 
BRANCH  16  17
ATOM     17  N   UNL A   1      39.930  21.940  25.827  1.00  0.00    -0.352 N 
ATOM     18  C   UNL A   1      39.004  22.907  26.120  1.00  0.00     0.251 C 
ATOM     19  H   UNL A   1      39.580  21.190  25.295  1.00  0.00     0.163 HD
ATOM     20  O   UNL A   1      37.827  22.706  25.814  1.00  0.00    -0.269 OA
BRANCH  18  21
ATOM     21  C   UNL A   1      39.367  24.173  26.797  1.00  0.00     0.039 A 
ATOM     22  C   UNL A   1      40.017  25.159  26.042  1.00  0.00     0.014 A 
ATOM     23  C   UNL A   1      39.162  24.381  28.164  1.00  0.00     0.014 A 
ATOM     24  C   UNL A   1      40.425  26.353  26.642  1.00  0.00     0.010 A 
ATOM     25  C   UNL A   1      39.511  25.602  28.750  1.00  0.00     0.010 A 
ATOM     26  C   UNL A   1      40.161  26.593  27.999  1.00  0.00    -0.014 A 
BRANCH  26  27
ATOM     27  C   UNL A   1      40.591  27.863  28.640  1.00  0.00     0.031 A 
ATOM     28  C   UNL A   1      42.030  28.074  29.024  1.00  0.00     0.074 A 
ATOM     29  C   UNL A   1      39.682  28.821  28.903  1.00  0.00     0.049 A 
ATOM     30  N   UNL A   1      42.593  29.110  29.596  1.00  0.00    -0.248 NA
ATOM     31  C   UNL A   1      42.958  26.966  28.751  1.00  0.00     0.031 C 
ATOM     32  C   UNL A   1      38.249  28.724  28.627  1.00  0.00     0.029 A 
ATOM     33  N   UNL A   1      39.831  30.066  29.462  1.00  0.00    -0.354 N 
ATOM     34  C   UNL A   1      43.930  28.772  29.764  1.00  0.00     0.074 A 
ATOM     35  C   UNL A   1      44.087  27.419  29.276  1.00  0.00     0.031 C 
ATOM     36  C   UNL A   1      37.653  29.870  28.995  1.00  0.00     0.029 A 
ATOM     37  C   UNL A   1      38.657  30.773  29.551  1.00  0.00     0.049 A 
ATOM     38  H   UNL A   1      40.696  30.418  29.771  1.00  0.00     0.167 HD
ATOM     39  C   UNL A   1      44.939  29.527  30.259  1.00  0.00     0.037 A 
ATOM     40  C   UNL A   1      38.419  32.013  30.018  1.00  0.00     0.037 A 
ATOM     41  C   UNL A   1      44.795  30.886  30.716  1.00  0.00     0.049 A 
ATOM     42  C   UNL A   1      39.565  32.847  30.521  1.00  0.00     0.074 A 
ATOM     43  C   UNL A   1      45.768  31.746  31.194  1.00  0.00     0.029 A 
ATOM     44  N   UNL A   1      43.596  31.583  30.744  1.00  0.00    -0.354 N 
ATOM     45  N   UNL A   1      40.834  32.537  30.617  1.00  0.00    -0.248 NA
ATOM     46  C   UNL A   1      39.244  34.211  30.965  1.00  0.00     0.031 C 
ATOM     47  C   UNL A   1      45.154  32.956  31.537  1.00  0.00     0.029 A 
ATOM     48  C   UNL A   1      43.805  32.862  31.235  1.00  0.00     0.049 A 
ATOM     49  H   UNL A   1      42.727  31.222  30.458  1.00  0.00     0.167 HD
ATOM     50  C   UNL A   1      41.469  33.675  31.098  1.00  0.00     0.074 A 
ATOM     51  C   UNL A   1      40.446  34.686  31.264  1.00  0.00     0.031 C 
ATOM     52  C   UNL A   1      42.781  33.864  31.377  1.00  0.00     0.037 A 
BRANCH  39  53
ATOM     53  C   UNL A   1      46.301  28.900  30.327  1.00  0.00     0.064 A 
ATOM     54  C   UNL A   1      46.733  28.207  31.468  1.00  0.00     0.173 A 
ATOM     55  C   UNL A   1      47.173  28.966  29.230  1.00  0.00     0.173 A 
ATOM     56  F   UNL A   1      45.942  28.126  32.548  1.00  0.00    -0.203 F 
ATOM     57  C   UNL A   1      47.998  27.627  31.518  1.00  0.00     0.198 A 
ATOM     58  C   UNL A   1      48.427  28.362  29.273  1.00  0.00     0.198 A 
ATOM     59  F   UNL A   1      46.806  29.612  28.112  1.00  0.00    -0.203 F 
ATOM     60  F   UNL A   1      48.408  27.012  32.636  1.00  0.00    -0.200 F 
ATOM     61  C   UNL A   1      48.841  27.701  30.419  1.00  0.00     0.200 A 
ATOM     62  F   UNL A   1      49.238  28.424  28.208  1.00  0.00    -0.200 F 
ATOM     63  F   UNL A   1      50.057  27.140  30.468  1.00  0.00    -0.200 F 
ENDBRANCH  39  53
BRANCH  40  64
ATOM     64  C   UNL A   1      37.040  32.564  29.982  1.00  0.00     0.064 A 
ATOM     65  C   UNL A   1      36.584  33.284  28.870  1.00  0.00     0.173 A 
ATOM     66  C   UNL A   1      36.157  32.388  31.056  1.00  0.00     0.173 A 
ATOM     67  F   UNL A   1      37.403  33.495  27.828  1.00  0.00    -0.203 F 
ATOM     68  C   UNL A   1      35.302  33.825  28.840  1.00  0.00     0.198 A 
ATOM     69  C   UNL A   1      34.865  32.910  31.015  1.00  0.00     0.198 A 
ATOM     70  F   UNL A   1      36.546  31.703  32.141  1.00  0.00    -0.203 F 
ATOM     71  F   UNL A   1      34.906  34.547  27.783  1.00  0.00    -0.200 F 
ATOM     72  C   UNL A   1      34.442  33.634  29.911  1.00  0.00     0.200 A 
ATOM     73  F   UNL A   1      34.033  32.714  32.047  1.00  0.00    -0.200 F 
ATOM     74  F   UNL A   1      33.207  34.155  29.882  1.00  0.00    -0.200 F 
ENDBRANCH  40  64
BRANCH  52  75
ATOM     75  C   UNL A   1      43.193  35.229  31.843  1.00  0.00     0.064 A 
ATOM     76  C   UNL A   1      43.134  35.596  33.194  1.00  0.00     0.173 A 
ATOM     77  C   UNL A   1      43.674  36.175  30.924  1.00  0.00     0.173 A 
ATOM     78  F   UNL A   1      42.668  34.731  34.109  1.00  0.00    -0.203 F 
ATOM     79  C   UNL A   1      43.512  36.871  33.606  1.00  0.00     0.198 A 
ATOM     80  C   UNL A   1      44.076  37.440  31.343  1.00  0.00     0.198 A 
ATOM     81  F   UNL A   1      43.755  35.870  29.620  1.00  0.00    -0.203 F 
ATOM     82  F   UNL A   1      43.401  37.217  34.896  1.00  0.00    -0.200 F 
ATOM     83  C   UNL A   1      43.987  37.790  32.681  1.00  0.00     0.200 A 
ATOM     84  F   UNL A   1      44.544  38.323  30.450  1.00  0.00    -0.200 F 
ATOM     85  F   UNL A   1      44.350  39.017  33.080  1.00  0.00    -0.200 F 
ENDBRANCH  52  75
ENDBRANCH  26  27
ENDBRANCH  18  21
ENDBRANCH  16  17
ENDBRANCH  15  16
ENDBRANCH   1  15
TORSDOF 13
ENDMDL
MODEL 2
REMARK VINA RESULT:     -10.4      4.319     11.346
REMARK SMILES O=C(COC[C@@H]1CCCCO1)NCCCNC(=O)c1ccc(-c2c3nc(c(-c4c(F)c(F)c(F)c(F)c4F)c4ccc([nH]4)c(-c4c(F)c(F)c(F)c(F)c4F)c4nc(c(-c5c(F)c(F)c(F)c(F)c5F)c5ccc2[nH]5)C=C4)C=C3)cc1
REMARK SMILES IDX 13 1 12 2 1 3 2 4 3 6 4 7 5 8 6 9 7 10 11 11 8 12 10 13 9 14
REMARK SMILES IDX 14 15 15 16 16 17 17 18 18 20 19 21 20 22 81 23 21 24 80 25
REMARK SMILES IDX 22 26 23 27 24 28 74 29 25 30 79 31 73 32 75 33 26 34 78 35
REMARK SMILES IDX 72 36 71 37 27 39 59 40 39 41 58 42 40 43 43 44 57 45 76 46
REMARK SMILES IDX 41 47 42 48 56 50 77 51 44 52 28 53 29 54 37 55 30 56 31 57
REMARK SMILES IDX 35 58 38 59 32 60 33 61 36 62 34 63 60 64 61 65 69 66 62 67
REMARK SMILES IDX 63 68 67 69 70 70 64 71 65 72 68 73 66 74 45 75 46 76 54 77
REMARK SMILES IDX 47 78 48 79 52 80 55 81 49 82 50 83 53 84 51 85
REMARK H PARENT 12 5 16 19 75 38 43 49
REMARK Flexibility Score: inf
ROOT
ATOM      1  C   UNL A   1      33.508  34.932  29.308  1.00  0.00     0.117 C 
ENDROOT
BRANCH   1   2
ATOM      2  N   UNL A   1      34.044  35.492  30.531  1.00  0.00    -0.354 N 
ATOM      3  O   UNL A   1      32.146  36.654  31.105  1.00  0.00    -0.272 OA
ATOM      4  C   UNL A   1      33.279  36.269  31.375  1.00  0.00     0.246 C 
ATOM      5  H   UNL A   1      34.983  35.313  30.766  1.00  0.00     0.163 HD
BRANCH   4   6
ATOM      6  C   UNL A   1      33.987  36.647  32.683  1.00  0.00     0.260 C 
BRANCH   6   7
ATOM      7  O   UNL A   1      35.213  35.995  32.987  1.00  0.00    -0.369 OA
BRANCH   7   8
ATOM      8  C   UNL A   1      35.108  34.803  33.773  1.00  0.00     0.192 C 
BRANCH   8   9
ATOM      9  C   UNL A   1      36.428  34.075  34.100  1.00  0.00     0.144 C 
ATOM     10  C   UNL A   1      37.589  34.432  33.165  1.00  0.00     0.034 C 
ATOM     11  O   UNL A   1      36.233  32.655  34.167  1.00  0.00    -0.376 OA
ATOM     12  C   UNL A   1      37.481  33.741  31.810  1.00  0.00     0.005 C 
ATOM     13  C   UNL A   1      36.039  32.016  32.907  1.00  0.00     0.160 C 
ATOM     14  C   UNL A   1      37.228  32.249  31.990  1.00  0.00     0.029 C 
ENDBRANCH   8   9
ENDBRANCH   7   8
ENDBRANCH   6   7
ENDBRANCH   4   6
ENDBRANCH   1   2
BRANCH   1  15
ATOM     15  C   UNL A   1      34.478  33.990  28.603  1.00  0.00     0.042 C 
BRANCH  15  16
ATOM     16  C   UNL A   1      34.692  32.651  29.305  1.00  0.00     0.118 C 
BRANCH  16  17
ATOM     17  N   UNL A   1      34.072  31.534  28.608  1.00  0.00    -0.352 N 
ATOM     18  C   UNL A   1      34.603  30.372  28.112  1.00  0.00     0.251 C 
ATOM     19  H   UNL A   1      33.103  31.630  28.466  1.00  0.00     0.163 HD
ATOM     20  O   UNL A   1      33.879  29.630  27.446  1.00  0.00    -0.269 OA
BRANCH  18  21
ATOM     21  C   UNL A   1      36.015  29.986  28.341  1.00  0.00     0.039 A 
ATOM     22  C   UNL A   1      36.362  29.480  29.601  1.00  0.00     0.014 A 
ATOM     23  C   UNL A   1      37.014  30.183  27.384  1.00  0.00     0.014 A 
ATOM     24  C   UNL A   1      37.688  29.145  29.887  1.00  0.00     0.010 A 
ATOM     25  C   UNL A   1      38.329  29.788  27.647  1.00  0.00     0.010 A 
ATOM     26  C   UNL A   1      38.682  29.280  28.906  1.00  0.00    -0.014 A 
BRANCH  26  27
ATOM     27  C   UNL A   1      40.093  28.922  29.205  1.00  0.00     0.031 A 
ATOM     28  C   UNL A   1      40.953  29.837  30.034  1.00  0.00     0.074 A 
ATOM     29  C   UNL A   1      40.614  27.783  28.710  1.00  0.00     0.049 A 
ATOM     30  N   UNL A   1      42.205  29.699  30.395  1.00  0.00    -0.248 NA
ATOM     31  C   UNL A   1      40.331  31.086  30.501  1.00  0.00     0.031 C 
ATOM     32  C   UNL A   1      39.905  26.833  27.853  1.00  0.00     0.029 A 
ATOM     33  N   UNL A   1      41.863  27.234  28.856  1.00  0.00    -0.354 N 
ATOM     34  C   UNL A   1      42.523  30.844  31.114  1.00  0.00     0.074 A 
ATOM     35  C   UNL A   1      41.348  31.689  31.100  1.00  0.00     0.031 C 
ATOM     36  C   UNL A   1      40.721  25.805  27.569  1.00  0.00     0.029 A 
ATOM     37  C   UNL A   1      42.016  26.033  28.206  1.00  0.00     0.049 A 
ATOM     38  H   UNL A   1      42.582  27.659  29.378  1.00  0.00     0.167 HD
ATOM     39  C   UNL A   1      43.679  31.155  31.746  1.00  0.00     0.037 A 
ATOM     40  C   UNL A   1      43.075  25.206  28.140  1.00  0.00     0.037 A 
ATOM     41  C   UNL A   1      44.840  30.303  31.789  1.00  0.00     0.049 A 
ATOM     42  C   UNL A   1      44.333  25.553  28.888  1.00  0.00     0.074 A 
ATOM     43  C   UNL A   1      46.044  30.512  32.441  1.00  0.00     0.029 A 
ATOM     44  N   UNL A   1      44.937  29.072  31.158  1.00  0.00    -0.354 N 
ATOM     45  N   UNL A   1      44.599  26.610  29.614  1.00  0.00    -0.248 NA
ATOM     46  C   UNL A   1      45.433  24.580  28.819  1.00  0.00     0.031 C 
ATOM     47  C   UNL A   1      46.879  29.419  32.181  1.00  0.00     0.029 A 
ATOM     48  C   UNL A   1      46.182  28.512  31.401  1.00  0.00     0.049 A 
ATOM     49  H   UNL A   1      44.227  28.658  30.616  1.00  0.00     0.167 HD
ATOM     50  C   UNL A   1      45.879  26.415  30.116  1.00  0.00     0.074 A 
ATOM     51  C   UNL A   1      46.333  25.133  29.620  1.00  0.00     0.031 C 
ATOM     52  C   UNL A   1      46.612  27.227  30.917  1.00  0.00     0.037 A 
BRANCH  39  53
ATOM     53  C   UNL A   1      43.746  32.477  32.453  1.00  0.00     0.064 A 
ATOM     54  C   UNL A   1      44.193  33.635  31.800  1.00  0.00     0.173 A 
ATOM     55  C   UNL A   1      43.331  32.594  33.788  1.00  0.00     0.173 A 
ATOM     56  F   UNL A   1      44.613  33.574  30.527  1.00  0.00    -0.203 F 
ATOM     57  C   UNL A   1      44.248  34.857  32.466  1.00  0.00     0.198 A 
ATOM     58  C   UNL A   1      43.363  33.822  34.443  1.00  0.00     0.198 A 
ATOM     59  F   UNL A   1      42.889  31.517  34.456  1.00  0.00    -0.203 F 
ATOM     60  F   UNL A   1      44.724  35.940  31.838  1.00  0.00    -0.200 F 
ATOM     61  C   UNL A   1      43.828  34.950  33.785  1.00  0.00     0.200 A 
ATOM     62  F   UNL A   1      42.947  33.914  35.714  1.00  0.00    -0.200 F 
ATOM     63  F   UNL A   1      43.879  36.127  34.423  1.00  0.00    -0.200 F 
ENDBRANCH  39  53
BRANCH  40  64
ATOM     64  C   UNL A   1      42.975  23.936  27.376  1.00  0.00     0.064 A 
ATOM     65  C   UNL A   1      42.539  22.758  27.997  1.00  0.00     0.173 A 
ATOM     66  C   UNL A   1      43.316  23.873  26.018  1.00  0.00     0.173 A 
ATOM     67  F   UNL A   1      42.223  22.767  29.301  1.00  0.00    -0.203 F 
ATOM     68  C   UNL A   1      42.467  21.559  27.294  1.00  0.00     0.198 A 
ATOM     69  C   UNL A   1      43.220  22.678  25.309  1.00  0.00     0.198 A 
ATOM     70  F   UNL A   1      43.734  24.975  25.379  1.00  0.00    -0.203 F 
ATOM     71  F   UNL A   1      42.089  20.437  27.923  1.00  0.00    -0.200 F 
ATOM     72  C   UNL A   1      42.803  21.520  25.949  1.00  0.00     0.200 A 
ATOM     73  F   UNL A   1      43.535  22.646  24.007  1.00  0.00    -0.200 F 
ATOM     74  F   UNL A   1      42.733  20.366  25.272  1.00  0.00    -0.200 F 
ENDBRANCH  40  64
BRANCH  52  75
ATOM     75  C   UNL A   1      47.961  26.730  31.346  1.00  0.00     0.064 A 
ATOM     76  C   UNL A   1      48.124  25.927  32.483  1.00  0.00     0.173 A 
ATOM     77  C   UNL A   1      49.103  27.046  30.594  1.00  0.00     0.173 A 
ATOM     78  F   UNL A   1      47.063  25.610  33.243  1.00  0.00    -0.203 F 
ATOM     79  C   UNL A   1      49.385  25.483  32.870  1.00  0.00     0.198 A 
ATOM     80  C   UNL A   1      50.359  26.579  30.969  1.00  0.00     0.198 A 
ATOM     81  F   UNL A   1      48.999  27.807  29.493  1.00  0.00    -0.203 F 
ATOM     82  F   UNL A   1      49.523  24.758  33.988  1.00  0.00    -0.200 F 
ATOM     83  C   UNL A   1      50.500  25.805  32.111  1.00  0.00     0.200 A 
ATOM     84  F   UNL A   1      51.434  26.882  30.229  1.00  0.00    -0.200 F 
ATOM     85  F   UNL A   1      51.714  25.377  32.486  1.00  0.00    -0.200 F 
ENDBRANCH  52  75
ENDBRANCH  26  27
ENDBRANCH  18  21
ENDBRANCH  16  17
ENDBRANCH  15  16
ENDBRANCH   1  15
TORSDOF 13
ENDMDL
MODEL 3
REMARK VINA RESULT:     -10.3      4.704     11.619
REMARK SMILES O=C(COC[C@@H]1CCCCO1)NCCCNC(=O)c1ccc(-c2c3nc(c(-c4c(F)c(F)c(F)c(F)c4F)c4ccc([nH]4)c(-c4c(F)c(F)c(F)c(F)c4F)c4nc(c(-c5c(F)c(F)c(F)c(F)c5F)c5ccc2[nH]5)C=C4)C=C3)cc1
REMARK SMILES IDX 13 1 12 2 1 3 2 4 3 6 4 7 5 8 6 9 7 10 11 11 8 12 10 13 9 14
REMARK SMILES IDX 14 15 15 16 16 17 17 18 18 20 19 21 20 22 81 23 21 24 80 25
REMARK SMILES IDX 22 26 23 27 24 28 74 29 25 30 79 31 73 32 75 33 26 34 78 35
REMARK SMILES IDX 72 36 71 37 27 39 59 40 39 41 58 42 40 43 43 44 57 45 76 46
REMARK SMILES IDX 41 47 42 48 56 50 77 51 44 52 28 53 29 54 37 55 30 56 31 57
REMARK SMILES IDX 35 58 38 59 32 60 33 61 36 62 34 63 60 64 61 65 69 66 62 67
REMARK SMILES IDX 63 68 67 69 70 70 64 71 65 72 68 73 66 74 45 75 46 76 54 77
REMARK SMILES IDX 47 78 48 79 52 80 55 81 49 82 50 83 53 84 51 85
REMARK H PARENT 12 5 16 19 75 38 43 49
REMARK Flexibility Score: inf
ROOT
ATOM      1  C   UNL A   1      32.903  35.048  28.877  1.00  0.00     0.117 C 
ENDROOT
BRANCH   1   2
ATOM      2  N   UNL A   1      33.027  35.151  30.315  1.00  0.00    -0.354 N 
ATOM      3  O   UNL A   1      32.903  37.444  30.395  1.00  0.00    -0.272 OA
ATOM      4  C   UNL A   1      32.949  36.362  30.970  1.00  0.00     0.246 C 
ATOM      5  H   UNL A   1      33.170  34.331  30.842  1.00  0.00     0.163 HD
BRANCH   4   6
ATOM      6  C   UNL A   1      32.961  36.243  32.501  1.00  0.00     0.260 C 
BRANCH   6   7
ATOM      7  O   UNL A   1      34.200  36.430  33.171  1.00  0.00    -0.369 OA
BRANCH   7   8
ATOM      8  C   UNL A   1      35.146  35.363  33.043  1.00  0.00     0.192 C 
BRANCH   8   9
ATOM      9  C   UNL A   1      34.885  34.106  33.899  1.00  0.00     0.144 C 
ATOM     10  C   UNL A   1      36.128  33.567  34.617  1.00  0.00     0.034 C 
ATOM     11  O   UNL A   1      34.246  33.078  33.127  1.00  0.00    -0.376 OA
ATOM     12  C   UNL A   1      37.058  32.803  33.681  1.00  0.00     0.005 C 
ATOM     13  C   UNL A   1      35.091  32.423  32.184  1.00  0.00     0.160 C 
ATOM     14  C   UNL A   1      36.277  31.773  32.875  1.00  0.00     0.029 C 
ENDBRANCH   8   9
ENDBRANCH   7   8
ENDBRANCH   6   7
ENDBRANCH   4   6
ENDBRANCH   1   2
BRANCH   1  15
ATOM     15  C   UNL A   1      34.153  34.488  28.205  1.00  0.00     0.042 C 
BRANCH  15  16
ATOM     16  C   UNL A   1      34.594  33.119  28.717  1.00  0.00     0.118 C 
BRANCH  16  17
ATOM     17  N   UNL A   1      33.981  32.013  27.996  1.00  0.00    -0.352 N 
ATOM     18  C   UNL A   1      34.463  30.775  27.662  1.00  0.00     0.251 C 
ATOM     19  H   UNL A   1      33.060  32.185  27.696  1.00  0.00     0.163 HD
ATOM     20  O   UNL A   1      33.779  30.054  26.933  1.00  0.00    -0.269 OA
BRANCH  18  21
ATOM     21  C   UNL A   1      35.777  30.282  28.137  1.00  0.00     0.039 A 
ATOM     22  C   UNL A   1      35.840  29.703  29.411  1.00  0.00     0.014 A 
ATOM     23  C   UNL A   1      36.953  30.447  27.400  1.00  0.00     0.014 A 
ATOM     24  C   UNL A   1      37.062  29.265  29.927  1.00  0.00     0.010 A 
ATOM     25  C   UNL A   1      38.165  29.950  27.889  1.00  0.00     0.010 A 
ATOM     26  C   UNL A   1      38.234  29.368  29.165  1.00  0.00    -0.014 A 
BRANCH  26  27
ATOM     27  C   UNL A   1      39.536  28.901  29.709  1.00  0.00     0.031 A 
ATOM     28  C   UNL A   1      40.181  29.617  30.864  1.00  0.00     0.074 A 
ATOM     29  C   UNL A   1      40.155  27.845  29.149  1.00  0.00     0.049 A 
ATOM     30  N   UNL A   1      41.313  29.362  31.472  1.00  0.00    -0.248 NA
ATOM     31  C   UNL A   1      39.471  30.792  31.394  1.00  0.00     0.031 C 
ATOM     32  C   UNL A   1      39.663  27.092  27.995  1.00  0.00     0.029 A 
ATOM     33  N   UNL A   1      41.333  27.222  29.476  1.00  0.00    -0.354 N 
ATOM     34  C   UNL A   1      41.458  30.348  32.439  1.00  0.00     0.074 A 
ATOM     35  C   UNL A   1      40.321  31.234  32.309  1.00  0.00     0.031 C 
ATOM     36  C   UNL A   1      40.520  26.094  27.725  1.00  0.00     0.029 A 
ATOM     37  C   UNL A   1      41.630  26.148  28.672  1.00  0.00     0.049 A 
ATOM     38  H   UNL A   1      41.912  27.516  30.216  1.00  0.00     0.167 HD
ATOM     39  C   UNL A   1      42.436  30.491  33.364  1.00  0.00     0.037 A 
ATOM     40  C   UNL A   1      42.674  25.299  28.701  1.00  0.00     0.037 A 
ATOM     41  C   UNL A   1      43.552  29.593  33.518  1.00  0.00     0.049 A 
ATOM     42  C   UNL A   1      43.723  25.453  29.768  1.00  0.00     0.074 A 
ATOM     43  C   UNL A   1      44.571  29.631  34.454  1.00  0.00     0.029 A 
ATOM     44  N   UNL A   1      43.790  28.489  32.713  1.00  0.00    -0.354 N 
ATOM     45  N   UNL A   1      43.815  26.353  30.715  1.00  0.00    -0.248 NA
ATOM     46  C   UNL A   1      44.806  24.458  29.777  1.00  0.00     0.031 C 
ATOM     47  C   UNL A   1      45.440  28.564  34.200  1.00  0.00     0.029 A 
ATOM     48  C   UNL A   1      44.942  27.840  33.130  1.00  0.00     0.049 A 
ATOM     49  H   UNL A   1      43.225  28.208  31.958  1.00  0.00     0.167 HD
ATOM     50  C   UNL A   1      44.942  26.016  31.453  1.00  0.00     0.074 A 
ATOM     51  C   UNL A   1      45.495  24.822  30.850  1.00  0.00     0.031 C 
ATOM     52  C   UNL A   1      45.470  26.641  32.533  1.00  0.00     0.037 A 
BRANCH  39  53
ATOM     53  C   UNL A   1      42.339  31.664  34.295  1.00  0.00     0.064 A 
ATOM     54  C   UNL A   1      42.943  32.893  33.990  1.00  0.00     0.173 A 
ATOM     55  C   UNL A   1      41.611  31.569  35.491  1.00  0.00     0.173 A 
ATOM     56  F   UNL A   1      43.661  33.032  32.865  1.00  0.00    -0.203 F 
ATOM     57  C   UNL A   1      42.845  33.976  34.861  1.00  0.00     0.198 A 
ATOM     58  C   UNL A   1      41.492  32.661  36.346  1.00  0.00     0.198 A 
ATOM     59  F   UNL A   1      41.009  30.418  35.826  1.00  0.00    -0.203 F 
ATOM     60  F   UNL A   1      43.470  35.125  34.572  1.00  0.00    -0.200 F 
ATOM     61  C   UNL A   1      42.115  33.860  36.035  1.00  0.00     0.200 A 
ATOM     62  F   UNL A   1      40.779  32.553  37.475  1.00  0.00    -0.200 F 
ATOM     63  F   UNL A   1      42.019  34.903  36.870  1.00  0.00    -0.200 F 
ENDBRANCH  39  53
BRANCH  40  64
ATOM     64  C   UNL A   1      42.750  24.189  27.718  1.00  0.00     0.064 A 
ATOM     65  C   UNL A   1      42.347  22.893  28.067  1.00  0.00     0.173 A 
ATOM     66  C   UNL A   1      43.232  24.397  26.418  1.00  0.00     0.173 A 
ATOM     67  F   UNL A   1      41.900  22.642  29.306  1.00  0.00    -0.203 F 
ATOM     68  C   UNL A   1      42.440  21.842  27.159  1.00  0.00     0.198 A 
ATOM     69  C   UNL A   1      43.302  23.350  25.503  1.00  0.00     0.198 A 
ATOM     70  F   UNL A   1      43.626  25.621  26.037  1.00  0.00    -0.203 F 
ATOM     71  F   UNL A   1      42.090  20.603  27.531  1.00  0.00    -0.200 F 
ATOM     72  C   UNL A   1      42.914  22.072  25.875  1.00  0.00     0.200 A 
ATOM     73  F   UNL A   1      43.750  23.578  24.260  1.00  0.00    -0.200 F 
ATOM     74  F   UNL A   1      43.003  21.060  25.001  1.00  0.00    -0.200 F 
ENDBRANCH  40  64
BRANCH  52  75
ATOM     75  C   UNL A   1      46.680  26.017  33.162  1.00  0.00     0.064 A 
ATOM     76  C   UNL A   1      46.571  25.027  34.149  1.00  0.00     0.173 A 
ATOM     77  C   UNL A   1      47.967  26.402  32.756  1.00  0.00     0.173 A 
ATOM     78  F   UNL A   1      45.361  24.635  34.581  1.00  0.00    -0.203 F 
ATOM     79  C   UNL A   1      47.705  24.466  34.728  1.00  0.00     0.198 A 
ATOM     80  C   UNL A   1      49.099  25.820  33.319  1.00  0.00     0.198 A 
ATOM     81  F   UNL A   1      48.125  27.342  31.811  1.00  0.00    -0.203 F 
ATOM     82  F   UNL A   1      47.577  23.556  35.703  1.00  0.00    -0.200 F 
ATOM     83  C   UNL A   1      48.968  24.859  34.309  1.00  0.00     0.200 A 
ATOM     84  F   UNL A   1      50.318  26.194  32.906  1.00  0.00    -0.200 F 
ATOM     85  F   UNL A   1      50.059  24.318  34.868  1.00  0.00    -0.200 F 
ENDBRANCH  52  75
ENDBRANCH  26  27
ENDBRANCH  18  21
ENDBRANCH  16  17
ENDBRANCH  15  16
ENDBRANCH   1  15
TORSDOF 13
ENDMDL
