MODEL 1
REMARK VINA RESULT:     -12.6      0.000      0.000
REMARK SMILES COc1ccccc1-c1ccc(O)c(C(=O)NCCCNC(=O)c2ccc(-c3c4nc(c(-c5c(F)c(F)c(F)c(F)c5F)c5ccc([nH]5)c(-c5c(F)c(F)c(F)c(F)c5F)c5nc(c(-c6c(F)c(F)c(F)c(F)c6F)c6ccc3[nH]6)C=C5)C=C4)cc2)c1
REMARK SMILES IDX 19 1 18 2 17 3 15 4 16 5 14 7 9 8 10 9 87 10 11 11 12 12
REMARK SMILES IDX 8 13 3 14 4 15 5 16 7 17 6 18 2 19 1 20 13 21 20 23 21 24
REMARK SMILES IDX 22 25 23 27 24 28 25 29 86 30 26 31 85 32 27 33 28 34 29 35
REMARK SMILES IDX 79 36 30 37 84 38 78 39 80 40 31 41 83 42 77 43 76 44 32 46
REMARK SMILES IDX 64 47 44 48 63 49 45 50 48 51 62 52 81 53 46 54 47 55 61 57
REMARK SMILES IDX 82 58 49 59 33 60 34 61 42 62 35 63 36 64 40 65 43 66 37 67
REMARK SMILES IDX 38 68 41 69 39 70 65 71 66 72 74 73 67 74 68 75 72 76 75 77
REMARK SMILES IDX 69 78 70 79 73 80 71 81 50 82 51 83 59 84 52 85 53 86 57 87
REMARK SMILES IDX 60 88 54 89 55 90 58 91 56 92
REMARK H PARENT 17 6 13 22 21 26 80 45 48 56
REMARK Flexibility Score: inf
ROOT
ATOM      1  C   UNL A   1      31.615  32.022  26.903  1.00  0.00     0.042 C 
ENDROOT
BRANCH   1   2
ATOM      2  C   UNL A   1      31.922  30.524  26.913  1.00  0.00     0.118 C 
BRANCH   2   3
ATOM      3  N   UNL A   1      33.296  30.267  27.320  1.00  0.00    -0.352 N 
ATOM      4  C   UNL A   1      34.213  29.313  26.959  1.00  0.00     0.255 C 
ATOM      5  O   UNL A   1      35.355  29.418  27.416  1.00  0.00    -0.269 OA
ATOM      6  H   UNL A   1      33.634  30.906  27.988  1.00  0.00     0.163 HD
BRANCH   4   7
ATOM      7  C   UNL A   1      33.944  28.205  26.002  1.00  0.00     0.082 A 
ATOM      8  C   UNL A   1      33.633  25.832  25.484  1.00  0.00    -0.014 A 
ATOM      9  C   UNL A   1      33.229  26.170  24.188  1.00  0.00     0.013 A 
ATOM     10  C   UNL A   1      34.058  26.858  26.346  1.00  0.00     0.026 A 
ATOM     11  C   UNL A   1      33.206  27.506  23.786  1.00  0.00     0.047 A 
ATOM     12  C   UNL A   1      33.545  28.513  24.690  1.00  0.00     0.128 A 
BRANCH   8  13
ATOM     13  C   UNL A   1      33.543  24.457  25.997  1.00  0.00     0.024 A 
ATOM     14  C   UNL A   1      32.410  23.994  26.705  1.00  0.00     0.126 A 
ATOM     15  C   UNL A   1      32.391  22.718  27.276  1.00  0.00     0.047 A 
ATOM     16  C   UNL A   1      33.485  21.870  27.127  1.00  0.00     0.004 A 
ATOM     17  C   UNL A   1      34.629  23.578  25.851  1.00  0.00     0.012 A 
ATOM     18  C   UNL A   1      34.601  22.298  26.413  1.00  0.00     0.001 A 
BRANCH  14  19
ATOM     19  O   UNL A   1      31.314  24.778  26.979  1.00  0.00    -0.496 OA
ATOM     20  C   UNL A   1      30.257  24.597  26.034  1.00  0.00     0.278 C 
ENDBRANCH  14  19
ENDBRANCH   8  13
BRANCH  12  21
ATOM     21  O   UNL A   1      33.450  29.796  24.217  1.00  0.00    -0.507 OA
ATOM     22  H   UNL A   1      32.880  29.989  23.498  1.00  0.00     0.293 HD
ENDBRANCH  12  21
ENDBRANCH   4   7
ENDBRANCH   2   3
ENDBRANCH   1   2
BRANCH   1  23
ATOM     23  C   UNL A   1      32.855  32.892  27.089  1.00  0.00     0.118 C 
BRANCH  23  24
ATOM     24  N   UNL A   1      32.521  34.228  27.568  1.00  0.00    -0.352 N 
ATOM     25  C   UNL A   1      33.001  34.928  28.648  1.00  0.00     0.251 C 
ATOM     26  H   UNL A   1      31.845  34.703  27.033  1.00  0.00     0.163 HD
ATOM     27  O   UNL A   1      32.429  35.947  29.016  1.00  0.00    -0.269 OA
BRANCH  25  28
ATOM     28  C   UNL A   1      34.194  34.453  29.380  1.00  0.00     0.039 A 
ATOM     29  C   UNL A   1      34.024  33.865  30.638  1.00  0.00     0.014 A 
ATOM     30  C   UNL A   1      35.476  34.613  28.849  1.00  0.00     0.014 A 
ATOM     31  C   UNL A   1      35.132  33.365  31.325  1.00  0.00     0.010 A 
ATOM     32  C   UNL A   1      36.571  34.057  29.503  1.00  0.00     0.010 A 
ATOM     33  C   UNL A   1      36.408  33.417  30.741  1.00  0.00    -0.014 A 
BRANCH  33  34
ATOM     34  C   UNL A   1      37.580  32.769  31.379  1.00  0.00     0.031 A 
ATOM     35  C   UNL A   1      38.236  31.582  30.738  1.00  0.00     0.074 A 
ATOM     36  C   UNL A   1      37.985  33.194  32.590  1.00  0.00     0.049 A 
ATOM     37  N   UNL A   1      39.194  30.815  31.198  1.00  0.00    -0.248 NA
ATOM     38  C   UNL A   1      37.734  31.189  29.413  1.00  0.00     0.031 C 
ATOM     39  C   UNL A   1      37.406  34.318  33.327  1.00  0.00     0.029 A 
ATOM     40  N   UNL A   1      38.968  32.722  33.424  1.00  0.00    -0.354 N 
ATOM     41  C   UNL A   1      39.396  29.841  30.229  1.00  0.00     0.074 A 
ATOM     42  C   UNL A   1      38.431  30.088  29.177  1.00  0.00     0.031 C 
ATOM     43  C   UNL A   1      38.057  34.463  34.491  1.00  0.00     0.029 A 
ATOM     44  C   UNL A   1      39.063  33.412  34.607  1.00  0.00     0.049 A 
ATOM     45  H   UNL A   1      39.549  31.961  33.195  1.00  0.00     0.167 HD
ATOM     46  C   UNL A   1      40.312  28.844  30.215  1.00  0.00     0.037 A 
ATOM     47  C   UNL A   1      39.859  33.210  35.673  1.00  0.00     0.037 A 
ATOM     48  C   UNL A   1      41.275  28.615  31.262  1.00  0.00     0.049 A 
ATOM     49  C   UNL A   1      40.826  32.059  35.659  1.00  0.00     0.074 A 
ATOM     50  C   UNL A   1      42.300  27.688  31.305  1.00  0.00     0.029 A 
ATOM     51  N   UNL A   1      41.318  29.314  32.460  1.00  0.00    -0.354 N 
ATOM     52  N   UNL A   1      41.063  31.190  34.707  1.00  0.00    -0.248 NA
ATOM     53  C   UNL A   1      41.627  31.855  36.873  1.00  0.00     0.031 C 
ATOM     54  C   UNL A   1      42.926  27.785  32.553  1.00  0.00     0.029 A 
ATOM     55  C   UNL A   1      42.323  28.807  33.269  1.00  0.00     0.049 A 
ATOM     56  H   UNL A   1      40.724  30.061  32.700  1.00  0.00     0.167 HD
ATOM     57  C   UNL A   1      42.049  30.347  35.197  1.00  0.00     0.074 A 
ATOM     58  C   UNL A   1      42.378  30.817  36.528  1.00  0.00     0.031 C 
ATOM     59  C   UNL A   1      42.628  29.277  34.599  1.00  0.00     0.037 A 
BRANCH  46  60
ATOM     60  C   UNL A   1      40.301  27.914  29.035  1.00  0.00     0.064 A 
ATOM     61  C   UNL A   1      39.546  26.730  29.035  1.00  0.00     0.173 A 
ATOM     62  C   UNL A   1      41.048  28.213  27.886  1.00  0.00     0.173 A 
ATOM     63  F   UNL A   1      38.819  26.392  30.110  1.00  0.00    -0.203 F 
ATOM     64  C   UNL A   1      39.576  25.861  27.947  1.00  0.00     0.198 A 
ATOM     65  C   UNL A   1      41.051  27.357  26.788  1.00  0.00     0.198 A 
ATOM     66  F   UNL A   1      41.780  29.336  27.828  1.00  0.00    -0.203 F 
ATOM     67  F   UNL A   1      38.899  24.705  27.996  1.00  0.00    -0.200 F 
ATOM     68  C   UNL A   1      40.326  26.176  26.824  1.00  0.00     0.200 A 
ATOM     69  F   UNL A   1      41.765  27.670  25.698  1.00  0.00    -0.200 F 
ATOM     70  F   UNL A   1      40.358  25.336  25.780  1.00  0.00    -0.200 F 
ENDBRANCH  46  60
BRANCH  47  71
ATOM     71  C   UNL A   1      39.783  34.135  36.832  1.00  0.00     0.064 A 
ATOM     72  C   UNL A   1      38.949  33.842  37.920  1.00  0.00     0.173 A 
ATOM     73  C   UNL A   1      40.557  35.301  36.896  1.00  0.00     0.173 A 
ATOM     74  F   UNL A   1      38.174  32.749  37.894  1.00  0.00    -0.203 F 
ATOM     75  C   UNL A   1      38.892  34.684  39.028  1.00  0.00     0.198 A 
ATOM     76  C   UNL A   1      40.517  36.130  38.015  1.00  0.00     0.198 A 
ATOM     77  F   UNL A   1      41.373  35.623  35.881  1.00  0.00    -0.203 F 
ATOM     78  F   UNL A   1      38.067  34.395  40.044  1.00  0.00    -0.200 F 
ATOM     79  C   UNL A   1      39.682  35.823  39.079  1.00  0.00     0.200 A 
ATOM     80  F   UNL A   1      41.294  37.221  38.068  1.00  0.00    -0.200 F 
ATOM     81  F   UNL A   1      39.638  36.624  40.151  1.00  0.00    -0.200 F 
ENDBRANCH  47  71
BRANCH  59  82
ATOM     82  C   UNL A   1      43.682  28.542  35.375  1.00  0.00     0.064 A 
ATOM     83  C   UNL A   1      45.042  28.863  35.243  1.00  0.00     0.173 A 
ATOM     84  C   UNL A   1      43.327  27.545  36.295  1.00  0.00     0.173 A 
ATOM     85  F   UNL A   1      45.433  29.795  34.361  1.00  0.00    -0.203 F 
ATOM     86  C   UNL A   1      46.008  28.199  35.994  1.00  0.00     0.198 A 
ATOM     87  C   UNL A   1      44.294  26.905  37.065  1.00  0.00     0.198 A 
ATOM     88  F   UNL A   1      42.040  27.204  36.460  1.00  0.00    -0.203 F 
ATOM     89  F   UNL A   1      47.305  28.493  35.824  1.00  0.00    -0.200 F 
ATOM     90  C   UNL A   1      45.633  27.228  36.910  1.00  0.00     0.200 A 
ATOM     91  F   UNL A   1      43.929  25.975  37.959  1.00  0.00    -0.200 F 
ATOM     92  F   UNL A   1      46.564  26.600  37.642  1.00  0.00    -0.200 F 
ENDBRANCH  59  82
ENDBRANCH  33  34
ENDBRANCH  25  28
ENDBRANCH  23  24
ENDBRANCH   1  23
TORSDOF 13
ENDMDL
MODEL 2
REMARK VINA RESULT:     -12.5      0.098      1.614
REMARK SMILES COc1ccccc1-c1ccc(O)c(C(=O)NCCCNC(=O)c2ccc(-c3c4nc(c(-c5c(F)c(F)c(F)c(F)c5F)c5ccc([nH]5)c(-c5c(F)c(F)c(F)c(F)c5F)c5nc(c(-c6c(F)c(F)c(F)c(F)c6F)c6ccc3[nH]6)C=C5)C=C4)cc2)c1
REMARK SMILES IDX 19 1 18 2 17 3 15 4 16 5 14 7 9 8 10 9 87 10 11 11 12 12
REMARK SMILES IDX 8 13 3 14 4 15 5 16 7 17 6 18 2 19 1 20 13 21 20 23 21 24
REMARK SMILES IDX 22 25 23 27 24 28 25 29 86 30 26 31 85 32 27 33 28 34 29 35
REMARK SMILES IDX 79 36 30 37 84 38 78 39 80 40 31 41 83 42 77 43 76 44 32 46
REMARK SMILES IDX 64 47 44 48 63 49 45 50 48 51 62 52 81 53 46 54 47 55 61 57
REMARK SMILES IDX 82 58 49 59 33 60 34 61 42 62 35 63 36 64 40 65 43 66 37 67
REMARK SMILES IDX 38 68 41 69 39 70 65 71 66 72 74 73 67 74 68 75 72 76 75 77
REMARK SMILES IDX 69 78 70 79 73 80 71 81 50 82 51 83 59 84 52 85 53 86 57 87
REMARK SMILES IDX 60 88 54 89 55 90 58 91 56 92
REMARK H PARENT 17 6 13 22 21 26 80 45 48 56
REMARK Flexibility Score: inf
ROOT
ATOM      1  C   UNL A   1      31.642  32.011  26.871  1.00  0.00     0.042 C 
ENDROOT
BRANCH   1   2
ATOM      2  C   UNL A   1      31.974  30.518  26.828  1.00  0.00     0.118 C 
BRANCH   2   3
ATOM      3  N   UNL A   1      33.359  30.273  27.203  1.00  0.00    -0.352 N 
ATOM      4  C   UNL A   1      34.271  29.317  26.831  1.00  0.00     0.255 C 
ATOM      5  O   UNL A   1      35.424  29.433  27.257  1.00  0.00    -0.269 OA
ATOM      6  H   UNL A   1      33.712  30.922  27.853  1.00  0.00     0.163 HD
BRANCH   4   7
ATOM      7  C   UNL A   1      33.982  28.195  25.897  1.00  0.00     0.082 A 
ATOM      8  C   UNL A   1      33.639  25.817  25.426  1.00  0.00    -0.014 A 
ATOM      9  C   UNL A   1      33.229  26.135  24.127  1.00  0.00     0.013 A 
ATOM     10  C   UNL A   1      34.082  26.854  26.265  1.00  0.00     0.026 A 
ATOM     11  C   UNL A   1      33.218  27.464  23.700  1.00  0.00     0.047 A 
ATOM     12  C   UNL A   1      33.576  28.483  24.582  1.00  0.00     0.128 A 
BRANCH   8  13
ATOM     13  C   UNL A   1      33.536  24.452  25.965  1.00  0.00     0.024 A 
ATOM     14  C   UNL A   1      32.405  24.017  26.693  1.00  0.00     0.126 A 
ATOM     15  C   UNL A   1      32.376  22.753  27.288  1.00  0.00     0.047 A 
ATOM     16  C   UNL A   1      33.457  21.887  27.143  1.00  0.00     0.004 A 
ATOM     17  C   UNL A   1      34.610  23.556  25.824  1.00  0.00     0.012 A 
ATOM     18  C   UNL A   1      34.571  22.288  26.409  1.00  0.00     0.001 A 
BRANCH  14  19
ATOM     19  O   UNL A   1      31.323  24.820  26.964  1.00  0.00    -0.496 OA
ATOM     20  C   UNL A   1      30.276  24.677  26.002  1.00  0.00     0.278 C 
ENDBRANCH  14  19
ENDBRANCH   8  13
BRANCH  12  21
ATOM     21  O   UNL A   1      33.493  29.758  24.086  1.00  0.00    -0.507 OA
ATOM     22  H   UNL A   1      34.257  30.177  23.741  1.00  0.00     0.293 HD
ENDBRANCH  12  21
ENDBRANCH   4   7
ENDBRANCH   2   3
ENDBRANCH   1   2
BRANCH   1  23
ATOM     23  C   UNL A   1      32.868  32.895  27.084  1.00  0.00     0.118 C 
BRANCH  23  24
ATOM     24  N   UNL A   1      32.511  34.218  27.579  1.00  0.00    -0.352 N 
ATOM     25  C   UNL A   1      32.975  34.912  28.670  1.00  0.00     0.251 C 
ATOM     26  H   UNL A   1      31.829  34.689  27.048  1.00  0.00     0.163 HD
ATOM     27  O   UNL A   1      32.385  35.918  29.049  1.00  0.00    -0.269 OA
BRANCH  25  28
ATOM     28  C   UNL A   1      34.173  34.447  29.400  1.00  0.00     0.039 A 
ATOM     29  C   UNL A   1      34.009  33.853  30.656  1.00  0.00     0.014 A 
ATOM     30  C   UNL A   1      35.453  34.624  28.870  1.00  0.00     0.014 A 
ATOM     31  C   UNL A   1      35.123  33.362  31.342  1.00  0.00     0.010 A 
ATOM     32  C   UNL A   1      36.554  34.078  29.523  1.00  0.00     0.010 A 
ATOM     33  C   UNL A   1      36.398  33.431  30.758  1.00  0.00    -0.014 A 
BRANCH  33  34
ATOM     34  C   UNL A   1      37.576  32.793  31.394  1.00  0.00     0.031 A 
ATOM     35  C   UNL A   1      38.252  31.622  30.744  1.00  0.00     0.074 A 
ATOM     36  C   UNL A   1      37.971  33.211  32.611  1.00  0.00     0.049 A 
ATOM     37  N   UNL A   1      39.219  30.864  31.200  1.00  0.00    -0.248 NA
ATOM     38  C   UNL A   1      37.761  31.236  29.413  1.00  0.00     0.031 C 
ATOM     39  C   UNL A   1      37.373  34.319  33.357  1.00  0.00     0.029 A 
ATOM     40  N   UNL A   1      38.957  32.745  33.444  1.00  0.00    -0.354 N 
ATOM     41  C   UNL A   1      39.439  29.904  30.222  1.00  0.00     0.074 A 
ATOM     42  C   UNL A   1      38.475  30.148  29.168  1.00  0.00     0.031 C 
ATOM     43  C   UNL A   1      38.017  34.461  34.526  1.00  0.00     0.029 A 
ATOM     44  C   UNL A   1      39.038  33.424  34.635  1.00  0.00     0.049 A 
ATOM     45  H   UNL A   1      39.550  31.994  33.209  1.00  0.00     0.167 HD
ATOM     46  C   UNL A   1      40.370  28.920  30.201  1.00  0.00     0.037 A 
ATOM     47  C   UNL A   1      39.833  33.223  35.702  1.00  0.00     0.037 A 
ATOM     48  C   UNL A   1      41.331  28.695  31.249  1.00  0.00     0.049 A 
ATOM     49  C   UNL A   1      40.816  32.086  35.679  1.00  0.00     0.074 A 
ATOM     50  C   UNL A   1      42.370  27.782  31.287  1.00  0.00     0.029 A 
ATOM     51  N   UNL A   1      41.360  29.381  32.454  1.00  0.00    -0.354 N 
ATOM     52  N   UNL A   1      41.069  31.230  34.720  1.00  0.00    -0.248 NA
ATOM     53  C   UNL A   1      41.615  31.880  36.895  1.00  0.00     0.031 C 
ATOM     54  C   UNL A   1      42.989  27.875  32.538  1.00  0.00     0.029 A 
ATOM     55  C   UNL A   1      42.369  28.880  33.262  1.00  0.00     0.049 A 
ATOM     56  H   UNL A   1      40.754  30.117  32.700  1.00  0.00     0.167 HD
ATOM     57  C   UNL A   1      42.066  30.396  35.204  1.00  0.00     0.074 A 
ATOM     58  C   UNL A   1      42.383  30.858  36.541  1.00  0.00     0.031 C 
ATOM     59  C   UNL A   1      42.663  29.341  34.598  1.00  0.00     0.037 A 
BRANCH  46  60
ATOM     60  C   UNL A   1      40.376  28.002  29.012  1.00  0.00     0.064 A 
ATOM     61  C   UNL A   1      41.127  28.287  27.861  1.00  0.00     0.173 A 
ATOM     62  C   UNL A   1      39.625  26.817  29.025  1.00  0.00     0.173 A 
ATOM     63  F   UNL A   1      41.857  29.411  27.792  1.00  0.00    -0.203 F 
ATOM     64  C   UNL A   1      41.092  27.444  26.753  1.00  0.00     0.198 A 
ATOM     65  C   UNL A   1      39.618  25.959  27.927  1.00  0.00     0.198 A 
ATOM     66  F   UNL A   1      38.896  26.489  30.102  1.00  0.00    -0.203 F 
ATOM     67  F   UNL A   1      41.767  27.771  25.642  1.00  0.00    -0.200 F 
ATOM     68  C   UNL A   1      40.340  26.280  26.788  1.00  0.00     0.200 A 
ATOM     69  F   UNL A   1      38.901  24.827  27.968  1.00  0.00    -0.200 F 
ATOM     70  F   UNL A   1      40.303  25.471  25.720  1.00  0.00    -0.200 F 
ENDBRANCH  46  60
BRANCH  47  71
ATOM     71  C   UNL A   1      39.739  34.134  36.869  1.00  0.00     0.064 A 
ATOM     72  C   UNL A   1      38.917  33.810  37.958  1.00  0.00     0.173 A 
ATOM     73  C   UNL A   1      40.484  35.319  36.941  1.00  0.00     0.173 A 
ATOM     74  F   UNL A   1      38.170  32.698  37.925  1.00  0.00    -0.203 F 
ATOM     75  C   UNL A   1      38.845  34.640  39.075  1.00  0.00     0.198 A 
ATOM     76  C   UNL A   1      40.429  36.135  38.069  1.00  0.00     0.198 A 
ATOM     77  F   UNL A   1      41.287  35.670  35.926  1.00  0.00    -0.203 F 
ATOM     78  F   UNL A   1      38.032  34.321  40.092  1.00  0.00    -0.200 F 
ATOM     79  C   UNL A   1      39.606  35.797  39.133  1.00  0.00     0.200 A 
ATOM     80  F   UNL A   1      41.178  37.245  38.128  1.00  0.00    -0.200 F 
ATOM     81  F   UNL A   1      39.547  36.587  40.213  1.00  0.00    -0.200 F 
ENDBRANCH  47  71
BRANCH  59  82
ATOM     82  C   UNL A   1      43.724  28.614  35.370  1.00  0.00     0.064 A 
ATOM     83  C   UNL A   1      43.400  27.571  36.251  1.00  0.00     0.173 A 
ATOM     84  C   UNL A   1      45.080  28.927  35.192  1.00  0.00     0.173 A 
ATOM     85  F   UNL A   1      42.116  27.248  36.471  1.00  0.00    -0.203 F 
ATOM     86  C   UNL A   1      44.395  26.879  36.936  1.00  0.00     0.198 A 
ATOM     87  C   UNL A   1      46.073  28.213  35.857  1.00  0.00     0.198 A 
ATOM     88  F   UNL A   1      45.442  29.914  34.359  1.00  0.00    -0.203 F 
ATOM     89  F   UNL A   1      44.061  25.912  37.802  1.00  0.00    -0.200 F 
ATOM     90  C   UNL A   1      45.730  27.194  36.732  1.00  0.00     0.200 A 
ATOM     91  F   UNL A   1      47.363  28.511  35.649  1.00  0.00    -0.200 F 
ATOM     92  F   UNL A   1      46.687  26.517  37.382  1.00  0.00    -0.200 F 
ENDBRANCH  59  82
ENDBRANCH  33  34
ENDBRANCH  25  28
ENDBRANCH  23  24
ENDBRANCH   1  23
TORSDOF 13
ENDMDL
MODEL 3
REMARK VINA RESULT:     -12.5      0.224      1.983
REMARK SMILES COc1ccccc1-c1ccc(O)c(C(=O)NCCCNC(=O)c2ccc(-c3c4nc(c(-c5c(F)c(F)c(F)c(F)c5F)c5ccc([nH]5)c(-c5c(F)c(F)c(F)c(F)c5F)c5nc(c(-c6c(F)c(F)c(F)c(F)c6F)c6ccc3[nH]6)C=C5)C=C4)cc2)c1
REMARK SMILES IDX 19 1 18 2 17 3 15 4 16 5 14 7 9 8 10 9 87 10 11 11 12 12
REMARK SMILES IDX 8 13 3 14 4 15 5 16 7 17 6 18 2 19 1 20 13 21 20 23 21 24
REMARK SMILES IDX 22 25 23 27 24 28 25 29 86 30 26 31 85 32 27 33 28 34 29 35
REMARK SMILES IDX 79 36 30 37 84 38 78 39 80 40 31 41 83 42 77 43 76 44 32 46
REMARK SMILES IDX 64 47 44 48 63 49 45 50 48 51 62 52 81 53 46 54 47 55 61 57
REMARK SMILES IDX 82 58 49 59 33 60 34 61 42 62 35 63 36 64 40 65 43 66 37 67
REMARK SMILES IDX 38 68 41 69 39 70 65 71 66 72 74 73 67 74 68 75 72 76 75 77
REMARK SMILES IDX 69 78 70 79 73 80 71 81 50 82 51 83 59 84 52 85 53 86 57 87
REMARK SMILES IDX 60 88 54 89 55 90 58 91 56 92
REMARK H PARENT 17 6 13 22 21 26 80 45 48 56
REMARK Flexibility Score: inf
ROOT
ATOM      1  C   UNL A   1      31.648  31.974  26.990  1.00  0.00     0.042 C 
ENDROOT
BRANCH   1   2
ATOM      2  C   UNL A   1      32.008  30.493  26.864  1.00  0.00     0.118 C 
BRANCH   2   3
ATOM      3  N   UNL A   1      33.403  30.256  27.203  1.00  0.00    -0.352 N 
ATOM      4  C   UNL A   1      34.307  29.296  26.821  1.00  0.00     0.255 C 
ATOM      5  O   UNL A   1      35.471  29.422  27.212  1.00  0.00    -0.269 OA
ATOM      6  H   UNL A   1      33.773  30.917  27.832  1.00  0.00     0.163 HD
BRANCH   4   7
ATOM      7  C   UNL A   1      33.994  28.158  25.914  1.00  0.00     0.082 A 
ATOM      8  C   UNL A   1      33.668  25.769  25.488  1.00  0.00    -0.014 A 
ATOM      9  C   UNL A   1      33.196  26.065  24.205  1.00  0.00     0.013 A 
ATOM     10  C   UNL A   1      34.131  26.823  26.294  1.00  0.00     0.026 A 
ATOM     11  C   UNL A   1      33.145  27.388  23.764  1.00  0.00     0.047 A 
ATOM     12  C   UNL A   1      33.526  28.423  24.616  1.00  0.00     0.128 A 
BRANCH   8  13
ATOM     13  C   UNL A   1      33.611  24.410  26.047  1.00  0.00     0.024 A 
ATOM     14  C   UNL A   1      32.449  23.906  26.676  1.00  0.00     0.126 A 
ATOM     15  C   UNL A   1      32.453  22.654  27.295  1.00  0.00     0.047 A 
ATOM     16  C   UNL A   1      33.601  21.867  27.273  1.00  0.00     0.004 A 
ATOM     17  C   UNL A   1      34.754  23.593  26.030  1.00  0.00     0.012 A 
ATOM     18  C   UNL A   1      34.749  22.335  26.639  1.00  0.00     0.001 A 
BRANCH  14  19
ATOM     19  O   UNL A   1      31.291  24.633  26.824  1.00  0.00    -0.496 OA
ATOM     20  C   UNL A   1      30.116  23.838  26.656  1.00  0.00     0.278 C 
ENDBRANCH  14  19
ENDBRANCH   8  13
BRANCH  12  21
ATOM     21  O   UNL A   1      33.399  29.691  24.109  1.00  0.00    -0.507 OA
ATOM     22  H   UNL A   1      33.078  29.816  23.237  1.00  0.00     0.293 HD
ENDBRANCH  12  21
ENDBRANCH   4   7
ENDBRANCH   2   3
ENDBRANCH   1   2
BRANCH   1  23
ATOM     23  C   UNL A   1      32.868  32.883  27.107  1.00  0.00     0.118 C 
BRANCH  23  24
ATOM     24  N   UNL A   1      32.520  34.208  27.606  1.00  0.00    -0.352 N 
ATOM     25  C   UNL A   1      32.993  34.897  28.696  1.00  0.00     0.251 C 
ATOM     26  H   UNL A   1      31.838  34.683  27.078  1.00  0.00     0.163 HD
ATOM     27  O   UNL A   1      32.410  35.906  29.078  1.00  0.00    -0.269 OA
BRANCH  25  28
ATOM     28  C   UNL A   1      34.192  34.426  29.420  1.00  0.00     0.039 A 
ATOM     29  C   UNL A   1      34.028  33.800  30.659  1.00  0.00     0.014 A 
ATOM     30  C   UNL A   1      35.472  34.626  28.900  1.00  0.00     0.014 A 
ATOM     31  C   UNL A   1      35.142  33.302  31.338  1.00  0.00     0.010 A 
ATOM     32  C   UNL A   1      36.575  34.074  29.544  1.00  0.00     0.010 A 
ATOM     33  C   UNL A   1      36.420  33.396  30.762  1.00  0.00    -0.014 A 
BRANCH  33  34
ATOM     34  C   UNL A   1      37.601  32.753  31.388  1.00  0.00     0.031 A 
ATOM     35  C   UNL A   1      38.290  31.604  30.712  1.00  0.00     0.074 A 
ATOM     36  C   UNL A   1      37.987  33.145  32.616  1.00  0.00     0.049 A 
ATOM     37  N   UNL A   1      39.261  30.844  31.154  1.00  0.00    -0.248 NA
ATOM     38  C   UNL A   1      37.807  31.245  29.371  1.00  0.00     0.031 C 
ATOM     39  C   UNL A   1      37.377  34.230  33.386  1.00  0.00     0.029 A 
ATOM     40  N   UNL A   1      38.974  32.667  33.441  1.00  0.00    -0.354 N 
ATOM     41  C   UNL A   1      39.493  29.909  30.154  1.00  0.00     0.074 A 
ATOM     42  C   UNL A   1      38.531  30.169  29.103  1.00  0.00     0.031 C 
ATOM     43  C   UNL A   1      38.015  34.349  34.560  1.00  0.00     0.029 A 
ATOM     44  C   UNL A   1      39.044  33.319  34.648  1.00  0.00     0.049 A 
ATOM     45  H   UNL A   1      39.574  31.928  33.191  1.00  0.00     0.167 HD
ATOM     46  C   UNL A   1      40.432  28.934  30.114  1.00  0.00     0.037 A 
ATOM     47  C   UNL A   1      39.836  33.098  35.714  1.00  0.00     0.037 A 
ATOM     48  C   UNL A   1      41.392  28.691  31.160  1.00  0.00     0.049 A 
ATOM     49  C   UNL A   1      40.829  31.971  35.668  1.00  0.00     0.074 A 
ATOM     50  C   UNL A   1      42.438  27.786  31.180  1.00  0.00     0.029 A 
ATOM     51  N   UNL A   1      41.410  29.349  32.382  1.00  0.00    -0.354 N 
ATOM     52  N   UNL A   1      41.094  31.141  34.689  1.00  0.00    -0.248 NA
ATOM     53  C   UNL A   1      41.625  31.743  36.882  1.00  0.00     0.031 C 
ATOM     54  C   UNL A   1      43.051  27.855  32.436  1.00  0.00     0.029 A 
ATOM     55  C   UNL A   1      42.420  28.837  33.182  1.00  0.00     0.049 A 
ATOM     56  H   UNL A   1      40.796  30.073  32.643  1.00  0.00     0.167 HD
ATOM     57  C   UNL A   1      42.096  30.303  35.158  1.00  0.00     0.074 A 
ATOM     58  C   UNL A   1      42.403  30.736  36.507  1.00  0.00     0.031 C 
ATOM     59  C   UNL A   1      42.704  29.269  34.529  1.00  0.00     0.037 A 
BRANCH  46  60
ATOM     60  C   UNL A   1      40.451  28.044  28.903  1.00  0.00     0.064 A 
ATOM     61  C   UNL A   1      41.197  28.368  27.759  1.00  0.00     0.173 A 
ATOM     62  C   UNL A   1      39.718  26.848  28.888  1.00  0.00     0.173 A 
ATOM     63  F   UNL A   1      41.910  29.504  27.717  1.00  0.00    -0.203 F 
ATOM     64  C   UNL A   1      41.173  27.551  26.631  1.00  0.00     0.198 A 
ATOM     65  C   UNL A   1      39.723  26.017  27.771  1.00  0.00     0.198 A 
ATOM     66  F   UNL A   1      38.995  26.483  29.958  1.00  0.00    -0.203 F 
ATOM     67  F   UNL A   1      41.842  27.915  25.528  1.00  0.00    -0.200 F 
ATOM     68  C   UNL A   1      40.438  26.375  26.639  1.00  0.00     0.200 A 
ATOM     69  F   UNL A   1      39.023  24.873  27.785  1.00  0.00    -0.200 F 
ATOM     70  F   UNL A   1      40.413  25.592  25.552  1.00  0.00    -0.200 F 
ENDBRANCH  46  60
BRANCH  47  71
ATOM     71  C   UNL A   1      39.730  33.981  36.902  1.00  0.00     0.064 A 
ATOM     72  C   UNL A   1      40.429  35.194  36.951  1.00  0.00     0.173 A 
ATOM     73  C   UNL A   1      38.910  33.654  37.991  1.00  0.00     0.173 A 
ATOM     74  F   UNL A   1      41.242  35.538  35.942  1.00  0.00    -0.203 F 
ATOM     75  C   UNL A   1      40.313  36.047  38.046  1.00  0.00     0.198 A 
ATOM     76  C   UNL A   1      38.776  34.519  39.075  1.00  0.00     0.198 A 
ATOM     77  F   UNL A   1      38.218  32.505  37.991  1.00  0.00    -0.203 F 
ATOM     78  F   UNL A   1      41.013  37.190  38.079  1.00  0.00    -0.200 F 
ATOM     79  C   UNL A   1      39.480  35.713  39.103  1.00  0.00     0.200 A 
ATOM     80  F   UNL A   1      37.958  34.201  40.088  1.00  0.00    -0.200 F 
ATOM     81  F   UNL A   1      39.358  36.541  40.149  1.00  0.00    -0.200 F 
ENDBRANCH  47  71
BRANCH  59  82
ATOM     82  C   UNL A   1      43.769  28.532  35.289  1.00  0.00     0.064 A 
ATOM     83  C   UNL A   1      43.460  27.413  36.077  1.00  0.00     0.173 A 
ATOM     84  C   UNL A   1      45.114  28.916  35.188  1.00  0.00     0.173 A 
ATOM     85  F   UNL A   1      42.186  27.019  36.220  1.00  0.00    -0.203 F 
ATOM     86  C   UNL A   1      44.460  26.715  36.749  1.00  0.00     0.198 A 
ATOM     87  C   UNL A   1      46.114  28.198  35.839  1.00  0.00     0.198 A 
ATOM     88  F   UNL A   1      45.460  29.977  34.445  1.00  0.00    -0.203 F 
ATOM     89  F   UNL A   1      44.139  25.673  37.528  1.00  0.00    -0.200 F 
ATOM     90  C   UNL A   1      45.786  27.102  36.622  1.00  0.00     0.200 A 
ATOM     91  F   UNL A   1      47.395  28.566  35.705  1.00  0.00    -0.200 F 
ATOM     92  F   UNL A   1      46.748  26.421  37.259  1.00  0.00    -0.200 F 
ENDBRANCH  59  82
ENDBRANCH  33  34
ENDBRANCH  25  28
ENDBRANCH  23  24
ENDBRANCH   1  23
TORSDOF 13
ENDMDL
