MODEL 1
REMARK VINA RESULT:     -12.8      0.000      0.000
REMARK SMILES Nc1cc(C(=O)NCCCNC(=O)c2ccc(-c3c4nc(c(-c5c(F)c(F)c(F)c(F)c5F)c5ccc([nH]5)c(-c5c(F)c(F)c(F)c(F)c5F)c5nc(c(-c6c(F)c(F)c(F)c(F)c6F)c6ccc3[nH]6)C=C5)C=C4)cc2)c(-c2ccc(F)cc2O)cn1
REMARK SMILES IDX 9 1 8 2 7 3 5 4 6 5 4 7 2 8 3 9 87 10 86 11 77 12 1 13 78 16
REMARK SMILES IDX 79 17 84 18 80 19 83 20 81 21 82 22 85 23 10 25 11 26 12 27
REMARK SMILES IDX 13 29 14 30 15 31 76 32 16 33 75 34 17 35 18 36 19 37 69 38
REMARK SMILES IDX 20 39 74 40 68 41 70 42 21 43 73 44 67 45 66 46 22 48 54 49
REMARK SMILES IDX 34 50 53 51 35 52 38 53 52 54 71 55 36 56 37 57 51 59 72 60
REMARK SMILES IDX 39 61 23 62 24 63 32 64 25 65 26 66 30 67 33 68 27 69 28 70
REMARK SMILES IDX 31 71 29 72 55 73 56 74 64 75 57 76 58 77 62 78 65 79 59 80
REMARK SMILES IDX 60 81 63 82 61 83 40 84 41 85 49 86 42 87 43 88 47 89 50 90
REMARK SMILES IDX 44 91 45 92 48 93 46 94
REMARK H PARENT 7 6 1 14 1 15 85 24 11 28 70 47 38 58
REMARK Flexibility Score: inf
ROOT
ATOM      1  C   UNL A   1      31.330  31.888  26.569  1.00  0.00     0.042 C 
ENDROOT
BRANCH   1   2
ATOM      2  C   UNL A   1      31.388  30.380  26.296  1.00  0.00     0.118 C 
BRANCH   2   3
ATOM      3  N   UNL A   1      31.993  30.124  25.002  1.00  0.00    -0.352 N 
ATOM      4  C   UNL A   1      31.870  29.133  24.064  1.00  0.00     0.252 C 
ATOM      5  O   UNL A   1      32.776  29.096  23.230  1.00  0.00    -0.269 OA
ATOM      6  H   UNL A   1      32.638  30.820  24.739  1.00  0.00     0.163 HD
BRANCH   4   7
ATOM      7  C   UNL A   1      30.753  28.138  24.004  1.00  0.00     0.052 A 
ATOM      8  C   UNL A   1      29.917  25.902  24.377  1.00  0.00     0.124 A 
ATOM      9  C   UNL A   1      30.968  26.802  24.368  1.00  0.00     0.061 A 
ATOM     10  N   UNL A   1      28.689  26.232  23.976  1.00  0.00    -0.239 NA
ATOM     11  C   UNL A   1      28.502  27.502  23.550  1.00  0.00     0.123 A 
ATOM     12  C   UNL A   1      29.472  28.511  23.534  1.00  0.00     0.017 A 
BRANCH   8  13
ATOM     13  N   UNL A   1      30.111  24.588  24.750  1.00  0.00    -0.384 N 
ATOM     14  H   UNL A   1      29.353  24.051  25.078  1.00  0.00     0.158 HD
ATOM     15  H   UNL A   1      31.008  24.186  24.689  1.00  0.00     0.158 HD
ENDBRANCH   8  13
BRANCH  12  16
ATOM     16  C   UNL A   1      29.062  29.833  23.010  1.00  0.00     0.026 A 
ATOM     17  C   UNL A   1      28.060  30.576  23.666  1.00  0.00     0.015 A 
ATOM     18  C   UNL A   1      29.549  30.352  21.794  1.00  0.00     0.126 A 
ATOM     19  C   UNL A   1      27.586  31.778  23.127  1.00  0.00     0.040 A 
ATOM     20  C   UNL A   1      29.083  31.544  21.248  1.00  0.00     0.086 A 
ATOM     21  C   UNL A   1      28.102  32.249  21.925  1.00  0.00     0.126 A 
ATOM     22  F   UNL A   1      27.649  33.403  21.419  1.00  0.00    -0.207 F 
BRANCH  18  23
ATOM     23  O   UNL A   1      30.563  29.728  21.119  1.00  0.00    -0.507 OA
ATOM     24  H   UNL A   1      30.513  29.627  20.189  1.00  0.00     0.293 HD
ENDBRANCH  18  23
ENDBRANCH  12  16
ENDBRANCH   4   7
ENDBRANCH   2   3
ENDBRANCH   1   2
BRANCH   1  25
ATOM     25  C   UNL A   1      32.686  32.506  26.920  1.00  0.00     0.118 C 
BRANCH  25  26
ATOM     26  N   UNL A   1      32.549  33.856  27.440  1.00  0.00    -0.352 N 
ATOM     27  C   UNL A   1      33.137  34.461  28.519  1.00  0.00     0.251 C 
ATOM     28  H   UNL A   1      31.931  34.432  26.933  1.00  0.00     0.163 HD
ATOM     29  O   UNL A   1      32.695  35.536  28.914  1.00  0.00    -0.269 OA
BRANCH  27  30
ATOM     30  C   UNL A   1      34.294  33.852  29.216  1.00  0.00     0.039 A 
ATOM     31  C   UNL A   1      35.579  34.270  28.851  1.00  0.00     0.014 A 
ATOM     32  C   UNL A   1      34.140  32.814  30.140  1.00  0.00     0.014 A 
ATOM     33  C   UNL A   1      36.701  33.670  29.424  1.00  0.00     0.010 A 
ATOM     34  C   UNL A   1      35.262  32.252  30.755  1.00  0.00     0.010 A 
ATOM     35  C   UNL A   1      36.554  32.663  30.391  1.00  0.00    -0.014 A 
BRANCH  35  36
ATOM     36  C   UNL A   1      37.747  32.028  31.007  1.00  0.00     0.031 A 
ATOM     37  C   UNL A   1      38.196  32.421  32.388  1.00  0.00     0.074 A 
ATOM     38  C   UNL A   1      38.443  31.111  30.309  1.00  0.00     0.049 A 
ATOM     39  N   UNL A   1      39.214  31.981  33.084  1.00  0.00    -0.248 NA
ATOM     40  C   UNL A   1      37.410  33.462  33.068  1.00  0.00     0.031 C 
ATOM     41  C   UNL A   1      38.138  30.680  28.945  1.00  0.00     0.029 A 
ATOM     42  N   UNL A   1      39.553  30.379  30.650  1.00  0.00    -0.354 N 
ATOM     43  C   UNL A   1      39.200  32.699  34.273  1.00  0.00     0.074 A 
ATOM     44  C   UNL A   1      38.099  33.635  34.186  1.00  0.00     0.031 C 
ATOM     45  C   UNL A   1      39.024  29.742  28.573  1.00  0.00     0.029 A 
ATOM     46  C   UNL A   1      39.972  29.523  29.662  1.00  0.00     0.049 A 
ATOM     47  H   UNL A   1      40.006  30.460  31.520  1.00  0.00     0.167 HD
ATOM     48  C   UNL A   1      40.018  32.577  35.346  1.00  0.00     0.037 A 
ATOM     49  C   UNL A   1      41.000  28.655  29.639  1.00  0.00     0.037 A 
ATOM     50  C   UNL A   1      41.097  31.628  35.443  1.00  0.00     0.049 A 
ATOM     51  C   UNL A   1      41.870  28.511  30.857  1.00  0.00     0.074 A 
ATOM     52  C   UNL A   1      41.951  31.393  36.507  1.00  0.00     0.029 A 
ATOM     53  N   UNL A   1      41.467  30.750  34.435  1.00  0.00    -0.354 N 
ATOM     54  N   UNL A   1      41.807  29.153  31.998  1.00  0.00    -0.248 NA
ATOM     55  C   UNL A   1      42.942  27.511  30.789  1.00  0.00     0.031 C 
ATOM     56  C   UNL A   1      42.857  30.395  36.131  1.00  0.00     0.029 A 
ATOM     57  C   UNL A   1      42.542  29.979  34.848  1.00  0.00     0.049 A 
ATOM     58  H   UNL A   1      41.030  30.685  33.554  1.00  0.00     0.167 HD
ATOM     59  C   UNL A   1      42.812  28.618  32.792  1.00  0.00     0.074 A 
ATOM     60  C   UNL A   1      43.458  27.586  32.008  1.00  0.00     0.031 C 
ATOM     61  C   UNL A   1      43.168  28.951  34.057  1.00  0.00     0.037 A 
BRANCH  48  62
ATOM     62  C   UNL A   1      39.775  33.495  36.510  1.00  0.00     0.064 A 
ATOM     63  C   UNL A   1      40.405  34.747  36.602  1.00  0.00     0.173 A 
ATOM     64  C   UNL A   1      38.877  33.136  37.527  1.00  0.00     0.173 A 
ATOM     65  F   UNL A   1      41.280  35.132  35.661  1.00  0.00    -0.203 F 
ATOM     66  C   UNL A   1      40.167  35.591  37.683  1.00  0.00     0.198 A 
ATOM     67  C   UNL A   1      38.622  33.995  38.593  1.00  0.00     0.198 A 
ATOM     68  F   UNL A   1      38.244  31.955  37.485  1.00  0.00    -0.203 F 
ATOM     69  F   UNL A   1      40.815  36.760  37.773  1.00  0.00    -0.200 F 
ATOM     70  C   UNL A   1      39.272  35.218  38.674  1.00  0.00     0.200 A 
ATOM     71  F   UNL A   1      37.747  33.639  39.544  1.00  0.00    -0.200 F 
ATOM     72  F   UNL A   1      39.041  36.034  39.712  1.00  0.00    -0.200 F 
ENDBRANCH  48  62
BRANCH  49  73
ATOM     73  C   UNL A   1      41.232  27.818  28.435  1.00  0.00     0.064 A 
ATOM     74  C   UNL A   1      42.119  28.234  27.432  1.00  0.00     0.173 A 
ATOM     75  C   UNL A   1      40.578  26.590  28.263  1.00  0.00     0.173 A 
ATOM     76  F   UNL A   1      42.753  29.411  27.545  1.00  0.00    -0.203 F 
ATOM     77  C   UNL A   1      42.331  27.461  26.293  1.00  0.00     0.198 A 
ATOM     78  C   UNL A   1      40.810  25.806  27.135  1.00  0.00     0.198 A 
ATOM     79  F   UNL A   1      39.725  26.147  29.197  1.00  0.00    -0.203 F 
ATOM     80  F   UNL A   1      43.154  27.900  25.331  1.00  0.00    -0.200 F 
ATOM     81  C   UNL A   1      41.680  26.244  26.148  1.00  0.00     0.200 A 
ATOM     82  F   UNL A   1      40.191  24.624  27.004  1.00  0.00    -0.200 F 
ATOM     83  F   UNL A   1      41.888  25.499  25.055  1.00  0.00    -0.200 F 
ENDBRANCH  49  73
BRANCH  61  84
ATOM     84  C   UNL A   1      44.284  28.166  34.680  1.00  0.00     0.064 A 
ATOM     85  C   UNL A   1      45.619  28.587  34.588  1.00  0.00     0.173 A 
ATOM     86  C   UNL A   1      44.012  26.987  35.390  1.00  0.00     0.173 A 
ATOM     87  F   UNL A   1      45.931  29.699  33.906  1.00  0.00    -0.203 F 
ATOM     88  C   UNL A   1      46.646  27.837  35.156  1.00  0.00     0.198 A 
ATOM     89  C   UNL A   1      45.039  26.255  35.980  1.00  0.00     0.198 A 
ATOM     90  F   UNL A   1      42.751  26.546  35.511  1.00  0.00    -0.203 F 
ATOM     91  F   UNL A   1      47.919  28.229  35.010  1.00  0.00    -0.200 F 
ATOM     92  C   UNL A   1      46.355  26.675  35.855  1.00  0.00     0.200 A 
ATOM     93  F   UNL A   1      44.755  25.137  36.663  1.00  0.00    -0.200 F 
ATOM     94  F   UNL A   1      47.343  25.953  36.399  1.00  0.00    -0.200 F 
ENDBRANCH  61  84
ENDBRANCH  35  36
ENDBRANCH  27  30
ENDBRANCH  25  26
ENDBRANCH   1  25
TORSDOF 13
ENDMDL
MODEL 2
REMARK VINA RESULT:     -12.8      0.138      1.616
REMARK SMILES Nc1cc(C(=O)NCCCNC(=O)c2ccc(-c3c4nc(c(-c5c(F)c(F)c(F)c(F)c5F)c5ccc([nH]5)c(-c5c(F)c(F)c(F)c(F)c5F)c5nc(c(-c6c(F)c(F)c(F)c(F)c6F)c6ccc3[nH]6)C=C5)C=C4)cc2)c(-c2ccc(F)cc2O)cn1
REMARK SMILES IDX 9 1 8 2 7 3 5 4 6 5 4 7 2 8 3 9 87 10 86 11 77 12 1 13 78 16
REMARK SMILES IDX 79 17 84 18 80 19 83 20 81 21 82 22 85 23 10 25 11 26 12 27
REMARK SMILES IDX 13 29 14 30 15 31 76 32 16 33 75 34 17 35 18 36 19 37 69 38
REMARK SMILES IDX 20 39 74 40 68 41 70 42 21 43 73 44 67 45 66 46 22 48 54 49
REMARK SMILES IDX 34 50 53 51 35 52 38 53 52 54 71 55 36 56 37 57 51 59 72 60
REMARK SMILES IDX 39 61 23 62 24 63 32 64 25 65 26 66 30 67 33 68 27 69 28 70
REMARK SMILES IDX 31 71 29 72 55 73 56 74 64 75 57 76 58 77 62 78 65 79 59 80
REMARK SMILES IDX 60 81 63 82 61 83 40 84 41 85 49 86 42 87 43 88 47 89 50 90
REMARK SMILES IDX 44 91 45 92 48 93 46 94
REMARK H PARENT 7 6 1 14 1 15 85 24 11 28 70 47 38 58
REMARK Flexibility Score: inf
ROOT
ATOM      1  C   UNL A   1      31.289  31.902  26.821  1.00  0.00     0.042 C 
ENDROOT
BRANCH   1   2
ATOM      2  C   UNL A   1      31.406  30.404  26.515  1.00  0.00     0.118 C 
BRANCH   2   3
ATOM      3  N   UNL A   1      32.010  30.201  25.212  1.00  0.00    -0.352 N 
ATOM      4  C   UNL A   1      31.910  29.232  24.248  1.00  0.00     0.252 C 
ATOM      5  O   UNL A   1      32.812  29.245  23.408  1.00  0.00    -0.269 OA
ATOM      6  H   UNL A   1      32.634  30.922  24.965  1.00  0.00     0.163 HD
BRANCH   4   7
ATOM      7  C   UNL A   1      30.822  28.209  24.166  1.00  0.00     0.052 A 
ATOM      8  C   UNL A   1      30.025  25.961  24.561  1.00  0.00     0.124 A 
ATOM      9  C   UNL A   1      31.053  26.888  24.573  1.00  0.00     0.061 A 
ATOM     10  N   UNL A   1      28.808  26.251  24.099  1.00  0.00    -0.239 NA
ATOM     11  C   UNL A   1      28.609  27.504  23.633  1.00  0.00     0.123 A 
ATOM     12  C   UNL A   1      29.553  28.536  23.632  1.00  0.00     0.017 A 
BRANCH   8  13
ATOM     13  N   UNL A   1      30.235  24.663  24.976  1.00  0.00    -0.384 N 
ATOM     14  H   UNL A   1      29.781  23.919  24.517  1.00  0.00     0.158 HD
ATOM     15  H   UNL A   1      30.838  24.479  25.733  1.00  0.00     0.158 HD
ENDBRANCH   8  13
BRANCH  12  16
ATOM     16  C   UNL A   1      29.134  29.834  23.056  1.00  0.00     0.026 A 
ATOM     17  C   UNL A   1      28.129  30.597  23.684  1.00  0.00     0.015 A 
ATOM     18  C   UNL A   1      29.616  30.307  21.820  1.00  0.00     0.126 A 
ATOM     19  C   UNL A   1      27.647  31.774  23.099  1.00  0.00     0.040 A 
ATOM     20  C   UNL A   1      29.141  31.473  21.227  1.00  0.00     0.086 A 
ATOM     21  C   UNL A   1      28.158  32.199  21.878  1.00  0.00     0.126 A 
ATOM     22  F   UNL A   1      27.697  33.329  21.326  1.00  0.00    -0.207 F 
BRANCH  18  23
ATOM     23  O   UNL A   1      30.633  29.662  21.167  1.00  0.00    -0.507 OA
ATOM     24  H   UNL A   1      31.136  30.117  20.521  1.00  0.00     0.293 HD
ENDBRANCH  18  23
ENDBRANCH  12  16
ENDBRANCH   4   7
ENDBRANCH   2   3
ENDBRANCH   1   2
BRANCH   1  25
ATOM     25  C   UNL A   1      32.636  32.628  26.886  1.00  0.00     0.118 C 
BRANCH  25  26
ATOM     26  N   UNL A   1      32.503  33.972  27.422  1.00  0.00    -0.352 N 
ATOM     27  C   UNL A   1      33.091  34.560  28.511  1.00  0.00     0.251 C 
ATOM     28  H   UNL A   1      31.890  34.557  26.920  1.00  0.00     0.163 HD
ATOM     29  O   UNL A   1      32.652  35.632  28.918  1.00  0.00    -0.269 OA
BRANCH  27  30
ATOM     30  C   UNL A   1      34.242  33.937  29.205  1.00  0.00     0.039 A 
ATOM     31  C   UNL A   1      35.531  34.309  28.809  1.00  0.00     0.014 A 
ATOM     32  C   UNL A   1      34.075  32.927  30.157  1.00  0.00     0.014 A 
ATOM     33  C   UNL A   1      36.646  33.692  29.379  1.00  0.00     0.010 A 
ATOM     34  C   UNL A   1      35.191  32.350  30.769  1.00  0.00     0.010 A 
ATOM     35  C   UNL A   1      36.487  32.715  30.374  1.00  0.00    -0.014 A 
BRANCH  35  36
ATOM     36  C   UNL A   1      37.672  32.062  30.987  1.00  0.00     0.031 A 
ATOM     37  C   UNL A   1      38.117  32.433  32.375  1.00  0.00     0.074 A 
ATOM     38  C   UNL A   1      38.365  31.150  30.279  1.00  0.00     0.049 A 
ATOM     39  N   UNL A   1      39.128  31.976  33.071  1.00  0.00    -0.248 NA
ATOM     40  C   UNL A   1      37.335  33.470  33.066  1.00  0.00     0.031 C 
ATOM     41  C   UNL A   1      38.064  30.741  28.908  1.00  0.00     0.029 A 
ATOM     42  N   UNL A   1      39.467  30.405  30.615  1.00  0.00    -0.354 N 
ATOM     43  C   UNL A   1      39.113  32.677  34.269  1.00  0.00     0.074 A 
ATOM     44  C   UNL A   1      38.020  33.621  34.190  1.00  0.00     0.031 C 
ATOM     45  C   UNL A   1      38.945  29.802  28.527  1.00  0.00     0.029 A 
ATOM     46  C   UNL A   1      39.885  29.560  29.617  1.00  0.00     0.049 A 
ATOM     47  H   UNL A   1      39.917  30.471  31.489  1.00  0.00     0.167 HD
ATOM     48  C   UNL A   1      39.925  32.534  35.345  1.00  0.00     0.037 A 
ATOM     49  C   UNL A   1      40.907  28.685  29.588  1.00  0.00     0.037 A 
ATOM     50  C   UNL A   1      40.996  31.575  35.433  1.00  0.00     0.049 A 
ATOM     51  C   UNL A   1      41.770  28.518  30.808  1.00  0.00     0.074 A 
ATOM     52  C   UNL A   1      41.843  31.318  36.498  1.00  0.00     0.029 A 
ATOM     53  N   UNL A   1      41.364  30.709  34.415  1.00  0.00    -0.354 N 
ATOM     54  N   UNL A   1      41.705  29.143  31.958  1.00  0.00    -0.248 NA
ATOM     55  C   UNL A   1      42.835  27.510  30.732  1.00  0.00     0.031 C 
ATOM     56  C   UNL A   1      42.744  30.319  36.113  1.00  0.00     0.029 A 
ATOM     57  C   UNL A   1      42.432  29.924  34.822  1.00  0.00     0.049 A 
ATOM     58  H   UNL A   1      40.932  30.659  33.531  1.00  0.00     0.167 HD
ATOM     59  C   UNL A   1      42.702  28.590  32.749  1.00  0.00     0.074 A 
ATOM     60  C   UNL A   1      43.345  27.564  31.954  1.00  0.00     0.031 C 
ATOM     61  C   UNL A   1      43.054  28.902  34.020  1.00  0.00     0.037 A 
BRANCH  48  62
ATOM     62  C   UNL A   1      39.682  33.437  36.520  1.00  0.00     0.064 A 
ATOM     63  C   UNL A   1      38.823  33.065  37.566  1.00  0.00     0.173 A 
ATOM     64  C   UNL A   1      40.343  34.670  36.621  1.00  0.00     0.173 A 
ATOM     65  F   UNL A   1      38.160  31.900  37.512  1.00  0.00    -0.203 F 
ATOM     66  C   UNL A   1      38.611  33.908  38.653  1.00  0.00     0.198 A 
ATOM     67  C   UNL A   1      40.149  35.499  37.724  1.00  0.00     0.198 A 
ATOM     68  F   UNL A   1      41.180  35.071  35.653  1.00  0.00    -0.203 F 
ATOM     69  F   UNL A   1      37.750  33.553  39.617  1.00  0.00    -0.200 F 
ATOM     70  C   UNL A   1      39.278  35.121  38.735  1.00  0.00     0.200 A 
ATOM     71  F   UNL A   1      40.803  36.666  37.806  1.00  0.00    -0.200 F 
ATOM     72  F   UNL A   1      39.076  35.930  39.784  1.00  0.00    -0.200 F 
ENDBRANCH  48  62
BRANCH  49  73
ATOM     73  C   UNL A   1      41.139  27.863  28.373  1.00  0.00     0.064 A 
ATOM     74  C   UNL A   1      40.501  26.626  28.211  1.00  0.00     0.173 A 
ATOM     75  C   UNL A   1      41.998  28.296  27.352  1.00  0.00     0.173 A 
ATOM     76  F   UNL A   1      39.685  26.163  29.170  1.00  0.00    -0.203 F 
ATOM     77  C   UNL A   1      40.724  25.843  27.081  1.00  0.00     0.198 A 
ATOM     78  C   UNL A   1      42.201  27.524  26.211  1.00  0.00     0.198 A 
ATOM     79  F   UNL A   1      42.627  29.475  27.459  1.00  0.00    -0.203 F 
ATOM     80  F   UNL A   1      40.132  24.647  26.969  1.00  0.00    -0.200 F 
ATOM     81  C   UNL A   1      41.570  26.295  26.079  1.00  0.00     0.200 A 
ATOM     82  F   UNL A   1      43.009  27.969  25.238  1.00  0.00    -0.200 F 
ATOM     83  F   UNL A   1      41.783  25.544  24.990  1.00  0.00    -0.200 F 
ENDBRANCH  49  73
BRANCH  61  84
ATOM     84  C   UNL A   1      44.162  28.101  34.638  1.00  0.00     0.064 A 
ATOM     85  C   UNL A   1      45.499  28.515  34.563  1.00  0.00     0.173 A 
ATOM     86  C   UNL A   1      43.878  26.911  35.324  1.00  0.00     0.173 A 
ATOM     87  F   UNL A   1      45.822  29.638  33.903  1.00  0.00    -0.203 F 
ATOM     88  C   UNL A   1      46.517  27.750  35.126  1.00  0.00     0.198 A 
ATOM     89  C   UNL A   1      44.896  26.163  35.909  1.00  0.00     0.198 A 
ATOM     90  F   UNL A   1      42.614  26.475  35.429  1.00  0.00    -0.203 F 
ATOM     91  F   UNL A   1      47.794  28.138  34.996  1.00  0.00    -0.200 F 
ATOM     92  C   UNL A   1      46.215  26.578  35.802  1.00  0.00     0.200 A 
ATOM     93  F   UNL A   1      44.601  25.035  36.570  1.00  0.00    -0.200 F 
ATOM     94  F   UNL A   1      47.196  25.841  36.340  1.00  0.00    -0.200 F 
ENDBRANCH  61  84
ENDBRANCH  35  36
ENDBRANCH  27  30
ENDBRANCH  25  26
ENDBRANCH   1  25
TORSDOF 13
ENDMDL
MODEL 3
REMARK VINA RESULT:     -12.7      6.391     11.793
REMARK SMILES Nc1cc(C(=O)NCCCNC(=O)c2ccc(-c3c4nc(c(-c5c(F)c(F)c(F)c(F)c5F)c5ccc([nH]5)c(-c5c(F)c(F)c(F)c(F)c5F)c5nc(c(-c6c(F)c(F)c(F)c(F)c6F)c6ccc3[nH]6)C=C5)C=C4)cc2)c(-c2ccc(F)cc2O)cn1
REMARK SMILES IDX 9 1 8 2 7 3 5 4 6 5 4 7 2 8 3 9 87 10 86 11 77 12 1 13 78 16
REMARK SMILES IDX 79 17 84 18 80 19 83 20 81 21 82 22 85 23 10 25 11 26 12 27
REMARK SMILES IDX 13 29 14 30 15 31 76 32 16 33 75 34 17 35 18 36 19 37 69 38
REMARK SMILES IDX 20 39 74 40 68 41 70 42 21 43 73 44 67 45 66 46 22 48 54 49
REMARK SMILES IDX 34 50 53 51 35 52 38 53 52 54 71 55 36 56 37 57 51 59 72 60
REMARK SMILES IDX 39 61 23 62 24 63 32 64 25 65 26 66 30 67 33 68 27 69 28 70
REMARK SMILES IDX 31 71 29 72 55 73 56 74 64 75 57 76 58 77 62 78 65 79 59 80
REMARK SMILES IDX 60 81 63 82 61 83 40 84 41 85 49 86 42 87 43 88 47 89 50 90
REMARK SMILES IDX 44 91 45 92 48 93 46 94
REMARK H PARENT 7 6 1 14 1 15 85 24 11 28 70 47 38 58
REMARK Flexibility Score: inf
ROOT
ATOM      1  C   UNL A   1      38.009  19.572  24.972  1.00  0.00     0.042 C 
ENDROOT
BRANCH   1   2
ATOM      2  C   UNL A   1      36.924  20.599  24.626  1.00  0.00     0.118 C 
BRANCH   2   3
ATOM      3  N   UNL A   1      35.925  20.651  25.677  1.00  0.00    -0.352 N 
ATOM      4  C   UNL A   1      34.595  20.977  25.721  1.00  0.00     0.252 C 
ATOM      5  O   UNL A   1      34.156  21.202  26.851  1.00  0.00    -0.269 OA
ATOM      6  H   UNL A   1      36.284  20.394  26.557  1.00  0.00     0.163 HD
BRANCH   4   7
ATOM      7  C   UNL A   1      33.692  21.075  24.532  1.00  0.00     0.052 A 
ATOM      8  C   UNL A   1      32.528  22.413  22.890  1.00  0.00     0.124 A 
ATOM      9  C   UNL A   1      33.307  22.326  24.031  1.00  0.00     0.061 A 
ATOM     10  N   UNL A   1      32.052  21.335  22.266  1.00  0.00    -0.239 NA
ATOM     11  C   UNL A   1      32.360  20.131  22.797  1.00  0.00     0.123 A 
ATOM     12  C   UNL A   1      33.170  19.913  23.917  1.00  0.00     0.017 A 
BRANCH   8  13
ATOM     13  N   UNL A   1      32.157  23.638  22.376  1.00  0.00    -0.384 N 
ATOM     14  H   UNL A   1      31.378  23.706  21.777  1.00  0.00     0.158 HD
ATOM     15  H   UNL A   1      32.671  24.446  22.607  1.00  0.00     0.158 HD
ENDBRANCH   8  13
BRANCH  12  16
ATOM     16  C   UNL A   1      33.366  18.510  24.345  1.00  0.00     0.026 A 
ATOM     17  C   UNL A   1      33.930  17.571  23.460  1.00  0.00     0.015 A 
ATOM     18  C   UNL A   1      32.903  18.022  25.583  1.00  0.00     0.126 A 
ATOM     19  C   UNL A   1      34.028  16.219  23.810  1.00  0.00     0.040 A 
ATOM     20  C   UNL A   1      32.992  16.680  25.940  1.00  0.00     0.086 A 
ATOM     21  C   UNL A   1      33.558  15.788  25.045  1.00  0.00     0.126 A 
ATOM     22  F   UNL A   1      33.660  14.494  25.376  1.00  0.00    -0.207 F 
BRANCH  18  23
ATOM     23  O   UNL A   1      32.395  18.872  26.529  1.00  0.00    -0.507 OA
ATOM     24  H   UNL A   1      31.488  18.827  26.759  1.00  0.00     0.293 HD
ENDBRANCH  18  23
ENDBRANCH  12  16
ENDBRANCH   4   7
ENDBRANCH   2   3
ENDBRANCH   1   2
BRANCH   1  25
ATOM     25  C   UNL A   1      39.033  20.073  25.995  1.00  0.00     0.118 C 
BRANCH  25  26
ATOM     26  N   UNL A   1      40.196  19.204  26.069  1.00  0.00    -0.352 N 
ATOM     27  C   UNL A   1      41.531  19.505  26.119  1.00  0.00     0.251 C 
ATOM     28  H   UNL A   1      39.990  18.241  26.086  1.00  0.00     0.163 HD
ATOM     29  O   UNL A   1      42.350  18.608  25.937  1.00  0.00    -0.269 OA
BRANCH  27  30
ATOM     30  C   UNL A   1      42.009  20.881  26.390  1.00  0.00     0.039 A 
ATOM     31  C   UNL A   1      42.240  21.248  27.720  1.00  0.00     0.014 A 
ATOM     32  C   UNL A   1      42.134  21.835  25.376  1.00  0.00     0.014 A 
ATOM     33  C   UNL A   1      42.616  22.557  28.031  1.00  0.00     0.010 A 
ATOM     34  C   UNL A   1      42.565  23.129  25.681  1.00  0.00     0.010 A 
ATOM     35  C   UNL A   1      42.794  23.507  27.013  1.00  0.00    -0.014 A 
BRANCH  35  36
ATOM     36  C   UNL A   1      43.201  24.897  27.342  1.00  0.00     0.031 A 
ATOM     37  C   UNL A   1      44.600  25.371  27.061  1.00  0.00     0.074 A 
ATOM     38  C   UNL A   1      42.312  25.728  27.919  1.00  0.00     0.049 A 
ATOM     39  N   UNL A   1      45.138  26.545  27.284  1.00  0.00    -0.248 NA
ATOM     40  C   UNL A   1      45.525  24.391  26.471  1.00  0.00     0.031 C 
ATOM     41  C   UNL A   1      40.941  25.373  28.285  1.00  0.00     0.029 A 
ATOM     42  N   UNL A   1      42.431  27.040  28.301  1.00  0.00    -0.354 N 
ATOM     43  C   UNL A   1      46.461  26.439  26.878  1.00  0.00     0.074 A 
ATOM     44  C   UNL A   1      46.659  25.076  26.436  1.00  0.00     0.031 C 
ATOM     45  C   UNL A   1      40.338  26.447  28.818  1.00  0.00     0.029 A 
ATOM     46  C   UNL A   1      41.285  27.558  28.851  1.00  0.00     0.049 A 
ATOM     47  H   UNL A   1      43.259  27.561  28.192  1.00  0.00     0.167 HD
ATOM     48  C   UNL A   1      47.420  27.397  26.857  1.00  0.00     0.037 A 
ATOM     49  C   UNL A   1      41.025  28.792  29.323  1.00  0.00     0.037 A 
ATOM     50  C   UNL A   1      47.216  28.761  27.272  1.00  0.00     0.049 A 
ATOM     51  C   UNL A   1      42.094  29.847  29.254  1.00  0.00     0.074 A 
ATOM     52  C   UNL A   1      48.109  29.818  27.244  1.00  0.00     0.029 A 
ATOM     53  N   UNL A   1      46.029  29.258  27.789  1.00  0.00    -0.354 N 
ATOM     54  N   UNL A   1      43.323  29.751  28.810  1.00  0.00    -0.248 NA
ATOM     55  C   UNL A   1      41.733  31.186  29.737  1.00  0.00     0.031 C 
ATOM     56  C   UNL A   1      47.472  30.947  27.772  1.00  0.00     0.029 A 
ATOM     57  C   UNL A   1      46.169  30.603  28.091  1.00  0.00     0.049 A 
ATOM     58  H   UNL A   1      45.206  28.732  27.922  1.00  0.00     0.167 HD
ATOM     59  C   UNL A   1      43.874  31.018  28.935  1.00  0.00     0.074 A 
ATOM     60  C   UNL A   1      42.838  31.872  29.480  1.00  0.00     0.031 C 
ATOM     61  C   UNL A   1      45.125  31.439  28.626  1.00  0.00     0.037 A 
BRANCH  48  62
ATOM     62  C   UNL A   1      48.783  27.003  26.365  1.00  0.00     0.064 A 
ATOM     63  C   UNL A   1      49.761  26.498  27.237  1.00  0.00     0.173 A 
ATOM     64  C   UNL A   1      49.104  27.096  25.003  1.00  0.00     0.173 A 
ATOM     65  F   UNL A   1      49.507  26.400  28.550  1.00  0.00    -0.203 F 
ATOM     66  C   UNL A   1      51.019  26.131  26.768  1.00  0.00     0.198 A 
ATOM     67  C   UNL A   1      50.355  26.701  24.533  1.00  0.00     0.198 A 
ATOM     68  F   UNL A   1      48.204  27.564  24.125  1.00  0.00    -0.203 F 
ATOM     69  F   UNL A   1      51.952  25.697  27.626  1.00  0.00    -0.200 F 
ATOM     70  C   UNL A   1      51.313  26.227  25.416  1.00  0.00     0.200 A 
ATOM     71  F   UNL A   1      50.634  26.783  23.224  1.00  0.00    -0.200 F 
ATOM     72  F   UNL A   1      52.524  25.868  24.965  1.00  0.00    -0.200 F 
ENDBRANCH  48  62
BRANCH  49  73
ATOM     73  C   UNL A   1      39.677  29.108  29.859  1.00  0.00     0.064 A 
ATOM     74  C   UNL A   1      38.655  29.556  29.011  1.00  0.00     0.173 A 
ATOM     75  C   UNL A   1      39.381  28.966  31.222  1.00  0.00     0.173 A 
ATOM     76  F   UNL A   1      38.897  29.725  27.702  1.00  0.00    -0.203 F 
ATOM     77  C   UNL A   1      37.392  29.868  29.508  1.00  0.00     0.198 A 
ATOM     78  C   UNL A   1      38.111  29.254  31.714  1.00  0.00     0.198 A 
ATOM     79  F   UNL A   1      40.324  28.535  32.072  1.00  0.00    -0.203 F 
ATOM     80  F   UNL A   1      36.444  30.333  28.682  1.00  0.00    -0.200 F 
ATOM     81  C   UNL A   1      37.119  29.712  30.859  1.00  0.00     0.200 A 
ATOM     82  F   UNL A   1      37.846  29.090  33.018  1.00  0.00    -0.200 F 
ATOM     83  F   UNL A   1      35.903  30.008  31.337  1.00  0.00    -0.200 F 
ENDBRANCH  49  73
BRANCH  61  84
ATOM     84  C   UNL A   1      45.427  32.893  28.839  1.00  0.00     0.064 A 
ATOM     85  C   UNL A   1      45.962  33.364  30.047  1.00  0.00     0.173 A 
ATOM     86  C   UNL A   1      45.191  33.824  27.816  1.00  0.00     0.173 A 
ATOM     87  F   UNL A   1      46.190  32.514  31.060  1.00  0.00    -0.203 F 
ATOM     88  C   UNL A   1      46.220  34.719  30.235  1.00  0.00     0.198 A 
ATOM     89  C   UNL A   1      45.476  35.174  27.998  1.00  0.00     0.198 A 
ATOM     90  F   UNL A   1      44.686  33.422  26.640  1.00  0.00    -0.203 F 
ATOM     91  F   UNL A   1      46.681  35.154  31.416  1.00  0.00    -0.200 F 
ATOM     92  C   UNL A   1      45.982  35.622  29.210  1.00  0.00     0.200 A 
ATOM     93  F   UNL A   1      45.254  36.044  27.003  1.00  0.00    -0.200 F 
ATOM     94  F   UNL A   1      46.228  36.926  29.393  1.00  0.00    -0.200 F 
ENDBRANCH  61  84
ENDBRANCH  35  36
ENDBRANCH  27  30
ENDBRANCH  25  26
ENDBRANCH   1  25
TORSDOF 13
ENDMDL
