MODEL 1
REMARK VINA RESULT:     -13.8      0.000      0.000
REMARK SMILES O=C(CC1(NC(=O)C2(c3ccccc3)CC2)CCC1)NCCCNC(=O)c1ccc(-c2c3nc(c(-c4c(F)c(F)c(F)c(F)c4F)c4ccc([nH]4)c(-c4c(F)c(F)c(F)c(F)c4F)c4nc(c(-c5c(F)c(F)c(F)c(F)c5F)c5ccc2[nH]5)C=C4)C=C3)cc1
REMARK SMILES IDX 21 1 20 2 1 3 2 4 3 6 4 7 17 8 19 9 18 10 5 11 6 12 7 14
REMARK SMILES IDX 8 15 15 16 16 17 9 18 10 19 14 20 11 21 13 22 12 23 22 24
REMARK SMILES IDX 23 25 24 26 25 27 26 29 27 30 28 31 89 32 29 33 88 34 30 35
REMARK SMILES IDX 31 36 32 37 82 38 33 39 87 40 81 41 83 42 34 43 86 44 80 45
REMARK SMILES IDX 79 46 35 48 67 49 47 50 66 51 48 52 51 53 65 54 84 55 49 56
REMARK SMILES IDX 50 57 64 59 85 60 52 61 36 62 37 63 45 64 38 65 39 66 43 67
REMARK SMILES IDX 46 68 40 69 41 70 44 71 42 72 68 73 69 74 77 75 70 76 71 77
REMARK SMILES IDX 75 78 78 79 72 80 73 81 76 82 74 83 53 84 54 85 62 86 55 87
REMARK SMILES IDX 56 88 60 89 63 90 57 91 58 92 61 93 59 94
REMARK H PARENT 20 5 5 13 24 28 83 47 51 58
REMARK Flexibility Score: inf
ROOT
ATOM      1  C   UNL A   1      31.984  30.399  26.873  1.00  0.00     0.117 C 
ENDROOT
BRANCH   1   2
ATOM      2  N   UNL A   1      32.415  29.854  25.587  1.00  0.00    -0.356 N 
ATOM      3  O   UNL A   1      34.341  29.472  26.347  1.00  0.00    -0.275 OA
ATOM      4  C   UNL A   1      33.566  28.908  25.503  1.00  0.00     0.222 C 
ATOM      5  H   UNL A   1      31.940  30.115  24.766  1.00  0.00     0.163 HD
BRANCH   4   6
ATOM      6  C   UNL A   1      33.852  27.105  24.293  1.00  0.00     0.128 C 
BRANCH   6   7
ATOM      7  C   UNL A   1      33.483  25.369  24.560  1.00  0.00     0.049 C 
ATOM      8  C   UNL A   1      34.790  24.567  24.149  1.00  0.00     0.029 C 
ATOM      9  C   UNL A   1      33.671  24.737  26.001  1.00  0.00     0.029 C 
ATOM     10  C   UNL A   1      34.886  23.945  25.539  1.00  0.00     0.005 C 
BRANCH   7  11
ATOM     11  N   UNL A   1      32.331  24.688  23.834  1.00  0.00    -0.349 N 
ATOM     12  C   UNL A   1      30.963  24.814  23.810  1.00  0.00     0.231 C 
ATOM     13  H   UNL A   1      32.645  23.977  23.230  1.00  0.00     0.164 HD
ATOM     14  O   UNL A   1      30.296  24.008  23.166  1.00  0.00    -0.274 OA
BRANCH  12  15
ATOM     15  C   UNL A   1      30.308  25.929  24.556  1.00  0.00     0.074 C 
ATOM     16  C   UNL A   1      29.646  25.559  25.877  1.00  0.00     0.023 C 
ATOM     17  C   UNL A   1      30.869  26.421  25.878  1.00  0.00     0.023 C 
BRANCH  15  18
ATOM     18  C   UNL A   1      29.680  26.934  23.650  1.00  0.00    -0.032 A 
ATOM     19  C   UNL A   1      30.695  28.153  22.797  1.00  0.00     0.005 A 
ATOM     20  C   UNL A   1      27.861  27.193  23.778  1.00  0.00     0.005 A 
ATOM     21  C   UNL A   1      29.951  29.681  22.223  1.00  0.00     0.000 A 
ATOM     22  C   UNL A   1      27.132  28.684  23.076  1.00  0.00     0.000 A 
ATOM     23  C   UNL A   1      28.169  29.925  22.314  1.00  0.00     0.000 A 
ENDBRANCH  15  18
ENDBRANCH  12  15
ENDBRANCH   7  11
ENDBRANCH   6   7
ENDBRANCH   4   6
ENDBRANCH   1   2
BRANCH   1  24
ATOM     24  C   UNL A   1      31.694  31.895  26.841  1.00  0.00     0.042 C 
BRANCH  24  25
ATOM     25  C   UNL A   1      32.823  32.824  27.282  1.00  0.00     0.118 C 
BRANCH  25  26
ATOM     26  N   UNL A   1      32.416  34.171  27.646  1.00  0.00    -0.352 N 
ATOM     27  C   UNL A   1      32.993  35.027  28.561  1.00  0.00     0.251 C 
ATOM     28  H   UNL A   1      31.623  34.519  27.177  1.00  0.00     0.163 HD
ATOM     29  O   UNL A   1      32.512  36.136  28.768  1.00  0.00    -0.269 OA
BRANCH  27  30
ATOM     30  C   UNL A   1      34.167  34.579  29.348  1.00  0.00     0.039 A 
ATOM     31  C   UNL A   1      33.954  34.063  30.630  1.00  0.00     0.014 A 
ATOM     32  C   UNL A   1      35.456  34.604  28.811  1.00  0.00     0.014 A 
ATOM     33  C   UNL A   1      35.013  33.473  31.325  1.00  0.00     0.010 A 
ATOM     34  C   UNL A   1      36.497  33.953  29.477  1.00  0.00     0.010 A 
ATOM     35  C   UNL A   1      36.280  33.356  30.729  1.00  0.00    -0.014 A 
BRANCH  35  36
ATOM     36  C   UNL A   1      37.363  32.557  31.368  1.00  0.00     0.031 A 
ATOM     37  C   UNL A   1      37.886  32.917  32.730  1.00  0.00     0.074 A 
ATOM     38  C   UNL A   1      37.937  31.547  30.681  1.00  0.00     0.049 A 
ATOM     39  N   UNL A   1      38.883  32.394  33.400  1.00  0.00    -0.248 NA
ATOM     40  C   UNL A   1      37.210  34.022  33.424  1.00  0.00     0.031 C 
ATOM     41  C   UNL A   1      37.552  31.114  29.337  1.00  0.00     0.029 A 
ATOM     42  N   UNL A   1      38.976  30.710  31.011  1.00  0.00    -0.354 N 
ATOM     43  C   UNL A   1      38.961  33.110  34.586  1.00  0.00     0.074 A 
ATOM     44  C   UNL A   1      37.941  34.135  34.525  1.00  0.00     0.031 C 
ATOM     45  C   UNL A   1      38.331  30.087  28.964  1.00  0.00     0.029 A 
ATOM     46  C   UNL A   1      39.305  29.818  30.019  1.00  0.00     0.049 A 
ATOM     47  H   UNL A   1      39.443  30.748  31.878  1.00  0.00     0.167 HD
ATOM     48  C   UNL A   1      39.795  32.920  35.637  1.00  0.00     0.037 A 
ATOM     49  C   UNL A   1      40.290  28.902  29.952  1.00  0.00     0.037 A 
ATOM     50  C   UNL A   1      40.807  31.895  35.702  1.00  0.00     0.049 A 
ATOM     51  C   UNL A   1      41.232  28.741  31.114  1.00  0.00     0.074 A 
ATOM     52  C   UNL A   1      41.660  31.592  36.749  1.00  0.00     0.029 A 
ATOM     53  N   UNL A   1      41.109  31.014  34.675  1.00  0.00    -0.354 N 
ATOM     54  N   UNL A   1      41.250  29.380  32.259  1.00  0.00    -0.248 NA
ATOM     55  C   UNL A   1      42.293  27.733  30.975  1.00  0.00     0.031 C 
ATOM     56  C   UNL A   1      42.520  30.571  36.334  1.00  0.00     0.029 A 
ATOM     57  C   UNL A   1      42.160  30.190  35.051  1.00  0.00     0.049 A 
ATOM     58  H   UNL A   1      40.647  30.977  33.807  1.00  0.00     0.167 HD
ATOM     59  C   UNL A   1      42.300  28.831  32.986  1.00  0.00     0.074 A 
ATOM     60  C   UNL A   1      42.885  27.798  32.160  1.00  0.00     0.031 C 
ATOM     61  C   UNL A   1      42.735  29.158  34.227  1.00  0.00     0.037 A 
BRANCH  48  62
ATOM     62  C   UNL A   1      39.659  33.848  36.812  1.00  0.00     0.064 A 
ATOM     63  C   UNL A   1      40.279  35.107  36.832  1.00  0.00     0.173 A 
ATOM     64  C   UNL A   1      38.859  33.496  37.909  1.00  0.00     0.173 A 
ATOM     65  F   UNL A   1      41.060  35.493  35.811  1.00  0.00    -0.203 F 
ATOM     66  C   UNL A   1      40.128  35.965  37.919  1.00  0.00     0.198 A 
ATOM     67  C   UNL A   1      38.683  34.368  38.980  1.00  0.00     0.198 A 
ATOM     68  F   UNL A   1      38.234  32.309  37.938  1.00  0.00    -0.203 F 
ATOM     69  F   UNL A   1      40.768  37.141  37.937  1.00  0.00    -0.200 F 
ATOM     70  C   UNL A   1      39.324  35.598  38.988  1.00  0.00     0.200 A 
ATOM     71  F   UNL A   1      37.891  34.019  40.003  1.00  0.00    -0.200 F 
ATOM     72  F   UNL A   1      39.170  36.428  40.028  1.00  0.00    -0.200 F 
ENDBRANCH  48  62
BRANCH  49  73
ATOM     73  C   UNL A   1      40.440  28.057  28.736  1.00  0.00     0.064 A 
ATOM     74  C   UNL A   1      41.211  28.488  27.648  1.00  0.00     0.173 A 
ATOM     75  C   UNL A   1      39.804  26.811  28.629  1.00  0.00     0.173 A 
ATOM     76  F   UNL A   1      41.819  29.683  27.691  1.00  0.00    -0.203 F 
ATOM     77  C   UNL A   1      41.322  27.718  26.491  1.00  0.00     0.198 A 
ATOM     78  C   UNL A   1      39.943  26.026  27.486  1.00  0.00     0.198 A 
ATOM     79  F   UNL A   1      39.055  26.349  29.641  1.00  0.00    -0.203 F 
ATOM     80  F   UNL A   1      42.023  28.179  25.447  1.00  0.00    -0.200 F 
ATOM     81  C   UNL A   1      40.693  26.485  26.414  1.00  0.00     0.200 A 
ATOM     82  F   UNL A   1      39.345  24.829  27.422  1.00  0.00    -0.200 F 
ATOM     83  F   UNL A   1      40.803  25.742  25.304  1.00  0.00    -0.200 F 
ENDBRANCH  49  73
BRANCH  61  84
ATOM     84  C   UNL A   1      43.882  28.367  34.791  1.00  0.00     0.064 A 
ATOM     85  C   UNL A   1      45.212  28.798  34.663  1.00  0.00     0.173 A 
ATOM     86  C   UNL A   1      43.643  27.187  35.512  1.00  0.00     0.173 A 
ATOM     87  F   UNL A   1      45.497  29.911  33.970  1.00  0.00    -0.203 F 
ATOM     88  C   UNL A   1      46.258  28.065  35.216  1.00  0.00     0.198 A 
ATOM     89  C   UNL A   1      44.690  26.475  36.093  1.00  0.00     0.198 A 
ATOM     90  F   UNL A   1      42.391  26.732  35.669  1.00  0.00    -0.203 F 
ATOM     91  F   UNL A   1      47.524  28.472  35.042  1.00  0.00    -0.200 F 
ATOM     92  C   UNL A   1      45.996  26.911  35.939  1.00  0.00     0.200 A 
ATOM     93  F   UNL A   1      44.433  25.368  36.803  1.00  0.00    -0.200 F 
ATOM     94  F   UNL A   1      47.005  26.215  36.482  1.00  0.00    -0.200 F 
ENDBRANCH  61  84
ENDBRANCH  35  36
ENDBRANCH  27  30
ENDBRANCH  25  26
ENDBRANCH  24  25
ENDBRANCH   1  24
TORSDOF 14
ENDMDL
MODEL 2
REMARK VINA RESULT:     -13.8      0.407      7.310
REMARK SMILES O=C(CC1(NC(=O)C2(c3ccccc3)CC2)CCC1)NCCCNC(=O)c1ccc(-c2c3nc(c(-c4c(F)c(F)c(F)c(F)c4F)c4ccc([nH]4)c(-c4c(F)c(F)c(F)c(F)c4F)c4nc(c(-c5c(F)c(F)c(F)c(F)c5F)c5ccc2[nH]5)C=C4)C=C3)cc1
REMARK SMILES IDX 21 1 20 2 1 3 2 4 3 6 4 7 17 8 19 9 18 10 5 11 6 12 7 14
REMARK SMILES IDX 8 15 15 16 16 17 9 18 10 19 14 20 11 21 13 22 12 23 22 24
REMARK SMILES IDX 23 25 24 26 25 27 26 29 27 30 28 31 89 32 29 33 88 34 30 35
REMARK SMILES IDX 31 36 32 37 82 38 33 39 87 40 81 41 83 42 34 43 86 44 80 45
REMARK SMILES IDX 79 46 35 48 67 49 47 50 66 51 48 52 51 53 65 54 84 55 49 56
REMARK SMILES IDX 50 57 64 59 85 60 52 61 36 62 37 63 45 64 38 65 39 66 43 67
REMARK SMILES IDX 46 68 40 69 41 70 44 71 42 72 68 73 69 74 77 75 70 76 71 77
REMARK SMILES IDX 75 78 78 79 72 80 73 81 76 82 74 83 53 84 54 85 62 86 55 87
REMARK SMILES IDX 56 88 60 89 63 90 57 91 58 92 61 93 59 94
REMARK H PARENT 20 5 5 13 24 28 83 47 51 58
REMARK Flexibility Score: inf
ROOT
ATOM      1  C   UNL A   1      32.161  30.237  26.898  1.00  0.00     0.117 C 
ENDROOT
BRANCH   1   2
ATOM      2  N   UNL A   1      32.669  29.684  25.643  1.00  0.00    -0.356 N 
ATOM      3  O   UNL A   1      34.462  29.098  26.577  1.00  0.00    -0.275 OA
ATOM      4  C   UNL A   1      33.728  28.634  25.641  1.00  0.00     0.222 C 
ATOM      5  H   UNL A   1      32.306  30.010  24.788  1.00  0.00     0.163 HD
BRANCH   4   6
ATOM      6  C   UNL A   1      33.964  26.841  24.406  1.00  0.00     0.128 C 
BRANCH   6   7
ATOM      7  C   UNL A   1      33.550  25.111  24.649  1.00  0.00     0.049 C 
ATOM      8  C   UNL A   1      34.834  24.280  24.222  1.00  0.00     0.029 C 
ATOM      9  C   UNL A   1      33.725  24.454  26.080  1.00  0.00     0.029 C 
ATOM     10  C   UNL A   1      34.918  23.637  25.603  1.00  0.00     0.005 C 
BRANCH   7  11
ATOM     11  N   UNL A   1      32.378  24.472  23.917  1.00  0.00    -0.349 N 
ATOM     12  C   UNL A   1      31.017  24.654  23.878  1.00  0.00     0.231 C 
ATOM     13  H   UNL A   1      32.668  23.743  23.322  1.00  0.00     0.164 HD
ATOM     14  O   UNL A   1      30.323  23.870  23.234  1.00  0.00    -0.274 OA
BRANCH  12  15
ATOM     15  C   UNL A   1      30.400  25.801  24.608  1.00  0.00     0.074 C 
ATOM     16  C   UNL A   1      29.718  25.472  25.930  1.00  0.00     0.023 C 
ATOM     17  C   UNL A   1      30.973  26.287  25.927  1.00  0.00     0.023 C 
BRANCH  15  18
ATOM     18  C   UNL A   1      29.816  26.819  23.688  1.00  0.00    -0.032 A 
ATOM     19  C   UNL A   1      30.875  28.028  22.874  1.00  0.00     0.005 A 
ATOM     20  C   UNL A   1      27.998  27.103  23.758  1.00  0.00     0.005 A 
ATOM     21  C   UNL A   1      30.171  29.569  22.284  1.00  0.00     0.000 A 
ATOM     22  C   UNL A   1      27.312  28.607  23.040  1.00  0.00     0.000 A 
ATOM     23  C   UNL A   1      28.391  29.838  22.318  1.00  0.00     0.000 A 
ENDBRANCH  15  18
ENDBRANCH  12  15
ENDBRANCH   7  11
ENDBRANCH   6   7
ENDBRANCH   4   6
ENDBRANCH   1   2
BRANCH   1  24
ATOM     24  C   UNL A   1      31.833  31.724  26.826  1.00  0.00     0.042 C 
BRANCH  24  25
ATOM     25  C   UNL A   1      32.887  32.688  27.368  1.00  0.00     0.118 C 
BRANCH  25  26
ATOM     26  N   UNL A   1      32.406  34.024  27.683  1.00  0.00    -0.352 N 
ATOM     27  C   UNL A   1      32.953  34.955  28.540  1.00  0.00     0.251 C 
ATOM     28  H   UNL A   1      31.581  34.301  27.222  1.00  0.00     0.163 HD
ATOM     29  O   UNL A   1      32.410  36.041  28.711  1.00  0.00    -0.269 OA
BRANCH  27  30
ATOM     30  C   UNL A   1      34.173  34.617  29.312  1.00  0.00     0.039 A 
ATOM     31  C   UNL A   1      34.029  34.191  30.636  1.00  0.00     0.014 A 
ATOM     32  C   UNL A   1      35.440  34.655  28.725  1.00  0.00     0.014 A 
ATOM     33  C   UNL A   1      35.138  33.699  31.331  1.00  0.00     0.010 A 
ATOM     34  C   UNL A   1      36.532  34.099  29.396  1.00  0.00     0.010 A 
ATOM     35  C   UNL A   1      36.386  33.590  30.697  1.00  0.00    -0.014 A 
BRANCH  35  36
ATOM     36  C   UNL A   1      37.526  32.887  31.349  1.00  0.00     0.031 A 
ATOM     37  C   UNL A   1      38.170  31.694  30.700  1.00  0.00     0.074 A 
ATOM     38  C   UNL A   1      37.933  33.278  32.575  1.00  0.00     0.049 A 
ATOM     39  N   UNL A   1      39.107  30.905  31.163  1.00  0.00    -0.248 NA
ATOM     40  C   UNL A   1      37.681  31.329  29.363  1.00  0.00     0.031 C 
ATOM     41  C   UNL A   1      37.373  34.396  33.334  1.00  0.00     0.029 A 
ATOM     42  N   UNL A   1      38.903  32.769  33.406  1.00  0.00    -0.354 N 
ATOM     43  C   UNL A   1      39.315  29.946  30.180  1.00  0.00     0.074 A 
ATOM     44  C   UNL A   1      38.373  30.224  29.117  1.00  0.00     0.031 C 
ATOM     45  C   UNL A   1      38.016  34.498  34.508  1.00  0.00     0.029 A 
ATOM     46  C   UNL A   1      38.999  33.424  34.610  1.00  0.00     0.049 A 
ATOM     47  H   UNL A   1      39.474  32.004  33.161  1.00  0.00     0.167 HD
ATOM     48  C   UNL A   1      40.219  28.937  30.159  1.00  0.00     0.037 A 
ATOM     49  C   UNL A   1      39.772  33.178  35.685  1.00  0.00     0.037 A 
ATOM     50  C   UNL A   1      41.163  28.664  31.214  1.00  0.00     0.049 A 
ATOM     51  C   UNL A   1      40.737  32.023  35.654  1.00  0.00     0.074 A 
ATOM     52  C   UNL A   1      42.154  27.698  31.256  1.00  0.00     0.029 A 
ATOM     53  N   UNL A   1      41.225  29.349  32.419  1.00  0.00    -0.354 N 
ATOM     54  N   UNL A   1      40.971  31.166  34.690  1.00  0.00    -0.248 NA
ATOM     55  C   UNL A   1      41.544  31.800  36.862  1.00  0.00     0.031 C 
ATOM     56  C   UNL A   1      42.774  27.757  32.507  1.00  0.00     0.029 A 
ATOM     57  C   UNL A   1      42.215  28.803  33.223  1.00  0.00     0.049 A 
ATOM     58  H   UNL A   1      40.653  30.110  32.667  1.00  0.00     0.167 HD
ATOM     59  C   UNL A   1      41.971  30.324  35.162  1.00  0.00     0.074 A 
ATOM     60  C   UNL A   1      42.310  30.782  36.492  1.00  0.00     0.031 C 
ATOM     61  C   UNL A   1      42.554  29.268  34.545  1.00  0.00     0.037 A 
BRANCH  48  62
ATOM     62  C   UNL A   1      40.233  28.038  28.955  1.00  0.00     0.064 A 
ATOM     63  C   UNL A   1      40.963  28.362  27.801  1.00  0.00     0.173 A 
ATOM     64  C   UNL A   1      39.549  26.812  28.973  1.00  0.00     0.173 A 
ATOM     65  F   UNL A   1      41.630  29.524  27.728  1.00  0.00    -0.203 F 
ATOM     66  C   UNL A   1      40.983  27.509  26.700  1.00  0.00     0.198 A 
ATOM     67  C   UNL A   1      39.598  25.946  27.884  1.00  0.00     0.198 A 
ATOM     68  F   UNL A   1      38.845  26.447  30.055  1.00  0.00    -0.203 F 
ATOM     69  F   UNL A   1      41.647  27.863  25.592  1.00  0.00    -0.200 F 
ATOM     70  C   UNL A   1      40.307  26.299  26.746  1.00  0.00     0.200 A 
ATOM     71  F   UNL A   1      38.959  24.769  27.938  1.00  0.00    -0.200 F 
ATOM     72  F   UNL A   1      40.335  25.473  25.691  1.00  0.00    -0.200 F 
ENDBRANCH  48  62
BRANCH  49  73
ATOM     73  C   UNL A   1      39.671  34.045  36.890  1.00  0.00     0.064 A 
ATOM     74  C   UNL A   1      38.869  33.676  37.979  1.00  0.00     0.173 A 
ATOM     75  C   UNL A   1      40.358  35.266  36.972  1.00  0.00     0.173 A 
ATOM     76  F   UNL A   1      38.172  32.531  37.939  1.00  0.00    -0.203 F 
ATOM     77  C   UNL A   1      38.740  34.504  39.093  1.00  0.00     0.198 A 
ATOM     78  C   UNL A   1      40.255  36.077  38.101  1.00  0.00     0.198 A 
ATOM     79  F   UNL A   1      41.141  35.666  35.959  1.00  0.00    -0.203 F 
ATOM     80  F   UNL A   1      37.926  34.151  40.096  1.00  0.00    -0.200 F 
ATOM     81  C   UNL A   1      39.438  35.700  39.155  1.00  0.00     0.200 A 
ATOM     82  F   UNL A   1      40.943  37.225  38.162  1.00  0.00    -0.200 F 
ATOM     83  F   UNL A   1      39.317  36.494  40.228  1.00  0.00    -0.200 F 
ENDBRANCH  49  73
BRANCH  61  84
ATOM     84  C   UNL A   1      43.648  28.549  35.282  1.00  0.00     0.064 A 
ATOM     85  C   UNL A   1      44.999  28.894  35.122  1.00  0.00     0.173 A 
ATOM     86  C   UNL A   1      43.336  27.533  36.200  1.00  0.00     0.173 A 
ATOM     87  F   UNL A   1      45.353  29.845  34.245  1.00  0.00    -0.203 F 
ATOM     88  C   UNL A   1      45.996  28.233  35.835  1.00  0.00     0.198 A 
ATOM     89  C   UNL A   1      44.333  26.899  36.937  1.00  0.00     0.198 A 
ATOM     90  F   UNL A   1      42.061  27.168  36.397  1.00  0.00    -0.203 F 
ATOM     91  F   UNL A   1      47.283  28.548  35.632  1.00  0.00    -0.200 F 
ATOM     92  C   UNL A   1      45.662  27.245  36.749  1.00  0.00     0.200 A 
ATOM     93  F   UNL A   1      44.007  25.955  37.830  1.00  0.00    -0.200 F 
ATOM     94  F   UNL A   1      46.623  26.621  37.444  1.00  0.00    -0.200 F 
ENDBRANCH  61  84
ENDBRANCH  35  36
ENDBRANCH  27  30
ENDBRANCH  25  26
ENDBRANCH  24  25
ENDBRANCH   1  24
TORSDOF 14
ENDMDL
MODEL 3
REMARK VINA RESULT:     -13.5      1.199      7.977
REMARK SMILES O=C(CC1(NC(=O)C2(c3ccccc3)CC2)CCC1)NCCCNC(=O)c1ccc(-c2c3nc(c(-c4c(F)c(F)c(F)c(F)c4F)c4ccc([nH]4)c(-c4c(F)c(F)c(F)c(F)c4F)c4nc(c(-c5c(F)c(F)c(F)c(F)c5F)c5ccc2[nH]5)C=C4)C=C3)cc1
REMARK SMILES IDX 21 1 20 2 1 3 2 4 3 6 4 7 17 8 19 9 18 10 5 11 6 12 7 14
REMARK SMILES IDX 8 15 15 16 16 17 9 18 10 19 14 20 11 21 13 22 12 23 22 24
REMARK SMILES IDX 23 25 24 26 25 27 26 29 27 30 28 31 89 32 29 33 88 34 30 35
REMARK SMILES IDX 31 36 32 37 82 38 33 39 87 40 81 41 83 42 34 43 86 44 80 45
REMARK SMILES IDX 79 46 35 48 67 49 47 50 66 51 48 52 51 53 65 54 84 55 49 56
REMARK SMILES IDX 50 57 64 59 85 60 52 61 36 62 37 63 45 64 38 65 39 66 43 67
REMARK SMILES IDX 46 68 40 69 41 70 44 71 42 72 68 73 69 74 77 75 70 76 71 77
REMARK SMILES IDX 75 78 78 79 72 80 73 81 76 82 74 83 53 84 54 85 62 86 55 87
REMARK SMILES IDX 56 88 60 89 63 90 57 91 58 92 61 93 59 94
REMARK H PARENT 20 5 5 13 24 28 83 47 51 58
REMARK Flexibility Score: inf
ROOT
ATOM      1  C   UNL A   1      32.343  30.109  27.211  1.00  0.00     0.117 C 
ENDROOT
BRANCH   1   2
ATOM      2  N   UNL A   1      32.276  29.240  26.037  1.00  0.00    -0.356 N 
ATOM      3  O   UNL A   1      34.238  28.556  26.378  1.00  0.00    -0.275 OA
ATOM      4  C   UNL A   1      33.162  28.046  25.916  1.00  0.00     0.222 C 
ATOM      5  H   UNL A   1      31.637  29.446  25.318  1.00  0.00     0.163 HD
BRANCH   4   6
ATOM      6  C   UNL A   1      32.754  26.030  25.165  1.00  0.00     0.128 C 
BRANCH   6   7
ATOM      7  C   UNL A   1      31.245  25.093  24.901  1.00  0.00     0.049 C 
ATOM      8  C   UNL A   1      30.097  25.868  25.676  1.00  0.00     0.029 C 
ATOM      9  C   UNL A   1      30.386  25.336  23.592  1.00  0.00     0.029 C 
ATOM     10  C   UNL A   1      29.288  26.023  24.392  1.00  0.00     0.005 C 
BRANCH   7  11
ATOM     11  N   UNL A   1      31.135  23.638  25.338  1.00  0.00    -0.349 N 
ATOM     12  C   UNL A   1      31.713  22.447  24.971  1.00  0.00     0.231 C 
ATOM     13  H   UNL A   1      30.485  23.522  26.069  1.00  0.00     0.164 HD
ATOM     14  O   UNL A   1      31.309  21.402  25.476  1.00  0.00    -0.274 OA
BRANCH  12  15
ATOM     15  C   UNL A   1      32.823  22.438  23.974  1.00  0.00     0.074 C 
ATOM     16  C   UNL A   1      32.526  21.763  22.640  1.00  0.00     0.023 C 
ATOM     17  C   UNL A   1      32.729  23.245  22.691  1.00  0.00     0.023 C 
BRANCH  15  18
ATOM     18  C   UNL A   1      34.165  22.299  24.610  1.00  0.00    -0.032 A 
ATOM     19  C   UNL A   1      35.230  23.737  24.816  1.00  0.00     0.005 A 
ATOM     20  C   UNL A   1      34.880  20.608  24.754  1.00  0.00     0.005 A 
ATOM     21  C   UNL A   1      37.000  23.511  24.999  1.00  0.00     0.000 A 
ATOM     22  C   UNL A   1      36.645  20.422  25.065  1.00  0.00     0.000 A 
ATOM     23  C   UNL A   1      37.701  21.862  25.176  1.00  0.00     0.000 A 
ENDBRANCH  15  18
ENDBRANCH  12  15
ENDBRANCH   7  11
ENDBRANCH   6   7
ENDBRANCH   4   6
ENDBRANCH   1   2
BRANCH   1  24
ATOM     24  C   UNL A   1      32.003  31.566  26.918  1.00  0.00     0.042 C 
BRANCH  24  25
ATOM     25  C   UNL A   1      33.043  32.609  27.318  1.00  0.00     0.118 C 
BRANCH  25  26
ATOM     26  N   UNL A   1      32.513  33.919  27.660  1.00  0.00    -0.352 N 
ATOM     27  C   UNL A   1      33.010  34.842  28.556  1.00  0.00     0.251 C 
ATOM     28  H   UNL A   1      31.690  34.183  27.188  1.00  0.00     0.163 HD
ATOM     29  O   UNL A   1      32.428  35.905  28.744  1.00  0.00    -0.269 OA
BRANCH  27  30
ATOM     30  C   UNL A   1      34.223  34.520  29.346  1.00  0.00     0.039 A 
ATOM     31  C   UNL A   1      34.063  34.056  30.655  1.00  0.00     0.014 A 
ATOM     32  C   UNL A   1      35.500  34.612  28.789  1.00  0.00     0.014 A 
ATOM     33  C   UNL A   1      35.170  33.579  31.362  1.00  0.00     0.010 A 
ATOM     34  C   UNL A   1      36.594  34.071  29.470  1.00  0.00     0.010 A 
ATOM     35  C   UNL A   1      36.435  33.524  30.754  1.00  0.00    -0.014 A 
BRANCH  35  36
ATOM     36  C   UNL A   1      37.581  32.839  31.414  1.00  0.00     0.031 A 
ATOM     37  C   UNL A   1      38.234  31.643  30.779  1.00  0.00     0.074 A 
ATOM     38  C   UNL A   1      37.986  33.248  32.635  1.00  0.00     0.049 A 
ATOM     39  N   UNL A   1      39.179  30.868  31.250  1.00  0.00    -0.248 NA
ATOM     40  C   UNL A   1      37.748  31.257  29.447  1.00  0.00     0.031 C 
ATOM     41  C   UNL A   1      37.418  34.371  33.380  1.00  0.00     0.029 A 
ATOM     42  N   UNL A   1      38.961  32.757  33.471  1.00  0.00    -0.354 N 
ATOM     43  C   UNL A   1      39.393  29.899  30.279  1.00  0.00     0.074 A 
ATOM     44  C   UNL A   1      38.448  30.156  29.213  1.00  0.00     0.031 C 
ATOM     45  C   UNL A   1      38.060  34.492  34.552  1.00  0.00     0.029 A 
ATOM     46  C   UNL A   1      39.053  33.427  34.667  1.00  0.00     0.049 A 
ATOM     47  H   UNL A   1      39.538  31.994  33.235  1.00  0.00     0.167 HD
ATOM     48  C   UNL A   1      40.306  28.897  30.270  1.00  0.00     0.037 A 
ATOM     49  C   UNL A   1      39.829  33.201  35.744  1.00  0.00     0.037 A 
ATOM     50  C   UNL A   1      41.253  28.644  31.327  1.00  0.00     0.049 A 
ATOM     51  C   UNL A   1      40.803  32.054  35.726  1.00  0.00     0.074 A 
ATOM     52  C   UNL A   1      42.252  27.687  31.379  1.00  0.00     0.029 A 
ATOM     53  N   UNL A   1      41.311  29.344  32.523  1.00  0.00    -0.354 N 
ATOM     54  N   UNL A   1      41.044  31.186  34.772  1.00  0.00    -0.248 NA
ATOM     55  C   UNL A   1      41.613  31.851  36.936  1.00  0.00     0.031 C 
ATOM     56  C   UNL A   1      42.873  27.766  32.630  1.00  0.00     0.029 A 
ATOM     57  C   UNL A   1      42.306  28.817  33.333  1.00  0.00     0.049 A 
ATOM     58  H   UNL A   1      40.733  30.104  32.762  1.00  0.00     0.167 HD
ATOM     59  C   UNL A   1      42.051  30.359  35.254  1.00  0.00     0.074 A 
ATOM     60  C   UNL A   1      42.387  30.836  36.578  1.00  0.00     0.031 C 
ATOM     61  C   UNL A   1      42.642  29.300  34.648  1.00  0.00     0.037 A 
BRANCH  48  62
ATOM     62  C   UNL A   1      40.326  27.983  29.077  1.00  0.00     0.064 A 
ATOM     63  C   UNL A   1      39.582  26.793  29.047  1.00  0.00     0.173 A 
ATOM     64  C   UNL A   1      41.058  28.325  27.929  1.00  0.00     0.173 A 
ATOM     65  F   UNL A   1      38.869  26.415  30.119  1.00  0.00    -0.203 F 
ATOM     66  C   UNL A   1      39.595  25.966  27.926  1.00  0.00     0.198 A 
ATOM     67  C   UNL A   1      41.042  27.513  26.798  1.00  0.00     0.198 A 
ATOM     68  F   UNL A   1      41.778  29.457  27.898  1.00  0.00    -0.203 F 
ATOM     69  F   UNL A   1      38.915  24.811  27.940  1.00  0.00    -0.200 F 
ATOM     70  C   UNL A   1      40.318  26.331  26.801  1.00  0.00     0.200 A 
ATOM     71  F   UNL A   1      41.727  27.877  25.705  1.00  0.00    -0.200 F 
ATOM     72  F   UNL A   1      40.321  25.540  25.719  1.00  0.00    -0.200 F 
ENDBRANCH  48  62
BRANCH  49  73
ATOM     73  C   UNL A   1      39.722  34.082  36.938  1.00  0.00     0.064 A 
ATOM     74  C   UNL A   1      38.922  33.720  38.031  1.00  0.00     0.173 A 
ATOM     75  C   UNL A   1      40.400  35.308  37.006  1.00  0.00     0.173 A 
ATOM     76  F   UNL A   1      38.233  32.570  38.005  1.00  0.00    -0.203 F 
ATOM     77  C   UNL A   1      38.787  34.560  39.136  1.00  0.00     0.198 A 
ATOM     78  C   UNL A   1      40.292  36.132  38.124  1.00  0.00     0.198 A 
ATOM     79  F   UNL A   1      41.180  35.701  35.988  1.00  0.00    -0.203 F 
ATOM     80  F   UNL A   1      37.975  34.214  40.143  1.00  0.00    -0.200 F 
ATOM     81  C   UNL A   1      39.477  35.763  39.183  1.00  0.00     0.200 A 
ATOM     82  F   UNL A   1      40.972  37.285  38.172  1.00  0.00    -0.200 F 
ATOM     83  F   UNL A   1      39.351  36.569  40.246  1.00  0.00    -0.200 F 
ENDBRANCH  49  73
BRANCH  61  84
ATOM     84  C   UNL A   1      43.742  28.599  35.394  1.00  0.00     0.064 A 
ATOM     85  C   UNL A   1      45.090  28.952  35.226  1.00  0.00     0.173 A 
ATOM     86  C   UNL A   1      43.440  27.594  36.325  1.00  0.00     0.173 A 
ATOM     87  F   UNL A   1      45.436  29.894  34.337  1.00  0.00    -0.203 F 
ATOM     88  C   UNL A   1      46.093  28.308  35.947  1.00  0.00     0.198 A 
ATOM     89  C   UNL A   1      44.443  26.977  37.069  1.00  0.00     0.198 A 
ATOM     90  F   UNL A   1      42.167  27.222  36.529  1.00  0.00    -0.203 F 
ATOM     91  F   UNL A   1      47.378  28.630  35.737  1.00  0.00    -0.200 F 
ATOM     92  C   UNL A   1      45.768  27.330  36.874  1.00  0.00     0.200 A 
ATOM     93  F   UNL A   1      44.125  26.042  37.975  1.00  0.00    -0.200 F 
ATOM     94  F   UNL A   1      46.735  26.723  37.576  1.00  0.00    -0.200 F 
ENDBRANCH  61  84
ENDBRANCH  35  36
ENDBRANCH  27  30
ENDBRANCH  25  26
ENDBRANCH  24  25
ENDBRANCH   1  24
TORSDOF 14
ENDMDL
