MODEL 1
REMARK VINA RESULT:     -13.0      0.000      0.000
REMARK SMILES O=C(N[C@@H]1C=C[C@@H](C(=O)NCCCNC(=O)c2ccc(-c3c4nc(c(-c5c(F)c(F)c(F)c(F)c5F)c5ccc([nH]5)c(-c5c(F)c(F)c(F)c(F)c5F)c5nc(c(-c6c(F)c(F)c(F)c(F)c6F)c6ccc3[nH]6)C=C5)C=C4)cc2)C1)Oc1ccccc1
REMARK SMILES IDX 11 1 10 2 8 3 9 4 7 6 4 7 5 8 80 9 6 10 3 11 1 12 2 13 81 15
REMARK SMILES IDX 82 16 83 17 87 18 84 19 86 20 85 21 12 22 13 23 14 24 15 25
REMARK SMILES IDX 16 27 17 28 18 29 79 30 19 31 78 32 20 33 21 34 22 35 72 36
REMARK SMILES IDX 23 37 77 38 71 39 73 40 24 41 76 42 70 43 69 44 25 46 57 47
REMARK SMILES IDX 37 48 56 49 38 50 41 51 55 52 74 53 39 54 40 55 54 57 75 58
REMARK SMILES IDX 42 59 26 60 27 61 35 62 28 63 29 64 33 65 36 66 30 67 31 68
REMARK SMILES IDX 34 69 32 70 58 71 59 72 67 73 60 74 61 75 65 76 68 77 62 78
REMARK SMILES IDX 63 79 66 80 64 81 43 82 44 83 52 84 45 85 46 86 50 87 53 88
REMARK SMILES IDX 47 89 48 90 51 91 49 92
REMARK H PARENT 10 5 3 14 14 26 73 45 41 56
REMARK Flexibility Score: inf
ROOT
ATOM      1  C   UNL A   1      31.890  30.679  26.656  1.00  0.00     0.117 C 
ENDROOT
BRANCH   1   2
ATOM      2  N   UNL A   1      31.679  30.193  25.298  1.00  0.00    -0.356 N 
ATOM      3  C   UNL A   1      31.439  28.952  24.776  1.00  0.00     0.227 C 
ATOM      4  O   UNL A   1      31.398  28.867  23.545  1.00  0.00    -0.274 OA
ATOM      5  H   UNL A   1      31.718  30.903  24.617  1.00  0.00     0.163 HD
BRANCH   3   6
ATOM      6  C   UNL A   1      31.188  27.707  25.642  1.00  0.00     0.103 C 
ATOM      7  C   UNL A   1      31.125  25.270  25.205  1.00  0.00     0.109 C 
ATOM      8  C   UNL A   1      32.472  25.802  25.407  1.00  0.00    -0.006 C 
ATOM      9  C   UNL A   1      30.345  26.591  24.990  1.00  0.00     0.047 C 
ATOM     10  C   UNL A   1      32.507  27.057  25.857  1.00  0.00    -0.016 C 
BRANCH   7  11
ATOM     11  N   UNL A   1      30.724  24.543  26.400  1.00  0.00    -0.315 N 
ATOM     12  O   UNL A   1      29.737  22.979  27.642  1.00  0.00    -0.224 OA
ATOM     13  C   UNL A   1      30.476  23.221  26.684  1.00  0.00     0.413 C 
ATOM     14  H   UNL A   1      30.603  25.131  27.180  1.00  0.00     0.167 HD
BRANCH  13  15
ATOM     15  O   UNL A   1      31.005  22.126  25.931  1.00  0.00    -0.410 OA
BRANCH  15  16
ATOM     16  C   UNL A   1      32.236  21.564  25.434  1.00  0.00     0.132 A 
ATOM     17  C   UNL A   1      33.413  22.250  25.739  1.00  0.00     0.047 A 
ATOM     18  C   UNL A   1      32.256  20.332  24.779  1.00  0.00     0.047 A 
ATOM     19  C   UNL A   1      34.640  21.623  25.510  1.00  0.00     0.004 A 
ATOM     20  C   UNL A   1      33.492  19.707  24.566  1.00  0.00     0.004 A 
ATOM     21  C   UNL A   1      34.678  20.340  24.955  1.00  0.00     0.000 A 
ENDBRANCH  15  16
ENDBRANCH  13  15
ENDBRANCH   7  11
ENDBRANCH   3   6
ENDBRANCH   1   2
BRANCH   1  22
ATOM     22  C   UNL A   1      31.638  32.167  26.762  1.00  0.00     0.042 C 
BRANCH  22  23
ATOM     23  C   UNL A   1      32.831  32.874  27.367  1.00  0.00     0.118 C 
BRANCH  23  24
ATOM     24  N   UNL A   1      32.532  34.263  27.692  1.00  0.00    -0.352 N 
ATOM     25  C   UNL A   1      33.043  35.053  28.694  1.00  0.00     0.251 C 
ATOM     26  H   UNL A   1      31.866  34.698  27.111  1.00  0.00     0.163 HD
ATOM     27  O   UNL A   1      32.532  36.131  28.953  1.00  0.00    -0.269 OA
BRANCH  25  28
ATOM     28  C   UNL A   1      34.200  34.564  29.472  1.00  0.00     0.039 A 
ATOM     29  C   UNL A   1      33.976  33.964  30.712  1.00  0.00     0.014 A 
ATOM     30  C   UNL A   1      35.494  34.666  28.959  1.00  0.00     0.014 A 
ATOM     31  C   UNL A   1      35.049  33.402  31.404  1.00  0.00     0.010 A 
ATOM     32  C   UNL A   1      36.538  34.004  29.589  1.00  0.00     0.010 A 
ATOM     33  C   UNL A   1      36.329  33.379  30.826  1.00  0.00    -0.014 A 
BRANCH  33  34
ATOM     34  C   UNL A   1      37.473  32.724  31.505  1.00  0.00     0.031 A 
ATOM     35  C   UNL A   1      38.169  31.565  30.845  1.00  0.00     0.074 A 
ATOM     36  C   UNL A   1      37.837  33.126  32.737  1.00  0.00     0.049 A 
ATOM     37  N   UNL A   1      39.134  30.809  31.303  1.00  0.00    -0.248 NA
ATOM     38  C   UNL A   1      37.696  31.182  29.504  1.00  0.00     0.031 C 
ATOM     39  C   UNL A   1      37.202  34.203  33.500  1.00  0.00     0.029 A 
ATOM     40  N   UNL A   1      38.827  32.669  33.573  1.00  0.00    -0.354 N 
ATOM     41  C   UNL A   1      39.369  29.859  30.319  1.00  0.00     0.074 A 
ATOM     42  C   UNL A   1      38.406  30.089  29.267  1.00  0.00     0.031 C 
ATOM     43  C   UNL A   1      37.836  34.342  34.676  1.00  0.00     0.029 A 
ATOM     44  C   UNL A   1      38.888  33.338  34.771  1.00  0.00     0.049 A 
ATOM     45  H   UNL A   1      39.435  31.932  33.334  1.00  0.00     0.167 HD
ATOM     46  C   UNL A   1      40.323  28.900  30.282  1.00  0.00     0.037 A 
ATOM     47  C   UNL A   1      39.698  33.150  35.831  1.00  0.00     0.037 A 
ATOM     48  C   UNL A   1      41.297  28.696  31.320  1.00  0.00     0.049 A 
ATOM     49  C   UNL A   1      40.743  32.067  35.767  1.00  0.00     0.074 A 
ATOM     50  C   UNL A   1      42.344  27.793  31.353  1.00  0.00     0.029 A 
ATOM     51  N   UNL A   1      41.340  29.404  32.512  1.00  0.00    -0.354 N 
ATOM     52  N   UNL A   1      41.005  31.225  34.798  1.00  0.00    -0.248 NA
ATOM     53  C   UNL A   1      41.608  31.914  36.944  1.00  0.00     0.031 C 
ATOM     54  C   UNL A   1      42.986  27.914  32.589  1.00  0.00     0.029 A 
ATOM     55  C   UNL A   1      42.380  28.938  33.299  1.00  0.00     0.049 A 
ATOM     56  H   UNL A   1      40.723  30.129  32.762  1.00  0.00     0.167 HD
ATOM     57  C   UNL A   1      42.086  30.468  35.231  1.00  0.00     0.074 A 
ATOM     58  C   UNL A   1      42.440  30.962  36.545  1.00  0.00     0.031 C 
ATOM     59  C   UNL A   1      42.726  29.454  34.600  1.00  0.00     0.037 A 
BRANCH  46  60
ATOM     60  C   UNL A   1      40.366  28.003  29.079  1.00  0.00     0.064 A 
ATOM     61  C   UNL A   1      39.641  26.803  29.026  1.00  0.00     0.173 A 
ATOM     62  C   UNL A   1      41.105  28.371  27.944  1.00  0.00     0.173 A 
ATOM     63  F   UNL A   1      38.929  26.397  30.089  1.00  0.00    -0.203 F 
ATOM     64  C   UNL A   1      39.673  25.993  27.894  1.00  0.00     0.198 A 
ATOM     65  C   UNL A   1      41.108  27.576  26.801  1.00  0.00     0.198 A 
ATOM     66  F   UNL A   1      41.815  29.509  27.938  1.00  0.00    -0.203 F 
ATOM     67  F   UNL A   1      39.011  24.828  27.887  1.00  0.00    -0.200 F 
ATOM     68  C   UNL A   1      40.399  26.385  26.779  1.00  0.00     0.200 A 
ATOM     69  F   UNL A   1      41.798  27.964  25.719  1.00  0.00    -0.200 F 
ATOM     70  F   UNL A   1      40.417  25.612  25.685  1.00  0.00    -0.200 F 
ENDBRANCH  46  60
BRANCH  47  71
ATOM     71  C   UNL A   1      39.567  34.013  37.035  1.00  0.00     0.064 A 
ATOM     72  C   UNL A   1      38.807  33.599  38.139  1.00  0.00     0.173 A 
ATOM     73  C   UNL A   1      40.176  35.275  37.101  1.00  0.00     0.173 A 
ATOM     74  F   UNL A   1      38.190  32.408  38.120  1.00  0.00    -0.203 F 
ATOM     75  C   UNL A   1      38.635  34.428  39.246  1.00  0.00     0.198 A 
ATOM     76  C   UNL A   1      40.032  36.088  38.223  1.00  0.00     0.198 A 
ATOM     77  F   UNL A   1      40.921  35.715  36.076  1.00  0.00    -0.203 F 
ATOM     78  F   UNL A   1      37.855  34.032  40.261  1.00  0.00    -0.200 F 
ATOM     79  C   UNL A   1      39.251  35.669  39.289  1.00  0.00     0.200 A 
ATOM     80  F   UNL A   1      40.644  37.278  38.267  1.00  0.00    -0.200 F 
ATOM     81  F   UNL A   1      39.085  36.466  40.354  1.00  0.00    -0.200 F 
ENDBRANCH  47  71
BRANCH  59  82
ATOM     82  C   UNL A   1      43.907  28.842  35.299  1.00  0.00     0.064 A 
ATOM     83  C   UNL A   1      45.210  29.324  35.109  1.00  0.00     0.173 A 
ATOM     84  C   UNL A   1      43.722  27.784  36.203  1.00  0.00     0.173 A 
ATOM     85  F   UNL A   1      45.442  30.323  34.246  1.00  0.00    -0.203 F 
ATOM     86  C   UNL A   1      46.289  28.750  35.777  1.00  0.00     0.198 A 
ATOM     87  C   UNL A   1      44.798  27.238  36.897  1.00  0.00     0.198 A 
ATOM     88  F   UNL A   1      42.495  27.293  36.428  1.00  0.00    -0.203 F 
ATOM     89  F   UNL A   1      47.532  29.191  35.541  1.00  0.00    -0.200 F 
ATOM     90  C   UNL A   1      46.081  27.715  36.676  1.00  0.00     0.200 A 
ATOM     91  F   UNL A   1      44.591  26.250  37.778  1.00  0.00    -0.200 F 
ATOM     92  F   UNL A   1      47.119  27.170  37.326  1.00  0.00    -0.200 F 
ENDBRANCH  59  82
ENDBRANCH  33  34
ENDBRANCH  25  28
ENDBRANCH  23  24
ENDBRANCH  22  23
ENDBRANCH   1  22
TORSDOF 13
ENDMDL
MODEL 2
REMARK VINA RESULT:     -13.0      1.248      2.327
REMARK SMILES O=C(N[C@@H]1C=C[C@@H](C(=O)NCCCNC(=O)c2ccc(-c3c4nc(c(-c5c(F)c(F)c(F)c(F)c5F)c5ccc([nH]5)c(-c5c(F)c(F)c(F)c(F)c5F)c5nc(c(-c6c(F)c(F)c(F)c(F)c6F)c6ccc3[nH]6)C=C5)C=C4)cc2)C1)Oc1ccccc1
REMARK SMILES IDX 11 1 10 2 8 3 9 4 7 6 4 7 5 8 80 9 6 10 3 11 1 12 2 13 81 15
REMARK SMILES IDX 82 16 83 17 87 18 84 19 86 20 85 21 12 22 13 23 14 24 15 25
REMARK SMILES IDX 16 27 17 28 18 29 79 30 19 31 78 32 20 33 21 34 22 35 72 36
REMARK SMILES IDX 23 37 77 38 71 39 73 40 24 41 76 42 70 43 69 44 25 46 57 47
REMARK SMILES IDX 37 48 56 49 38 50 41 51 55 52 74 53 39 54 40 55 54 57 75 58
REMARK SMILES IDX 42 59 26 60 27 61 35 62 28 63 29 64 33 65 36 66 30 67 31 68
REMARK SMILES IDX 34 69 32 70 58 71 59 72 67 73 60 74 61 75 65 76 68 77 62 78
REMARK SMILES IDX 63 79 66 80 64 81 43 82 44 83 52 84 45 85 46 86 50 87 53 88
REMARK SMILES IDX 47 89 48 90 51 91 49 92
REMARK H PARENT 10 5 3 14 14 26 73 45 41 56
REMARK Flexibility Score: inf
ROOT
ATOM      1  C   UNL A   1      31.922  30.774  26.175  1.00  0.00     0.117 C 
ENDROOT
BRANCH   1   2
ATOM      2  N   UNL A   1      31.770  29.640  27.079  1.00  0.00    -0.356 N 
ATOM      3  C   UNL A   1      31.607  28.297  26.876  1.00  0.00     0.227 C 
ATOM      4  O   UNL A   1      31.413  27.605  27.879  1.00  0.00    -0.274 OA
ATOM      5  H   UNL A   1      31.789  29.892  28.031  1.00  0.00     0.163 HD
BRANCH   3   6
ATOM      6  C   UNL A   1      31.693  27.638  25.490  1.00  0.00     0.103 C 
ATOM      7  C   UNL A   1      32.887  25.673  24.571  1.00  0.00     0.109 C 
ATOM      8  C   UNL A   1      31.634  25.342  25.246  1.00  0.00    -0.006 C 
ATOM      9  C   UNL A   1      33.086  27.125  25.072  1.00  0.00     0.047 C 
ATOM     10  C   UNL A   1      30.876  26.397  25.551  1.00  0.00    -0.016 C 
BRANCH   7  11
ATOM     11  N   UNL A   1      32.686  25.574  23.134  1.00  0.00    -0.315 N 
ATOM     12  O   UNL A   1      33.205  25.393  20.975  1.00  0.00    -0.224 OA
ATOM     13  C   UNL A   1      33.345  24.934  22.111  1.00  0.00     0.413 C 
ATOM     14  H   UNL A   1      31.900  26.080  22.824  1.00  0.00     0.167 HD
BRANCH  13  15
ATOM     15  O   UNL A   1      34.188  23.792  22.292  1.00  0.00    -0.410 OA
BRANCH  15  16
ATOM     16  C   UNL A   1      34.888  23.032  23.296  1.00  0.00     0.132 A 
ATOM     17  C   UNL A   1      34.119  22.193  24.105  1.00  0.00     0.047 A 
ATOM     18  C   UNL A   1      36.282  23.047  23.374  1.00  0.00     0.047 A 
ATOM     19  C   UNL A   1      34.765  21.251  24.909  1.00  0.00     0.004 A 
ATOM     20  C   UNL A   1      36.918  22.089  24.175  1.00  0.00     0.004 A 
ATOM     21  C   UNL A   1      36.161  21.177  24.918  1.00  0.00     0.000 A 
ENDBRANCH  15  16
ENDBRANCH  13  15
ENDBRANCH   7  11
ENDBRANCH   3   6
ENDBRANCH   1   2
BRANCH   1  22
ATOM     22  C   UNL A   1      31.538  32.076  26.843  1.00  0.00     0.042 C 
BRANCH  22  23
ATOM     23  C   UNL A   1      32.767  32.823  27.313  1.00  0.00     0.118 C 
BRANCH  23  24
ATOM     24  N   UNL A   1      32.467  34.213  27.634  1.00  0.00    -0.352 N 
ATOM     25  C   UNL A   1      32.981  35.008  28.631  1.00  0.00     0.251 C 
ATOM     26  H   UNL A   1      31.799  34.646  27.053  1.00  0.00     0.163 HD
ATOM     27  O   UNL A   1      32.470  36.087  28.887  1.00  0.00    -0.269 OA
BRANCH  25  28
ATOM     28  C   UNL A   1      34.139  34.522  29.408  1.00  0.00     0.039 A 
ATOM     29  C   UNL A   1      33.918  33.912  30.643  1.00  0.00     0.014 A 
ATOM     30  C   UNL A   1      35.434  34.639  28.899  1.00  0.00     0.014 A 
ATOM     31  C   UNL A   1      34.994  33.354  31.333  1.00  0.00     0.010 A 
ATOM     32  C   UNL A   1      36.482  33.981  29.527  1.00  0.00     0.010 A 
ATOM     33  C   UNL A   1      36.276  33.346  30.759  1.00  0.00    -0.014 A 
BRANCH  33  34
ATOM     34  C   UNL A   1      37.423  32.695  31.436  1.00  0.00     0.031 A 
ATOM     35  C   UNL A   1      38.115  31.531  30.780  1.00  0.00     0.074 A 
ATOM     36  C   UNL A   1      37.794  33.106  32.663  1.00  0.00     0.049 A 
ATOM     37  N   UNL A   1      39.083  30.779  31.237  1.00  0.00    -0.248 NA
ATOM     38  C   UNL A   1      37.635  31.139  29.444  1.00  0.00     0.031 C 
ATOM     39  C   UNL A   1      37.164  34.187  33.422  1.00  0.00     0.029 A 
ATOM     40  N   UNL A   1      38.789  32.654  33.496  1.00  0.00    -0.354 N 
ATOM     41  C   UNL A   1      39.312  29.822  30.257  1.00  0.00     0.074 A 
ATOM     42  C   UNL A   1      38.343  30.045  29.210  1.00  0.00     0.031 C 
ATOM     43  C   UNL A   1      37.804  34.335  34.593  1.00  0.00     0.029 A 
ATOM     44  C   UNL A   1      38.857  33.331  34.689  1.00  0.00     0.049 A 
ATOM     45  H   UNL A   1      39.395  31.915  33.259  1.00  0.00     0.167 HD
ATOM     46  C   UNL A   1      40.266  28.863  30.222  1.00  0.00     0.037 A 
ATOM     47  C   UNL A   1      39.673  33.151  35.745  1.00  0.00     0.037 A 
ATOM     48  C   UNL A   1      41.246  28.666  31.256  1.00  0.00     0.049 A 
ATOM     49  C   UNL A   1      40.717  32.067  35.683  1.00  0.00     0.074 A 
ATOM     50  C   UNL A   1      42.293  27.762  31.289  1.00  0.00     0.029 A 
ATOM     51  N   UNL A   1      41.296  29.382  32.443  1.00  0.00    -0.354 N 
ATOM     52  N   UNL A   1      40.974  31.218  34.718  1.00  0.00    -0.248 NA
ATOM     53  C   UNL A   1      41.590  31.922  36.856  1.00  0.00     0.031 C 
ATOM     54  C   UNL A   1      42.942  27.892  32.520  1.00  0.00     0.029 A 
ATOM     55  C   UNL A   1      42.341  28.921  33.227  1.00  0.00     0.049 A 
ATOM     56  H   UNL A   1      40.680  30.109  32.691  1.00  0.00     0.167 HD
ATOM     57  C   UNL A   1      42.057  30.464  35.151  1.00  0.00     0.074 A 
ATOM     58  C   UNL A   1      42.418  30.967  36.459  1.00  0.00     0.031 C 
ATOM     59  C   UNL A   1      42.694  29.445  34.522  1.00  0.00     0.037 A 
BRANCH  46  60
ATOM     60  C   UNL A   1      40.302  27.957  29.025  1.00  0.00     0.064 A 
ATOM     61  C   UNL A   1      41.065  28.266  27.888  1.00  0.00     0.173 A 
ATOM     62  C   UNL A   1      39.604  26.740  29.033  1.00  0.00     0.173 A 
ATOM     63  F   UNL A   1      41.740  29.424  27.822  1.00  0.00    -0.203 F 
ATOM     64  C   UNL A   1      41.106  27.404  26.796  1.00  0.00     0.198 A 
ATOM     65  C   UNL A   1      39.675  25.864  27.954  1.00  0.00     0.198 A 
ATOM     66  F   UNL A   1      38.861  26.392  30.095  1.00  0.00    -0.203 F 
ATOM     67  F   UNL A   1      41.802  27.744  25.701  1.00  0.00    -0.200 F 
ATOM     68  C   UNL A   1      40.420  26.199  26.833  1.00  0.00     0.200 A 
ATOM     69  F   UNL A   1      39.023  24.694  27.998  1.00  0.00    -0.200 F 
ATOM     70  F   UNL A   1      40.473  25.365  25.787  1.00  0.00    -0.200 F 
ENDBRANCH  46  60
BRANCH  47  71
ATOM     71  C   UNL A   1      39.549  34.021  36.945  1.00  0.00     0.064 A 
ATOM     72  C   UNL A   1      40.214  35.254  37.012  1.00  0.00     0.173 A 
ATOM     73  C   UNL A   1      38.787  33.631  38.056  1.00  0.00     0.173 A 
ATOM     74  F   UNL A   1      40.969  35.666  35.983  1.00  0.00    -0.203 F 
ATOM     75  C   UNL A   1      40.147  36.047  38.157  1.00  0.00     0.198 A 
ATOM     76  C   UNL A   1      38.693  34.441  39.186  1.00  0.00     0.198 A 
ATOM     77  F   UNL A   1      38.124  32.465  38.040  1.00  0.00    -0.203 F 
ATOM     78  F   UNL A   1      40.840  37.192  38.216  1.00  0.00    -0.200 F 
ATOM     79  C   UNL A   1      39.384  35.642  39.240  1.00  0.00     0.200 A 
ATOM     80  F   UNL A   1      37.939  34.053  40.223  1.00  0.00    -0.200 F 
ATOM     81  F   UNL A   1      39.320  36.404  40.341  1.00  0.00    -0.200 F 
ENDBRANCH  47  71
BRANCH  59  82
ATOM     82  C   UNL A   1      43.878  28.839  35.218  1.00  0.00     0.064 A 
ATOM     83  C   UNL A   1      45.180  29.325  35.026  1.00  0.00     0.173 A 
ATOM     84  C   UNL A   1      43.700  27.780  36.123  1.00  0.00     0.173 A 
ATOM     85  F   UNL A   1      45.405  30.326  34.162  1.00  0.00    -0.203 F 
ATOM     86  C   UNL A   1      46.262  28.755  35.692  1.00  0.00     0.198 A 
ATOM     87  C   UNL A   1      44.779  27.237  36.814  1.00  0.00     0.198 A 
ATOM     88  F   UNL A   1      42.475  27.283  36.351  1.00  0.00    -0.203 F 
ATOM     89  F   UNL A   1      47.503  29.201  35.452  1.00  0.00    -0.200 F 
ATOM     90  C   UNL A   1      46.060  27.720  36.591  1.00  0.00     0.200 A 
ATOM     91  F   UNL A   1      44.579  26.249  37.696  1.00  0.00    -0.200 F 
ATOM     92  F   UNL A   1      47.102  27.179  37.238  1.00  0.00    -0.200 F 
ENDBRANCH  59  82
ENDBRANCH  33  34
ENDBRANCH  25  28
ENDBRANCH  23  24
ENDBRANCH  22  23
ENDBRANCH   1  22
TORSDOF 13
ENDMDL
MODEL 3
REMARK VINA RESULT:     -12.9      5.743     11.356
REMARK SMILES O=C(N[C@@H]1C=C[C@@H](C(=O)NCCCNC(=O)c2ccc(-c3c4nc(c(-c5c(F)c(F)c(F)c(F)c5F)c5ccc([nH]5)c(-c5c(F)c(F)c(F)c(F)c5F)c5nc(c(-c6c(F)c(F)c(F)c(F)c6F)c6ccc3[nH]6)C=C5)C=C4)cc2)C1)Oc1ccccc1
REMARK SMILES IDX 11 1 10 2 8 3 9 4 7 6 4 7 5 8 80 9 6 10 3 11 1 12 2 13 81 15
REMARK SMILES IDX 82 16 83 17 87 18 84 19 86 20 85 21 12 22 13 23 14 24 15 25
REMARK SMILES IDX 16 27 17 28 18 29 79 30 19 31 78 32 20 33 21 34 22 35 72 36
REMARK SMILES IDX 23 37 77 38 71 39 73 40 24 41 76 42 70 43 69 44 25 46 57 47
REMARK SMILES IDX 37 48 56 49 38 50 41 51 55 52 74 53 39 54 40 55 54 57 75 58
REMARK SMILES IDX 42 59 26 60 27 61 35 62 28 63 29 64 33 65 36 66 30 67 31 68
REMARK SMILES IDX 34 69 32 70 58 71 59 72 67 73 60 74 61 75 65 76 68 77 62 78
REMARK SMILES IDX 63 79 66 80 64 81 43 82 44 83 52 84 45 85 46 86 50 87 53 88
REMARK SMILES IDX 47 89 48 90 51 91 49 92
REMARK H PARENT 10 5 3 14 14 26 73 45 41 56
REMARK Flexibility Score: inf
ROOT
ATOM      1  C   UNL A   1      37.030  20.738  25.164  1.00  0.00     0.117 C 
ENDROOT
BRANCH   1   2
ATOM      2  N   UNL A   1      37.036  21.800  24.166  1.00  0.00    -0.356 N 
ATOM      3  C   UNL A   1      36.069  22.644  23.692  1.00  0.00     0.227 C 
ATOM      4  O   UNL A   1      36.391  23.384  22.758  1.00  0.00    -0.274 OA
ATOM      5  H   UNL A   1      37.916  21.938  23.746  1.00  0.00     0.163 HD
BRANCH   3   6
ATOM      6  C   UNL A   1      34.655  22.725  24.289  1.00  0.00     0.103 C 
ATOM      7  C   UNL A   1      33.428  24.410  25.626  1.00  0.00     0.109 C 
ATOM      8  C   UNL A   1      33.420  24.674  24.188  1.00  0.00    -0.006 C 
ATOM      9  C   UNL A   1      34.553  23.347  25.697  1.00  0.00     0.047 C 
ATOM     10  C   UNL A   1      33.883  23.670  23.441  1.00  0.00    -0.016 C 
BRANCH   7  11
ATOM     11  N   UNL A   1      32.121  23.904  26.017  1.00  0.00    -0.315 N 
ATOM     12  O   UNL A   1      30.229  23.728  27.179  1.00  0.00    -0.224 OA
ATOM     13  C   UNL A   1      30.991  24.471  26.557  1.00  0.00     0.413 C 
ATOM     14  H   UNL A   1      32.025  22.937  25.860  1.00  0.00     0.167 HD
BRANCH  13  15
ATOM     15  O   UNL A   1      30.665  25.860  26.455  1.00  0.00    -0.410 OA
BRANCH  15  16
ATOM     16  C   UNL A   1      31.249  27.164  26.268  1.00  0.00     0.132 A 
ATOM     17  C   UNL A   1      31.213  27.694  24.976  1.00  0.00     0.047 A 
ATOM     18  C   UNL A   1      31.722  27.908  27.350  1.00  0.00     0.047 A 
ATOM     19  C   UNL A   1      31.525  29.043  24.790  1.00  0.00     0.004 A 
ATOM     20  C   UNL A   1      32.021  29.262  27.153  1.00  0.00     0.004 A 
ATOM     21  C   UNL A   1      31.896  29.834  25.882  1.00  0.00     0.000 A 
ENDBRANCH  15  16
ENDBRANCH  13  15
ENDBRANCH   7  11
ENDBRANCH   3   6
ENDBRANCH   1   2
BRANCH   1  22
ATOM     22  C   UNL A   1      38.181  19.777  24.965  1.00  0.00     0.042 C 
BRANCH  22  23
ATOM     23  C   UNL A   1      39.373  20.183  25.804  1.00  0.00     0.118 C 
BRANCH  23  24
ATOM     24  N   UNL A   1      40.348  19.105  25.920  1.00  0.00    -0.352 N 
ATOM     25  C   UNL A   1      41.710  19.176  26.090  1.00  0.00     0.251 C 
ATOM     26  H   UNL A   1      39.977  18.194  25.868  1.00  0.00     0.163 HD
ATOM     27  O   UNL A   1      42.402  18.179  25.962  1.00  0.00    -0.269 OA
BRANCH  25  28
ATOM     28  C   UNL A   1      42.326  20.483  26.398  1.00  0.00     0.039 A 
ATOM     29  C   UNL A   1      42.871  21.237  25.358  1.00  0.00     0.014 A 
ATOM     30  C   UNL A   1      42.330  20.975  27.705  1.00  0.00     0.014 A 
ATOM     31  C   UNL A   1      43.356  22.517  25.623  1.00  0.00     0.010 A 
ATOM     32  C   UNL A   1      42.701  22.290  27.944  1.00  0.00     0.010 A 
ATOM     33  C   UNL A   1      43.234  23.069  26.908  1.00  0.00    -0.014 A 
BRANCH  33  34
ATOM     34  C   UNL A   1      43.673  24.455  27.201  1.00  0.00     0.031 A 
ATOM     35  C   UNL A   1      42.678  25.463  27.707  1.00  0.00     0.074 A 
ATOM     36  C   UNL A   1      44.944  24.819  26.947  1.00  0.00     0.049 A 
ATOM     37  N   UNL A   1      42.841  26.738  27.949  1.00  0.00    -0.248 NA
ATOM     38  C   UNL A   1      41.306  24.982  27.943  1.00  0.00     0.031 C 
ATOM     39  C   UNL A   1      45.985  23.944  26.405  1.00  0.00     0.029 A 
ATOM     40  N   UNL A   1      45.577  26.028  27.103  1.00  0.00    -0.354 N 
ATOM     41  C   UNL A   1      41.597  27.209  28.346  1.00  0.00     0.074 A 
ATOM     42  C   UNL A   1      40.673  26.103  28.252  1.00  0.00     0.031 C 
ATOM     43  C   UNL A   1      47.132  24.636  26.301  1.00  0.00     0.029 A 
ATOM     44  C   UNL A   1      46.897  26.012  26.724  1.00  0.00     0.049 A 
ATOM     45  H   UNL A   1      45.127  26.830  27.454  1.00  0.00     0.167 HD
ATOM     46  C   UNL A   1      41.263  28.447  28.779  1.00  0.00     0.037 A 
ATOM     47  C   UNL A   1      47.810  27.001  26.709  1.00  0.00     0.037 A 
ATOM     48  C   UNL A   1      42.195  29.536  28.897  1.00  0.00     0.049 A 
ATOM     49  C   UNL A   1      47.407  28.372  27.186  1.00  0.00     0.074 A 
ATOM     50  C   UNL A   1      41.972  30.812  29.383  1.00  0.00     0.029 A 
ATOM     51  N   UNL A   1      43.529  29.477  28.521  1.00  0.00    -0.354 N 
ATOM     52  N   UNL A   1      46.246  28.786  27.632  1.00  0.00    -0.248 NA
ATOM     53  C   UNL A   1      48.444  29.412  27.162  1.00  0.00     0.031 C 
ATOM     54  C   UNL A   1      43.156  31.543  29.248  1.00  0.00     0.029 A 
ATOM     55  C   UNL A   1      44.134  30.704  28.739  1.00  0.00     0.049 A 
ATOM     56  H   UNL A   1      43.978  28.682  28.153  1.00  0.00     0.167 HD
ATOM     57  C   UNL A   1      46.422  30.120  27.975  1.00  0.00     0.074 A 
ATOM     58  C   UNL A   1      47.807  30.441  27.700  1.00  0.00     0.031 C 
ATOM     59  C   UNL A   1      45.519  31.000  28.472  1.00  0.00     0.037 A 
BRANCH  46  60
ATOM     60  C   UNL A   1      39.832  28.690  29.165  1.00  0.00     0.064 A 
ATOM     61  C   UNL A   1      39.369  28.456  30.469  1.00  0.00     0.173 A 
ATOM     62  C   UNL A   1      38.923  29.209  28.231  1.00  0.00     0.173 A 
ATOM     63  F   UNL A   1      40.193  27.946  31.397  1.00  0.00    -0.203 F 
ATOM     64  C   UNL A   1      38.045  28.709  30.816  1.00  0.00     0.198 A 
ATOM     65  C   UNL A   1      37.609  29.494  28.591  1.00  0.00     0.198 A 
ATOM     66  F   UNL A   1      39.312  29.455  26.971  1.00  0.00    -0.203 F 
ATOM     67  F   UNL A   1      37.614  28.431  32.055  1.00  0.00    -0.200 F 
ATOM     68  C   UNL A   1      37.168  29.237  29.880  1.00  0.00     0.200 A 
ATOM     69  F   UNL A   1      36.767  30.018  27.688  1.00  0.00    -0.200 F 
ATOM     70  F   UNL A   1      35.898  29.493  30.220  1.00  0.00    -0.200 F 
ENDBRANCH  46  60
BRANCH  47  71
ATOM     71  C   UNL A   1      49.197  26.734  26.243  1.00  0.00     0.064 A 
ATOM     72  C   UNL A   1      49.570  26.976  24.913  1.00  0.00     0.173 A 
ATOM     73  C   UNL A   1      50.171  26.211  27.107  1.00  0.00     0.173 A 
ATOM     74  F   UNL A   1      48.672  27.460  24.043  1.00  0.00    -0.203 F 
ATOM     75  C   UNL A   1      50.852  26.674  24.458  1.00  0.00     0.198 A 
ATOM     76  C   UNL A   1      51.462  25.942  26.660  1.00  0.00     0.198 A 
ATOM     77  F   UNL A   1      49.869  25.969  28.391  1.00  0.00    -0.203 F 
ATOM     78  F   UNL A   1      51.163  26.859  23.168  1.00  0.00    -0.200 F 
ATOM     79  C   UNL A   1      51.798  26.161  25.332  1.00  0.00     0.200 A 
ATOM     80  F   UNL A   1      52.378  25.464  27.513  1.00  0.00    -0.200 F 
ATOM     81  F   UNL A   1      53.031  25.871  24.894  1.00  0.00    -0.200 F 
ENDBRANCH  47  71
BRANCH  59  82
ATOM     82  C   UNL A   1      46.009  32.382  28.797  1.00  0.00     0.064 A 
ATOM     83  C   UNL A   1      46.560  32.697  30.047  1.00  0.00     0.173 A 
ATOM     84  C   UNL A   1      45.964  33.395  27.825  1.00  0.00     0.173 A 
ATOM     85  F   UNL A   1      46.614  31.770  31.014  1.00  0.00    -0.203 F 
ATOM     86  C   UNL A   1      47.021  33.982  30.323  1.00  0.00     0.198 A 
ATOM     87  C   UNL A   1      46.459  34.668  28.092  1.00  0.00     0.198 A 
ATOM     88  F   UNL A   1      45.455  33.144  26.609  1.00  0.00    -0.203 F 
ATOM     89  F   UNL A   1      47.494  34.275  31.542  1.00  0.00    -0.200 F 
ATOM     90  C   UNL A   1      46.978  34.963  29.343  1.00  0.00     0.200 A 
ATOM     91  F   UNL A   1      46.432  35.608  27.138  1.00  0.00    -0.200 F 
ATOM     92  F   UNL A   1      47.431  36.196  29.607  1.00  0.00    -0.200 F 
ENDBRANCH  59  82
ENDBRANCH  33  34
ENDBRANCH  25  28
ENDBRANCH  23  24
ENDBRANCH  22  23
ENDBRANCH   1  22
TORSDOF 13
ENDMDL
