MODEL 1
REMARK VINA RESULT:     -15.0      0.000      0.000
REMARK SMILES COc1cc2ccccc2cc1C(=O)Nc1cc(C(=O)NCCCNC(=O)c2ccc(-c3c4nc(c(-c5c(F)c(F)c(F)c(F)c5F)c5ccc([nH]5)c(-c5c(F)c(F)c(F)c(F)c5F)c5nc(c(-c6c(F)c(F)c(F)c(F)c6F)c6ccc3[nH]6)C=C5)C=C4)cc2)ccc1C
REMARK SMILES IDX 22 1 21 2 19 3 20 4 18 6 16 7 17 8 93 9 92 10 94 11 91 12
REMARK SMILES IDX 15 13 13 14 14 15 12 17 3 18 4 19 5 20 11 21 6 22 10 23 7 24
REMARK SMILES IDX 9 25 8 26 2 27 1 28 23 29 24 30 25 31 26 32 27 34 28 35
REMARK SMILES IDX 29 36 90 37 30 38 89 39 31 40 32 41 33 42 83 43 34 44 88 45
REMARK SMILES IDX 82 46 84 47 35 48 87 49 81 50 80 51 36 53 68 54 48 55 67 56
REMARK SMILES IDX 49 57 52 58 66 59 85 60 50 61 51 62 65 64 86 65 53 66 37 67
REMARK SMILES IDX 38 68 46 69 39 70 40 71 44 72 47 73 41 74 42 75 45 76 43 77
REMARK SMILES IDX 69 78 70 79 78 80 71 81 72 82 76 83 79 84 73 85 74 86 77 87
REMARK SMILES IDX 75 88 54 89 55 90 63 91 56 92 57 93 61 94 64 95 58 96 59 97
REMARK SMILES IDX 62 98 60 99
REMARK H PARENT 21 5 15 16 25 33 84 52 52 63
REMARK Flexibility Score: inf
ROOT
ATOM      1  C   UNL A   1      31.961  29.933  25.538  1.00  0.00     0.118 C 
ENDROOT
BRANCH   1   2
ATOM      2  N   UNL A   1      33.051  29.726  24.597  1.00  0.00    -0.352 N 
ATOM      3  C   UNL A   1      33.407  28.676  23.781  1.00  0.00     0.251 C 
ATOM      4  O   UNL A   1      34.354  28.876  23.016  1.00  0.00    -0.269 OA
ATOM      5  H   UNL A   1      33.661  30.497  24.530  1.00  0.00     0.163 HD
BRANCH   3   6
ATOM      6  C   UNL A   1      32.734  27.338  23.749  1.00  0.00     0.041 A 
ATOM      7  C   UNL A   1      31.796  25.329  24.782  1.00  0.00     0.045 A 
ATOM      8  C   UNL A   1      32.526  26.520  24.856  1.00  0.00     0.040 A 
ATOM      9  C   UNL A   1      31.403  24.828  23.534  1.00  0.00    -0.027 A 
ATOM     10  C   UNL A   1      31.621  25.630  22.404  1.00  0.00     0.006 A 
ATOM     11  C   UNL A   1      30.612  23.561  23.367  1.00  0.00     0.046 C 
ATOM     12  C   UNL A   1      32.258  26.875  22.514  1.00  0.00     0.014 A 
BRANCH   7  13
ATOM     13  N   UNL A   1      31.424  24.664  25.962  1.00  0.00    -0.322 N 
ATOM     14  C   UNL A   1      31.840  23.457  26.491  1.00  0.00     0.259 C 
ATOM     15  O   UNL A   1      31.168  22.977  27.409  1.00  0.00    -0.269 OA
ATOM     16  H   UNL A   1      30.753  25.138  26.505  1.00  0.00     0.170 HD
BRANCH  14  17
ATOM     17  C   UNL A   1      33.085  22.730  26.082  1.00  0.00     0.082 A 
ATOM     18  C   UNL A   1      33.150  21.468  25.477  1.00  0.00     0.132 A 
ATOM     19  C   UNL A   1      34.387  20.862  25.212  1.00  0.00     0.056 A 
ATOM     20  C   UNL A   1      35.586  21.545  25.433  1.00  0.00    -0.015 A 
ATOM     21  C   UNL A   1      34.296  23.430  26.269  1.00  0.00     0.026 A 
ATOM     22  C   UNL A   1      36.824  20.950  25.150  1.00  0.00     0.009 A 
ATOM     23  C   UNL A   1      35.542  22.863  25.935  1.00  0.00    -0.017 A 
ATOM     24  C   UNL A   1      38.008  21.666  25.311  1.00  0.00     0.001 A 
ATOM     25  C   UNL A   1      36.746  23.571  26.089  1.00  0.00     0.009 A 
ATOM     26  C   UNL A   1      37.970  22.979  25.769  1.00  0.00     0.001 A 
BRANCH  18  27
ATOM     27  O   UNL A   1      32.066  20.684  25.192  1.00  0.00    -0.496 OA
ATOM     28  C   UNL A   1      32.449  19.445  24.608  1.00  0.00     0.278 C 
ENDBRANCH  18  27
ENDBRANCH  14  17
ENDBRANCH   7  13
ENDBRANCH   3   6
ENDBRANCH   1   2
BRANCH   1  29
ATOM     29  C   UNL A   1      32.308  30.950  26.627  1.00  0.00     0.042 C 
BRANCH  29  30
ATOM     30  C   UNL A   1      33.365  30.459  27.596  1.00  0.00     0.118 C 
BRANCH  30  31
ATOM     31  N   UNL A   1      34.047  31.527  28.327  1.00  0.00    -0.352 N 
ATOM     32  C   UNL A   1      35.281  31.478  28.962  1.00  0.00     0.251 C 
ATOM     33  H   UNL A   1      33.572  32.387  28.376  1.00  0.00     0.163 HD
ATOM     34  O   UNL A   1      35.737  32.448  29.540  1.00  0.00    -0.269 OA
BRANCH  32  35
ATOM     35  C   UNL A   1      36.089  30.249  28.793  1.00  0.00     0.039 A 
ATOM     36  C   UNL A   1      36.458  29.556  29.948  1.00  0.00     0.014 A 
ATOM     37  C   UNL A   1      36.734  30.017  27.582  1.00  0.00     0.014 A 
ATOM     38  C   UNL A   1      37.653  28.842  29.947  1.00  0.00     0.010 A 
ATOM     39  C   UNL A   1      37.979  29.424  27.618  1.00  0.00     0.010 A 
ATOM     40  C   UNL A   1      38.472  28.901  28.820  1.00  0.00    -0.014 A 
BRANCH  40  41
ATOM     41  C   UNL A   1      39.889  28.547  28.843  1.00  0.00     0.031 A 
ATOM     42  C   UNL A   1      40.320  27.181  28.474  1.00  0.00     0.074 A 
ATOM     43  C   UNL A   1      40.821  29.489  29.117  1.00  0.00     0.049 A 
ATOM     44  N   UNL A   1      41.473  26.677  28.758  1.00  0.00    -0.248 NA
ATOM     45  C   UNL A   1      39.445  26.246  27.782  1.00  0.00     0.031 C 
ATOM     46  C   UNL A   1      42.267  29.387  28.922  1.00  0.00     0.029 A 
ATOM     47  N   UNL A   1      40.657  30.678  29.850  1.00  0.00    -0.354 N 
ATOM     48  C   UNL A   1      41.597  25.482  28.088  1.00  0.00     0.074 A 
ATOM     49  C   UNL A   1      40.285  25.239  27.535  1.00  0.00     0.031 C 
ATOM     50  C   UNL A   1      42.876  30.234  29.765  1.00  0.00     0.029 A 
ATOM     51  C   UNL A   1      41.849  30.814  30.609  1.00  0.00     0.049 A 
ATOM     52  H   UNL A   1      39.883  31.285  29.839  1.00  0.00     0.167 HD
ATOM     53  C   UNL A   1      42.829  24.898  28.003  1.00  0.00     0.037 A 
ATOM     54  C   UNL A   1      41.823  30.765  31.972  1.00  0.00     0.037 A 
ATOM     55  C   UNL A   1      43.805  25.592  28.846  1.00  0.00     0.049 A 
ATOM     56  C   UNL A   1      42.611  29.626  32.583  1.00  0.00     0.074 A 
ATOM     57  C   UNL A   1      44.823  26.505  28.624  1.00  0.00     0.029 A 
ATOM     58  N   UNL A   1      43.612  25.568  30.215  1.00  0.00    -0.354 N 
ATOM     59  N   UNL A   1      43.240  28.715  31.894  1.00  0.00    -0.248 NA
ATOM     60  C   UNL A   1      42.664  29.366  34.024  1.00  0.00     0.031 C 
ATOM     61  C   UNL A   1      45.225  27.039  29.885  1.00  0.00     0.029 A 
ATOM     62  C   UNL A   1      44.450  26.450  30.866  1.00  0.00     0.049 A 
ATOM     63  H   UNL A   1      42.956  24.992  30.671  1.00  0.00     0.167 HD
ATOM     64  C   UNL A   1      43.702  27.746  32.742  1.00  0.00     0.074 A 
ATOM     65  C   UNL A   1      43.329  28.201  34.068  1.00  0.00     0.031 C 
ATOM     66  C   UNL A   1      44.313  26.612  32.302  1.00  0.00     0.037 A 
BRANCH  53  67
ATOM     67  C   UNL A   1      43.211  23.818  27.009  1.00  0.00     0.064 A 
ATOM     68  C   UNL A   1      42.768  22.488  27.191  1.00  0.00     0.173 A 
ATOM     69  C   UNL A   1      44.050  24.000  25.894  1.00  0.00     0.173 A 
ATOM     70  F   UNL A   1      41.876  22.168  28.137  1.00  0.00    -0.203 F 
ATOM     71  C   UNL A   1      43.225  21.427  26.403  1.00  0.00     0.198 A 
ATOM     72  C   UNL A   1      44.552  22.933  25.142  1.00  0.00     0.198 A 
ATOM     73  F   UNL A   1      44.357  25.215  25.435  1.00  0.00    -0.203 F 
ATOM     74  F   UNL A   1      42.768  20.187  26.631  1.00  0.00    -0.200 F 
ATOM     75  C   UNL A   1      44.148  21.643  25.403  1.00  0.00     0.200 A 
ATOM     76  F   UNL A   1      45.425  23.173  24.152  1.00  0.00    -0.200 F 
ATOM     77  F   UNL A   1      44.619  20.621  24.676  1.00  0.00    -0.200 F 
ENDBRANCH  53  67
BRANCH  54  78
ATOM     78  C   UNL A   1      40.577  31.348  32.535  1.00  0.00     0.064 A 
ATOM     79  C   UNL A   1      40.412  32.745  32.463  1.00  0.00     0.173 A 
ATOM     80  C   UNL A   1      39.438  30.572  32.770  1.00  0.00     0.173 A 
ATOM     81  F   UNL A   1      41.473  33.538  32.243  1.00  0.00    -0.203 F 
ATOM     82  C   UNL A   1      39.147  33.323  32.481  1.00  0.00     0.198 A 
ATOM     83  C   UNL A   1      38.173  31.159  32.811  1.00  0.00     0.198 A 
ATOM     84  F   UNL A   1      39.528  29.235  32.832  1.00  0.00    -0.203 F 
ATOM     85  F   UNL A   1      39.014  34.640  32.281  1.00  0.00    -0.200 F 
ATOM     86  C   UNL A   1      38.024  32.526  32.626  1.00  0.00     0.200 A 
ATOM     87  F   UNL A   1      37.085  30.384  32.928  1.00  0.00    -0.200 F 
ATOM     88  F   UNL A   1      36.802  33.067  32.543  1.00  0.00    -0.200 F 
ENDBRANCH  54  78
BRANCH  66  89
ATOM     89  C   UNL A   1      44.831  25.551  33.221  1.00  0.00     0.064 A 
ATOM     90  C   UNL A   1      46.189  25.207  33.265  1.00  0.00     0.173 A 
ATOM     91  C   UNL A   1      43.954  24.758  33.987  1.00  0.00     0.173 A 
ATOM     92  F   UNL A   1      47.092  25.892  32.546  1.00  0.00    -0.203 F 
ATOM     93  C   UNL A   1      46.646  24.139  34.040  1.00  0.00     0.198 A 
ATOM     94  C   UNL A   1      44.404  23.663  34.722  1.00  0.00     0.198 A 
ATOM     95  F   UNL A   1      42.644  25.040  34.059  1.00  0.00    -0.203 F 
ATOM     96  F   UNL A   1      47.956  23.863  34.088  1.00  0.00    -0.200 F 
ATOM     97  C   UNL A   1      45.751  23.357  34.753  1.00  0.00     0.200 A 
ATOM     98  F   UNL A   1      43.526  22.909  35.398  1.00  0.00    -0.200 F 
ATOM     99  F   UNL A   1      46.186  22.315  35.473  1.00  0.00    -0.200 F 
ENDBRANCH  66  89
ENDBRANCH  40  41
ENDBRANCH  32  35
ENDBRANCH  30  31
ENDBRANCH  29  30
ENDBRANCH   1  29
TORSDOF 13
ENDMDL
MODEL 2
REMARK VINA RESULT:     -14.8      2.999      9.511
REMARK SMILES COc1cc2ccccc2cc1C(=O)Nc1cc(C(=O)NCCCNC(=O)c2ccc(-c3c4nc(c(-c5c(F)c(F)c(F)c(F)c5F)c5ccc([nH]5)c(-c5c(F)c(F)c(F)c(F)c5F)c5nc(c(-c6c(F)c(F)c(F)c(F)c6F)c6ccc3[nH]6)C=C5)C=C4)cc2)ccc1C
REMARK SMILES IDX 22 1 21 2 19 3 20 4 18 6 16 7 17 8 93 9 92 10 94 11 91 12
REMARK SMILES IDX 15 13 13 14 14 15 12 17 3 18 4 19 5 20 11 21 6 22 10 23 7 24
REMARK SMILES IDX 9 25 8 26 2 27 1 28 23 29 24 30 25 31 26 32 27 34 28 35
REMARK SMILES IDX 29 36 90 37 30 38 89 39 31 40 32 41 33 42 83 43 34 44 88 45
REMARK SMILES IDX 82 46 84 47 35 48 87 49 81 50 80 51 36 53 68 54 48 55 67 56
REMARK SMILES IDX 49 57 52 58 66 59 85 60 50 61 51 62 65 64 86 65 53 66 37 67
REMARK SMILES IDX 38 68 46 69 39 70 40 71 44 72 47 73 41 74 42 75 45 76 43 77
REMARK SMILES IDX 69 78 70 79 78 80 71 81 72 82 76 83 79 84 73 85 74 86 77 87
REMARK SMILES IDX 75 88 54 89 55 90 63 91 56 92 57 93 61 94 64 95 58 96 59 97
REMARK SMILES IDX 62 98 60 99
REMARK H PARENT 21 5 15 16 25 33 84 52 52 63
REMARK Flexibility Score: inf
ROOT
ATOM      1  C   UNL A   1      36.137  20.934  25.191  1.00  0.00     0.118 C 
ENDROOT
BRANCH   1   2
ATOM      2  N   UNL A   1      35.644  21.451  26.459  1.00  0.00    -0.352 N 
ATOM      3  C   UNL A   1      34.551  22.213  26.807  1.00  0.00     0.251 C 
ATOM      4  O   UNL A   1      34.372  22.390  28.015  1.00  0.00    -0.269 OA
ATOM      5  H   UNL A   1      36.209  21.204  27.227  1.00  0.00     0.163 HD
BRANCH   3   6
ATOM      6  C   UNL A   1      33.579  22.822  25.844  1.00  0.00     0.041 A 
ATOM      7  C   UNL A   1      32.975  24.168  23.893  1.00  0.00     0.045 A 
ATOM      8  C   UNL A   1      33.911  23.715  24.828  1.00  0.00     0.040 A 
ATOM      9  C   UNL A   1      31.616  23.873  24.065  1.00  0.00    -0.027 A 
ATOM     10  C   UNL A   1      31.261  22.989  25.096  1.00  0.00     0.006 A 
ATOM     11  C   UNL A   1      30.549  24.315  23.104  1.00  0.00     0.046 C 
ATOM     12  C   UNL A   1      32.230  22.457  25.958  1.00  0.00     0.014 A 
BRANCH   7  13
ATOM     13  N   UNL A   1      33.408  24.880  22.761  1.00  0.00    -0.322 N 
ATOM     14  C   UNL A   1      33.230  26.202  22.402  1.00  0.00     0.259 C 
ATOM     15  O   UNL A   1      33.488  26.514  21.235  1.00  0.00    -0.269 OA
ATOM     16  H   UNL A   1      33.925  24.347  22.115  1.00  0.00     0.170 HD
BRANCH  14  17
ATOM     17  C   UNL A   1      32.822  27.295  23.343  1.00  0.00     0.082 A 
ATOM     18  C   UNL A   1      31.611  28.000  23.322  1.00  0.00     0.132 A 
ATOM     19  C   UNL A   1      31.381  29.057  24.215  1.00  0.00     0.056 A 
ATOM     20  C   UNL A   1      32.298  29.360  25.225  1.00  0.00    -0.015 A 
ATOM     21  C   UNL A   1      33.728  27.580  24.386  1.00  0.00     0.026 A 
ATOM     22  C   UNL A   1      32.062  30.403  26.132  1.00  0.00     0.009 A 
ATOM     23  C   UNL A   1      33.474  28.588  25.338  1.00  0.00    -0.017 A 
ATOM     24  C   UNL A   1      32.952  30.650  27.175  1.00  0.00     0.001 A 
ATOM     25  C   UNL A   1      34.359  28.850  26.396  1.00  0.00     0.009 A 
ATOM     26  C   UNL A   1      34.094  29.869  27.315  1.00  0.00     0.001 A 
BRANCH  18  27
ATOM     27  O   UNL A   1      30.616  27.812  22.403  1.00  0.00    -0.496 OA
ATOM     28  C   UNL A   1      29.546  28.731  22.588  1.00  0.00     0.278 C 
ENDBRANCH  18  27
ENDBRANCH  14  17
ENDBRANCH   7  13
ENDBRANCH   3   6
ENDBRANCH   1   2
BRANCH   1  29
ATOM     29  C   UNL A   1      37.660  21.008  25.076  1.00  0.00     0.042 C 
BRANCH  29  30
ATOM     30  C   UNL A   1      38.251  22.259  25.697  1.00  0.00     0.118 C 
BRANCH  30  31
ATOM     31  N   UNL A   1      39.682  22.163  25.986  1.00  0.00    -0.352 N 
ATOM     32  C   UNL A   1      40.541  23.170  26.402  1.00  0.00     0.251 C 
ATOM     33  H   UNL A   1      40.087  21.274  25.869  1.00  0.00     0.163 HD
ATOM     34  O   UNL A   1      41.722  22.955  26.608  1.00  0.00    -0.269 OA
BRANCH  32  35
ATOM     35  C   UNL A   1      39.946  24.488  26.723  1.00  0.00     0.039 A 
ATOM     36  C   UNL A   1      40.530  25.618  26.147  1.00  0.00     0.014 A 
ATOM     37  C   UNL A   1      39.091  24.602  27.815  1.00  0.00     0.014 A 
ATOM     38  C   UNL A   1      40.478  26.825  26.838  1.00  0.00     0.010 A 
ATOM     39  C   UNL A   1      39.152  25.760  28.563  1.00  0.00     0.010 A 
ATOM     40  C   UNL A   1      39.908  26.849  28.110  1.00  0.00    -0.014 A 
BRANCH  40  41
ATOM     41  C   UNL A   1      40.149  27.920  29.074  1.00  0.00     0.031 A 
ATOM     42  C   UNL A   1      39.201  29.049  29.184  1.00  0.00     0.074 A 
ATOM     43  C   UNL A   1      41.193  27.840  29.931  1.00  0.00     0.049 A 
ATOM     44  N   UNL A   1      39.468  30.176  29.752  1.00  0.00    -0.248 NA
ATOM     45  C   UNL A   1      37.865  29.005  28.607  1.00  0.00     0.031 C 
ATOM     46  C   UNL A   1      41.429  28.661  31.118  1.00  0.00     0.029 A 
ATOM     47  N   UNL A   1      42.392  27.123  29.767  1.00  0.00    -0.354 N 
ATOM     48  C   UNL A   1      38.301  30.896  29.849  1.00  0.00     0.074 A 
ATOM     49  C   UNL A   1      37.343  30.142  29.075  1.00  0.00     0.031 C 
ATOM     50  C   UNL A   1      42.745  28.673  31.379  1.00  0.00     0.029 A 
ATOM     51  C   UNL A   1      43.404  27.963  30.300  1.00  0.00     0.049 A 
ATOM     52  H   UNL A   1      42.505  26.230  29.369  1.00  0.00     0.167 HD
ATOM     53  C   UNL A   1      38.270  31.996  30.659  1.00  0.00     0.037 A 
ATOM     54  C   UNL A   1      44.387  28.471  29.502  1.00  0.00     0.037 A 
ATOM     55  C   UNL A   1      39.608  32.329  31.153  1.00  0.00     0.049 A 
ATOM     56  C   UNL A   1      44.415  29.982  29.409  1.00  0.00     0.074 A 
ATOM     57  C   UNL A   1      40.290  32.144  32.345  1.00  0.00     0.029 A 
ATOM     58  N   UNL A   1      40.560  32.726  30.232  1.00  0.00    -0.354 N 
ATOM     59  N   UNL A   1      43.555  30.770  29.992  1.00  0.00    -0.248 NA
ATOM     60  C   UNL A   1      45.356  30.719  28.562  1.00  0.00     0.031 C 
ATOM     61  C   UNL A   1      41.670  32.421  32.115  1.00  0.00     0.029 A 
ATOM     62  C   UNL A   1      41.821  32.773  30.787  1.00  0.00     0.049 A 
ATOM     63  H   UNL A   1      40.361  32.948  29.293  1.00  0.00     0.167 HD
ATOM     64  C   UNL A   1      43.760  32.054  29.569  1.00  0.00     0.074 A 
ATOM     65  C   UNL A   1      44.906  31.978  28.683  1.00  0.00     0.031 C 
ATOM     66  C   UNL A   1      42.950  33.087  29.930  1.00  0.00     0.037 A 
BRANCH  53  67
ATOM     67  C   UNL A   1      37.007  32.662  31.170  1.00  0.00     0.064 A 
ATOM     68  C   UNL A   1      36.219  33.460  30.310  1.00  0.00     0.173 A 
ATOM     69  C   UNL A   1      36.541  32.610  32.497  1.00  0.00     0.173 A 
ATOM     70  F   UNL A   1      36.462  33.525  28.995  1.00  0.00    -0.203 F 
ATOM     71  C   UNL A   1      35.144  34.228  30.767  1.00  0.00     0.198 A 
ATOM     72  C   UNL A   1      35.503  33.420  32.968  1.00  0.00     0.198 A 
ATOM     73  F   UNL A   1      37.013  31.721  33.374  1.00  0.00    -0.203 F 
ATOM     74  F   UNL A   1      34.439  34.967  29.899  1.00  0.00    -0.200 F 
ATOM     75  C   UNL A   1      34.810  34.240  32.105  1.00  0.00     0.200 A 
ATOM     76  F   UNL A   1      35.174  33.389  34.268  1.00  0.00    -0.200 F 
ATOM     77  F   UNL A   1      33.808  35.007  32.552  1.00  0.00    -0.200 F 
ENDBRANCH  53  67
BRANCH  54  78
ATOM     78  C   UNL A   1      44.772  27.535  28.413  1.00  0.00     0.064 A 
ATOM     79  C   UNL A   1      45.488  26.374  28.764  1.00  0.00     0.173 A 
ATOM     80  C   UNL A   1      44.144  27.556  27.164  1.00  0.00     0.173 A 
ATOM     81  F   UNL A   1      46.113  26.302  29.951  1.00  0.00    -0.203 F 
ATOM     82  C   UNL A   1      45.454  25.237  27.963  1.00  0.00     0.198 A 
ATOM     83  C   UNL A   1      44.134  26.421  26.354  1.00  0.00     0.198 A 
ATOM     84  F   UNL A   1      43.432  28.626  26.780  1.00  0.00    -0.203 F 
ATOM     85  F   UNL A   1      46.038  24.109  28.386  1.00  0.00    -0.200 F 
ATOM     86  C   UNL A   1      44.752  25.252  26.771  1.00  0.00     0.200 A 
ATOM     87  F   UNL A   1      43.434  26.428  25.210  1.00  0.00    -0.200 F 
ATOM     88  F   UNL A   1      44.635  24.130  26.047  1.00  0.00    -0.200 F 
ENDBRANCH  54  78
BRANCH  66  89
ATOM     89  C   UNL A   1      43.171  34.497  29.481  1.00  0.00     0.064 A 
ATOM     90  C   UNL A   1      43.390  35.539  30.393  1.00  0.00     0.173 A 
ATOM     91  C   UNL A   1      43.036  34.862  28.127  1.00  0.00     0.173 A 
ATOM     92  F   UNL A   1      43.504  35.286  31.706  1.00  0.00    -0.203 F 
ATOM     93  C   UNL A   1      43.480  36.868  29.972  1.00  0.00     0.198 A 
ATOM     94  C   UNL A   1      43.078  36.191  27.715  1.00  0.00     0.198 A 
ATOM     95  F   UNL A   1      42.883  33.934  27.169  1.00  0.00    -0.203 F 
ATOM     96  F   UNL A   1      43.728  37.834  30.868  1.00  0.00    -0.200 F 
ATOM     97  C   UNL A   1      43.306  37.194  28.637  1.00  0.00     0.200 A 
ATOM     98  F   UNL A   1      42.898  36.494  26.422  1.00  0.00    -0.200 F 
ATOM     99  F   UNL A   1      43.364  38.472  28.240  1.00  0.00    -0.200 F 
ENDBRANCH  66  89
ENDBRANCH  40  41
ENDBRANCH  32  35
ENDBRANCH  30  31
ENDBRANCH  29  30
ENDBRANCH   1  29
TORSDOF 13
ENDMDL
MODEL 3
REMARK VINA RESULT:     -14.4      3.297      9.643
REMARK SMILES COc1cc2ccccc2cc1C(=O)Nc1cc(C(=O)NCCCNC(=O)c2ccc(-c3c4nc(c(-c5c(F)c(F)c(F)c(F)c5F)c5ccc([nH]5)c(-c5c(F)c(F)c(F)c(F)c5F)c5nc(c(-c6c(F)c(F)c(F)c(F)c6F)c6ccc3[nH]6)C=C5)C=C4)cc2)ccc1C
REMARK SMILES IDX 22 1 21 2 19 3 20 4 18 6 16 7 17 8 93 9 92 10 94 11 91 12
REMARK SMILES IDX 15 13 13 14 14 15 12 17 3 18 4 19 5 20 11 21 6 22 10 23 7 24
REMARK SMILES IDX 9 25 8 26 2 27 1 28 23 29 24 30 25 31 26 32 27 34 28 35
REMARK SMILES IDX 29 36 90 37 30 38 89 39 31 40 32 41 33 42 83 43 34 44 88 45
REMARK SMILES IDX 82 46 84 47 35 48 87 49 81 50 80 51 36 53 68 54 48 55 67 56
REMARK SMILES IDX 49 57 52 58 66 59 85 60 50 61 51 62 65 64 86 65 53 66 37 67
REMARK SMILES IDX 38 68 46 69 39 70 40 71 44 72 47 73 41 74 42 75 45 76 43 77
REMARK SMILES IDX 69 78 70 79 78 80 71 81 72 82 76 83 79 84 73 85 74 86 77 87
REMARK SMILES IDX 75 88 54 89 55 90 63 91 56 92 57 93 61 94 64 95 58 96 59 97
REMARK SMILES IDX 62 98 60 99
REMARK H PARENT 21 5 15 16 25 33 84 52 52 63
REMARK Flexibility Score: inf
ROOT
ATOM      1  C   UNL A   1      37.438  22.334  25.377  1.00  0.00     0.118 C 
ENDROOT
BRANCH   1   2
ATOM      2  N   UNL A   1      36.470  22.100  26.437  1.00  0.00    -0.352 N 
ATOM      3  C   UNL A   1      35.125  21.801  26.439  1.00  0.00     0.251 C 
ATOM      4  O   UNL A   1      34.621  21.561  27.539  1.00  0.00    -0.269 OA
ATOM      5  H   UNL A   1      36.856  22.169  27.341  1.00  0.00     0.163 HD
BRANCH   3   6
ATOM      6  C   UNL A   1      34.251  21.739  25.224  1.00  0.00     0.041 A 
ATOM      7  C   UNL A   1      33.268  22.653  23.179  1.00  0.00     0.045 A 
ATOM      8  C   UNL A   1      34.008  22.801  24.357  1.00  0.00     0.040 A 
ATOM      9  C   UNL A   1      32.586  21.456  22.929  1.00  0.00    -0.027 A 
ATOM     10  C   UNL A   1      32.804  20.380  23.803  1.00  0.00     0.006 A 
ATOM     11  C   UNL A   1      31.775  21.214  21.687  1.00  0.00     0.046 C 
ATOM     12  C   UNL A   1      33.639  20.514  24.921  1.00  0.00     0.014 A 
BRANCH   7  13
ATOM     13  N   UNL A   1      33.248  23.692  22.234  1.00  0.00    -0.322 N 
ATOM     14  C   UNL A   1      32.754  24.980  22.314  1.00  0.00     0.259 C 
ATOM     15  O   UNL A   1      32.627  25.608  21.259  1.00  0.00    -0.269 OA
ATOM     16  H   UNL A   1      33.654  23.464  21.366  1.00  0.00     0.170 HD
BRANCH  14  17
ATOM     17  C   UNL A   1      32.434  25.693  23.594  1.00  0.00     0.082 A 
ATOM     18  C   UNL A   1      31.417  25.360  24.498  1.00  0.00     0.132 A 
ATOM     19  C   UNL A   1      31.171  26.156  25.627  1.00  0.00     0.056 A 
ATOM     20  C   UNL A   1      32.005  27.232  25.944  1.00  0.00    -0.015 A 
ATOM     21  C   UNL A   1      33.295  26.757  23.938  1.00  0.00     0.026 A 
ATOM     22  C   UNL A   1      31.774  28.018  27.083  1.00  0.00     0.009 A 
ATOM     23  C   UNL A   1      33.106  27.517  25.109  1.00  0.00    -0.017 A 
ATOM     24  C   UNL A   1      32.651  29.045  27.425  1.00  0.00     0.001 A 
ATOM     25  C   UNL A   1      33.981  28.555  25.470  1.00  0.00     0.009 A 
ATOM     26  C   UNL A   1      33.760  29.307  26.626  1.00  0.00     0.001 A 
BRANCH  18  27
ATOM     27  O   UNL A   1      30.530  24.334  24.329  1.00  0.00    -0.496 OA
ATOM     28  C   UNL A   1      30.570  23.416  25.415  1.00  0.00     0.278 C 
ENDBRANCH  18  27
ENDBRANCH  14  17
ENDBRANCH   7  13
ENDBRANCH   3   6
ENDBRANCH   1   2
BRANCH   1  29
ATOM     29  C   UNL A   1      38.833  21.812  25.726  1.00  0.00     0.042 C 
BRANCH  29  30
ATOM     30  C   UNL A   1      39.502  22.583  26.848  1.00  0.00     0.118 C 
BRANCH  30  31
ATOM     31  N   UNL A   1      40.892  22.946  26.576  1.00  0.00    -0.352 N 
ATOM     32  C   UNL A   1      41.437  24.216  26.449  1.00  0.00     0.251 C 
ATOM     33  H   UNL A   1      41.520  22.196  26.468  1.00  0.00     0.163 HD
ATOM     34  O   UNL A   1      42.622  24.380  26.219  1.00  0.00    -0.269 OA
BRANCH  32  35
ATOM     35  C   UNL A   1      40.556  25.370  26.741  1.00  0.00     0.039 A 
ATOM     36  C   UNL A   1      40.848  26.581  26.109  1.00  0.00     0.014 A 
ATOM     37  C   UNL A   1      39.719  25.326  27.852  1.00  0.00     0.014 A 
ATOM     38  C   UNL A   1      40.529  27.770  26.760  1.00  0.00     0.010 A 
ATOM     39  C   UNL A   1      39.523  26.495  28.558  1.00  0.00     0.010 A 
ATOM     40  C   UNL A   1      39.994  27.711  28.046  1.00  0.00    -0.014 A 
BRANCH  40  41
ATOM     41  C   UNL A   1      39.996  28.847  28.965  1.00  0.00     0.031 A 
ATOM     42  C   UNL A   1      38.965  29.899  28.849  1.00  0.00     0.074 A 
ATOM     43  C   UNL A   1      40.889  28.897  29.980  1.00  0.00     0.049 A 
ATOM     44  N   UNL A   1      39.054  31.072  29.379  1.00  0.00    -0.248 NA
ATOM     45  C   UNL A   1      37.748  29.717  28.071  1.00  0.00     0.031 C 
ATOM     46  C   UNL A   1      40.869  29.795  31.134  1.00  0.00     0.029 A 
ATOM     47  N   UNL A   1      42.147  28.272  30.056  1.00  0.00    -0.354 N 
ATOM     48  C   UNL A   1      37.838  31.700  29.242  1.00  0.00     0.074 A 
ATOM     49  C   UNL A   1      37.076  30.830  28.376  1.00  0.00     0.031 C 
ATOM     50  C   UNL A   1      42.119  29.928  31.600  1.00  0.00     0.029 A 
ATOM     51  C   UNL A   1      42.995  29.219  30.687  1.00  0.00     0.049 A 
ATOM     52  H   UNL A   1      42.388  27.372  29.739  1.00  0.00     0.167 HD
ATOM     53  C   UNL A   1      37.596  32.833  29.964  1.00  0.00     0.037 A 
ATOM     54  C   UNL A   1      44.057  29.763  30.024  1.00  0.00     0.037 A 
ATOM     55  C   UNL A   1      38.807  33.300  30.643  1.00  0.00     0.049 A 
ATOM     56  C   UNL A   1      43.991  31.264  29.840  1.00  0.00     0.074 A 
ATOM     57  C   UNL A   1      39.297  33.233  31.937  1.00  0.00     0.029 A 
ATOM     58  N   UNL A   1      39.866  33.724  29.861  1.00  0.00    -0.354 N 
ATOM     59  N   UNL A   1      42.992  32.008  30.227  1.00  0.00    -0.248 NA
ATOM     60  C   UNL A   1      45.003  32.030  29.108  1.00  0.00     0.031 C 
ATOM     61  C   UNL A   1      40.673  33.609  31.912  1.00  0.00     0.029 A 
ATOM     62  C   UNL A   1      41.013  33.903  30.605  1.00  0.00     0.049 A 
ATOM     63  H   UNL A   1      39.808  33.880  28.890  1.00  0.00     0.167 HD
ATOM     64  C   UNL A   1      43.171  33.282  29.760  1.00  0.00     0.074 A 
ATOM     65  C   UNL A   1      44.449  33.252  29.075  1.00  0.00     0.031 C 
ATOM     66  C   UNL A   1      42.241  34.263  29.920  1.00  0.00     0.037 A 
BRANCH  53  67
ATOM     67  C   UNL A   1      36.222  33.420  30.225  1.00  0.00     0.064 A 
ATOM     68  C   UNL A   1      35.468  33.977  29.166  1.00  0.00     0.173 A 
ATOM     69  C   UNL A   1      35.607  33.523  31.486  1.00  0.00     0.173 A 
ATOM     70  F   UNL A   1      35.859  33.862  27.890  1.00  0.00    -0.203 F 
ATOM     71  C   UNL A   1      34.276  34.677  29.375  1.00  0.00     0.198 A 
ATOM     72  C   UNL A   1      34.446  34.271  31.705  1.00  0.00     0.198 A 
ATOM     73  F   UNL A   1      36.055  32.843  32.545  1.00  0.00    -0.203 F 
ATOM     74  F   UNL A   1      33.611  35.184  28.327  1.00  0.00    -0.200 F 
ATOM     75  C   UNL A   1      33.784  34.859  30.650  1.00  0.00     0.200 A 
ATOM     76  F   UNL A   1      33.969  34.406  32.951  1.00  0.00    -0.200 F 
ATOM     77  F   UNL A   1      32.666  35.566  30.856  1.00  0.00    -0.200 F 
ENDBRANCH  53  67
BRANCH  54  78
ATOM     78  C   UNL A   1      44.680  28.806  29.074  1.00  0.00     0.064 A 
ATOM     79  C   UNL A   1      45.520  27.804  29.600  1.00  0.00     0.173 A 
ATOM     80  C   UNL A   1      44.184  28.621  27.780  1.00  0.00     0.173 A 
ATOM     81  F   UNL A   1      46.026  27.934  30.837  1.00  0.00    -0.203 F 
ATOM     82  C   UNL A   1      45.732  26.610  28.919  1.00  0.00     0.198 A 
ATOM     83  C   UNL A   1      44.421  27.431  27.091  1.00  0.00     0.198 A 
ATOM     84  F   UNL A   1      43.367  29.530  27.229  1.00  0.00    -0.203 F 
ATOM     85  F   UNL A   1      46.428  25.627  29.503  1.00  0.00    -0.200 F 
ATOM     86  C   UNL A   1      45.158  26.412  27.676  1.00  0.00     0.200 A 
ATOM     87  F   UNL A   1      43.845  27.229  25.896  1.00  0.00    -0.200 F 
ATOM     88  F   UNL A   1      45.278  25.227  27.062  1.00  0.00    -0.200 F 
ENDBRANCH  54  78
BRANCH  66  89
ATOM     89  C   UNL A   1      42.431  35.661  29.422  1.00  0.00     0.064 A 
ATOM     90  C   UNL A   1      41.885  36.094  28.206  1.00  0.00     0.173 A 
ATOM     91  C   UNL A   1      43.280  36.564  30.090  1.00  0.00     0.173 A 
ATOM     92  F   UNL A   1      41.086  35.289  27.489  1.00  0.00    -0.203 F 
ATOM     93  C   UNL A   1      42.163  37.364  27.694  1.00  0.00     0.198 A 
ATOM     94  C   UNL A   1      43.595  37.811  29.556  1.00  0.00     0.198 A 
ATOM     95  F   UNL A   1      43.806  36.267  31.289  1.00  0.00    -0.203 F 
ATOM     96  F   UNL A   1      41.593  37.758  26.548  1.00  0.00    -0.200 F 
ATOM     97  C   UNL A   1      43.032  38.213  28.360  1.00  0.00     0.200 A 
ATOM     98  F   UNL A   1      44.445  38.618  30.205  1.00  0.00    -0.200 F 
ATOM     99  F   UNL A   1      43.321  39.419  27.853  1.00  0.00    -0.200 F 
ENDBRANCH  66  89
ENDBRANCH  40  41
ENDBRANCH  32  35
ENDBRANCH  30  31
ENDBRANCH  29  30
ENDBRANCH   1  29
TORSDOF 13
ENDMDL
