MODEL 1
REMARK VINA RESULT:     -13.7      0.000      0.000
REMARK SMILES Cc1ccc(OCC(=O)NNC(=O)[C@H]2CCCC[C@@H]2C(=O)NCCCNC(=O)c2ccc(-c3c4nc(c(-c5c(F)c(F)c(F)c(F)c5F)c5ccc([nH]5)c(-c5c(F)c(F)c(F)c(F)c5F)c5nc(c(-c6c(F)c(F)c(F)c(F)c6F)c6ccc3[nH]6)C=C5)C=C4)cc2)cc1
REMARK SMILES IDX 20 1 21 2 22 3 19 5 14 6 15 7 16 8 18 9 17 10 12 11 11 12
REMARK SMILES IDX 13 14 10 15 8 16 9 17 7 19 6 20 5 21 1 22 2 23 3 24 93 25
REMARK SMILES IDX 4 26 92 27 23 28 24 29 25 30 26 31 27 32 28 34 29 35 30 36
REMARK SMILES IDX 91 37 31 38 90 39 32 40 33 41 34 42 84 43 35 44 89 45 83 46
REMARK SMILES IDX 85 47 36 48 88 49 82 50 81 51 37 53 69 54 49 55 68 56 50 57
REMARK SMILES IDX 53 58 67 59 86 60 51 61 52 62 66 64 87 65 54 66 38 67 39 68
REMARK SMILES IDX 47 69 40 70 41 71 45 72 48 73 42 74 43 75 46 76 44 77 70 78
REMARK SMILES IDX 71 79 79 80 72 81 73 82 77 83 80 84 74 85 75 86 78 87 76 88
REMARK SMILES IDX 55 89 56 90 64 91 57 92 58 93 62 94 65 95 59 96 60 97 63 98
REMARK SMILES IDX 61 99
REMARK H PARENT 22 4 11 13 10 18 26 33 85 52 53 63
REMARK Flexibility Score: inf
ROOT
ATOM      1  C   UNL A   1      31.452  27.883  26.519  1.00  0.00     0.223 C 
ATOM      2  O   UNL A   1      31.378  27.036  27.423  1.00  0.00    -0.275 OA
ATOM      3  N   UNL A   1      31.853  29.108  26.919  1.00  0.00    -0.356 N 
ATOM      4  H   UNL A   1      32.021  29.152  27.888  1.00  0.00     0.163 HD
ENDROOT
BRANCH   1   5
ATOM      5  C   UNL A   1      31.070  27.449  25.096  1.00  0.00     0.091 C 
ATOM      6  C   UNL A   1      32.003  26.287  24.681  1.00  0.00     0.092 C 
ATOM      7  C   UNL A   1      33.309  26.849  24.100  1.00  0.00     0.014 C 
ATOM      8  C   UNL A   1      33.095  27.756  22.893  1.00  0.00     0.001 C 
ATOM      9  C   UNL A   1      30.844  28.430  23.948  1.00  0.00     0.014 C 
ATOM     10  C   UNL A   1      32.066  28.847  23.128  1.00  0.00     0.001 C 
BRANCH   6  11
ATOM     11  C   UNL A   1      31.323  25.300  23.726  1.00  0.00     0.242 C 
ATOM     12  N   UNL A   1      30.588  24.259  24.222  1.00  0.00    -0.267 N 
ATOM     13  H   UNL A   1      30.115  23.694  23.568  1.00  0.00     0.191 HD
ATOM     14  O   UNL A   1      31.427  25.382  22.500  1.00  0.00    -0.273 OA
BRANCH  12  15
ATOM     15  N   UNL A   1      30.447  23.924  25.560  1.00  0.00    -0.265 N 
ATOM     16  C   UNL A   1      31.260  23.010  26.195  1.00  0.00     0.276 C 
ATOM     17  O   UNL A   1      31.138  22.814  27.406  1.00  0.00    -0.269 OA
ATOM     18  H   UNL A   1      29.733  24.359  26.081  1.00  0.00     0.191 HD
BRANCH  16  19
ATOM     19  C   UNL A   1      32.336  22.290  25.374  1.00  0.00     0.331 C 
BRANCH  19  20
ATOM     20  O   UNL A   1      33.287  23.134  24.742  1.00  0.00    -0.484 OA
BRANCH  20  21
ATOM     21  C   UNL A   1      34.612  22.908  25.002  1.00  0.00     0.120 A 
ATOM     22  C   UNL A   1      38.692  21.761  25.832  1.00  0.00     0.044 C 
ATOM     23  C   UNL A   1      37.275  22.162  25.546  1.00  0.00    -0.051 A 
ATOM     24  C   UNL A   1      36.300  21.187  25.311  1.00  0.00     0.007 A 
ATOM     25  C   UNL A   1      36.908  23.509  25.494  1.00  0.00     0.007 A 
ATOM     26  C   UNL A   1      34.979  21.560  25.044  1.00  0.00     0.047 A 
ATOM     27  C   UNL A   1      35.586  23.880  25.223  1.00  0.00     0.047 A 
ENDBRANCH  20  21
ENDBRANCH  19  20
ENDBRANCH  16  19
ENDBRANCH  12  15
ENDBRANCH   6  11
ENDBRANCH   1   5
BRANCH   3  28
ATOM     28  C   UNL A   1      32.095  30.372  26.251  1.00  0.00     0.117 C 
BRANCH  28  29
ATOM     29  C   UNL A   1      32.851  31.364  27.132  1.00  0.00     0.042 C 
BRANCH  29  30
ATOM     30  C   UNL A   1      34.096  30.749  27.747  1.00  0.00     0.118 C 
BRANCH  30  31
ATOM     31  N   UNL A   1      34.890  31.648  28.582  1.00  0.00    -0.352 N 
ATOM     32  C   UNL A   1      36.072  31.380  29.270  1.00  0.00     0.251 C 
ATOM     33  H   UNL A   1      34.542  32.565  28.671  1.00  0.00     0.163 HD
ATOM     34  O   UNL A   1      36.597  32.218  29.966  1.00  0.00    -0.269 OA
BRANCH  32  35
ATOM     35  C   UNL A   1      36.739  30.076  29.019  1.00  0.00     0.039 A 
ATOM     36  C   UNL A   1      37.052  29.278  30.124  1.00  0.00     0.014 A 
ATOM     37  C   UNL A   1      37.319  29.833  27.781  1.00  0.00     0.014 A 
ATOM     38  C   UNL A   1      38.156  28.433  30.051  1.00  0.00     0.010 A 
ATOM     39  C   UNL A   1      38.496  29.116  27.753  1.00  0.00     0.010 A 
ATOM     40  C   UNL A   1      38.953  28.469  28.907  1.00  0.00    -0.014 A 
BRANCH  40  41
ATOM     41  C   UNL A   1      40.321  27.958  28.855  1.00  0.00     0.031 A 
ATOM     42  C   UNL A   1      40.569  26.535  28.537  1.00  0.00     0.074 A 
ATOM     43  C   UNL A   1      41.369  28.806  28.979  1.00  0.00     0.049 A 
ATOM     44  N   UNL A   1      41.672  25.921  28.799  1.00  0.00    -0.248 NA
ATOM     45  C   UNL A   1      39.570  25.678  27.906  1.00  0.00     0.031 C 
ATOM     46  C   UNL A   1      42.774  28.528  28.681  1.00  0.00     0.029 A 
ATOM     47  N   UNL A   1      41.397  30.065  29.607  1.00  0.00    -0.354 N 
ATOM     48  C   UNL A   1      41.630  24.702  28.173  1.00  0.00     0.074 A 
ATOM     49  C   UNL A   1      40.291  24.585  27.644  1.00  0.00     0.031 C 
ATOM     50  C   UNL A   1      43.541  29.371  29.387  1.00  0.00     0.029 A 
ATOM     51  C   UNL A   1      42.660  30.130  30.252  1.00  0.00     0.049 A 
ATOM     52  H   UNL A   1      40.692  30.752  29.600  1.00  0.00     0.167 HD
ATOM     53  C   UNL A   1      42.759  23.947  28.083  1.00  0.00     0.037 A 
ATOM     54  C   UNL A   1      42.740  30.179  31.614  1.00  0.00     0.037 A 
ATOM     55  C   UNL A   1      43.883  24.549  28.784  1.00  0.00     0.049 A 
ATOM     56  C   UNL A   1      43.418  28.981  32.250  1.00  0.00     0.074 A 
ATOM     57  C   UNL A   1      44.976  25.314  28.409  1.00  0.00     0.029 A 
ATOM     58  N   UNL A   1      43.799  24.662  30.160  1.00  0.00    -0.354 N 
ATOM     59  N   UNL A   1      43.888  27.958  31.591  1.00  0.00    -0.248 NA
ATOM     60  C   UNL A   1      43.524  28.804  33.699  1.00  0.00     0.031 C 
ATOM     61  C   UNL A   1      45.526  25.909  29.584  1.00  0.00     0.029 A 
ATOM     62  C   UNL A   1      44.776  25.492  30.667  1.00  0.00     0.049 A 
ATOM     63  H   UNL A   1      43.123  24.205  30.710  1.00  0.00     0.167 HD
ATOM     64  C   UNL A   1      44.297  26.997  32.477  1.00  0.00     0.074 A 
ATOM     65  C   UNL A   1      44.051  27.571  33.787  1.00  0.00     0.031 C 
ATOM     66  C   UNL A   1      44.772  25.779  32.091  1.00  0.00     0.037 A 
BRANCH  53  67
ATOM     67  C   UNL A   1      42.843  22.757  27.175  1.00  0.00     0.064 A 
ATOM     68  C   UNL A   1      42.100  21.592  27.439  1.00  0.00     0.173 A 
ATOM     69  C   UNL A   1      43.692  22.697  26.056  1.00  0.00     0.173 A 
ATOM     70  F   UNL A   1      41.209  21.544  28.439  1.00  0.00    -0.203 F 
ATOM     71  C   UNL A   1      42.272  20.421  26.696  1.00  0.00     0.198 A 
ATOM     72  C   UNL A   1      43.912  21.509  25.355  1.00  0.00     0.198 A 
ATOM     73  F   UNL A   1      44.324  23.794  25.611  1.00  0.00    -0.203 F 
ATOM     74  F   UNL A   1      41.542  19.335  26.990  1.00  0.00    -0.200 F 
ATOM     75  C   UNL A   1      43.206  20.368  25.680  1.00  0.00     0.200 A 
ATOM     76  F   UNL A   1      44.823  21.474  24.371  1.00  0.00    -0.200 F 
ATOM     77  F   UNL A   1      43.417  19.226  25.012  1.00  0.00    -0.200 F 
ENDBRANCH  53  67
BRANCH  54  78
ATOM     78  C   UNL A   1      41.631  30.968  32.214  1.00  0.00     0.064 A 
ATOM     79  C   UNL A   1      41.708  32.375  32.144  1.00  0.00     0.173 A 
ATOM     80  C   UNL A   1      40.380  30.401  32.472  1.00  0.00     0.173 A 
ATOM     81  F   UNL A   1      42.888  32.971  31.902  1.00  0.00    -0.203 F 
ATOM     82  C   UNL A   1      40.563  33.164  32.184  1.00  0.00     0.198 A 
ATOM     83  C   UNL A   1      39.236  31.199  32.535  1.00  0.00     0.198 A 
ATOM     84  F   UNL A   1      40.237  29.069  32.531  1.00  0.00    -0.203 F 
ATOM     85  F   UNL A   1      40.653  34.486  31.974  1.00  0.00    -0.200 F 
ATOM     86  C   UNL A   1      39.323  32.572  32.348  1.00  0.00     0.200 A 
ATOM     87  F   UNL A   1      38.034  30.624  32.669  1.00  0.00    -0.200 F 
ATOM     88  F   UNL A   1      38.210  33.314  32.280  1.00  0.00    -0.200 F 
ENDBRANCH  54  78
BRANCH  66  89
ATOM     89  C   UNL A   1      45.268  24.745  33.058  1.00  0.00     0.064 A 
ATOM     90  C   UNL A   1      46.578  24.769  33.562  1.00  0.00     0.173 A 
ATOM     91  C   UNL A   1      44.483  23.629  33.414  1.00  0.00     0.173 A 
ATOM     92  F   UNL A   1      47.421  25.760  33.231  1.00  0.00    -0.203 F 
ATOM     93  C   UNL A   1      47.057  23.765  34.404  1.00  0.00     0.198 A 
ATOM     94  C   UNL A   1      44.980  22.601  34.212  1.00  0.00     0.198 A 
ATOM     95  F   UNL A   1      43.207  23.517  33.018  1.00  0.00    -0.203 F 
ATOM     96  F   UNL A   1      48.295  23.853  34.908  1.00  0.00    -0.200 F 
ATOM     97  C   UNL A   1      46.262  22.675  34.719  1.00  0.00     0.200 A 
ATOM     98  F   UNL A   1      44.207  21.541  34.489  1.00  0.00    -0.200 F 
ATOM     99  F   UNL A   1      46.731  21.701  35.511  1.00  0.00    -0.200 F 
ENDBRANCH  66  89
ENDBRANCH  40  41
ENDBRANCH  32  35
ENDBRANCH  30  31
ENDBRANCH  29  30
ENDBRANCH  28  29
ENDBRANCH   3  28
TORSDOF 15
ENDMDL
MODEL 2
REMARK VINA RESULT:     -13.7      3.353      9.944
REMARK SMILES Cc1ccc(OCC(=O)NNC(=O)[C@H]2CCCC[C@@H]2C(=O)NCCCNC(=O)c2ccc(-c3c4nc(c(-c5c(F)c(F)c(F)c(F)c5F)c5ccc([nH]5)c(-c5c(F)c(F)c(F)c(F)c5F)c5nc(c(-c6c(F)c(F)c(F)c(F)c6F)c6ccc3[nH]6)C=C5)C=C4)cc2)cc1
REMARK SMILES IDX 20 1 21 2 22 3 19 5 14 6 15 7 16 8 18 9 17 10 12 11 11 12
REMARK SMILES IDX 13 14 10 15 8 16 9 17 7 19 6 20 5 21 1 22 2 23 3 24 93 25
REMARK SMILES IDX 4 26 92 27 23 28 24 29 25 30 26 31 27 32 28 34 29 35 30 36
REMARK SMILES IDX 91 37 31 38 90 39 32 40 33 41 34 42 84 43 35 44 89 45 83 46
REMARK SMILES IDX 85 47 36 48 88 49 82 50 81 51 37 53 69 54 49 55 68 56 50 57
REMARK SMILES IDX 53 58 67 59 86 60 51 61 52 62 66 64 87 65 54 66 38 67 39 68
REMARK SMILES IDX 47 69 40 70 41 71 45 72 48 73 42 74 43 75 46 76 44 77 70 78
REMARK SMILES IDX 71 79 79 80 72 81 73 82 77 83 80 84 74 85 75 86 78 87 76 88
REMARK SMILES IDX 55 89 56 90 64 91 57 92 58 93 62 94 65 95 59 96 60 97 63 98
REMARK SMILES IDX 61 99
REMARK H PARENT 22 4 11 13 10 18 26 33 85 52 53 63
REMARK Flexibility Score: inf
ROOT
ATOM      1  C   UNL A   1      36.440  22.777  23.576  1.00  0.00     0.223 C 
ATOM      2  O   UNL A   1      36.622  22.959  22.362  1.00  0.00    -0.275 OA
ATOM      3  N   UNL A   1      37.507  23.045  24.358  1.00  0.00    -0.356 N 
ATOM      4  H   UNL A   1      38.290  23.341  23.839  1.00  0.00     0.163 HD
ENDROOT
BRANCH   1   5
ATOM      5  C   UNL A   1      35.064  22.265  24.027  1.00  0.00     0.091 C 
ATOM      6  C   UNL A   1      34.195  23.489  24.403  1.00  0.00     0.092 C 
ATOM      7  C   UNL A   1      34.463  23.891  25.861  1.00  0.00     0.014 C 
ATOM      8  C   UNL A   1      34.185  22.772  26.859  1.00  0.00     0.001 C 
ATOM      9  C   UNL A   1      34.874  21.114  25.012  1.00  0.00     0.014 C 
ATOM     10  C   UNL A   1      34.857  21.459  26.502  1.00  0.00     0.001 C 
BRANCH   6  11
ATOM     11  C   UNL A   1      32.705  23.258  24.131  1.00  0.00     0.242 C 
ATOM     12  N   UNL A   1      32.166  23.593  22.919  1.00  0.00    -0.267 N 
ATOM     13  H   UNL A   1      31.221  23.361  22.771  1.00  0.00     0.191 HD
ATOM     14  O   UNL A   1      31.938  22.795  24.978  1.00  0.00    -0.273 OA
BRANCH  12  15
ATOM     15  N   UNL A   1      32.829  24.231  21.881  1.00  0.00    -0.265 N 
ATOM     16  C   UNL A   1      32.595  25.544  21.535  1.00  0.00     0.276 C 
ATOM     17  O   UNL A   1      33.272  26.079  20.656  1.00  0.00    -0.269 OA
ATOM     18  H   UNL A   1      33.496  23.721  21.367  1.00  0.00     0.191 HD
BRANCH  16  19
ATOM     19  C   UNL A   1      31.517  26.323  22.298  1.00  0.00     0.331 C 
BRANCH  19  20
ATOM     20  O   UNL A   1      31.544  26.178  23.710  1.00  0.00    -0.484 OA
BRANCH  20  21
ATOM     21  C   UNL A   1      31.969  27.247  24.452  1.00  0.00     0.120 A 
ATOM     22  C   UNL A   1      33.672  30.381  26.887  1.00  0.00     0.044 C 
ATOM     23  C   UNL A   1      33.077  29.292  26.043  1.00  0.00    -0.051 A 
ATOM     24  C   UNL A   1      33.812  28.137  25.762  1.00  0.00     0.007 A 
ATOM     25  C   UNL A   1      31.791  29.420  25.511  1.00  0.00     0.007 A 
ATOM     26  C   UNL A   1      33.259  27.122  24.975  1.00  0.00     0.047 A 
ATOM     27  C   UNL A   1      31.241  28.404  24.721  1.00  0.00     0.047 A 
ENDBRANCH  20  21
ENDBRANCH  19  20
ENDBRANCH  16  19
ENDBRANCH  12  15
ENDBRANCH   6  11
ENDBRANCH   1   5
BRANCH   3  28
ATOM     28  C   UNL A   1      37.766  23.000  25.784  1.00  0.00     0.117 C 
BRANCH  28  29
ATOM     29  C   UNL A   1      38.869  22.010  26.147  1.00  0.00     0.042 C 
BRANCH  29  30
ATOM     30  C   UNL A   1      39.797  22.554  27.220  1.00  0.00     0.118 C 
BRANCH  30  31
ATOM     31  N   UNL A   1      41.107  22.995  26.748  1.00  0.00    -0.352 N 
ATOM     32  C   UNL A   1      41.535  24.287  26.445  1.00  0.00     0.251 C 
ATOM     33  H   UNL A   1      41.778  22.284  26.626  1.00  0.00     0.163 HD
ATOM     34  O   UNL A   1      42.646  24.497  26.016  1.00  0.00    -0.269 OA
BRANCH  32  35
ATOM     35  C   UNL A   1      40.629  25.414  26.788  1.00  0.00     0.039 A 
ATOM     36  C   UNL A   1      40.805  26.624  26.110  1.00  0.00     0.014 A 
ATOM     37  C   UNL A   1      39.881  25.357  27.956  1.00  0.00     0.014 A 
ATOM     38  C   UNL A   1      40.479  27.811  26.761  1.00  0.00     0.010 A 
ATOM     39  C   UNL A   1      39.699  26.528  28.659  1.00  0.00     0.010 A 
ATOM     40  C   UNL A   1      40.060  27.755  28.089  1.00  0.00    -0.014 A 
BRANCH  40  41
ATOM     41  C   UNL A   1      40.074  28.902  28.994  1.00  0.00     0.031 A 
ATOM     42  C   UNL A   1      39.016  29.931  28.900  1.00  0.00     0.074 A 
ATOM     43  C   UNL A   1      40.981  28.967  29.996  1.00  0.00     0.049 A 
ATOM     44  N   UNL A   1      39.122  31.118  29.394  1.00  0.00    -0.248 NA
ATOM     45  C   UNL A   1      37.746  29.704  28.218  1.00  0.00     0.031 C 
ATOM     46  C   UNL A   1      40.971  29.876  31.143  1.00  0.00     0.029 A 
ATOM     47  N   UNL A   1      42.237  28.338  30.072  1.00  0.00    -0.354 N 
ATOM     48  C   UNL A   1      37.889  31.713  29.319  1.00  0.00     0.074 A 
ATOM     49  C   UNL A   1      37.065  30.801  28.561  1.00  0.00     0.031 C 
ATOM     50  C   UNL A   1      42.225  30.006  31.602  1.00  0.00     0.029 A 
ATOM     51  C   UNL A   1      43.092  29.286  30.691  1.00  0.00     0.049 A 
ATOM     52  H   UNL A   1      42.471  27.433  29.762  1.00  0.00     0.167 HD
ATOM     53  C   UNL A   1      37.656  32.877  29.985  1.00  0.00     0.037 A 
ATOM     54  C   UNL A   1      44.138  29.830  30.002  1.00  0.00     0.037 A 
ATOM     55  C   UNL A   1      38.851  33.386  30.641  1.00  0.00     0.049 A 
ATOM     56  C   UNL A   1      44.034  31.325  29.772  1.00  0.00     0.074 A 
ATOM     57  C   UNL A   1      39.355  33.343  31.930  1.00  0.00     0.029 A 
ATOM     58  N   UNL A   1      39.902  33.793  29.839  1.00  0.00    -0.354 N 
ATOM     59  N   UNL A   1      43.039  32.069  30.170  1.00  0.00    -0.248 NA
ATOM     60  C   UNL A   1      45.009  32.077  28.981  1.00  0.00     0.031 C 
ATOM     61  C   UNL A   1      40.735  33.703  31.881  1.00  0.00     0.029 A 
ATOM     62  C   UNL A   1      41.060  33.978  30.566  1.00  0.00     0.049 A 
ATOM     63  H   UNL A   1      39.833  33.932  28.867  1.00  0.00     0.167 HD
ATOM     64  C   UNL A   1      43.194  33.336  29.671  1.00  0.00     0.074 A 
ATOM     65  C   UNL A   1      44.442  33.294  28.933  1.00  0.00     0.031 C 
ATOM     66  C   UNL A   1      42.277  34.328  29.856  1.00  0.00     0.037 A 
BRANCH  53  67
ATOM     67  C   UNL A   1      36.269  33.415  30.173  1.00  0.00     0.064 A 
ATOM     68  C   UNL A   1      35.534  33.921  29.085  1.00  0.00     0.173 A 
ATOM     69  C   UNL A   1      35.640  33.508  31.428  1.00  0.00     0.173 A 
ATOM     70  F   UNL A   1      35.998  33.834  27.831  1.00  0.00    -0.203 F 
ATOM     71  C   UNL A   1      34.305  34.562  29.256  1.00  0.00     0.198 A 
ATOM     72  C   UNL A   1      34.444  34.205  31.608  1.00  0.00     0.198 A 
ATOM     73  F   UNL A   1      36.170  32.915  32.509  1.00  0.00    -0.203 F 
ATOM     74  F   UNL A   1      33.646  35.030  28.187  1.00  0.00    -0.200 F 
ATOM     75  C   UNL A   1      33.780  34.738  30.522  1.00  0.00     0.200 A 
ATOM     76  F   UNL A   1      33.946  34.368  32.843  1.00  0.00    -0.200 F 
ATOM     77  F   UNL A   1      32.632  35.410  30.691  1.00  0.00    -0.200 F 
ENDBRANCH  53  67
BRANCH  54  78
ATOM     78  C   UNL A   1      44.769  28.851  29.077  1.00  0.00     0.064 A 
ATOM     79  C   UNL A   1      45.598  27.855  29.634  1.00  0.00     0.173 A 
ATOM     80  C   UNL A   1      44.278  28.637  27.786  1.00  0.00     0.173 A 
ATOM     81  F   UNL A   1      46.099  28.013  30.870  1.00  0.00    -0.203 F 
ATOM     82  C   UNL A   1      45.803  26.640  28.986  1.00  0.00     0.198 A 
ATOM     83  C   UNL A   1      44.507  27.426  27.130  1.00  0.00     0.198 A 
ATOM     84  F   UNL A   1      43.470  29.537  27.209  1.00  0.00    -0.203 F 
ATOM     85  F   UNL A   1      46.479  25.659  29.602  1.00  0.00    -0.200 F 
ATOM     86  C   UNL A   1      45.230  26.415  27.747  1.00  0.00     0.200 A 
ATOM     87  F   UNL A   1      43.932  27.198  25.941  1.00  0.00    -0.200 F 
ATOM     88  F   UNL A   1      45.334  25.211  27.167  1.00  0.00    -0.200 F 
ENDBRANCH  54  78
BRANCH  66  89
ATOM     89  C   UNL A   1      42.468  35.728  29.354  1.00  0.00     0.064 A 
ATOM     90  C   UNL A   1      41.937  36.155  28.127  1.00  0.00     0.173 A 
ATOM     91  C   UNL A   1      43.296  36.649  30.030  1.00  0.00     0.173 A 
ATOM     92  F   UNL A   1      41.187  35.330  27.381  1.00  0.00    -0.203 F 
ATOM     93  C   UNL A   1      42.180  37.437  27.631  1.00  0.00     0.198 A 
ATOM     94  C   UNL A   1      43.580  37.909  29.507  1.00  0.00     0.198 A 
ATOM     95  F   UNL A   1      43.830  36.361  31.225  1.00  0.00    -0.203 F 
ATOM     96  F   UNL A   1      41.610  37.825  26.482  1.00  0.00    -0.200 F 
ATOM     97  C   UNL A   1      43.011  38.308  28.314  1.00  0.00     0.200 A 
ATOM     98  F   UNL A   1      44.405  38.733  30.170  1.00  0.00    -0.200 F 
ATOM     99  F   UNL A   1      43.260  39.531  27.826  1.00  0.00    -0.200 F 
ENDBRANCH  66  89
ENDBRANCH  40  41
ENDBRANCH  32  35
ENDBRANCH  30  31
ENDBRANCH  29  30
ENDBRANCH  28  29
ENDBRANCH   3  28
TORSDOF 15
ENDMDL
MODEL 3
REMARK VINA RESULT:     -13.7      1.109      1.698
REMARK SMILES Cc1ccc(OCC(=O)NNC(=O)[C@H]2CCCC[C@@H]2C(=O)NCCCNC(=O)c2ccc(-c3c4nc(c(-c5c(F)c(F)c(F)c(F)c5F)c5ccc([nH]5)c(-c5c(F)c(F)c(F)c(F)c5F)c5nc(c(-c6c(F)c(F)c(F)c(F)c6F)c6ccc3[nH]6)C=C5)C=C4)cc2)cc1
REMARK SMILES IDX 20 1 21 2 22 3 19 5 14 6 15 7 16 8 18 9 17 10 12 11 11 12
REMARK SMILES IDX 13 14 10 15 8 16 9 17 7 19 6 20 5 21 1 22 2 23 3 24 93 25
REMARK SMILES IDX 4 26 92 27 23 28 24 29 25 30 26 31 27 32 28 34 29 35 30 36
REMARK SMILES IDX 91 37 31 38 90 39 32 40 33 41 34 42 84 43 35 44 89 45 83 46
REMARK SMILES IDX 85 47 36 48 88 49 82 50 81 51 37 53 69 54 49 55 68 56 50 57
REMARK SMILES IDX 53 58 67 59 86 60 51 61 52 62 66 64 87 65 54 66 38 67 39 68
REMARK SMILES IDX 47 69 40 70 41 71 45 72 48 73 42 74 43 75 46 76 44 77 70 78
REMARK SMILES IDX 71 79 79 80 72 81 73 82 77 83 80 84 74 85 75 86 78 87 76 88
REMARK SMILES IDX 55 89 56 90 64 91 57 92 58 93 62 94 65 95 59 96 60 97 63 98
REMARK SMILES IDX 61 99
REMARK H PARENT 22 4 11 13 10 18 26 33 85 52 53 63
REMARK Flexibility Score: inf
ROOT
ATOM      1  C   UNL A   1      31.782  28.265  27.173  1.00  0.00     0.223 C 
ATOM      2  O   UNL A   1      31.019  27.821  28.045  1.00  0.00    -0.275 OA
ATOM      3  N   UNL A   1      32.835  28.967  27.644  1.00  0.00    -0.356 N 
ATOM      4  H   UNL A   1      32.835  29.034  28.626  1.00  0.00     0.163 HD
ENDROOT
BRANCH   1   5
ATOM      5  C   UNL A   1      31.436  27.983  25.704  1.00  0.00     0.091 C 
ATOM      6  C   UNL A   1      31.995  26.588  25.337  1.00  0.00     0.092 C 
ATOM      7  C   UNL A   1      33.465  26.712  24.909  1.00  0.00     0.014 C 
ATOM      8  C   UNL A   1      33.675  27.648  23.724  1.00  0.00     0.001 C 
ATOM      9  C   UNL A   1      31.651  28.992  24.579  1.00  0.00     0.014 C 
ATOM     10  C   UNL A   1      33.021  29.007  23.900  1.00  0.00     0.001 C 
BRANCH   6  11
ATOM     11  C   UNL A   1      31.144  25.873  24.282  1.00  0.00     0.242 C 
ATOM     12  N   UNL A   1      30.171  24.992  24.666  1.00  0.00    -0.267 N 
ATOM     13  H   UNL A   1      29.607  24.612  23.954  1.00  0.00     0.191 HD
ATOM     14  O   UNL A   1      31.311  26.035  23.071  1.00  0.00    -0.273 OA
BRANCH  12  15
ATOM     15  N   UNL A   1      29.905  24.584  25.964  1.00  0.00    -0.265 N 
ATOM     16  C   UNL A   1      30.236  23.336  26.442  1.00  0.00     0.276 C 
ATOM     17  O   UNL A   1      30.048  23.059  27.628  1.00  0.00    -0.269 OA
ATOM     18  H   UNL A   1      29.459  25.217  26.573  1.00  0.00     0.191 HD
BRANCH  16  19
ATOM     19  C   UNL A   1      30.881  22.329  25.481  1.00  0.00     0.331 C 
BRANCH  19  20
ATOM     20  O   UNL A   1      32.034  21.665  25.977  1.00  0.00    -0.484 OA
BRANCH  20  21
ATOM     21  C   UNL A   1      33.226  21.903  25.349  1.00  0.00     0.120 A 
ATOM     22  C   UNL A   1      36.773  22.955  23.119  1.00  0.00     0.044 C 
ATOM     23  C   UNL A   1      35.542  22.586  23.893  1.00  0.00    -0.051 A 
ATOM     24  C   UNL A   1      34.352  23.297  23.706  1.00  0.00     0.007 A 
ATOM     25  C   UNL A   1      35.564  21.542  24.822  1.00  0.00     0.007 A 
ATOM     26  C   UNL A   1      33.204  22.954  24.428  1.00  0.00     0.047 A 
ATOM     27  C   UNL A   1      34.415  21.203  25.545  1.00  0.00     0.047 A 
ENDBRANCH  20  21
ENDBRANCH  19  20
ENDBRANCH  16  19
ENDBRANCH  12  15
ENDBRANCH   6  11
ENDBRANCH   1   5
BRANCH   3  28
ATOM     28  C   UNL A   1      33.964  29.645  27.036  1.00  0.00     0.117 C 
BRANCH  28  29
ATOM     29  C   UNL A   1      33.932  31.154  27.263  1.00  0.00     0.042 C 
BRANCH  29  30
ATOM     30  C   UNL A   1      35.274  31.691  27.729  1.00  0.00     0.118 C 
BRANCH  30  31
ATOM     31  N   UNL A   1      35.386  31.931  29.166  1.00  0.00    -0.352 N 
ATOM     32  C   UNL A   1      35.978  31.127  30.140  1.00  0.00     0.251 C 
ATOM     33  H   UNL A   1      34.990  32.772  29.491  1.00  0.00     0.163 HD
ATOM     34  O   UNL A   1      35.955  31.435  31.308  1.00  0.00    -0.269 OA
BRANCH  32  35
ATOM     35  C   UNL A   1      36.754  29.945  29.683  1.00  0.00     0.039 A 
ATOM     36  C   UNL A   1      37.044  28.950  30.622  1.00  0.00     0.014 A 
ATOM     37  C   UNL A   1      37.437  30.001  28.475  1.00  0.00     0.014 A 
ATOM     38  C   UNL A   1      38.209  28.202  30.470  1.00  0.00     0.010 A 
ATOM     39  C   UNL A   1      38.661  29.373  28.401  1.00  0.00     0.010 A 
ATOM     40  C   UNL A   1      39.081  28.523  29.431  1.00  0.00    -0.014 A 
BRANCH  40  41
ATOM     41  C   UNL A   1      40.482  28.112  29.391  1.00  0.00     0.031 A 
ATOM     42  C   UNL A   1      40.853  26.799  28.820  1.00  0.00     0.074 A 
ATOM     43  C   UNL A   1      41.455  28.975  29.765  1.00  0.00     0.049 A 
ATOM     44  N   UNL A   1      41.977  26.209  29.045  1.00  0.00    -0.248 NA
ATOM     45  C   UNL A   1      39.964  26.032  27.953  1.00  0.00     0.031 C 
ATOM     46  C   UNL A   1      42.894  28.843  29.533  1.00  0.00     0.029 A 
ATOM     47  N   UNL A   1      41.350  30.081  30.629  1.00  0.00    -0.354 N 
ATOM     48  C   UNL A   1      42.066  25.141  28.190  1.00  0.00     0.074 A 
ATOM     49  C   UNL A   1      40.779  25.057  27.540  1.00  0.00     0.031 C 
ATOM     50  C   UNL A   1      43.548  29.569  30.453  1.00  0.00     0.029 A 
ATOM     51  C   UNL A   1      42.557  30.086  31.376  1.00  0.00     0.049 A 
ATOM     52  H   UNL A   1      40.599  30.714  30.700  1.00  0.00     0.167 HD
ATOM     53  C   UNL A   1      43.250  24.485  28.045  1.00  0.00     0.037 A 
ATOM     54  C   UNL A   1      42.540  29.863  32.722  1.00  0.00     0.037 A 
ATOM     55  C   UNL A   1      44.277  24.996  28.940  1.00  0.00     0.049 A 
ATOM     56  C   UNL A   1      43.257  28.602  33.162  1.00  0.00     0.074 A 
ATOM     57  C   UNL A   1      45.335  25.881  28.815  1.00  0.00     0.029 A 
ATOM     58  N   UNL A   1      44.090  24.823  30.300  1.00  0.00    -0.354 N 
ATOM     59  N   UNL A   1      43.844  27.761  32.355  1.00  0.00    -0.248 NA
ATOM     60  C   UNL A   1      43.276  28.141  34.552  1.00  0.00     0.031 C 
ATOM     61  C   UNL A   1      45.758  26.257  30.124  1.00  0.00     0.029 A 
ATOM     62  C   UNL A   1      44.968  25.588  31.039  1.00  0.00     0.049 A 
ATOM     63  H   UNL A   1      43.412  24.227  30.692  1.00  0.00     0.167 HD
ATOM     64  C   UNL A   1      44.259  26.666  33.065  1.00  0.00     0.074 A 
ATOM     65  C   UNL A   1      43.882  26.949  34.437  1.00  0.00     0.031 C 
ATOM     66  C   UNL A   1      44.846  25.580  32.486  1.00  0.00     0.037 A 
BRANCH  53  67
ATOM     67  C   UNL A   1      43.481  23.509  26.930  1.00  0.00     0.064 A 
ATOM     68  C   UNL A   1      42.986  22.194  27.004  1.00  0.00     0.173 A 
ATOM     69  C   UNL A   1      44.240  23.810  25.785  1.00  0.00     0.173 A 
ATOM     70  F   UNL A   1      42.198  21.803  28.015  1.00  0.00    -0.203 F 
ATOM     71  C   UNL A   1      43.313  21.226  26.052  1.00  0.00     0.198 A 
ATOM     72  C   UNL A   1      44.620  22.828  24.868  1.00  0.00     0.198 A 
ATOM     73  F   UNL A   1      44.624  25.070  25.525  1.00  0.00    -0.203 F 
ATOM     74  F   UNL A   1      42.820  19.986  26.170  1.00  0.00    -0.200 F 
ATOM     75  C   UNL A   1      44.162  21.533  25.006  1.00  0.00     0.200 A 
ATOM     76  F   UNL A   1      45.445  23.142  23.858  1.00  0.00    -0.200 F 
ATOM     77  F   UNL A   1      44.527  20.587  24.129  1.00  0.00    -0.200 F 
ENDBRANCH  53  67
BRANCH  54  78
ATOM     78  C   UNL A   1      41.338  30.451  33.373  1.00  0.00     0.064 A 
ATOM     79  C   UNL A   1      41.304  31.848  33.558  1.00  0.00     0.173 A 
ATOM     80  C   UNL A   1      40.125  29.760  33.439  1.00  0.00     0.173 A 
ATOM     81  F   UNL A   1      42.443  32.560  33.508  1.00  0.00    -0.203 F 
ATOM     82  C   UNL A   1      40.097  32.535  33.657  1.00  0.00     0.198 A 
ATOM     83  C   UNL A   1      38.918  30.451  33.562  1.00  0.00     0.198 A 
ATOM     84  F   UNL A   1      40.088  28.433  33.252  1.00  0.00    -0.203 F 
ATOM     85  F   UNL A   1      40.091  33.876  33.690  1.00  0.00    -0.200 F 
ATOM     86  C   UNL A   1      38.903  31.837  33.627  1.00  0.00     0.200 A 
ATOM     87  F   UNL A   1      37.761  29.777  33.509  1.00  0.00    -0.200 F 
ATOM     88  F   UNL A   1      37.738  32.500  33.614  1.00  0.00    -0.200 F 
ENDBRANCH  54  78
BRANCH  66  89
ATOM     89  C   UNL A   1      45.347  24.402  33.268  1.00  0.00     0.064 A 
ATOM     90  C   UNL A   1      44.514  23.319  33.591  1.00  0.00     0.173 A 
ATOM     91  C   UNL A   1      46.643  24.381  33.823  1.00  0.00     0.173 A 
ATOM     92  F   UNL A   1      43.245  23.278  33.160  1.00  0.00    -0.203 F 
ATOM     93  C   UNL A   1      44.965  22.260  34.381  1.00  0.00     0.198 A 
ATOM     94  C   UNL A   1      47.073  23.349  34.654  1.00  0.00     0.198 A 
ATOM     95  F   UNL A   1      47.534  25.346  33.555  1.00  0.00    -0.203 F 
ATOM     96  F   UNL A   1      44.157  21.219  34.622  1.00  0.00    -0.200 F 
ATOM     97  C   UNL A   1      46.239  22.281  34.923  1.00  0.00     0.200 A 
ATOM     98  F   UNL A   1      48.302  23.395  35.190  1.00  0.00    -0.200 F 
ATOM     99  F   UNL A   1      46.663  21.274  35.698  1.00  0.00    -0.200 F 
ENDBRANCH  66  89
ENDBRANCH  40  41
ENDBRANCH  32  35
ENDBRANCH  30  31
ENDBRANCH  29  30
ENDBRANCH  28  29
ENDBRANCH   3  28
TORSDOF 15
ENDMDL
