MODEL 1
REMARK VINA RESULT:     -10.6      0.000      0.000
REMARK SMILES CC1(C)CSC[C@H]([NH2+]CCC(=O)NCCCNC(=O)c2ccc(-c3c4nc(c(-c5c(F)c(F)c(F)c(F)c5F)c5ccc([nH]5)c(-c5c(F)c(F)c(F)c(F)c5F)c5nc(c(-c6c(F)c(F)c(F)c(F)c6F)c6ccc3[nH]6)C=C5)C=C4)cc2)C1
REMARK SMILES IDX 14 1 13 2 11 3 12 4 10 6 9 7 8 8 7 11 1 12 2 13 3 14 4 15
REMARK SMILES IDX 83 16 5 17 6 18 15 19 16 20 17 21 18 22 19 24 20 25 21 26
REMARK SMILES IDX 82 27 22 28 81 29 23 30 24 31 25 32 75 33 26 34 80 35 74 36
REMARK SMILES IDX 76 37 27 38 79 39 73 40 72 41 28 43 60 44 40 45 59 46 41 47
REMARK SMILES IDX 44 48 58 49 77 50 42 51 43 52 57 54 78 55 45 56 29 57 30 58
REMARK SMILES IDX 38 59 31 60 32 61 36 62 39 63 33 64 34 65 37 66 35 67 61 68
REMARK SMILES IDX 62 69 70 70 63 71 64 72 68 73 71 74 65 75 66 76 69 77 67 78
REMARK SMILES IDX 46 79 47 80 55 81 48 82 49 83 53 84 56 85 50 86 51 87 54 88
REMARK SMILES IDX 52 89
REMARK H PARENT 13 5 8 9 8 10 17 23 76 42 44 53
REMARK Flexibility Score: inf
ROOT
ATOM      1  C   UNL A   1      33.735  35.122  29.219  1.00  0.00     0.117 C 
ENDROOT
BRANCH   1   2
ATOM      2  N   UNL A   1      32.783  34.996  30.321  1.00  0.00    -0.356 N 
ATOM      3  C   UNL A   1      32.629  35.728  31.463  1.00  0.00     0.225 C 
ATOM      4  O   UNL A   1      31.696  35.431  32.213  1.00  0.00    -0.275 OA
ATOM      5  H   UNL A   1      32.143  34.255  30.222  1.00  0.00     0.163 HD
BRANCH   3   6
ATOM      6  C   UNL A   1      33.598  36.835  31.833  1.00  0.00     0.161 C 
BRANCH   6   7
ATOM      7  C   UNL A   1      34.078  36.729  33.285  1.00  0.00     0.270 C 
BRANCH   7   8
ATOM      8  N   UNL A   1      34.296  35.322  33.592  1.00  0.00    -0.343 N 
ATOM      9  H   UNL A   1      33.864  35.133  34.496  1.00  0.00     0.346 HD
ATOM     10  H   UNL A   1      33.887  34.812  32.808  1.00  0.00     0.346 HD
BRANCH   8  11
ATOM     11  C   UNL A   1      35.693  34.867  33.661  1.00  0.00     0.193 C 
ATOM     12  C   UNL A   1      38.493  34.451  32.195  1.00  0.00     0.012 C 
ATOM     13  C   UNL A   1      37.296  33.484  32.108  1.00  0.00    -0.021 C 
ATOM     14  C   UNL A   1      37.309  32.850  30.699  1.00  0.00     0.012 C 
ATOM     15  C   UNL A   1      37.408  32.351  33.147  1.00  0.00     0.076 C 
ATOM     16  C   UNL A   1      35.957  34.236  32.278  1.00  0.00     0.073 C 
ATOM     17  S   UNL A   1      37.410  32.954  34.860  1.00  0.00    -0.155 SA
ATOM     18  C   UNL A   1      35.843  33.862  34.823  1.00  0.00     0.134 C 
ENDBRANCH   8  11
ENDBRANCH   7   8
ENDBRANCH   6   7
ENDBRANCH   3   6
ENDBRANCH   1   2
BRANCH   1  19
ATOM     19  C   UNL A   1      33.756  33.899  28.295  1.00  0.00     0.042 C 
BRANCH  19  20
ATOM     20  C   UNL A   1      34.446  32.668  28.875  1.00  0.00     0.118 C 
BRANCH  20  21
ATOM     21  N   UNL A   1      33.921  31.437  28.315  1.00  0.00    -0.352 N 
ATOM     22  C   UNL A   1      34.545  30.263  27.969  1.00  0.00     0.251 C 
ATOM     23  H   UNL A   1      32.949  31.442  28.157  1.00  0.00     0.163 HD
ATOM     24  O   UNL A   1      33.919  29.444  27.295  1.00  0.00    -0.269 OA
BRANCH  22  25
ATOM     25  C   UNL A   1      35.944  29.950  28.363  1.00  0.00     0.039 A 
ATOM     26  C   UNL A   1      36.951  30.106  27.400  1.00  0.00     0.014 A 
ATOM     27  C   UNL A   1      36.279  29.411  29.608  1.00  0.00     0.014 A 
ATOM     28  C   UNL A   1      38.276  29.760  27.692  1.00  0.00     0.010 A 
ATOM     29  C   UNL A   1      37.614  29.139  29.927  1.00  0.00     0.010 A 
ATOM     30  C   UNL A   1      38.626  29.291  28.967  1.00  0.00    -0.014 A 
BRANCH  30  31
ATOM     31  C   UNL A   1      40.032  28.920  29.290  1.00  0.00     0.031 A 
ATOM     32  C   UNL A   1      40.896  29.839  30.115  1.00  0.00     0.074 A 
ATOM     33  C   UNL A   1      40.552  27.769  28.818  1.00  0.00     0.049 A 
ATOM     34  N   UNL A   1      42.155  29.712  30.454  1.00  0.00    -0.248 NA
ATOM     35  C   UNL A   1      40.269  31.076  30.604  1.00  0.00     0.031 C 
ATOM     36  C   UNL A   1      39.843  26.804  27.978  1.00  0.00     0.029 A 
ATOM     37  N   UNL A   1      41.803  27.222  28.969  1.00  0.00    -0.354 N 
ATOM     38  C   UNL A   1      42.474  30.857  31.174  1.00  0.00     0.074 A 
ATOM     39  C   UNL A   1      41.288  31.687  31.188  1.00  0.00     0.031 C 
ATOM     40  C   UNL A   1      40.660  25.774  27.706  1.00  0.00     0.029 A 
ATOM     41  C   UNL A   1      41.962  26.021  28.322  1.00  0.00     0.049 A 
ATOM     42  H   UNL A   1      42.518  27.651  29.493  1.00  0.00     0.167 HD
ATOM     43  C   UNL A   1      43.638  31.180  31.787  1.00  0.00     0.037 A 
ATOM     44  C   UNL A   1      43.034  25.212  28.229  1.00  0.00     0.037 A 
ATOM     45  C   UNL A   1      44.809  30.342  31.811  1.00  0.00     0.049 A 
ATOM     46  C   UNL A   1      44.314  25.588  28.928  1.00  0.00     0.074 A 
ATOM     47  C   UNL A   1      46.013  30.560  32.459  1.00  0.00     0.029 A 
ATOM     48  N   UNL A   1      44.921  29.124  31.159  1.00  0.00    -0.354 N 
ATOM     49  N   UNL A   1      44.580  26.646  29.653  1.00  0.00    -0.248 NA
ATOM     50  C   UNL A   1      45.439  24.651  28.799  1.00  0.00     0.031 C 
ATOM     51  C   UNL A   1      46.867  29.489  32.171  1.00  0.00     0.029 A 
ATOM     52  C   UNL A   1      46.181  28.586  31.377  1.00  0.00     0.049 A 
ATOM     53  H   UNL A   1      44.213  28.703  30.621  1.00  0.00     0.167 HD
ATOM     54  C   UNL A   1      45.890  26.493  30.084  1.00  0.00     0.074 A 
ATOM     55  C   UNL A   1      46.362  25.231  29.553  1.00  0.00     0.031 C 
ATOM     56  C   UNL A   1      46.635  27.325  30.850  1.00  0.00     0.037 A 
BRANCH  43  57
ATOM     57  C   UNL A   1      43.707  32.503  32.493  1.00  0.00     0.064 A 
ATOM     58  C   UNL A   1      43.369  32.630  33.849  1.00  0.00     0.173 A 
ATOM     59  C   UNL A   1      44.155  33.649  31.818  1.00  0.00     0.173 A 
ATOM     60  F   UNL A   1      42.926  31.566  34.535  1.00  0.00    -0.203 F 
ATOM     61  C   UNL A   1      43.452  33.859  34.496  1.00  0.00     0.198 A 
ATOM     62  C   UNL A   1      44.262  34.872  32.476  1.00  0.00     0.198 A 
ATOM     63  F   UNL A   1      44.499  33.581  30.523  1.00  0.00    -0.203 F 
ATOM     64  F   UNL A   1      43.082  33.965  35.780  1.00  0.00    -0.200 F 
ATOM     65  C   UNL A   1      43.904  34.978  33.812  1.00  0.00     0.200 A 
ATOM     66  F   UNL A   1      44.711  35.949  31.816  1.00  0.00    -0.200 F 
ATOM     67  F   UNL A   1      43.988  36.160  34.438  1.00  0.00    -0.200 F 
ENDBRANCH  43  57
BRANCH  44  68
ATOM     68  C   UNL A   1      42.938  23.945  27.460  1.00  0.00     0.064 A 
ATOM     69  C   UNL A   1      43.309  23.895  26.109  1.00  0.00     0.173 A 
ATOM     70  C   UNL A   1      42.475  22.763  28.056  1.00  0.00     0.173 A 
ATOM     71  F   UNL A   1      43.735  25.005  25.491  1.00  0.00    -0.203 F 
ATOM     72  C   UNL A   1      43.206  22.713  25.378  1.00  0.00     0.198 A 
ATOM     73  C   UNL A   1      42.397  21.575  27.331  1.00  0.00     0.198 A 
ATOM     74  F   UNL A   1      42.112  22.759  29.347  1.00  0.00    -0.203 F 
ATOM     75  F   UNL A   1      43.530  22.702  24.078  1.00  0.00    -0.200 F 
ATOM     76  C   UNL A   1      42.756  21.554  25.991  1.00  0.00     0.200 A 
ATOM     77  F   UNL A   1      41.974  20.454  27.929  1.00  0.00    -0.200 F 
ATOM     78  F   UNL A   1      42.663  20.415  25.290  1.00  0.00    -0.200 F 
ENDBRANCH  44  68
BRANCH  56  79
ATOM     79  C   UNL A   1      48.031  26.888  31.188  1.00  0.00     0.064 A 
ATOM     80  C   UNL A   1      48.287  26.016  32.256  1.00  0.00     0.173 A 
ATOM     81  C   UNL A   1      49.117  27.317  30.412  1.00  0.00     0.173 A 
ATOM     82  F   UNL A   1      47.283  25.591  33.037  1.00  0.00    -0.203 F 
ATOM     83  C   UNL A   1      49.586  25.605  32.547  1.00  0.00     0.198 A 
ATOM     84  C   UNL A   1      50.411  26.883  30.690  1.00  0.00     0.198 A 
ATOM     85  F   UNL A   1      48.923  28.147  29.377  1.00  0.00    -0.203 F 
ATOM     86  F   UNL A   1      49.813  24.803  33.597  1.00  0.00    -0.200 F 
ATOM     87  C   UNL A   1      50.645  26.033  31.760  1.00  0.00     0.200 A 
ATOM     88  F   UNL A   1      51.432  27.290  29.924  1.00  0.00    -0.200 F 
ATOM     89  F   UNL A   1      51.893  25.632  32.039  1.00  0.00    -0.200 F 
ENDBRANCH  56  79
ENDBRANCH  30  31
ENDBRANCH  22  25
ENDBRANCH  20  21
ENDBRANCH  19  20
ENDBRANCH   1  19
TORSDOF 13
ENDMDL
MODEL 2
REMARK VINA RESULT:     -10.5      1.588      2.431
REMARK SMILES CC1(C)CSC[C@H]([NH2+]CCC(=O)NCCCNC(=O)c2ccc(-c3c4nc(c(-c5c(F)c(F)c(F)c(F)c5F)c5ccc([nH]5)c(-c5c(F)c(F)c(F)c(F)c5F)c5nc(c(-c6c(F)c(F)c(F)c(F)c6F)c6ccc3[nH]6)C=C5)C=C4)cc2)C1
REMARK SMILES IDX 14 1 13 2 11 3 12 4 10 6 9 7 8 8 7 11 1 12 2 13 3 14 4 15
REMARK SMILES IDX 83 16 5 17 6 18 15 19 16 20 17 21 18 22 19 24 20 25 21 26
REMARK SMILES IDX 82 27 22 28 81 29 23 30 24 31 25 32 75 33 26 34 80 35 74 36
REMARK SMILES IDX 76 37 27 38 79 39 73 40 72 41 28 43 60 44 40 45 59 46 41 47
REMARK SMILES IDX 44 48 58 49 77 50 42 51 43 52 57 54 78 55 45 56 29 57 30 58
REMARK SMILES IDX 38 59 31 60 32 61 36 62 39 63 33 64 34 65 37 66 35 67 61 68
REMARK SMILES IDX 62 69 70 70 63 71 64 72 68 73 71 74 65 75 66 76 69 77 67 78
REMARK SMILES IDX 46 79 47 80 55 81 48 82 49 83 53 84 56 85 50 86 51 87 54 88
REMARK SMILES IDX 52 89
REMARK H PARENT 13 5 8 9 8 10 17 23 76 42 44 53
REMARK Flexibility Score: inf
ROOT
ATOM      1  C   UNL A   1      33.676  35.134  29.713  1.00  0.00     0.117 C 
ENDROOT
BRANCH   1   2
ATOM      2  N   UNL A   1      32.571  35.332  30.649  1.00  0.00    -0.356 N 
ATOM      3  C   UNL A   1      32.490  36.059  31.802  1.00  0.00     0.225 C 
ATOM      4  O   UNL A   1      31.402  36.094  32.383  1.00  0.00    -0.275 OA
ATOM      5  H   UNL A   1      31.741  34.861  30.405  1.00  0.00     0.163 HD
BRANCH   3   6
ATOM      6  C   UNL A   1      33.704  36.756  32.387  1.00  0.00     0.161 C 
BRANCH   6   7
ATOM      7  C   UNL A   1      34.174  36.109  33.695  1.00  0.00     0.270 C 
BRANCH   7   8
ATOM      8  N   UNL A   1      34.141  34.663  33.526  1.00  0.00    -0.343 N 
ATOM      9  H   UNL A   1      33.632  34.271  34.318  1.00  0.00     0.346 HD
ATOM     10  H   UNL A   1      33.700  34.510  32.618  1.00  0.00     0.346 HD
BRANCH   8  11
ATOM     11  C   UNL A   1      35.439  33.975  33.445  1.00  0.00     0.193 C 
ATOM     12  C   UNL A   1      37.525  31.944  34.744  1.00  0.00     0.012 C 
ATOM     13  C   UNL A   1      37.383  33.431  35.124  1.00  0.00    -0.021 C 
ATOM     14  C   UNL A   1      37.708  33.562  36.629  1.00  0.00     0.012 C 
ATOM     15  C   UNL A   1      38.375  34.313  34.340  1.00  0.00     0.076 C 
ATOM     16  C   UNL A   1      35.937  33.928  34.905  1.00  0.00     0.073 C 
ATOM     17  S   UNL A   1      38.114  34.252  32.543  1.00  0.00    -0.155 SA
ATOM     18  C   UNL A   1      36.378  34.768  32.511  1.00  0.00     0.134 C 
ENDBRANCH   8  11
ENDBRANCH   7   8
ENDBRANCH   6   7
ENDBRANCH   3   6
ENDBRANCH   1   2
BRANCH   1  19
ATOM     19  C   UNL A   1      34.198  33.693  29.691  1.00  0.00     0.042 C 
BRANCH  19  20
ATOM     20  C   UNL A   1      34.771  33.238  28.352  1.00  0.00     0.118 C 
BRANCH  20  21
ATOM     21  N   UNL A   1      34.058  32.093  27.818  1.00  0.00    -0.352 N 
ATOM     22  C   UNL A   1      34.471  30.807  27.569  1.00  0.00     0.251 C 
ATOM     23  H   UNL A   1      33.115  32.267  27.596  1.00  0.00     0.163 HD
ATOM     24  O   UNL A   1      33.744  30.078  26.894  1.00  0.00    -0.269 OA
BRANCH  22  25
ATOM     25  C   UNL A   1      35.764  30.267  28.068  1.00  0.00     0.039 A 
ATOM     26  C   UNL A   1      35.788  29.686  29.343  1.00  0.00     0.014 A 
ATOM     27  C   UNL A   1      36.965  30.408  27.368  1.00  0.00     0.014 A 
ATOM     28  C   UNL A   1      36.989  29.225  29.894  1.00  0.00     0.010 A 
ATOM     29  C   UNL A   1      38.153  29.876  27.884  1.00  0.00     0.010 A 
ATOM     30  C   UNL A   1      38.184  29.296  29.161  1.00  0.00    -0.014 A 
BRANCH  30  31
ATOM     31  C   UNL A   1      39.468  28.807  29.735  1.00  0.00     0.031 A 
ATOM     32  C   UNL A   1      40.090  29.501  30.920  1.00  0.00     0.074 A 
ATOM     33  C   UNL A   1      40.101  27.757  29.176  1.00  0.00     0.049 A 
ATOM     34  N   UNL A   1      41.226  29.254  31.525  1.00  0.00    -0.248 NA
ATOM     35  C   UNL A   1      39.347  30.637  31.486  1.00  0.00     0.031 C 
ATOM     36  C   UNL A   1      39.634  27.015  28.006  1.00  0.00     0.029 A 
ATOM     37  N   UNL A   1      41.280  27.137  29.513  1.00  0.00    -0.354 N 
ATOM     38  C   UNL A   1      41.343  30.213  32.523  1.00  0.00     0.074 A 
ATOM     39  C   UNL A   1      40.183  31.073  32.417  1.00  0.00     0.031 C 
ATOM     40  C   UNL A   1      40.504  26.028  27.735  1.00  0.00     0.029 A 
ATOM     41  C   UNL A   1      41.608  26.089  28.690  1.00  0.00     0.049 A 
ATOM     42  H   UNL A   1      41.837  27.419  30.275  1.00  0.00     0.167 HD
ATOM     43  C   UNL A   1      42.314  30.355  33.457  1.00  0.00     0.037 A 
ATOM     44  C   UNL A   1      42.678  25.271  28.697  1.00  0.00     0.037 A 
ATOM     45  C   UNL A   1      43.450  29.481  33.593  1.00  0.00     0.049 A 
ATOM     46  C   UNL A   1      43.739  25.441  29.752  1.00  0.00     0.074 A 
ATOM     47  C   UNL A   1      44.452  29.510  34.549  1.00  0.00     0.029 A 
ATOM     48  N   UNL A   1      43.734  28.418  32.751  1.00  0.00    -0.354 N 
ATOM     49  N   UNL A   1      43.805  26.317  30.724  1.00  0.00    -0.248 NA
ATOM     50  C   UNL A   1      44.870  24.504  29.711  1.00  0.00     0.031 C 
ATOM     51  C   UNL A   1      45.361  28.486  34.263  1.00  0.00     0.029 A 
ATOM     52  C   UNL A   1      44.905  27.794  33.154  1.00  0.00     0.049 A 
ATOM     53  H   UNL A   1      43.186  28.146  31.979  1.00  0.00     0.167 HD
ATOM     54  C   UNL A   1      44.967  26.024  31.423  1.00  0.00     0.074 A 
ATOM     55  C   UNL A   1      45.569  24.878  30.773  1.00  0.00     0.031 C 
ATOM     56  C   UNL A   1      45.489  26.649  32.505  1.00  0.00     0.037 A 
BRANCH  43  57
ATOM     57  C   UNL A   1      42.191  31.501  34.418  1.00  0.00     0.064 A 
ATOM     58  C   UNL A   1      41.457  31.386  35.608  1.00  0.00     0.173 A 
ATOM     59  C   UNL A   1      42.847  32.716  34.167  1.00  0.00     0.173 A 
ATOM     60  F   UNL A   1      40.804  30.249  35.890  1.00  0.00    -0.203 F 
ATOM     61  C   UNL A   1      41.363  32.451  36.499  1.00  0.00     0.198 A 
ATOM     62  C   UNL A   1      42.774  33.771  35.074  1.00  0.00     0.198 A 
ATOM     63  F   UNL A   1      43.569  32.876  33.048  1.00  0.00    -0.203 F 
ATOM     64  F   UNL A   1      40.621  32.333  37.608  1.00  0.00    -0.200 F 
ATOM     65  C   UNL A   1      42.027  33.641  36.234  1.00  0.00     0.200 A 
ATOM     66  F   UNL A   1      43.425  34.915  34.821  1.00  0.00    -0.200 F 
ATOM     67  F   UNL A   1      41.940  34.664  37.095  1.00  0.00    -0.200 F 
ENDBRANCH  43  57
BRANCH  44  68
ATOM     68  C   UNL A   1      42.790  24.193  27.681  1.00  0.00     0.064 A 
ATOM     69  C   UNL A   1      42.365  22.889  27.968  1.00  0.00     0.173 A 
ATOM     70  C   UNL A   1      43.323  24.443  26.408  1.00  0.00     0.173 A 
ATOM     71  F   UNL A   1      41.871  22.597  29.179  1.00  0.00    -0.203 F 
ATOM     72  C   UNL A   1      42.482  21.870  27.024  1.00  0.00     0.198 A 
ATOM     73  C   UNL A   1      43.415  23.430  25.456  1.00  0.00     0.198 A 
ATOM     74  F   UNL A   1      43.740  25.676  26.085  1.00  0.00    -0.203 F 
ATOM     75  F   UNL A   1      42.105  20.624  27.337  1.00  0.00    -0.200 F 
ATOM     76  C   UNL A   1      43.002  22.143  25.768  1.00  0.00     0.200 A 
ATOM     77  F   UNL A   1      43.906  23.700  24.239  1.00  0.00    -0.200 F 
ATOM     78  F   UNL A   1      43.109  21.166  24.857  1.00  0.00    -0.200 F 
ENDBRANCH  44  68
BRANCH  56  79
ATOM     79  C   UNL A   1      46.760  26.093  33.077  1.00  0.00     0.064 A 
ATOM     80  C   UNL A   1      46.749  25.031  33.992  1.00  0.00     0.173 A 
ATOM     81  C   UNL A   1      48.003  26.605  32.677  1.00  0.00     0.173 A 
ATOM     82  F   UNL A   1      45.585  24.518  34.417  1.00  0.00    -0.203 F 
ATOM     83  C   UNL A   1      47.938  24.514  34.501  1.00  0.00     0.198 A 
ATOM     84  C   UNL A   1      49.190  26.069  33.168  1.00  0.00     0.198 A 
ATOM     85  F   UNL A   1      48.067  27.618  31.801  1.00  0.00    -0.203 F 
ATOM     86  F   UNL A   1      47.903  23.525  35.405  1.00  0.00    -0.200 F 
ATOM     87  C   UNL A   1      49.157  25.028  34.084  1.00  0.00     0.200 A 
ATOM     88  F   UNL A   1      50.367  26.560  32.758  1.00  0.00    -0.200 F 
ATOM     89  F   UNL A   1      50.300  24.525  34.572  1.00  0.00    -0.200 F 
ENDBRANCH  56  79
ENDBRANCH  30  31
ENDBRANCH  22  25
ENDBRANCH  20  21
ENDBRANCH  19  20
ENDBRANCH   1  19
TORSDOF 13
ENDMDL
MODEL 3
REMARK VINA RESULT:     -10.4      1.539      2.630
REMARK SMILES CC1(C)CSC[C@H]([NH2+]CCC(=O)NCCCNC(=O)c2ccc(-c3c4nc(c(-c5c(F)c(F)c(F)c(F)c5F)c5ccc([nH]5)c(-c5c(F)c(F)c(F)c(F)c5F)c5nc(c(-c6c(F)c(F)c(F)c(F)c6F)c6ccc3[nH]6)C=C5)C=C4)cc2)C1
REMARK SMILES IDX 14 1 13 2 11 3 12 4 10 6 9 7 8 8 7 11 1 12 2 13 3 14 4 15
REMARK SMILES IDX 83 16 5 17 6 18 15 19 16 20 17 21 18 22 19 24 20 25 21 26
REMARK SMILES IDX 82 27 22 28 81 29 23 30 24 31 25 32 75 33 26 34 80 35 74 36
REMARK SMILES IDX 76 37 27 38 79 39 73 40 72 41 28 43 60 44 40 45 59 46 41 47
REMARK SMILES IDX 44 48 58 49 77 50 42 51 43 52 57 54 78 55 45 56 29 57 30 58
REMARK SMILES IDX 38 59 31 60 32 61 36 62 39 63 33 64 34 65 37 66 35 67 61 68
REMARK SMILES IDX 62 69 70 70 63 71 64 72 68 73 71 74 65 75 66 76 69 77 67 78
REMARK SMILES IDX 46 79 47 80 55 81 48 82 49 83 53 84 56 85 50 86 51 87 54 88
REMARK SMILES IDX 52 89
REMARK H PARENT 13 5 8 9 8 10 17 23 76 42 44 53
REMARK Flexibility Score: inf
ROOT
ATOM      1  C   UNL A   1      33.986  35.007  29.732  1.00  0.00     0.117 C 
ENDROOT
BRANCH   1   2
ATOM      2  N   UNL A   1      32.852  34.953  30.653  1.00  0.00    -0.356 N 
ATOM      3  C   UNL A   1      32.549  35.708  31.750  1.00  0.00     0.225 C 
ATOM      4  O   UNL A   1      31.484  35.477  32.328  1.00  0.00    -0.275 OA
ATOM      5  H   UNL A   1      32.194  34.251  30.446  1.00  0.00     0.163 HD
BRANCH   3   6
ATOM      6  C   UNL A   1      33.506  36.759  32.279  1.00  0.00     0.161 C 
BRANCH   6   7
ATOM      7  C   UNL A   1      34.235  36.298  33.547  1.00  0.00     0.270 C 
BRANCH   7   8
ATOM      8  N   UNL A   1      34.163  34.845  33.612  1.00  0.00    -0.343 N 
ATOM      9  H   UNL A   1      33.727  34.596  34.500  1.00  0.00     0.346 HD
ATOM     10  H   UNL A   1      33.633  34.567  32.785  1.00  0.00     0.346 HD
BRANCH   8  11
ATOM     11  C   UNL A   1      35.436  34.113  33.519  1.00  0.00     0.193 C 
ATOM     12  C   UNL A   1      37.420  31.944  34.751  1.00  0.00     0.012 C 
ATOM     13  C   UNL A   1      37.326  33.414  35.202  1.00  0.00    -0.021 C 
ATOM     14  C   UNL A   1      37.626  33.458  36.717  1.00  0.00     0.012 C 
ATOM     15  C   UNL A   1      38.364  34.295  34.480  1.00  0.00     0.076 C 
ATOM     16  C   UNL A   1      35.903  33.976  34.984  1.00  0.00     0.073 C 
ATOM     17  S   UNL A   1      38.136  34.333  32.679  1.00  0.00    -0.155 SA
ATOM     18  C   UNL A   1      36.421  34.915  32.642  1.00  0.00     0.134 C 
ENDBRANCH   8  11
ENDBRANCH   7   8
ENDBRANCH   6   7
ENDBRANCH   3   6
ENDBRANCH   1   2
BRANCH   1  19
ATOM     19  C   UNL A   1      34.647  33.643  29.507  1.00  0.00     0.042 C 
BRANCH  19  20
ATOM     20  C   UNL A   1      34.808  33.240  28.044  1.00  0.00     0.118 C 
BRANCH  20  21
ATOM     21  N   UNL A   1      34.030  32.059  27.717  1.00  0.00    -0.352 N 
ATOM     22  C   UNL A   1      34.391  30.738  27.626  1.00  0.00     0.251 C 
ATOM     23  H   UNL A   1      33.080  32.235  27.531  1.00  0.00     0.163 HD
ATOM     24  O   UNL A   1      33.602  29.950  27.104  1.00  0.00    -0.269 OA
BRANCH  22  25
ATOM     25  C   UNL A   1      35.697  30.224  28.117  1.00  0.00     0.039 A 
ATOM     26  C   UNL A   1      35.757  29.710  29.419  1.00  0.00     0.014 A 
ATOM     27  C   UNL A   1      36.879  30.330  27.378  1.00  0.00     0.014 A 
ATOM     28  C   UNL A   1      36.974  29.278  29.960  1.00  0.00     0.010 A 
ATOM     29  C   UNL A   1      38.081  29.825  27.888  1.00  0.00     0.010 A 
ATOM     30  C   UNL A   1      38.148  29.312  29.192  1.00  0.00    -0.014 A 
BRANCH  30  31
ATOM     31  C   UNL A   1      39.448  28.854  29.756  1.00  0.00     0.031 A 
ATOM     32  C   UNL A   1      40.082  29.586  30.912  1.00  0.00     0.074 A 
ATOM     33  C   UNL A   1      40.085  27.797  29.213  1.00  0.00     0.049 A 
ATOM     34  N   UNL A   1      41.231  29.369  31.502  1.00  0.00    -0.248 NA
ATOM     35  C   UNL A   1      39.335  30.728  31.462  1.00  0.00     0.031 C 
ATOM     36  C   UNL A   1      39.607  27.020  28.071  1.00  0.00     0.029 A 
ATOM     37  N   UNL A   1      41.277  27.201  29.546  1.00  0.00    -0.354 N 
ATOM     38  C   UNL A   1      41.353  30.355  32.474  1.00  0.00     0.074 A 
ATOM     39  C   UNL A   1      40.181  31.197  32.366  1.00  0.00     0.031 C 
ATOM     40  C   UNL A   1      40.484  26.037  27.810  1.00  0.00     0.029 A 
ATOM     41  C   UNL A   1      41.604  26.136  28.743  1.00  0.00     0.049 A 
ATOM     42  H   UNL A   1      41.844  27.510  30.289  1.00  0.00     0.167 HD
ATOM     43  C   UNL A   1      42.339  30.533  33.386  1.00  0.00     0.037 A 
ATOM     44  C   UNL A   1      42.684  25.331  28.753  1.00  0.00     0.037 A 
ATOM     45  C   UNL A   1      43.488  29.677  33.525  1.00  0.00     0.049 A 
ATOM     46  C   UNL A   1      43.761  25.542  29.784  1.00  0.00     0.074 A 
ATOM     47  C   UNL A   1      44.506  29.743  34.461  1.00  0.00     0.029 A 
ATOM     48  N   UNL A   1      43.771  28.596  32.705  1.00  0.00    -0.354 N 
ATOM     49  N   UNL A   1      43.833  26.444  30.732  1.00  0.00    -0.248 NA
ATOM     50  C   UNL A   1      44.903  24.618  29.747  1.00  0.00     0.031 C 
ATOM     51  C   UNL A   1      45.423  28.723  34.186  1.00  0.00     0.029 A 
ATOM     52  C   UNL A   1      44.956  27.997  33.103  1.00  0.00     0.049 A 
ATOM     53  H   UNL A   1      43.213  28.297  31.950  1.00  0.00     0.167 HD
ATOM     54  C   UNL A   1      45.011  26.183  31.418  1.00  0.00     0.074 A 
ATOM     55  C   UNL A   1      45.616  25.028  30.787  1.00  0.00     0.031 C 
ATOM     56  C   UNL A   1      45.544  26.843  32.474  1.00  0.00     0.037 A 
BRANCH  43  57
ATOM     57  C   UNL A   1      42.217  31.702  34.320  1.00  0.00     0.064 A 
ATOM     58  C   UNL A   1      42.768  32.953  34.005  1.00  0.00     0.173 A 
ATOM     59  C   UNL A   1      41.506  31.582  35.523  1.00  0.00     0.173 A 
ATOM     60  F   UNL A   1      43.465  33.117  32.871  1.00  0.00    -0.203 F 
ATOM     61  C   UNL A   1      42.635  34.034  34.873  1.00  0.00     0.198 A 
ATOM     62  C   UNL A   1      41.351  32.672  36.376  1.00  0.00     0.198 A 
ATOM     63  F   UNL A   1      40.952  30.410  35.868  1.00  0.00    -0.203 F 
ATOM     64  F   UNL A   1      43.207  35.207  34.572  1.00  0.00    -0.200 F 
ATOM     65  C   UNL A   1      41.921  33.895  36.054  1.00  0.00     0.200 A 
ATOM     66  F   UNL A   1      40.651  32.539  37.512  1.00  0.00    -0.200 F 
ATOM     67  F   UNL A   1      41.789  34.937  36.886  1.00  0.00    -0.200 F 
ENDBRANCH  43  57
BRANCH  44  68
ATOM     68  C   UNL A   1      42.792  24.230  27.763  1.00  0.00     0.064 A 
ATOM     69  C   UNL A   1      43.299  24.465  26.478  1.00  0.00     0.173 A 
ATOM     70  C   UNL A   1      42.392  22.923  28.080  1.00  0.00     0.173 A 
ATOM     71  F   UNL A   1      43.672  25.703  26.123  1.00  0.00    -0.203 F 
ATOM     72  C   UNL A   1      43.388  23.439  25.540  1.00  0.00     0.198 A 
ATOM     73  C   UNL A   1      42.506  21.892  27.149  1.00  0.00     0.198 A 
ATOM     74  F   UNL A   1      41.903  22.647  29.297  1.00  0.00    -0.203 F 
ATOM     75  F   UNL A   1      43.839  23.699  24.306  1.00  0.00    -0.200 F 
ATOM     76  C   UNL A   1      42.996  22.152  25.879  1.00  0.00     0.200 A 
ATOM     77  F   UNL A   1      42.139  20.647  27.484  1.00  0.00    -0.200 F 
ATOM     78  F   UNL A   1      43.088  21.163  24.979  1.00  0.00    -0.200 F 
ENDBRANCH  44  68
BRANCH  56  79
ATOM     79  C   UNL A   1      46.831  26.318  33.037  1.00  0.00     0.064 A 
ATOM     80  C   UNL A   1      48.074  26.801  32.603  1.00  0.00     0.173 A 
ATOM     81  C   UNL A   1      46.820  25.346  34.050  1.00  0.00     0.173 A 
ATOM     82  F   UNL A   1      48.137  27.718  31.627  1.00  0.00    -0.203 F 
ATOM     83  C   UNL A   1      49.260  26.316  33.148  1.00  0.00     0.198 A 
ATOM     84  C   UNL A   1      48.006  24.883  34.611  1.00  0.00     0.198 A 
ATOM     85  F   UNL A   1      45.657  24.856  34.503  1.00  0.00    -0.203 F 
ATOM     86  F   UNL A   1      50.437  26.763  32.690  1.00  0.00    -0.200 F 
ATOM     87  C   UNL A   1      49.225  25.363  34.155  1.00  0.00     0.200 A 
ATOM     88  F   UNL A   1      47.971  23.968  35.589  1.00  0.00    -0.200 F 
ATOM     89  F   UNL A   1      50.368  24.901  34.682  1.00  0.00    -0.200 F 
ENDBRANCH  56  79
ENDBRANCH  30  31
ENDBRANCH  22  25
ENDBRANCH  20  21
ENDBRANCH  19  20
ENDBRANCH   1  19
TORSDOF 13
ENDMDL
