MODEL 1
REMARK VINA RESULT:     -13.0      0.000      0.000
REMARK SMILES C[C@@H](C(=O)NCCCNC(=O)c1ccc(-c2c3nc(c(-c4c(F)c(F)c(F)c(F)c4F)c4ccc([nH]4)c(-c4c(F)c(F)c(F)c(F)c4F)c4nc(c(-c5c(F)c(F)c(F)c(F)c5F)c5ccc2[nH]5)C=C4)C=C3)cc1)c1cc(C(=O)c2ccccc2)ccc1O
REMARK SMILES IDX 6 1 5 2 3 3 4 4 2 6 1 7 75 8 76 9 88 10 77 11 87 12 86 13
REMARK SMILES IDX 89 14 78 16 79 17 80 18 81 19 85 20 82 21 84 22 83 23 7 24
REMARK SMILES IDX 8 25 9 26 10 27 11 29 12 30 13 31 74 32 14 33 73 34 15 35
REMARK SMILES IDX 16 36 17 37 67 38 18 39 72 40 66 41 68 42 19 43 71 44 65 45
REMARK SMILES IDX 64 46 20 48 52 49 32 50 51 51 33 52 36 53 50 54 69 55 34 56
REMARK SMILES IDX 35 57 49 59 70 60 37 61 21 62 22 63 30 64 23 65 24 66 28 67
REMARK SMILES IDX 31 68 25 69 26 70 29 71 27 72 53 73 54 74 62 75 55 76 56 77
REMARK SMILES IDX 60 78 63 79 57 80 58 81 61 82 59 83 38 84 39 85 47 86 40 87
REMARK SMILES IDX 41 88 45 89 48 90 42 91 43 92 46 93 44 94
REMARK H PARENT 5 5 89 15 9 28 68 47 36 58
REMARK Flexibility Score: inf
ROOT
ATOM      1  C   UNL A   1      31.792  30.574  26.479  1.00  0.00     0.117 C 
ENDROOT
BRANCH   1   2
ATOM      2  N   UNL A   1      31.252  30.040  25.244  1.00  0.00    -0.356 N 
ATOM      3  C   UNL A   1      31.767  29.133  24.366  1.00  0.00     0.227 C 
ATOM      4  O   UNL A   1      31.093  28.911  23.359  1.00  0.00    -0.274 OA
ATOM      5  H   UNL A   1      30.366  30.392  24.999  1.00  0.00     0.163 HD
BRANCH   3   6
ATOM      6  C   UNL A   1      33.100  28.431  24.679  1.00  0.00     0.109 C 
ATOM      7  C   UNL A   1      34.125  28.603  23.555  1.00  0.00     0.023 C 
BRANCH   6   8
ATOM      8  C   UNL A   1      32.948  26.944  24.990  1.00  0.00     0.007 A 
ATOM      9  C   UNL A   1      33.628  26.000  24.191  1.00  0.00     0.020 A 
ATOM     10  C   UNL A   1      32.185  26.454  26.059  1.00  0.00     0.119 A 
ATOM     11  C   UNL A   1      33.526  24.623  24.424  1.00  0.00     0.023 A 
ATOM     12  C   UNL A   1      32.093  25.085  26.311  1.00  0.00     0.047 A 
ATOM     13  C   UNL A   1      32.772  24.169  25.507  1.00  0.00     0.016 A 
BRANCH  10  14
ATOM     14  O   UNL A   1      31.499  27.246  26.934  1.00  0.00    -0.508 OA
ATOM     15  H   UNL A   1      30.980  27.958  26.615  1.00  0.00     0.293 HD
ENDBRANCH  10  14
BRANCH  11  16
ATOM     16  C   UNL A   1      34.277  23.700  23.528  1.00  0.00     0.193 C 
ATOM     17  O   UNL A   1      34.160  23.804  22.309  1.00  0.00    -0.289 OA
BRANCH  16  18
ATOM     18  C   UNL A   1      35.206  22.678  24.067  1.00  0.00     0.022 A 
ATOM     19  C   UNL A   1      34.670  21.455  24.485  1.00  0.00     0.012 A 
ATOM     20  C   UNL A   1      36.581  22.915  24.174  1.00  0.00     0.012 A 
ATOM     21  C   UNL A   1      35.515  20.449  24.952  1.00  0.00     0.001 A 
ATOM     22  C   UNL A   1      37.423  21.902  24.638  1.00  0.00     0.001 A 
ATOM     23  C   UNL A   1      36.891  20.670  25.018  1.00  0.00     0.000 A 
ENDBRANCH  16  18
ENDBRANCH  11  16
ENDBRANCH   6   8
ENDBRANCH   3   6
ENDBRANCH   1   2
BRANCH   1  24
ATOM     24  C   UNL A   1      31.660  32.092  26.538  1.00  0.00     0.042 C 
BRANCH  24  25
ATOM     25  C   UNL A   1      32.788  32.782  27.295  1.00  0.00     0.118 C 
BRANCH  25  26
ATOM     26  N   UNL A   1      32.463  34.153  27.663  1.00  0.00    -0.352 N 
ATOM     27  C   UNL A   1      33.008  34.941  28.648  1.00  0.00     0.251 C 
ATOM     28  H   UNL A   1      31.751  34.575  27.130  1.00  0.00     0.163 HD
ATOM     29  O   UNL A   1      32.492  36.016  28.936  1.00  0.00    -0.269 OA
BRANCH  27  30
ATOM     30  C   UNL A   1      34.206  34.478  29.376  1.00  0.00     0.039 A 
ATOM     31  C   UNL A   1      34.051  33.842  30.611  1.00  0.00     0.014 A 
ATOM     32  C   UNL A   1      35.479  34.661  28.831  1.00  0.00     0.014 A 
ATOM     33  C   UNL A   1      35.170  33.324  31.267  1.00  0.00     0.010 A 
ATOM     34  C   UNL A   1      36.580  34.077  29.444  1.00  0.00     0.010 A 
ATOM     35  C   UNL A   1      36.437  33.405  30.669  1.00  0.00    -0.014 A 
BRANCH  35  36
ATOM     36  C   UNL A   1      37.648  32.818  31.296  1.00  0.00     0.031 A 
ATOM     37  C   UNL A   1      38.346  31.674  30.621  1.00  0.00     0.074 A 
ATOM     38  C   UNL A   1      38.041  33.228  32.517  1.00  0.00     0.049 A 
ATOM     39  N   UNL A   1      39.283  30.885  31.077  1.00  0.00    -0.248 NA
ATOM     40  C   UNL A   1      37.896  31.351  29.257  1.00  0.00     0.031 C 
ATOM     41  C   UNL A   1      37.425  34.306  33.288  1.00  0.00     0.029 A 
ATOM     42  N   UNL A   1      39.033  32.754  33.339  1.00  0.00    -0.354 N 
ATOM     43  C   UNL A   1      39.509  29.952  30.074  1.00  0.00     0.074 A 
ATOM     44  C   UNL A   1      38.579  30.245  29.005  1.00  0.00     0.031 C 
ATOM     45  C   UNL A   1      38.047  34.410  34.472  1.00  0.00     0.029 A 
ATOM     46  C   UNL A   1      39.073  33.374  34.563  1.00  0.00     0.049 A 
ATOM     47  H   UNL A   1      39.657  32.038  33.076  1.00  0.00     0.167 HD
ATOM     48  C   UNL A   1      40.420  28.951  30.043  1.00  0.00     0.037 A 
ATOM     49  C   UNL A   1      39.831  33.119  35.646  1.00  0.00     0.037 A 
ATOM     50  C   UNL A   1      41.358  28.683  31.101  1.00  0.00     0.049 A 
ATOM     51  C   UNL A   1      40.837  32.000  35.595  1.00  0.00     0.074 A 
ATOM     52  C   UNL A   1      42.363  27.734  31.144  1.00  0.00     0.029 A 
ATOM     53  N   UNL A   1      41.400  29.368  32.308  1.00  0.00    -0.354 N 
ATOM     54  N   UNL A   1      41.081  31.155  34.623  1.00  0.00    -0.248 NA
ATOM     55  C   UNL A   1      41.674  31.803  36.787  1.00  0.00     0.031 C 
ATOM     56  C   UNL A   1      42.983  27.812  32.397  1.00  0.00     0.029 A 
ATOM     57  C   UNL A   1      42.402  28.849  33.112  1.00  0.00     0.049 A 
ATOM     58  H   UNL A   1      40.807  30.113  32.556  1.00  0.00     0.167 HD
ATOM     59  C   UNL A   1      42.119  30.349  35.070  1.00  0.00     0.074 A 
ATOM     60  C   UNL A   1      42.459  30.805  36.403  1.00  0.00     0.031 C 
ATOM     61  C   UNL A   1      42.738  29.326  34.429  1.00  0.00     0.037 A 
BRANCH  48  62
ATOM     62  C   UNL A   1      40.428  28.065  28.830  1.00  0.00     0.064 A 
ATOM     63  C   UNL A   1      39.708  26.860  28.789  1.00  0.00     0.173 A 
ATOM     64  C   UNL A   1      41.169  28.422  27.693  1.00  0.00     0.173 A 
ATOM     65  F   UNL A   1      38.992  26.466  29.853  1.00  0.00    -0.203 F 
ATOM     66  C   UNL A   1      39.770  26.025  27.677  1.00  0.00     0.198 A 
ATOM     67  C   UNL A   1      41.199  27.601  26.569  1.00  0.00     0.198 A 
ATOM     68  F   UNL A   1      41.869  29.566  27.673  1.00  0.00    -0.203 F 
ATOM     69  F   UNL A   1      39.132  24.846  27.692  1.00  0.00    -0.200 F 
ATOM     70  C   UNL A   1      40.512  26.397  26.567  1.00  0.00     0.200 A 
ATOM     71  F   UNL A   1      41.904  27.970  25.490  1.00  0.00    -0.200 F 
ATOM     72  F   UNL A   1      40.573  25.590  25.499  1.00  0.00    -0.200 F 
ENDBRANCH  48  62
BRANCH  49  73
ATOM     73  C   UNL A   1      39.668  33.953  36.864  1.00  0.00     0.064 A 
ATOM     74  C   UNL A   1      40.287  35.206  36.965  1.00  0.00     0.173 A 
ATOM     75  C   UNL A   1      38.859  33.536  37.932  1.00  0.00     0.173 A 
ATOM     76  F   UNL A   1      41.084  35.639  35.977  1.00  0.00    -0.203 F 
ATOM     77  C   UNL A   1      40.109  36.008  38.091  1.00  0.00     0.198 A 
ATOM     78  C   UNL A   1      38.662  34.350  39.045  1.00  0.00     0.198 A 
ATOM     79  F   UNL A   1      38.238  32.349  37.880  1.00  0.00    -0.203 F 
ATOM     80  F   UNL A   1      40.734  37.191  38.174  1.00  0.00    -0.200 F 
ATOM     81  C   UNL A   1      39.290  35.584  39.126  1.00  0.00     0.200 A 
ATOM     82  F   UNL A   1      37.854  33.944  40.035  1.00  0.00    -0.200 F 
ATOM     83  F   UNL A   1      39.105  36.363  40.200  1.00  0.00    -0.200 F 
ENDBRANCH  49  73
BRANCH  61  84
ATOM     84  C   UNL A   1      43.886  28.658  35.129  1.00  0.00     0.064 A 
ATOM     85  C   UNL A   1      43.695  27.564  35.983  1.00  0.00     0.173 A 
ATOM     86  C   UNL A   1      45.202  29.072  34.872  1.00  0.00     0.173 A 
ATOM     87  F   UNL A   1      42.455  27.140  36.272  1.00  0.00    -0.203 F 
ATOM     88  C   UNL A   1      44.782  26.912  36.562  1.00  0.00     0.198 A 
ATOM     89  C   UNL A   1      46.286  28.401  35.429  1.00  0.00     0.198 A 
ATOM     90  F   UNL A   1      45.437  30.111  34.056  1.00  0.00    -0.203 F 
ATOM     91  F   UNL A   1      44.577  25.886  37.398  1.00  0.00    -0.200 F 
ATOM     92  C   UNL A   1      46.075  27.324  36.275  1.00  0.00     0.200 A 
ATOM     93  F   UNL A   1      47.535  28.791  35.139  1.00  0.00    -0.200 F 
ATOM     94  F   UNL A   1      47.119  26.682  36.817  1.00  0.00    -0.200 F 
ENDBRANCH  61  84
ENDBRANCH  35  36
ENDBRANCH  27  30
ENDBRANCH  25  26
ENDBRANCH  24  25
ENDBRANCH   1  24
TORSDOF 14
ENDMDL
MODEL 2
REMARK VINA RESULT:     -13.0      0.546      1.825
REMARK SMILES C[C@@H](C(=O)NCCCNC(=O)c1ccc(-c2c3nc(c(-c4c(F)c(F)c(F)c(F)c4F)c4ccc([nH]4)c(-c4c(F)c(F)c(F)c(F)c4F)c4nc(c(-c5c(F)c(F)c(F)c(F)c5F)c5ccc2[nH]5)C=C4)C=C3)cc1)c1cc(C(=O)c2ccccc2)ccc1O
REMARK SMILES IDX 6 1 5 2 3 3 4 4 2 6 1 7 75 8 76 9 88 10 77 11 87 12 86 13
REMARK SMILES IDX 89 14 78 16 79 17 80 18 81 19 85 20 82 21 84 22 83 23 7 24
REMARK SMILES IDX 8 25 9 26 10 27 11 29 12 30 13 31 74 32 14 33 73 34 15 35
REMARK SMILES IDX 16 36 17 37 67 38 18 39 72 40 66 41 68 42 19 43 71 44 65 45
REMARK SMILES IDX 64 46 20 48 52 49 32 50 51 51 33 52 36 53 50 54 69 55 34 56
REMARK SMILES IDX 35 57 49 59 70 60 37 61 21 62 22 63 30 64 23 65 24 66 28 67
REMARK SMILES IDX 31 68 25 69 26 70 29 71 27 72 53 73 54 74 62 75 55 76 56 77
REMARK SMILES IDX 60 78 63 79 57 80 58 81 61 82 59 83 38 84 39 85 47 86 40 87
REMARK SMILES IDX 41 88 45 89 48 90 42 91 43 92 46 93 44 94
REMARK H PARENT 5 5 89 15 9 28 68 47 36 58
REMARK Flexibility Score: inf
ROOT
ATOM      1  C   UNL A   1      31.792  30.557  26.432  1.00  0.00     0.117 C 
ENDROOT
BRANCH   1   2
ATOM      2  N   UNL A   1      31.267  30.070  25.172  1.00  0.00    -0.356 N 
ATOM      3  C   UNL A   1      31.747  29.127  24.312  1.00  0.00     0.227 C 
ATOM      4  O   UNL A   1      31.102  28.962  23.275  1.00  0.00    -0.274 OA
ATOM      5  H   UNL A   1      30.423  30.492  24.890  1.00  0.00     0.163 HD
BRANCH   3   6
ATOM      6  C   UNL A   1      33.005  28.321  24.679  1.00  0.00     0.109 C 
ATOM      7  C   UNL A   1      34.069  28.372  23.580  1.00  0.00     0.023 C 
BRANCH   6   8
ATOM      8  C   UNL A   1      32.715  26.862  25.023  1.00  0.00     0.007 A 
ATOM      9  C   UNL A   1      33.240  25.842  24.199  1.00  0.00     0.020 A 
ATOM     10  C   UNL A   1      31.972  26.467  26.143  1.00  0.00     0.119 A 
ATOM     11  C   UNL A   1      33.008  24.486  24.460  1.00  0.00     0.023 A 
ATOM     12  C   UNL A   1      31.751  25.118  26.423  1.00  0.00     0.047 A 
ATOM     13  C   UNL A   1      32.277  24.127  25.594  1.00  0.00     0.016 A 
BRANCH  10  14
ATOM     14  O   UNL A   1      31.429  27.336  27.046  1.00  0.00    -0.508 OA
ATOM     15  H   UNL A   1      31.981  27.783  27.657  1.00  0.00     0.293 HD
ENDBRANCH  10  14
BRANCH  11  16
ATOM     16  C   UNL A   1      33.599  23.480  23.536  1.00  0.00     0.193 C 
ATOM     17  O   UNL A   1      34.171  23.853  22.514  1.00  0.00    -0.289 OA
BRANCH  16  18
ATOM     18  C   UNL A   1      33.559  22.029  23.838  1.00  0.00     0.022 A 
ATOM     19  C   UNL A   1      34.625  21.476  24.556  1.00  0.00     0.012 A 
ATOM     20  C   UNL A   1      32.500  21.217  23.418  1.00  0.00     0.012 A 
ATOM     21  C   UNL A   1      34.603  20.126  24.904  1.00  0.00     0.001 A 
ATOM     22  C   UNL A   1      32.481  19.867  23.773  1.00  0.00     0.001 A 
ATOM     23  C   UNL A   1      33.527  19.326  24.522  1.00  0.00     0.000 A 
ENDBRANCH  16  18
ENDBRANCH  11  16
ENDBRANCH   6   8
ENDBRANCH   3   6
ENDBRANCH   1   2
BRANCH   1  24
ATOM     24  C   UNL A   1      31.625  32.067  26.563  1.00  0.00     0.042 C 
BRANCH  24  25
ATOM     25  C   UNL A   1      32.730  32.744  27.365  1.00  0.00     0.118 C 
BRANCH  25  26
ATOM     26  N   UNL A   1      32.433  34.137  27.668  1.00  0.00    -0.352 N 
ATOM     27  C   UNL A   1      32.996  34.960  28.614  1.00  0.00     0.251 C 
ATOM     28  H   UNL A   1      31.729  34.548  27.117  1.00  0.00     0.163 HD
ATOM     29  O   UNL A   1      32.501  36.057  28.852  1.00  0.00    -0.269 OA
BRANCH  27  30
ATOM     30  C   UNL A   1      34.185  34.507  29.362  1.00  0.00     0.039 A 
ATOM     31  C   UNL A   1      34.018  33.908  30.613  1.00  0.00     0.014 A 
ATOM     32  C   UNL A   1      35.462  34.665  28.820  1.00  0.00     0.014 A 
ATOM     33  C   UNL A   1      35.129  33.400  31.291  1.00  0.00     0.010 A 
ATOM     34  C   UNL A   1      36.555  34.090  29.456  1.00  0.00     0.010 A 
ATOM     35  C   UNL A   1      36.400  33.454  30.699  1.00  0.00    -0.014 A 
BRANCH  35  36
ATOM     36  C   UNL A   1      37.602  32.876  31.349  1.00  0.00     0.031 A 
ATOM     37  C   UNL A   1      38.307  31.720  30.700  1.00  0.00     0.074 A 
ATOM     38  C   UNL A   1      37.982  33.303  32.568  1.00  0.00     0.049 A 
ATOM     39  N   UNL A   1      39.238  30.937  31.180  1.00  0.00    -0.248 NA
ATOM     40  C   UNL A   1      37.873  31.376  29.337  1.00  0.00     0.031 C 
ATOM     41  C   UNL A   1      37.358  34.394  33.314  1.00  0.00     0.029 A 
ATOM     42  N   UNL A   1      38.963  32.841  33.409  1.00  0.00    -0.354 N 
ATOM     43  C   UNL A   1      39.474  29.988  30.194  1.00  0.00     0.074 A 
ATOM     44  C   UNL A   1      38.557  30.265  29.110  1.00  0.00     0.031 C 
ATOM     45  C   UNL A   1      37.966  34.516  34.504  1.00  0.00     0.029 A 
ATOM     46  C   UNL A   1      38.989  33.481  34.624  1.00  0.00     0.049 A 
ATOM     47  H   UNL A   1      39.589  32.121  33.165  1.00  0.00     0.167 HD
ATOM     48  C   UNL A   1      40.384  28.985  30.189  1.00  0.00     0.037 A 
ATOM     49  C   UNL A   1      39.734  33.241  35.720  1.00  0.00     0.037 A 
ATOM     50  C   UNL A   1      41.309  28.733  31.263  1.00  0.00     0.049 A 
ATOM     51  C   UNL A   1      40.738  32.121  35.698  1.00  0.00     0.074 A 
ATOM     52  C   UNL A   1      42.312  27.784  31.333  1.00  0.00     0.029 A 
ATOM     53  N   UNL A   1      41.338  29.437  32.459  1.00  0.00    -0.354 N 
ATOM     54  N   UNL A   1      40.993  31.261  34.743  1.00  0.00    -0.248 NA
ATOM     55  C   UNL A   1      41.561  31.941  36.902  1.00  0.00     0.031 C 
ATOM     56  C   UNL A   1      42.917  27.881  32.592  1.00  0.00     0.029 A 
ATOM     57  C   UNL A   1      42.329  28.929  33.283  1.00  0.00     0.049 A 
ATOM     58  H   UNL A   1      40.742  30.186  32.689  1.00  0.00     0.167 HD
ATOM     59  C   UNL A   1      42.025  30.460  35.214  1.00  0.00     0.074 A 
ATOM     60  C   UNL A   1      42.349  30.936  36.544  1.00  0.00     0.031 C 
ATOM     61  C   UNL A   1      42.650  29.427  34.597  1.00  0.00     0.037 A 
BRANCH  48  62
ATOM     62  C   UNL A   1      40.405  28.081  28.991  1.00  0.00     0.064 A 
ATOM     63  C   UNL A   1      41.155  28.388  27.845  1.00  0.00     0.173 A 
ATOM     64  C   UNL A   1      39.662  26.890  28.986  1.00  0.00     0.173 A 
ATOM     65  F   UNL A   1      41.876  29.519  27.793  1.00  0.00    -0.203 F 
ATOM     66  C   UNL A   1      41.121  27.565  26.722  1.00  0.00     0.198 A 
ATOM     67  C   UNL A   1      39.659  26.051  27.874  1.00  0.00     0.198 A 
ATOM     68  F   UNL A   1      38.934  26.542  30.056  1.00  0.00    -0.203 F 
ATOM     69  F   UNL A   1      41.788  27.919  25.615  1.00  0.00    -0.200 F 
ATOM     70  C   UNL A   1      40.376  26.396  26.739  1.00  0.00     0.200 A 
ATOM     71  F   UNL A   1      38.952  24.914  27.897  1.00  0.00    -0.200 F 
ATOM     72  F   UNL A   1      40.342  25.607  25.656  1.00  0.00    -0.200 F 
ENDBRANCH  48  62
BRANCH  49  73
ATOM     73  C   UNL A   1      39.558  34.095  36.923  1.00  0.00     0.064 A 
ATOM     74  C   UNL A   1      38.780  33.661  38.004  1.00  0.00     0.173 A 
ATOM     75  C   UNL A   1      40.195  35.340  37.034  1.00  0.00     0.173 A 
ATOM     76  F   UNL A   1      38.138  32.486  37.936  1.00  0.00    -0.203 F 
ATOM     77  C   UNL A   1      38.640  34.442  39.149  1.00  0.00     0.198 A 
ATOM     78  C   UNL A   1      40.075  36.108  38.190  1.00  0.00     0.198 A 
ATOM     79  F   UNL A   1      40.958  35.796  36.030  1.00  0.00    -0.203 F 
ATOM     80  F   UNL A   1      37.868  34.016  40.159  1.00  0.00    -0.200 F 
ATOM     81  C   UNL A   1      39.295  35.661  39.245  1.00  0.00     0.200 A 
ATOM     82  F   UNL A   1      40.725  37.277  38.286  1.00  0.00    -0.200 F 
ATOM     83  F   UNL A   1      39.174  36.403  40.353  1.00  0.00    -0.200 F 
ENDBRANCH  49  73
BRANCH  61  84
ATOM     84  C   UNL A   1      43.788  28.768  35.321  1.00  0.00     0.064 A 
ATOM     85  C   UNL A   1      43.586  27.687  36.189  1.00  0.00     0.173 A 
ATOM     86  C   UNL A   1      45.108  29.177  35.073  1.00  0.00     0.173 A 
ATOM     87  F   UNL A   1      42.341  27.269  36.470  1.00  0.00    -0.203 F 
ATOM     88  C   UNL A   1      44.664  27.043  36.791  1.00  0.00     0.198 A 
ATOM     89  C   UNL A   1      46.184  28.513  35.654  1.00  0.00     0.198 A 
ATOM     90  F   UNL A   1      45.354  30.203  34.244  1.00  0.00    -0.203 F 
ATOM     91  F   UNL A   1      44.448  26.030  37.640  1.00  0.00    -0.200 F 
ATOM     92  C   UNL A   1      45.962  27.449  36.514  1.00  0.00     0.200 A 
ATOM     93  F   UNL A   1      47.437  28.897  35.373  1.00  0.00    -0.200 F 
ATOM     94  F   UNL A   1      46.998  26.814  37.078  1.00  0.00    -0.200 F 
ENDBRANCH  61  84
ENDBRANCH  35  36
ENDBRANCH  27  30
ENDBRANCH  25  26
ENDBRANCH  24  25
ENDBRANCH   1  24
TORSDOF 14
ENDMDL
MODEL 3
REMARK VINA RESULT:     -13.0      2.051      3.394
REMARK SMILES C[C@@H](C(=O)NCCCNC(=O)c1ccc(-c2c3nc(c(-c4c(F)c(F)c(F)c(F)c4F)c4ccc([nH]4)c(-c4c(F)c(F)c(F)c(F)c4F)c4nc(c(-c5c(F)c(F)c(F)c(F)c5F)c5ccc2[nH]5)C=C4)C=C3)cc1)c1cc(C(=O)c2ccccc2)ccc1O
REMARK SMILES IDX 6 1 5 2 3 3 4 4 2 6 1 7 75 8 76 9 88 10 77 11 87 12 86 13
REMARK SMILES IDX 89 14 78 16 79 17 80 18 81 19 85 20 82 21 84 22 83 23 7 24
REMARK SMILES IDX 8 25 9 26 10 27 11 29 12 30 13 31 74 32 14 33 73 34 15 35
REMARK SMILES IDX 16 36 17 37 67 38 18 39 72 40 66 41 68 42 19 43 71 44 65 45
REMARK SMILES IDX 64 46 20 48 52 49 32 50 51 51 33 52 36 53 50 54 69 55 34 56
REMARK SMILES IDX 35 57 49 59 70 60 37 61 21 62 22 63 30 64 23 65 24 66 28 67
REMARK SMILES IDX 31 68 25 69 26 70 29 71 27 72 53 73 54 74 62 75 55 76 56 77
REMARK SMILES IDX 60 78 63 79 57 80 58 81 61 82 59 83 38 84 39 85 47 86 40 87
REMARK SMILES IDX 41 88 45 89 48 90 42 91 43 92 46 93 44 94
REMARK H PARENT 5 5 89 15 9 28 68 47 36 58
REMARK Flexibility Score: inf
ROOT
ATOM      1  C   UNL A   1      31.787  27.901  26.656  1.00  0.00     0.117 C 
ENDROOT
BRANCH   1   2
ATOM      2  N   UNL A   1      31.079  26.643  26.787  1.00  0.00    -0.356 N 
ATOM      3  C   UNL A   1      30.268  25.981  25.913  1.00  0.00     0.227 C 
ATOM      4  O   UNL A   1      29.756  24.942  26.331  1.00  0.00    -0.274 OA
ATOM      5  H   UNL A   1      31.205  26.191  27.653  1.00  0.00     0.163 HD
BRANCH   3   6
ATOM      6  C   UNL A   1      30.065  26.527  24.489  1.00  0.00     0.109 C 
ATOM      7  C   UNL A   1      28.629  26.337  23.994  1.00  0.00     0.023 C 
BRANCH   6   8
ATOM      8  C   UNL A   1      31.028  25.932  23.465  1.00  0.00     0.007 A 
ATOM      9  C   UNL A   1      31.551  24.638  23.681  1.00  0.00     0.020 A 
ATOM     10  C   UNL A   1      31.406  26.591  22.288  1.00  0.00     0.119 A 
ATOM     11  C   UNL A   1      32.440  24.039  22.781  1.00  0.00     0.023 A 
ATOM     12  C   UNL A   1      32.276  25.995  21.375  1.00  0.00     0.047 A 
ATOM     13  C   UNL A   1      32.782  24.717  21.610  1.00  0.00     0.016 A 
BRANCH  10  14
ATOM     14  O   UNL A   1      30.959  27.830  21.928  1.00  0.00    -0.508 OA
ATOM     15  H   UNL A   1      30.535  27.955  21.102  1.00  0.00     0.293 HD
ENDBRANCH  10  14
BRANCH  11  16
ATOM     16  C   UNL A   1      32.943  22.672  23.092  1.00  0.00     0.193 C 
ATOM     17  O   UNL A   1      32.228  21.696  22.877  1.00  0.00    -0.289 OA
BRANCH  16  18
ATOM     18  C   UNL A   1      34.311  22.448  23.615  1.00  0.00     0.022 A 
ATOM     19  C   UNL A   1      34.491  21.458  24.586  1.00  0.00     0.012 A 
ATOM     20  C   UNL A   1      35.403  23.202  23.171  1.00  0.00     0.012 A 
ATOM     21  C   UNL A   1      35.770  21.181  25.069  1.00  0.00     0.001 A 
ATOM     22  C   UNL A   1      36.682  22.919  23.654  1.00  0.00     0.001 A 
ATOM     23  C   UNL A   1      36.865  21.904  24.595  1.00  0.00     0.000 A 
ENDBRANCH  16  18
ENDBRANCH  11  16
ENDBRANCH   6   8
ENDBRANCH   3   6
ENDBRANCH   1   2
BRANCH   1  24
ATOM     24  C   UNL A   1      33.118  27.724  25.932  1.00  0.00     0.042 C 
BRANCH  24  25
ATOM     25  C   UNL A   1      33.670  29.009  25.329  1.00  0.00     0.118 C 
BRANCH  25  26
ATOM     26  N   UNL A   1      33.039  30.203  25.874  1.00  0.00    -0.352 N 
ATOM     27  C   UNL A   1      33.426  30.982  26.938  1.00  0.00     0.251 C 
ATOM     28  H   UNL A   1      32.220  30.494  25.414  1.00  0.00     0.163 HD
ATOM     29  O   UNL A   1      32.678  31.853  27.371  1.00  0.00    -0.269 OA
BRANCH  27  30
ATOM     30  C   UNL A   1      34.737  30.749  27.577  1.00  0.00     0.039 A 
ATOM     31  C   UNL A   1      35.658  31.798  27.645  1.00  0.00     0.014 A 
ATOM     32  C   UNL A   1      35.047  29.500  28.117  1.00  0.00     0.014 A 
ATOM     33  C   UNL A   1      36.867  31.613  28.322  1.00  0.00     0.010 A 
ATOM     34  C   UNL A   1      36.212  29.341  28.858  1.00  0.00     0.010 A 
ATOM     35  C   UNL A   1      37.134  30.396  28.965  1.00  0.00    -0.014 A 
BRANCH  35  36
ATOM     36  C   UNL A   1      38.375  30.168  29.747  1.00  0.00     0.031 A 
ATOM     37  C   UNL A   1      39.416  29.225  29.219  1.00  0.00     0.074 A 
ATOM     38  C   UNL A   1      38.508  30.707  30.974  1.00  0.00     0.049 A 
ATOM     39  N   UNL A   1      40.466  28.725  29.816  1.00  0.00    -0.248 NA
ATOM     40  C   UNL A   1      39.224  28.750  27.839  1.00  0.00     0.031 C 
ATOM     41  C   UNL A   1      37.551  31.611  31.609  1.00  0.00     0.029 A 
ATOM     42  N   UNL A   1      39.487  30.538  31.920  1.00  0.00    -0.354 N 
ATOM     43  C   UNL A   1      41.038  27.851  28.901  1.00  0.00     0.074 A 
ATOM     44  C   UNL A   1      40.192  27.854  27.727  1.00  0.00     0.031 C 
ATOM     45  C   UNL A   1      37.986  31.914  32.842  1.00  0.00     0.029 A 
ATOM     46  C   UNL A   1      39.226  31.187  33.101  1.00  0.00     0.049 A 
ATOM     47  H   UNL A   1      40.300  30.002  31.767  1.00  0.00     0.167 HD
ATOM     48  C   UNL A   1      42.173  27.123  29.025  1.00  0.00     0.037 A 
ATOM     49  C   UNL A   1      39.895  31.176  34.270  1.00  0.00     0.037 A 
ATOM     50  C   UNL A   1      43.020  27.146  30.188  1.00  0.00     0.049 A 
ATOM     51  C   UNL A   1      41.153  30.359  34.391  1.00  0.00     0.074 A 
ATOM     52  C   UNL A   1      44.224  26.496  30.392  1.00  0.00     0.029 A 
ATOM     53  N   UNL A   1      42.747  27.858  31.348  1.00  0.00    -0.354 N 
ATOM     54  N   UNL A   1      41.716  29.576  33.503  1.00  0.00    -0.248 NA
ATOM     55  C   UNL A   1      41.871  30.428  35.671  1.00  0.00     0.031 C 
ATOM     56  C   UNL A   1      44.655  26.776  31.694  1.00  0.00     0.029 A 
ATOM     57  C   UNL A   1      43.749  27.647  32.280  1.00  0.00     0.049 A 
ATOM     58  H   UNL A   1      41.957  28.430  31.488  1.00  0.00     0.167 HD
ATOM     59  C   UNL A   1      42.868  29.085  34.103  1.00  0.00     0.074 A 
ATOM     60  C   UNL A   1      42.924  29.658  35.432  1.00  0.00     0.031 C 
ATOM     61  C   UNL A   1      43.799  28.240  33.593  1.00  0.00     0.037 A 
BRANCH  48  62
ATOM     62  C   UNL A   1      42.547  26.231  27.877  1.00  0.00     0.064 A 
ATOM     63  C   UNL A   1      43.426  26.653  26.867  1.00  0.00     0.173 A 
ATOM     64  C   UNL A   1      42.016  24.935  27.781  1.00  0.00     0.173 A 
ATOM     65  F   UNL A   1      43.954  27.886  26.904  1.00  0.00    -0.203 F 
ATOM     66  C   UNL A   1      43.720  25.832  25.782  1.00  0.00     0.198 A 
ATOM     67  C   UNL A   1      42.341  24.103  26.713  1.00  0.00     0.198 A 
ATOM     68  F   UNL A   1      41.179  24.475  28.722  1.00  0.00    -0.203 F 
ATOM     69  F   UNL A   1      44.504  26.286  24.794  1.00  0.00    -0.200 F 
ATOM     70  C   UNL A   1      43.181  24.557  25.707  1.00  0.00     0.200 A 
ATOM     71  F   UNL A   1      41.832  22.865  26.650  1.00  0.00    -0.200 F 
ATOM     72  F   UNL A   1      43.462  23.770  24.660  1.00  0.00    -0.200 F 
ENDBRANCH  48  62
BRANCH  49  73
ATOM     73  C   UNL A   1      39.385  31.978  35.411  1.00  0.00     0.064 A 
ATOM     74  C   UNL A   1      39.705  33.337  35.534  1.00  0.00     0.173 A 
ATOM     75  C   UNL A   1      38.535  31.417  36.376  1.00  0.00     0.173 A 
ATOM     76  F   UNL A   1      40.529  33.912  34.646  1.00  0.00    -0.203 F 
ATOM     77  C   UNL A   1      39.201  34.103  36.583  1.00  0.00     0.198 A 
ATOM     78  C   UNL A   1      38.011  32.190  37.410  1.00  0.00     0.198 A 
ATOM     79  F   UNL A   1      38.191  30.123  36.297  1.00  0.00    -0.203 F 
ATOM     80  F   UNL A   1      39.545  35.393  36.693  1.00  0.00    -0.200 F 
ATOM     81  C   UNL A   1      38.347  33.532  37.515  1.00  0.00     0.200 A 
ATOM     82  F   UNL A   1      37.171  31.639  38.297  1.00  0.00    -0.200 F 
ATOM     83  F   UNL A   1      37.849  34.273  38.513  1.00  0.00    -0.200 F 
ENDBRANCH  49  73
BRANCH  61  84
ATOM     84  C   UNL A   1      44.991  27.919  34.446  1.00  0.00     0.064 A 
ATOM     85  C   UNL A   1      46.132  28.732  34.458  1.00  0.00     0.173 A 
ATOM     86  C   UNL A   1      44.951  26.825  35.325  1.00  0.00     0.173 A 
ATOM     87  F   UNL A   1      46.224  29.780  33.625  1.00  0.00    -0.203 F 
ATOM     88  C   UNL A   1      47.195  28.456  35.315  1.00  0.00     0.198 A 
ATOM     89  C   UNL A   1      46.003  26.570  36.199  1.00  0.00     0.198 A 
ATOM     90  F   UNL A   1      43.878  26.021  35.356  1.00  0.00    -0.203 F 
ATOM     91  F   UNL A   1      48.290  29.230  35.290  1.00  0.00    -0.200 F 
ATOM     92  C   UNL A   1      47.125  27.384  36.192  1.00  0.00     0.200 A 
ATOM     93  F   UNL A   1      45.927  25.542  37.056  1.00  0.00    -0.200 F 
ATOM     94  F   UNL A   1      48.141  27.134  37.029  1.00  0.00    -0.200 F 
ENDBRANCH  61  84
ENDBRANCH  35  36
ENDBRANCH  27  30
ENDBRANCH  25  26
ENDBRANCH  24  25
ENDBRANCH   1  24
TORSDOF 14
ENDMDL
