MODEL 1
REMARK VINA RESULT:     -12.2      0.000      0.000
REMARK SMILES COC(=O)[C@@H]1C[C@@H](C(=O)NCCCNC(=O)c2ccc(-c3c4nc(c(-c5c(F)c(F)c(F)c(F)c5F)c5ccc([nH]5)c(-c5c(F)c(F)c(F)c(F)c5F)c5nc(c(-c6c(F)c(F)c(F)c(F)c6F)c6ccc3[nH]6)C=C5)C=C4)cc2)[C@@H](c2cccc(F)c2F)[N@H+]1C
REMARK SMILES IDX 12 1 11 2 10 3 8 4 9 5 7 7 5 8 6 9 89 10 80 11 90 12 3 14
REMARK SMILES IDX 4 15 2 16 1 17 81 18 82 19 87 20 83 21 85 22 88 23 84 24
REMARK SMILES IDX 86 25 13 26 14 27 15 28 16 30 17 31 18 32 79 33 19 34 78 35
REMARK SMILES IDX 20 36 21 37 22 38 72 39 23 40 77 41 71 42 73 43 24 44 76 45
REMARK SMILES IDX 70 46 69 47 25 49 57 50 37 51 56 52 38 53 41 54 55 55 74 56
REMARK SMILES IDX 39 57 40 58 54 60 75 61 42 62 26 63 27 64 35 65 28 66 29 67
REMARK SMILES IDX 33 68 36 69 30 70 31 71 34 72 32 73 58 74 59 75 67 76 60 77
REMARK SMILES IDX 61 78 65 79 68 80 62 81 63 82 66 83 64 84 43 85 44 86 52 87
REMARK SMILES IDX 45 88 46 89 50 90 53 91 47 92 48 93 51 94 49 95
REMARK H PARENT 10 6 89 13 14 29 73 48 41 59
REMARK Flexibility Score: inf
ROOT
ATOM      1  C   UNL A   1      33.415  31.719  26.857  1.00  0.00     0.042 C 
ENDROOT
BRANCH   1   2
ATOM      2  C   UNL A   1      33.852  30.389  27.459  1.00  0.00     0.117 C 
BRANCH   2   3
ATOM      3  N   UNL A   1      32.766  29.432  27.608  1.00  0.00    -0.356 N 
ATOM      4  C   UNL A   1      32.091  28.600  26.777  1.00  0.00     0.229 C 
ATOM      5  O   UNL A   1      31.246  27.880  27.327  1.00  0.00    -0.275 OA
ATOM      6  H   UNL A   1      32.444  29.374  28.537  1.00  0.00     0.163 HD
BRANCH   4   7
ATOM      7  C   UNL A   1      32.277  28.493  25.266  1.00  0.00     0.148 C 
ATOM      8  C   UNL A   1      30.500  28.078  23.726  1.00  0.00     0.296 C 
ATOM      9  C   UNL A   1      31.136  29.188  24.531  1.00  0.00     0.097 C 
ATOM     10  N   UNL A   1      31.707  27.369  23.304  1.00  0.00    -0.319 N 
ATOM     11  C   UNL A   1      32.559  27.137  24.504  1.00  0.00     0.231 C 
ATOM     12  C   UNL A   1      31.524  26.391  22.263  1.00  0.00     0.333 C 
ATOM     13  H   UNL A   1      32.318  27.930  22.711  1.00  0.00     0.349 HD
BRANCH   8  14
ATOM     14  C   UNL A   1      29.635  28.731  22.652  1.00  0.00     0.364 C 
ATOM     15  O   UNL A   1      30.012  29.412  21.713  1.00  0.00    -0.245 OA
BRANCH  14  16
ATOM     16  O   UNL A   1      28.325  28.523  23.003  1.00  0.00    -0.465 OA
ATOM     17  C   UNL A   1      27.492  29.682  22.977  1.00  0.00     0.282 C 
ENDBRANCH  14  16
ENDBRANCH   8  14
BRANCH  11  18
ATOM     18  C   UNL A   1      32.510  25.838  25.325  1.00  0.00     0.049 A 
ATOM     19  C   UNL A   1      33.714  25.138  25.584  1.00  0.00     0.013 A 
ATOM     20  C   UNL A   1      31.359  25.158  25.753  1.00  0.00     0.167 A 
ATOM     21  C   UNL A   1      33.788  24.010  26.419  1.00  0.00     0.004 A 
ATOM     22  C   UNL A   1      31.421  24.025  26.574  1.00  0.00     0.159 A 
ATOM     23  F   UNL A   1      30.135  25.503  25.351  1.00  0.00    -0.203 F 
ATOM     24  C   UNL A   1      32.630  23.472  26.953  1.00  0.00     0.042 A 
ATOM     25  F   UNL A   1      30.285  23.451  26.997  1.00  0.00    -0.204 F 
ENDBRANCH  11  18
ENDBRANCH   4   7
ENDBRANCH   2   3
ENDBRANCH   1   2
BRANCH   1  26
ATOM     26  C   UNL A   1      32.177  32.310  27.523  1.00  0.00     0.118 C 
BRANCH  26  27
ATOM     27  N   UNL A   1      32.246  33.761  27.574  1.00  0.00    -0.352 N 
ATOM     28  C   UNL A   1      33.025  34.559  28.375  1.00  0.00     0.251 C 
ATOM     29  H   UNL A   1      31.654  34.238  26.949  1.00  0.00     0.163 HD
ATOM     30  O   UNL A   1      32.757  35.751  28.488  1.00  0.00    -0.269 OA
BRANCH  28  31
ATOM     31  C   UNL A   1      34.187  33.997  29.101  1.00  0.00     0.039 A 
ATOM     32  C   UNL A   1      35.474  34.308  28.652  1.00  0.00     0.014 A 
ATOM     33  C   UNL A   1      34.018  33.110  30.170  1.00  0.00     0.014 A 
ATOM     34  C   UNL A   1      36.588  33.749  29.285  1.00  0.00     0.010 A 
ATOM     35  C   UNL A   1      35.133  32.599  30.838  1.00  0.00     0.010 A 
ATOM     36  C   UNL A   1      36.429  32.899  30.391  1.00  0.00    -0.014 A 
BRANCH  36  37
ATOM     37  C   UNL A   1      37.612  32.300  31.068  1.00  0.00     0.031 A 
ATOM     38  C   UNL A   1      38.384  31.191  30.405  1.00  0.00     0.074 A 
ATOM     39  C   UNL A   1      37.972  32.728  32.293  1.00  0.00     0.049 A 
ATOM     40  N   UNL A   1      39.406  30.506  30.858  1.00  0.00    -0.248 NA
ATOM     41  C   UNL A   1      37.940  30.782  29.063  1.00  0.00     0.031 C 
ATOM     42  C   UNL A   1      37.292  33.774  33.056  1.00  0.00     0.029 A 
ATOM     43  N   UNL A   1      38.993  32.326  33.120  1.00  0.00    -0.354 N 
ATOM     44  C   UNL A   1      39.714  29.581  29.868  1.00  0.00     0.074 A 
ATOM     45  C   UNL A   1      38.746  29.762  28.806  1.00  0.00     0.031 C 
ATOM     46  C   UNL A   1      37.918  33.940  34.231  1.00  0.00     0.029 A 
ATOM     47  C   UNL A   1      39.018  32.983  34.326  1.00  0.00     0.049 A 
ATOM     48  H   UNL A   1      39.646  31.632  32.871  1.00  0.00     0.167 HD
ATOM     49  C   UNL A   1      40.721  28.677  29.840  1.00  0.00     0.037 A 
ATOM     50  C   UNL A   1      39.822  32.822  35.396  1.00  0.00     0.037 A 
ATOM     51  C   UNL A   1      41.700  28.518  30.884  1.00  0.00     0.049 A 
ATOM     52  C   UNL A   1      40.923  31.795  35.344  1.00  0.00     0.074 A 
ATOM     53  C   UNL A   1      42.796  27.672  30.914  1.00  0.00     0.029 A 
ATOM     54  N   UNL A   1      41.699  29.213  32.083  1.00  0.00    -0.354 N 
ATOM     55  N   UNL A   1      41.246  30.975  34.373  1.00  0.00    -0.248 NA
ATOM     56  C   UNL A   1      41.778  31.675  36.533  1.00  0.00     0.031 C 
ATOM     57  C   UNL A   1      43.421  27.809  32.157  1.00  0.00     0.029 A 
ATOM     58  C   UNL A   1      42.756  28.791  32.874  1.00  0.00     0.049 A 
ATOM     59  H   UNL A   1      41.044  29.903  32.336  1.00  0.00     0.167 HD
ATOM     60  C   UNL A   1      42.358  30.273  34.818  1.00  0.00     0.074 A 
ATOM     61  C   UNL A   1      42.662  30.767  36.143  1.00  0.00     0.031 C 
ATOM     62  C   UNL A   1      43.064  29.305  34.184  1.00  0.00     0.037 A 
BRANCH  49  63
ATOM     63  C   UNL A   1      40.823  27.770  28.647  1.00  0.00     0.064 A 
ATOM     64  C   UNL A   1      40.061  26.597  28.541  1.00  0.00     0.173 A 
ATOM     65  C   UNL A   1      41.637  28.122  27.558  1.00  0.00     0.173 A 
ATOM     66  F   UNL A   1      39.272  26.210  29.555  1.00  0.00    -0.203 F 
ATOM     67  C   UNL A   1      40.127  25.799  27.401  1.00  0.00     0.198 A 
ATOM     68  C   UNL A   1      41.676  27.339  26.408  1.00  0.00     0.198 A 
ATOM     69  F   UNL A   1      42.379  29.238  27.602  1.00  0.00    -0.203 F 
ATOM     70  F   UNL A   1      39.420  24.662  27.339  1.00  0.00    -0.200 F 
ATOM     71  C   UNL A   1      40.925  26.177  26.332  1.00  0.00     0.200 A 
ATOM     72  F   UNL A   1      42.436  27.715  25.369  1.00  0.00    -0.200 F 
ATOM     73  F   UNL A   1      40.973  25.417  25.229  1.00  0.00    -0.200 F 
ENDBRANCH  49  63
BRANCH  50  74
ATOM     74  C   UNL A   1      39.613  33.646  36.617  1.00  0.00     0.064 A 
ATOM     75  C   UNL A   1      38.814  33.190  37.674  1.00  0.00     0.173 A 
ATOM     76  C   UNL A   1      40.189  34.920  36.739  1.00  0.00     0.173 A 
ATOM     77  F   UNL A   1      38.223  31.988  37.596  1.00  0.00    -0.203 F 
ATOM     78  C   UNL A   1      38.573  33.986  38.792  1.00  0.00     0.198 A 
ATOM     79  C   UNL A   1      39.976  35.701  37.873  1.00  0.00     0.198 A 
ATOM     80  F   UNL A   1      40.964  35.404  35.758  1.00  0.00    -0.203 F 
ATOM     81  F   UNL A   1      37.754  33.550  39.758  1.00  0.00    -0.200 F 
ATOM     82  C   UNL A   1      39.158  35.239  38.893  1.00  0.00     0.200 A 
ATOM     83  F   UNL A   1      40.556  36.906  37.972  1.00  0.00    -0.200 F 
ATOM     84  F   UNL A   1      38.924  36.006  39.967  1.00  0.00    -0.200 F 
ENDBRANCH  50  74
BRANCH  62  85
ATOM     85  C   UNL A   1      44.272  28.750  34.882  1.00  0.00     0.064 A 
ATOM     86  C   UNL A   1      44.204  27.601  35.682  1.00  0.00     0.173 A 
ATOM     87  C   UNL A   1      45.530  29.346  34.694  1.00  0.00     0.173 A 
ATOM     88  F   UNL A   1      43.026  27.001  35.904  1.00  0.00    -0.203 F 
ATOM     89  C   UNL A   1      45.347  27.080  36.285  1.00  0.00     0.198 A 
ATOM     90  C   UNL A   1      46.675  28.804  35.271  1.00  0.00     0.198 A 
ATOM     91  F   UNL A   1      45.652  30.443  33.932  1.00  0.00    -0.203 F 
ATOM     92  F   UNL A   1      45.252  26.005  37.079  1.00  0.00    -0.200 F 
ATOM     93  C   UNL A   1      46.582  27.675  36.071  1.00  0.00     0.200 A 
ATOM     94  F   UNL A   1      47.869  29.370  35.048  1.00  0.00    -0.200 F 
ATOM     95  F   UNL A   1      47.682  27.163  36.639  1.00  0.00    -0.200 F 
ENDBRANCH  62  85
ENDBRANCH  36  37
ENDBRANCH  28  31
ENDBRANCH  26  27
ENDBRANCH   1  26
TORSDOF 13
ENDMDL
MODEL 2
REMARK VINA RESULT:     -12.1      5.662      9.407
REMARK SMILES COC(=O)[C@@H]1C[C@@H](C(=O)NCCCNC(=O)c2ccc(-c3c4nc(c(-c5c(F)c(F)c(F)c(F)c5F)c5ccc([nH]5)c(-c5c(F)c(F)c(F)c(F)c5F)c5nc(c(-c6c(F)c(F)c(F)c(F)c6F)c6ccc3[nH]6)C=C5)C=C4)cc2)[C@@H](c2cccc(F)c2F)[N@H+]1C
REMARK SMILES IDX 12 1 11 2 10 3 8 4 9 5 7 7 5 8 6 9 89 10 80 11 90 12 3 14
REMARK SMILES IDX 4 15 2 16 1 17 81 18 82 19 87 20 83 21 85 22 88 23 84 24
REMARK SMILES IDX 86 25 13 26 14 27 15 28 16 30 17 31 18 32 79 33 19 34 78 35
REMARK SMILES IDX 20 36 21 37 22 38 72 39 23 40 77 41 71 42 73 43 24 44 76 45
REMARK SMILES IDX 70 46 69 47 25 49 57 50 37 51 56 52 38 53 41 54 55 55 74 56
REMARK SMILES IDX 39 57 40 58 54 60 75 61 42 62 26 63 27 64 35 65 28 66 29 67
REMARK SMILES IDX 33 68 36 69 30 70 31 71 34 72 32 73 58 74 59 75 67 76 60 77
REMARK SMILES IDX 61 78 65 79 68 80 62 81 63 82 66 83 64 84 43 85 44 86 52 87
REMARK SMILES IDX 45 88 46 89 50 90 53 91 47 92 48 93 51 94 49 95
REMARK H PARENT 10 6 89 13 14 29 73 48 41 59
REMARK Flexibility Score: inf
ROOT
ATOM      1  C   UNL A   1      38.413  20.898  26.126  1.00  0.00     0.042 C 
ENDROOT
BRANCH   1   2
ATOM      2  C   UNL A   1      38.342  22.363  25.714  1.00  0.00     0.117 C 
BRANCH   2   3
ATOM      3  N   UNL A   1      37.591  22.588  24.487  1.00  0.00    -0.356 N 
ATOM      4  C   UNL A   1      36.282  22.559  24.138  1.00  0.00     0.229 C 
ATOM      5  O   UNL A   1      36.045  22.879  22.964  1.00  0.00    -0.275 OA
ATOM      6  H   UNL A   1      38.176  22.817  23.728  1.00  0.00     0.163 HD
BRANCH   4   7
ATOM      7  C   UNL A   1      35.118  22.165  25.042  1.00  0.00     0.148 C 
ATOM      8  C   UNL A   1      33.207  20.938  24.304  1.00  0.00     0.296 C 
ATOM      9  C   UNL A   1      34.645  20.750  24.729  1.00  0.00     0.097 C 
ATOM     10  N   UNL A   1      32.806  21.960  25.271  1.00  0.00    -0.319 N 
ATOM     11  C   UNL A   1      33.824  23.048  25.253  1.00  0.00     0.231 C 
ATOM     12  C   UNL A   1      31.391  22.202  25.371  1.00  0.00     0.333 C 
ATOM     13  H   UNL A   1      32.850  21.640  26.239  1.00  0.00     0.349 HD
BRANCH   8  14
ATOM     14  C   UNL A   1      32.528  19.574  24.375  1.00  0.00     0.364 C 
ATOM     15  O   UNL A   1      32.173  18.976  25.377  1.00  0.00    -0.245 OA
BRANCH  14  16
ATOM     16  O   UNL A   1      32.501  19.067  23.100  1.00  0.00    -0.465 OA
ATOM     17  C   UNL A   1      32.902  17.703  22.974  1.00  0.00     0.282 C 
ENDBRANCH  14  16
ENDBRANCH   8  14
BRANCH  11  18
ATOM     18  C   UNL A   1      33.679  24.313  24.390  1.00  0.00     0.049 A 
ATOM     19  C   UNL A   1      33.833  25.584  24.995  1.00  0.00     0.013 A 
ATOM     20  C   UNL A   1      33.263  24.372  23.050  1.00  0.00     0.167 A 
ATOM     21  C   UNL A   1      33.835  26.789  24.272  1.00  0.00     0.004 A 
ATOM     22  C   UNL A   1      33.248  25.569  22.323  1.00  0.00     0.159 A 
ATOM     23  F   UNL A   1      32.791  23.307  22.401  1.00  0.00    -0.203 F 
ATOM     24  C   UNL A   1      33.579  26.776  22.912  1.00  0.00     0.042 A 
ATOM     25  F   UNL A   1      32.894  25.555  21.030  1.00  0.00    -0.204 F 
ENDBRANCH  11  18
ENDBRANCH   4   7
ENDBRANCH   2   3
ENDBRANCH   1   2
BRANCH   1  26
ATOM     26  C   UNL A   1      39.274  20.047  25.199  1.00  0.00     0.118 C 
BRANCH  26  27
ATOM     27  N   UNL A   1      40.201  19.218  25.952  1.00  0.00    -0.352 N 
ATOM     28  C   UNL A   1      41.381  19.575  26.556  1.00  0.00     0.251 C 
ATOM     29  H   UNL A   1      39.949  18.271  26.042  1.00  0.00     0.163 HD
ATOM     30  O   UNL A   1      42.173  18.704  26.904  1.00  0.00    -0.269 OA
BRANCH  28  31
ATOM     31  C   UNL A   1      41.707  21.001  26.796  1.00  0.00     0.039 A 
ATOM     32  C   UNL A   1      42.007  21.813  25.699  1.00  0.00     0.014 A 
ATOM     33  C   UNL A   1      41.792  21.520  28.091  1.00  0.00     0.014 A 
ATOM     34  C   UNL A   1      42.371  23.148  25.898  1.00  0.00     0.010 A 
ATOM     35  C   UNL A   1      42.098  22.869  28.285  1.00  0.00     0.010 A 
ATOM     36  C   UNL A   1      42.407  23.693  27.191  1.00  0.00    -0.014 A 
BRANCH  36  37
ATOM     37  C   UNL A   1      42.795  25.113  27.410  1.00  0.00     0.031 A 
ATOM     38  C   UNL A   1      44.179  25.585  27.053  1.00  0.00     0.074 A 
ATOM     39  C   UNL A   1      41.915  25.972  27.960  1.00  0.00     0.049 A 
ATOM     40  N   UNL A   1      44.721  26.767  27.220  1.00  0.00    -0.248 NA
ATOM     41  C   UNL A   1      45.083  24.595  26.447  1.00  0.00     0.031 C 
ATOM     42  C   UNL A   1      40.554  25.635  28.376  1.00  0.00     0.029 A 
ATOM     43  N   UNL A   1      42.039  27.303  28.278  1.00  0.00    -0.354 N 
ATOM     44  C   UNL A   1      46.026  26.657  26.756  1.00  0.00     0.074 A 
ATOM     45  C   UNL A   1      46.210  25.284  26.338  1.00  0.00     0.031 C 
ATOM     46  C   UNL A   1      39.965  26.729  28.883  1.00  0.00     0.029 A 
ATOM     47  C   UNL A   1      40.918  27.836  28.868  1.00  0.00     0.049 A 
ATOM     48  H   UNL A   1      42.854  27.826  28.098  1.00  0.00     0.167 HD
ATOM     49  C   UNL A   1      46.976  27.618  26.670  1.00  0.00     0.037 A 
ATOM     50  C   UNL A   1      40.690  29.069  29.361  1.00  0.00     0.037 A 
ATOM     51  C   UNL A   1      46.781  28.991  27.058  1.00  0.00     0.049 A 
ATOM     52  C   UNL A   1      41.772  30.113  29.268  1.00  0.00     0.074 A 
ATOM     53  C   UNL A   1      47.666  30.050  26.946  1.00  0.00     0.029 A 
ATOM     54  N   UNL A   1      45.627  29.493  27.639  1.00  0.00    -0.354 N 
ATOM     55  N   UNL A   1      42.978  30.014  28.762  1.00  0.00    -0.248 NA
ATOM     56  C   UNL A   1      41.461  31.445  29.807  1.00  0.00     0.031 C 
ATOM     57  C   UNL A   1      47.071  31.179  27.517  1.00  0.00     0.029 A 
ATOM     58  C   UNL A   1      45.790  30.841  27.921  1.00  0.00     0.049 A 
ATOM     59  H   UNL A   1      44.814  28.971  27.824  1.00  0.00     0.167 HD
ATOM     60  C   UNL A   1      43.551  31.273  28.889  1.00  0.00     0.074 A 
ATOM     61  C   UNL A   1      42.560  32.124  29.510  1.00  0.00     0.031 C 
ATOM     62  C   UNL A   1      44.788  31.685  28.521  1.00  0.00     0.037 A 
BRANCH  49  63
ATOM     63  C   UNL A   1      48.327  27.229  26.143  1.00  0.00     0.064 A 
ATOM     64  C   UNL A   1      49.345  26.762  26.987  1.00  0.00     0.173 A 
ATOM     65  C   UNL A   1      48.581  27.251  24.761  1.00  0.00     0.173 A 
ATOM     66  F   UNL A   1      49.158  26.728  28.316  1.00  0.00    -0.203 F 
ATOM     67  C   UNL A   1      50.573  26.352  26.473  1.00  0.00     0.198 A 
ATOM     68  C   UNL A   1      49.798  26.810  24.248  1.00  0.00     0.198 A 
ATOM     69  F   UNL A   1      47.640  27.679  23.908  1.00  0.00    -0.203 F 
ATOM     70  F   UNL A   1      51.544  25.946  27.303  1.00  0.00    -0.200 F 
ATOM     71  C   UNL A   1      50.794  26.365  25.103  1.00  0.00     0.200 A 
ATOM     72  F   UNL A   1      50.003  26.808  22.923  1.00  0.00    -0.200 F 
ATOM     73  F   UNL A   1      51.969  25.953  24.609  1.00  0.00    -0.200 F 
ENDBRANCH  49  63
BRANCH  50  74
ATOM     74  C   UNL A   1      39.384  29.388  29.997  1.00  0.00     0.064 A 
ATOM     75  C   UNL A   1      38.347  29.986  29.267  1.00  0.00     0.173 A 
ATOM     76  C   UNL A   1      39.155  29.125  31.356  1.00  0.00     0.173 A 
ATOM     77  F   UNL A   1      38.523  30.278  27.969  1.00  0.00    -0.203 F 
ATOM     78  C   UNL A   1      37.144  30.337  29.878  1.00  0.00     0.198 A 
ATOM     79  C   UNL A   1      37.939  29.444  31.958  1.00  0.00     0.198 A 
ATOM     80  F   UNL A   1      40.112  28.552  32.100  1.00  0.00    -0.203 F 
ATOM     81  F   UNL A   1      36.195  30.964  29.171  1.00  0.00    -0.200 F 
ATOM     82  C   UNL A   1      36.939  30.061  31.221  1.00  0.00     0.200 A 
ATOM     83  F   UNL A   1      37.741  29.162  33.253  1.00  0.00    -0.200 F 
ATOM     84  F   UNL A   1      35.784  30.400  31.809  1.00  0.00    -0.200 F 
ENDBRANCH  50  74
BRANCH  62  85
ATOM     85  C   UNL A   1      45.131  33.134  28.722  1.00  0.00     0.064 A 
ATOM     86  C   UNL A   1      45.810  33.583  29.864  1.00  0.00     0.173 A 
ATOM     87  C   UNL A   1      44.828  34.075  27.725  1.00  0.00     0.173 A 
ATOM     88  F   UNL A   1      46.111  32.728  30.852  1.00  0.00    -0.203 F 
ATOM     89  C   UNL A   1      46.154  34.925  30.009  1.00  0.00     0.198 A 
ATOM     90  C   UNL A   1      45.204  35.408  27.858  1.00  0.00     0.198 A 
ATOM     91  F   UNL A   1      44.187  33.696  26.610  1.00  0.00    -0.203 F 
ATOM     92  F   UNL A   1      46.766  35.340  31.127  1.00  0.00    -0.200 F 
ATOM     93  C   UNL A   1      45.861  35.834  29.003  1.00  0.00     0.200 A 
ATOM     94  F   UNL A   1      44.935  36.281  26.877  1.00  0.00    -0.200 F 
ATOM     95  F   UNL A   1      46.208  37.121  29.137  1.00  0.00    -0.200 F 
ENDBRANCH  62  85
ENDBRANCH  36  37
ENDBRANCH  28  31
ENDBRANCH  26  27
ENDBRANCH   1  26
TORSDOF 13
ENDMDL
MODEL 3
REMARK VINA RESULT:     -12.1      5.861     10.962
REMARK SMILES COC(=O)[C@@H]1C[C@@H](C(=O)NCCCNC(=O)c2ccc(-c3c4nc(c(-c5c(F)c(F)c(F)c(F)c5F)c5ccc([nH]5)c(-c5c(F)c(F)c(F)c(F)c5F)c5nc(c(-c6c(F)c(F)c(F)c(F)c6F)c6ccc3[nH]6)C=C5)C=C4)cc2)[C@@H](c2cccc(F)c2F)[N@H+]1C
REMARK SMILES IDX 12 1 11 2 10 3 8 4 9 5 7 7 5 8 6 9 89 10 80 11 90 12 3 14
REMARK SMILES IDX 4 15 2 16 1 17 81 18 82 19 87 20 83 21 85 22 88 23 84 24
REMARK SMILES IDX 86 25 13 26 14 27 15 28 16 30 17 31 18 32 79 33 19 34 78 35
REMARK SMILES IDX 20 36 21 37 22 38 72 39 23 40 77 41 71 42 73 43 24 44 76 45
REMARK SMILES IDX 70 46 69 47 25 49 57 50 37 51 56 52 38 53 41 54 55 55 74 56
REMARK SMILES IDX 39 57 40 58 54 60 75 61 42 62 26 63 27 64 35 65 28 66 29 67
REMARK SMILES IDX 33 68 36 69 30 70 31 71 34 72 32 73 58 74 59 75 67 76 60 77
REMARK SMILES IDX 61 78 65 79 68 80 62 81 63 82 66 83 64 84 43 85 44 86 52 87
REMARK SMILES IDX 45 88 46 89 50 90 53 91 47 92 48 93 51 94 49 95
REMARK H PARENT 10 6 89 13 14 29 73 48 41 59
REMARK Flexibility Score: inf
ROOT
ATOM      1  C   UNL A   1      38.753  21.141  26.361  1.00  0.00     0.042 C 
ENDROOT
BRANCH   1   2
ATOM      2  C   UNL A   1      38.462  22.554  25.869  1.00  0.00     0.117 C 
BRANCH   2   3
ATOM      3  N   UNL A   1      37.709  22.594  24.624  1.00  0.00    -0.356 N 
ATOM      4  C   UNL A   1      36.414  22.401  24.272  1.00  0.00     0.229 C 
ATOM      5  O   UNL A   1      36.162  22.593  23.074  1.00  0.00    -0.275 OA
ATOM      6  H   UNL A   1      38.278  22.815  23.850  1.00  0.00     0.163 HD
BRANCH   4   7
ATOM      7  C   UNL A   1      35.285  21.969  25.202  1.00  0.00     0.148 C 
ATOM      8  C   UNL A   1      33.275  20.909  24.464  1.00  0.00     0.296 C 
ATOM      9  C   UNL A   1      34.725  20.615  24.781  1.00  0.00     0.097 C 
ATOM     10  N   UNL A   1      32.982  21.845  25.549  1.00  0.00    -0.319 N 
ATOM     11  C   UNL A   1      34.050  22.884  25.576  1.00  0.00     0.231 C 
ATOM     12  C   UNL A   1      31.588  22.138  25.758  1.00  0.00     0.333 C 
ATOM     13  H   UNL A   1      33.063  21.427  26.476  1.00  0.00     0.349 HD
BRANCH   8  14
ATOM     14  C   UNL A   1      32.534  19.576  24.442  1.00  0.00     0.364 C 
ATOM     15  O   UNL A   1      32.387  18.797  25.368  1.00  0.00    -0.245 OA
BRANCH  14  16
ATOM     16  O   UNL A   1      32.164  19.339  23.142  1.00  0.00    -0.465 OA
ATOM     17  C   UNL A   1      32.528  18.059  22.625  1.00  0.00     0.282 C 
ENDBRANCH  14  16
ENDBRANCH   8  14
BRANCH  11  18
ATOM     18  C   UNL A   1      33.921  24.234  24.852  1.00  0.00     0.049 A 
ATOM     19  C   UNL A   1      34.017  25.432  25.601  1.00  0.00     0.013 A 
ATOM     20  C   UNL A   1      33.570  24.435  23.508  1.00  0.00     0.167 A 
ATOM     21  C   UNL A   1      34.029  26.709  25.016  1.00  0.00     0.004 A 
ATOM     22  C   UNL A   1      33.565  25.705  22.918  1.00  0.00     0.159 A 
ATOM     23  F   UNL A   1      33.152  23.441  22.722  1.00  0.00    -0.203 F 
ATOM     24  C   UNL A   1      33.840  26.844  23.652  1.00  0.00     0.042 A 
ATOM     25  F   UNL A   1      33.275  25.829  21.614  1.00  0.00    -0.204 F 
ENDBRANCH  11  18
ENDBRANCH   4   7
ENDBRANCH   2   3
ENDBRANCH   1   2
BRANCH   1  26
ATOM     26  C   UNL A   1      39.197  20.191  25.254  1.00  0.00     0.118 C 
BRANCH  26  27
ATOM     27  N   UNL A   1      40.144  19.207  25.751  1.00  0.00    -0.352 N 
ATOM     28  C   UNL A   1      41.453  19.383  26.127  1.00  0.00     0.251 C 
ATOM     29  H   UNL A   1      39.801  18.288  25.830  1.00  0.00     0.163 HD
ATOM     30  O   UNL A   1      42.185  18.407  26.252  1.00  0.00    -0.269 OA
BRANCH  28  31
ATOM     31  C   UNL A   1      41.989  20.740  26.387  1.00  0.00     0.039 A 
ATOM     32  C   UNL A   1      42.172  21.147  27.711  1.00  0.00     0.014 A 
ATOM     33  C   UNL A   1      42.240  21.635  25.342  1.00  0.00     0.014 A 
ATOM     34  C   UNL A   1      42.626  22.440  27.987  1.00  0.00     0.010 A 
ATOM     35  C   UNL A   1      42.748  22.906  25.616  1.00  0.00     0.010 A 
ATOM     36  C   UNL A   1      42.930  23.328  26.943  1.00  0.00    -0.014 A 
BRANCH  36  37
ATOM     37  C   UNL A   1      43.412  24.707  27.231  1.00  0.00     0.031 A 
ATOM     38  C   UNL A   1      42.465  25.743  27.774  1.00  0.00     0.074 A 
ATOM     39  C   UNL A   1      44.692  25.038  26.972  1.00  0.00     0.049 A 
ATOM     40  N   UNL A   1      42.683  27.009  28.036  1.00  0.00    -0.248 NA
ATOM     41  C   UNL A   1      41.086  25.307  28.042  1.00  0.00     0.031 C 
ATOM     42  C   UNL A   1      45.702  24.136  26.419  1.00  0.00     0.029 A 
ATOM     43  N   UNL A   1      45.359  26.229  27.127  1.00  0.00    -0.354 N 
ATOM     44  C   UNL A   1      41.470  27.520  28.482  1.00  0.00     0.074 A 
ATOM     45  C   UNL A   1      40.509  26.440  28.418  1.00  0.00     0.031 C 
ATOM     46  C   UNL A   1      46.862  24.800  26.291  1.00  0.00     0.029 A 
ATOM     47  C   UNL A   1      46.669  26.185  26.712  1.00  0.00     0.049 A 
ATOM     48  H   UNL A   1      44.940  27.037  27.502  1.00  0.00     0.167 HD
ATOM     49  C   UNL A   1      41.190  28.770  28.921  1.00  0.00     0.037 A 
ATOM     50  C   UNL A   1      47.603  27.155  26.657  1.00  0.00     0.037 A 
ATOM     51  C   UNL A   1      42.155  29.835  29.012  1.00  0.00     0.049 A 
ATOM     52  C   UNL A   1      47.258  28.541  27.135  1.00  0.00     0.074 A 
ATOM     53  C   UNL A   1      41.978  31.116  29.507  1.00  0.00     0.029 A 
ATOM     54  N   UNL A   1      43.474  29.746  28.595  1.00  0.00    -0.354 N 
ATOM     55  N   UNL A   1      46.126  28.992  27.620  1.00  0.00    -0.248 NA
ATOM     56  C   UNL A   1      48.321  29.554  27.066  1.00  0.00     0.031 C 
ATOM     57  C   UNL A   1      43.171  31.822  29.330  1.00  0.00     0.029 A 
ATOM     58  C   UNL A   1      44.113  30.961  28.790  1.00  0.00     0.049 A 
ATOM     59  H   UNL A   1      43.894  28.941  28.215  1.00  0.00     0.167 HD
ATOM     60  C   UNL A   1      46.352  30.323  27.947  1.00  0.00     0.074 A 
ATOM     61  C   UNL A   1      47.732  30.607  27.614  1.00  0.00     0.031 C 
ATOM     62  C   UNL A   1      45.493  31.227  28.476  1.00  0.00     0.037 A 
BRANCH  49  63
ATOM     63  C   UNL A   1      39.778  29.073  29.333  1.00  0.00     0.064 A 
ATOM     64  C   UNL A   1      38.810  29.487  28.408  1.00  0.00     0.173 A 
ATOM     65  C   UNL A   1      39.370  28.871  30.662  1.00  0.00     0.173 A 
ATOM     66  F   UNL A   1      39.147  29.702  27.127  1.00  0.00    -0.203 F 
ATOM     67  C   UNL A   1      37.491  29.709  28.799  1.00  0.00     0.198 A 
ATOM     68  C   UNL A   1      38.044  29.062  31.043  1.00  0.00     0.198 A 
ATOM     69  F   UNL A   1      40.253  28.466  31.586  1.00  0.00    -0.203 F 
ATOM     70  F   UNL A   1      36.592  30.141  27.905  1.00  0.00    -0.200 F 
ATOM     71  C   UNL A   1      37.108  29.485  30.113  1.00  0.00     0.200 A 
ATOM     72  F   UNL A   1      37.673  28.829  32.310  1.00  0.00    -0.200 F 
ATOM     73  F   UNL A   1      35.835  29.680  30.484  1.00  0.00    -0.200 F 
ENDBRANCH  49  63
BRANCH  50  74
ATOM     74  C   UNL A   1      48.958  26.856  26.120  1.00  0.00     0.064 A 
ATOM     75  C   UNL A   1      49.258  27.038  24.762  1.00  0.00     0.173 A 
ATOM     76  C   UNL A   1      49.972  26.356  26.949  1.00  0.00     0.173 A 
ATOM     77  F   UNL A   1      48.315  27.493  23.923  1.00  0.00    -0.203 F 
ATOM     78  C   UNL A   1      50.510  26.703  24.249  1.00  0.00     0.198 A 
ATOM     79  C   UNL A   1      51.235  26.055  26.442  1.00  0.00     0.198 A 
ATOM     80  F   UNL A   1      49.740  26.165  28.256  1.00  0.00    -0.203 F 
ATOM     81  F   UNL A   1      50.749  26.829  22.938  1.00  0.00    -0.200 F 
ATOM     82  C   UNL A   1      51.499  26.217  25.090  1.00  0.00     0.200 A 
ATOM     83  F   UNL A   1      52.193  25.598  27.261  1.00  0.00    -0.200 F 
ATOM     84  F   UNL A   1      52.702  25.893  24.597  1.00  0.00    -0.200 F 
ENDBRANCH  50  74
BRANCH  62  85
ATOM     85  C   UNL A   1      46.025  32.597  28.787  1.00  0.00     0.064 A 
ATOM     86  C   UNL A   1      46.640  32.894  30.011  1.00  0.00     0.173 A 
ATOM     87  C   UNL A   1      45.971  33.611  27.816  1.00  0.00     0.173 A 
ATOM     88  F   UNL A   1      46.705  31.966  30.977  1.00  0.00    -0.203 F 
ATOM     89  C   UNL A   1      47.163  34.160  30.261  1.00  0.00     0.198 A 
ATOM     90  C   UNL A   1      46.525  34.865  28.057  1.00  0.00     0.198 A 
ATOM     91  F   UNL A   1      45.401  33.378  26.625  1.00  0.00    -0.203 F 
ATOM     92  F   UNL A   1      47.710  34.434  31.454  1.00  0.00    -0.200 F 
ATOM     93  C   UNL A   1      47.115  35.141  29.281  1.00  0.00     0.200 A 
ATOM     94  F   UNL A   1      46.493  35.805  27.102  1.00  0.00    -0.200 F 
ATOM     95  F   UNL A   1      47.634  36.353  29.517  1.00  0.00    -0.200 F 
ENDBRANCH  62  85
ENDBRANCH  36  37
ENDBRANCH  28  31
ENDBRANCH  26  27
ENDBRANCH   1  26
TORSDOF 13
ENDMDL
