MODEL 1
REMARK VINA RESULT:     -12.0      0.000      0.000
REMARK SMILES Cc1cc(C(=O)N[C@@H](Cc2ccccc2)C(=O)NCCCNC(=O)c2ccc(-c3c4nc(c(-c5c(F)c(F)c(F)c(F)c5F)c5ccc([nH]5)c(-c5c(F)c(F)c(F)c(F)c5F)c5nc(c(-c6c(F)c(F)c(F)c(F)c6F)c6ccc3[nH]6)C=C5)C=C4)cc2)c(C)o1
REMARK SMILES IDX 20 1 19 2 18 3 16 4 17 5 8 7 7 8 5 9 6 10 4 12 1 13 2 14
REMARK SMILES IDX 3 15 90 16 88 17 89 18 9 19 10 20 11 21 15 22 12 23 14 24
REMARK SMILES IDX 13 25 21 26 22 27 23 28 24 30 25 31 26 32 87 33 27 34 86 35
REMARK SMILES IDX 28 36 29 37 30 38 80 39 31 40 85 41 79 42 81 43 32 44 84 45
REMARK SMILES IDX 78 46 77 47 33 49 65 50 45 51 64 52 46 53 49 54 63 55 82 56
REMARK SMILES IDX 47 57 48 58 62 60 83 61 50 62 34 63 35 64 43 65 36 66 37 67
REMARK SMILES IDX 41 68 44 69 38 70 39 71 42 72 40 73 66 74 67 75 75 76 68 77
REMARK SMILES IDX 69 78 73 79 76 80 70 81 71 82 74 83 72 84 51 85 52 86 60 87
REMARK SMILES IDX 53 88 54 89 58 90 61 91 55 92 56 93 59 94 57 95
REMARK H PARENT 18 6 7 11 22 29 81 48 49 59
REMARK Flexibility Score: inf
ROOT
ATOM      1  C   UNL A   1      36.633  22.895  23.779  1.00  0.00     0.042 C 
ENDROOT
BRANCH   1   2
ATOM      2  C   UNL A   1      35.357  22.148  24.102  1.00  0.00     0.117 C 
BRANCH   2   3
ATOM      3  N   UNL A   1      35.148  21.809  25.491  1.00  0.00    -0.354 N 
ATOM      4  C   UNL A   1      34.165  22.261  26.331  1.00  0.00     0.242 C 
ATOM      5  O   UNL A   1      33.926  21.581  27.334  1.00  0.00    -0.273 OA
ATOM      6  H   UNL A   1      35.792  21.175  25.882  1.00  0.00     0.163 HD
BRANCH   4   7
ATOM      7  C   UNL A   1      33.348  23.552  26.057  1.00  0.00     0.176 C 
BRANCH   7   8
ATOM      8  N   UNL A   1      32.076  23.514  26.777  1.00  0.00    -0.340 N 
ATOM      9  C   UNL A   1      30.829  24.005  26.485  1.00  0.00     0.255 C 
ATOM     10  O   UNL A   1      29.932  23.647  27.252  1.00  0.00    -0.269 OA
ATOM     11  H   UNL A   1      32.124  23.045  27.641  1.00  0.00     0.164 HD
BRANCH   9  12
ATOM     12  C   UNL A   1      30.578  24.942  25.392  1.00  0.00     0.081 A 
ATOM     13  C   UNL A   1      29.614  27.933  23.388  1.00  0.00     0.087 C 
ATOM     14  C   UNL A   1      30.044  26.688  24.052  1.00  0.00     0.101 A 
ATOM     15  C   UNL A   1      30.286  26.341  25.363  1.00  0.00     0.059 A 
ATOM     16  O   UNL A   1      30.275  25.625  23.246  1.00  0.00    -0.466 OA
ATOM     17  C   UNL A   1      30.631  24.582  24.045  1.00  0.00     0.113 A 
ATOM     18  C   UNL A   1      30.970  23.343  23.306  1.00  0.00     0.088 C 
ENDBRANCH   9  12
ENDBRANCH   7   8
BRANCH   7  19
ATOM     19  C   UNL A   1      34.119  24.893  26.126  1.00  0.00     0.070 C 
BRANCH  19  20
ATOM     20  C   UNL A   1      33.951  25.915  25.030  1.00  0.00    -0.045 A 
ATOM     21  C   UNL A   1      33.773  27.271  25.353  1.00  0.00     0.004 A 
ATOM     22  C   UNL A   1      33.941  25.536  23.679  1.00  0.00     0.004 A 
ATOM     23  C   UNL A   1      33.509  28.210  24.353  1.00  0.00     0.000 A 
ATOM     24  C   UNL A   1      33.653  26.475  22.683  1.00  0.00     0.000 A 
ATOM     25  C   UNL A   1      33.424  27.808  23.022  1.00  0.00     0.000 A 
ENDBRANCH  19  20
ENDBRANCH   7  19
ENDBRANCH   4   7
ENDBRANCH   2   3
ENDBRANCH   1   2
BRANCH   1  26
ATOM     26  C   UNL A   1      37.334  23.468  25.000  1.00  0.00     0.118 C 
BRANCH  26  27
ATOM     27  N   UNL A   1      38.456  22.656  25.467  1.00  0.00    -0.352 N 
ATOM     28  C   UNL A   1      39.579  22.951  26.208  1.00  0.00     0.251 C 
ATOM     29  H   UNL A   1      38.398  21.711  25.199  1.00  0.00     0.163 HD
ATOM     30  O   UNL A   1      40.449  22.099  26.336  1.00  0.00    -0.269 OA
BRANCH  28  31
ATOM     31  C   UNL A   1      39.772  24.286  26.821  1.00  0.00     0.039 A 
ATOM     32  C   UNL A   1      39.309  24.512  28.121  1.00  0.00     0.014 A 
ATOM     33  C   UNL A   1      40.385  25.325  26.126  1.00  0.00     0.014 A 
ATOM     34  C   UNL A   1      39.554  25.738  28.750  1.00  0.00     0.010 A 
ATOM     35  C   UNL A   1      40.749  26.488  26.792  1.00  0.00     0.010 A 
ATOM     36  C   UNL A   1      40.330  26.716  28.110  1.00  0.00    -0.014 A 
BRANCH  36  37
ATOM     37  C   UNL A   1      40.710  27.990  28.774  1.00  0.00     0.031 A 
ATOM     38  C   UNL A   1      42.104  28.168  29.315  1.00  0.00     0.074 A 
ATOM     39  C   UNL A   1      39.777  28.937  28.994  1.00  0.00     0.049 A 
ATOM     40  N   UNL A   1      42.590  29.129  30.061  1.00  0.00    -0.248 NA
ATOM     41  C   UNL A   1      43.067  27.094  29.023  1.00  0.00     0.031 C 
ATOM     42  C   UNL A   1      38.373  28.856  28.587  1.00  0.00     0.029 A 
ATOM     43  N   UNL A   1      39.865  30.148  29.635  1.00  0.00    -0.354 N 
ATOM     44  C   UNL A   1      43.893  28.750  30.361  1.00  0.00     0.074 A 
ATOM     45  C   UNL A   1      44.103  27.448  29.769  1.00  0.00     0.031 C 
ATOM     46  C   UNL A   1      37.740  29.978  28.962  1.00  0.00     0.029 A 
ATOM     47  C   UNL A   1      38.679  30.838  29.673  1.00  0.00     0.049 A 
ATOM     48  H   UNL A   1      40.700  30.489  30.029  1.00  0.00     0.167 HD
ATOM     49  C   UNL A   1      44.839  29.437  31.043  1.00  0.00     0.037 A 
ATOM     50  C   UNL A   1      38.380  32.028  30.228  1.00  0.00     0.037 A 
ATOM     51  C   UNL A   1      44.645  30.760  31.575  1.00  0.00     0.049 A 
ATOM     52  C   UNL A   1      39.460  32.799  30.934  1.00  0.00     0.074 A 
ATOM     53  C   UNL A   1      45.565  31.586  32.195  1.00  0.00     0.029 A 
ATOM     54  N   UNL A   1      43.443  31.453  31.542  1.00  0.00    -0.354 N 
ATOM     55  N   UNL A   1      40.709  32.465  31.147  1.00  0.00    -0.248 NA
ATOM     56  C   UNL A   1      39.090  34.116  31.471  1.00  0.00     0.031 C 
ATOM     57  C   UNL A   1      44.910  32.764  32.570  1.00  0.00     0.029 A 
ATOM     58  C   UNL A   1      43.594  32.690  32.144  1.00  0.00     0.049 A 
ATOM     59  H   UNL A   1      42.607  31.114  31.147  1.00  0.00     0.167 HD
ATOM     60  C   UNL A   1      41.282  33.535  31.821  1.00  0.00     0.074 A 
ATOM     61  C   UNL A   1      40.245  34.536  31.969  1.00  0.00     0.031 C 
ATOM     62  C   UNL A   1      42.550  33.675  32.278  1.00  0.00     0.037 A 
BRANCH  49  63
ATOM     63  C   UNL A   1      46.171  28.772  31.243  1.00  0.00     0.064 A 
ATOM     64  C   UNL A   1      46.449  28.000  32.383  1.00  0.00     0.173 A 
ATOM     65  C   UNL A   1      47.183  28.901  30.279  1.00  0.00     0.173 A 
ATOM     66  F   UNL A   1      45.521  27.854  33.341  1.00  0.00    -0.203 F 
ATOM     67  C   UNL A   1      47.701  27.422  32.570  1.00  0.00     0.198 A 
ATOM     68  C   UNL A   1      48.423  28.292  30.454  1.00  0.00     0.198 A 
ATOM     69  F   UNL A   1      46.970  29.621  29.167  1.00  0.00    -0.203 F 
ATOM     70  F   UNL A   1      47.964  26.747  33.698  1.00  0.00    -0.200 F 
ATOM     71  C   UNL A   1      48.686  27.564  31.604  1.00  0.00     0.200 A 
ATOM     72  F   UNL A   1      49.369  28.419  29.513  1.00  0.00    -0.200 F 
ATOM     73  F   UNL A   1      49.891  27.007  31.786  1.00  0.00    -0.200 F 
ENDBRANCH  49  63
BRANCH  50  74
ATOM     74  C   UNL A   1      37.006  32.576  30.097  1.00  0.00     0.064 A 
ATOM     75  C   UNL A   1      36.066  32.404  31.122  1.00  0.00     0.173 A 
ATOM     76  C   UNL A   1      36.611  33.303  28.965  1.00  0.00     0.173 A 
ATOM     77  F   UNL A   1      36.392  31.701  32.217  1.00  0.00    -0.203 F 
ATOM     78  C   UNL A   1      34.779  32.926  31.016  1.00  0.00     0.198 A 
ATOM     79  C   UNL A   1      35.331  33.847  28.869  1.00  0.00     0.198 A 
ATOM     80  F   UNL A   1      37.476  33.503  27.960  1.00  0.00    -0.203 F 
ATOM     81  F   UNL A   1      33.890  32.718  31.996  1.00  0.00    -0.200 F 
ATOM     82  C   UNL A   1      34.415  33.654  29.892  1.00  0.00     0.200 A 
ATOM     83  F   UNL A   1      34.989  34.563  27.790  1.00  0.00    -0.200 F 
ATOM     84  F   UNL A   1      33.180  34.167  29.794  1.00  0.00    -0.200 F 
ENDBRANCH  50  74
BRANCH  62  85
ATOM     85  C   UNL A   1      42.897  34.968  32.954  1.00  0.00     0.064 A 
ATOM     86  C   UNL A   1      43.416  36.055  32.238  1.00  0.00     0.173 A 
ATOM     87  C   UNL A   1      42.661  35.135  34.327  1.00  0.00     0.173 A 
ATOM     88  F   UNL A   1      43.673  35.938  30.926  1.00  0.00    -0.203 F 
ATOM     89  C   UNL A   1      43.708  37.257  32.876  1.00  0.00     0.198 A 
ATOM     90  C   UNL A   1      42.928  36.347  34.956  1.00  0.00     0.198 A 
ATOM     91  F   UNL A   1      42.159  34.126  35.056  1.00  0.00    -0.203 F 
ATOM     92  F   UNL A   1      44.244  38.269  32.180  1.00  0.00    -0.200 F 
ATOM     93  C   UNL A   1      43.457  37.405  34.231  1.00  0.00     0.200 A 
ATOM     94  F   UNL A   1      42.673  36.493  36.264  1.00  0.00    -0.200 F 
ATOM     95  F   UNL A   1      43.731  38.566  34.843  1.00  0.00    -0.200 F 
ENDBRANCH  62  85
ENDBRANCH  36  37
ENDBRANCH  28  31
ENDBRANCH  26  27
ENDBRANCH   1  26
TORSDOF 14
ENDMDL
MODEL 2
REMARK VINA RESULT:     -12.0      3.253      8.560
REMARK SMILES Cc1cc(C(=O)N[C@@H](Cc2ccccc2)C(=O)NCCCNC(=O)c2ccc(-c3c4nc(c(-c5c(F)c(F)c(F)c(F)c5F)c5ccc([nH]5)c(-c5c(F)c(F)c(F)c(F)c5F)c5nc(c(-c6c(F)c(F)c(F)c(F)c6F)c6ccc3[nH]6)C=C5)C=C4)cc2)c(C)o1
REMARK SMILES IDX 20 1 19 2 18 3 16 4 17 5 8 7 7 8 5 9 6 10 4 12 1 13 2 14
REMARK SMILES IDX 3 15 90 16 88 17 89 18 9 19 10 20 11 21 15 22 12 23 14 24
REMARK SMILES IDX 13 25 21 26 22 27 23 28 24 30 25 31 26 32 87 33 27 34 86 35
REMARK SMILES IDX 28 36 29 37 30 38 80 39 31 40 85 41 79 42 81 43 32 44 84 45
REMARK SMILES IDX 78 46 77 47 33 49 65 50 45 51 64 52 46 53 49 54 63 55 82 56
REMARK SMILES IDX 47 57 48 58 62 60 83 61 50 62 34 63 35 64 43 65 36 66 37 67
REMARK SMILES IDX 41 68 44 69 38 70 39 71 42 72 40 73 66 74 67 75 75 76 68 77
REMARK SMILES IDX 69 78 73 79 76 80 70 81 71 82 74 83 72 84 51 85 52 86 60 87
REMARK SMILES IDX 53 88 54 89 58 90 61 91 55 92 56 93 59 94 57 95
REMARK H PARENT 18 6 7 11 22 29 81 48 49 59
REMARK Flexibility Score: inf
ROOT
ATOM      1  C   UNL A   1      31.998  28.231  27.261  1.00  0.00     0.042 C 
ENDROOT
BRANCH   1   2
ATOM      2  C   UNL A   1      31.463  28.248  25.846  1.00  0.00     0.117 C 
BRANCH   2   3
ATOM      3  N   UNL A   1      32.304  28.874  24.851  1.00  0.00    -0.354 N 
ATOM      4  C   UNL A   1      32.960  28.279  23.806  1.00  0.00     0.242 C 
ATOM      5  O   UNL A   1      33.298  29.007  22.866  1.00  0.00    -0.273 OA
ATOM      6  H   UNL A   1      32.420  29.847  24.935  1.00  0.00     0.163 HD
BRANCH   4   7
ATOM      7  C   UNL A   1      33.261  26.757  23.754  1.00  0.00     0.176 C 
BRANCH   7   8
ATOM      8  N   UNL A   1      33.402  26.311  22.369  1.00  0.00    -0.340 N 
ATOM      9  C   UNL A   1      33.084  25.137  21.735  1.00  0.00     0.255 C 
ATOM     10  O   UNL A   1      33.191  25.159  20.507  1.00  0.00    -0.269 OA
ATOM     11  H   UNL A   1      33.804  26.985  21.775  1.00  0.00     0.164 HD
BRANCH   9  12
ATOM     12  C   UNL A   1      32.715  23.919  22.453  1.00  0.00     0.081 A 
ATOM     13  C   UNL A   1      32.631  20.451  23.820  1.00  0.00     0.087 C 
ATOM     14  C   UNL A   1      32.544  21.853  23.364  1.00  0.00     0.101 A 
ATOM     15  C   UNL A   1      33.417  22.703  22.725  1.00  0.00     0.059 A 
ATOM     16  O   UNL A   1      31.377  22.494  23.611  1.00  0.00    -0.466 OA
ATOM     17  C   UNL A   1      31.489  23.749  23.096  1.00  0.00     0.113 A 
ATOM     18  C   UNL A   1      30.302  24.605  23.329  1.00  0.00     0.088 C 
ENDBRANCH   9  12
ENDBRANCH   7   8
BRANCH   7  19
ATOM     19  C   UNL A   1      34.325  26.223  24.743  1.00  0.00     0.070 C 
BRANCH  19  20
ATOM     20  C   UNL A   1      34.036  24.995  25.570  1.00  0.00    -0.045 A 
ATOM     21  C   UNL A   1      35.025  24.013  25.742  1.00  0.00     0.004 A 
ATOM     22  C   UNL A   1      32.776  24.794  26.156  1.00  0.00     0.004 A 
ATOM     23  C   UNL A   1      34.735  22.823  26.414  1.00  0.00     0.000 A 
ATOM     24  C   UNL A   1      32.483  23.592  26.807  1.00  0.00     0.000 A 
ATOM     25  C   UNL A   1      33.458  22.603  26.923  1.00  0.00     0.000 A 
ENDBRANCH  19  20
ENDBRANCH   7  19
ENDBRANCH   4   7
ENDBRANCH   2   3
ENDBRANCH   1   2
BRANCH   1  26
ATOM     26  C   UNL A   1      33.444  28.683  27.376  1.00  0.00     0.118 C 
BRANCH  26  27
ATOM     27  N   UNL A   1      33.592  30.106  27.681  1.00  0.00    -0.352 N 
ATOM     28  C   UNL A   1      34.620  30.844  28.223  1.00  0.00     0.251 C 
ATOM     29  H   UNL A   1      32.798  30.642  27.453  1.00  0.00     0.163 HD
ATOM     30  O   UNL A   1      34.425  32.017  28.511  1.00  0.00    -0.269 OA
BRANCH  28  31
ATOM     31  C   UNL A   1      35.945  30.238  28.498  1.00  0.00     0.039 A 
ATOM     32  C   UNL A   1      36.916  30.237  27.491  1.00  0.00     0.014 A 
ATOM     33  C   UNL A   1      36.238  29.654  29.727  1.00  0.00     0.014 A 
ATOM     34  C   UNL A   1      38.199  29.746  27.755  1.00  0.00     0.010 A 
ATOM     35  C   UNL A   1      37.544  29.295  30.033  1.00  0.00     0.010 A 
ATOM     36  C   UNL A   1      38.541  29.325  29.049  1.00  0.00    -0.014 A 
BRANCH  36  37
ATOM     37  C   UNL A   1      39.918  28.898  29.408  1.00  0.00     0.031 A 
ATOM     38  C   UNL A   1      40.801  29.811  30.217  1.00  0.00     0.074 A 
ATOM     39  C   UNL A   1      40.414  27.747  28.914  1.00  0.00     0.049 A 
ATOM     40  N   UNL A   1      42.074  29.699  30.502  1.00  0.00    -0.248 NA
ATOM     41  C   UNL A   1      40.182  31.043  30.731  1.00  0.00     0.031 C 
ATOM     42  C   UNL A   1      39.687  26.809  28.056  1.00  0.00     0.029 A 
ATOM     43  N   UNL A   1      41.657  27.179  29.044  1.00  0.00    -0.354 N 
ATOM     44  C   UNL A   1      42.412  30.862  31.183  1.00  0.00     0.074 A 
ATOM     45  C   UNL A   1      41.229  31.691  31.217  1.00  0.00     0.031 C 
ATOM     46  C   UNL A   1      40.486  25.772  27.761  1.00  0.00     0.029 A 
ATOM     47  C   UNL A   1      41.794  25.990  28.370  1.00  0.00     0.049 A 
ATOM     48  H   UNL A   1      42.382  27.587  29.571  1.00  0.00     0.167 HD
ATOM     49  C   UNL A   1      43.594  31.197  31.753  1.00  0.00     0.037 A 
ATOM     50  C   UNL A   1      42.856  25.173  28.250  1.00  0.00     0.037 A 
ATOM     51  C   UNL A   1      44.749  30.340  31.771  1.00  0.00     0.049 A 
ATOM     52  C   UNL A   1      44.142  25.538  28.938  1.00  0.00     0.074 A 
ATOM     53  C   UNL A   1      45.962  30.538  32.406  1.00  0.00     0.029 A 
ATOM     54  N   UNL A   1      44.829  29.114  31.127  1.00  0.00    -0.354 N 
ATOM     55  N   UNL A   1      44.429  26.605  29.643  1.00  0.00    -0.248 NA
ATOM     56  C   UNL A   1      45.252  24.582  28.819  1.00  0.00     0.031 C 
ATOM     57  C   UNL A   1      46.789  29.448  32.114  1.00  0.00     0.029 A 
ATOM     58  C   UNL A   1      46.077  28.551  31.335  1.00  0.00     0.049 A 
ATOM     59  H   UNL A   1      44.105  28.704  30.600  1.00  0.00     0.167 HD
ATOM     60  C   UNL A   1      45.739  26.441  30.070  1.00  0.00     0.074 A 
ATOM     61  C   UNL A   1      46.187  25.163  29.556  1.00  0.00     0.031 C 
ATOM     62  C   UNL A   1      46.502  27.274  30.818  1.00  0.00     0.037 A 
BRANCH  49  63
ATOM     63  C   UNL A   1      43.688  32.544  32.412  1.00  0.00     0.064 A 
ATOM     64  C   UNL A   1      43.355  32.731  33.764  1.00  0.00     0.173 A 
ATOM     65  C   UNL A   1      44.123  33.663  31.686  1.00  0.00     0.173 A 
ATOM     66  F   UNL A   1      42.922  31.696  34.501  1.00  0.00    -0.203 F 
ATOM     67  C   UNL A   1      43.411  33.992  34.349  1.00  0.00     0.198 A 
ATOM     68  C   UNL A   1      44.211  34.917  32.284  1.00  0.00     0.198 A 
ATOM     69  F   UNL A   1      44.460  33.541  30.393  1.00  0.00    -0.203 F 
ATOM     70  F   UNL A   1      43.024  34.157  35.621  1.00  0.00    -0.200 F 
ATOM     71  C   UNL A   1      43.844  35.084  33.611  1.00  0.00     0.200 A 
ATOM     72  F   UNL A   1      44.642  35.969  31.573  1.00  0.00    -0.200 F 
ATOM     73  F   UNL A   1      43.897  36.298  34.176  1.00  0.00    -0.200 F 
ENDBRANCH  49  63
BRANCH  50  74
ATOM     74  C   UNL A   1      42.730  23.909  27.481  1.00  0.00     0.064 A 
ATOM     75  C   UNL A   1      43.116  23.849  26.135  1.00  0.00     0.173 A 
ATOM     76  C   UNL A   1      42.249  22.734  28.075  1.00  0.00     0.173 A 
ATOM     77  F   UNL A   1      43.565  24.953  25.519  1.00  0.00    -0.203 F 
ATOM     78  C   UNL A   1      43.014  22.666  25.408  1.00  0.00     0.198 A 
ATOM     79  C   UNL A   1      42.171  21.543  27.354  1.00  0.00     0.198 A 
ATOM     80  F   UNL A   1      41.874  22.736  29.363  1.00  0.00    -0.203 F 
ATOM     81  F   UNL A   1      43.358  22.645  24.113  1.00  0.00    -0.200 F 
ATOM     82  C   UNL A   1      42.548  21.511  26.020  1.00  0.00     0.200 A 
ATOM     83  F   UNL A   1      41.736  20.427  27.953  1.00  0.00    -0.200 F 
ATOM     84  F   UNL A   1      42.462  20.369  25.324  1.00  0.00    -0.200 F 
ENDBRANCH  50  74
BRANCH  62  85
ATOM     85  C   UNL A   1      47.891  26.818  31.152  1.00  0.00     0.064 A 
ATOM     86  C   UNL A   1      48.150  26.011  32.269  1.00  0.00     0.173 A 
ATOM     87  C   UNL A   1      48.968  27.153  30.318  1.00  0.00     0.173 A 
ATOM     88  F   UNL A   1      47.155  25.676  33.106  1.00  0.00    -0.203 F 
ATOM     89  C   UNL A   1      49.442  25.573  32.551  1.00  0.00     0.198 A 
ATOM     90  C   UNL A   1      50.252  26.691  30.586  1.00  0.00     0.198 A 
ATOM     91  F   UNL A   1      48.771  27.918  29.233  1.00  0.00    -0.203 F 
ATOM     92  F   UNL A   1      49.673  24.838  33.647  1.00  0.00    -0.200 F 
ATOM     93  C   UNL A   1      50.490  25.906  31.706  1.00  0.00     0.200 A 
ATOM     94  F   UNL A   1      51.262  27.003  29.762  1.00  0.00    -0.200 F 
ATOM     95  F   UNL A   1      51.731  25.478  31.974  1.00  0.00    -0.200 F 
ENDBRANCH  62  85
ENDBRANCH  36  37
ENDBRANCH  28  31
ENDBRANCH  26  27
ENDBRANCH   1  26
TORSDOF 14
ENDMDL
MODEL 3
REMARK VINA RESULT:     -12.0      3.553      6.756
REMARK SMILES Cc1cc(C(=O)N[C@@H](Cc2ccccc2)C(=O)NCCCNC(=O)c2ccc(-c3c4nc(c(-c5c(F)c(F)c(F)c(F)c5F)c5ccc([nH]5)c(-c5c(F)c(F)c(F)c(F)c5F)c5nc(c(-c6c(F)c(F)c(F)c(F)c6F)c6ccc3[nH]6)C=C5)C=C4)cc2)c(C)o1
REMARK SMILES IDX 20 1 19 2 18 3 16 4 17 5 8 7 7 8 5 9 6 10 4 12 1 13 2 14
REMARK SMILES IDX 3 15 90 16 88 17 89 18 9 19 10 20 11 21 15 22 12 23 14 24
REMARK SMILES IDX 13 25 21 26 22 27 23 28 24 30 25 31 26 32 87 33 27 34 86 35
REMARK SMILES IDX 28 36 29 37 30 38 80 39 31 40 85 41 79 42 81 43 32 44 84 45
REMARK SMILES IDX 78 46 77 47 33 49 65 50 45 51 64 52 46 53 49 54 63 55 82 56
REMARK SMILES IDX 47 57 48 58 62 60 83 61 50 62 34 63 35 64 43 65 36 66 37 67
REMARK SMILES IDX 41 68 44 69 38 70 39 71 42 72 40 73 66 74 67 75 75 76 68 77
REMARK SMILES IDX 69 78 73 79 76 80 70 81 71 82 74 83 72 84 51 85 52 86 60 87
REMARK SMILES IDX 53 88 54 89 58 90 61 91 55 92 56 93 59 94 57 95
REMARK H PARENT 18 6 7 11 22 29 81 48 49 59
REMARK Flexibility Score: inf
ROOT
ATOM      1  C   UNL A   1      32.878  28.994  23.438  1.00  0.00     0.042 C 
ENDROOT
BRANCH   1   2
ATOM      2  C   UNL A   1      32.269  27.677  23.006  1.00  0.00     0.117 C 
BRANCH   2   3
ATOM      3  N   UNL A   1      32.756  27.125  21.763  1.00  0.00    -0.354 N 
ATOM      4  C   UNL A   1      33.018  25.812  21.468  1.00  0.00     0.242 C 
ATOM      5  O   UNL A   1      33.050  25.500  20.273  1.00  0.00    -0.273 OA
ATOM      6  H   UNL A   1      32.920  27.770  21.039  1.00  0.00     0.163 HD
BRANCH   4   7
ATOM      7  C   UNL A   1      33.243  24.731  22.558  1.00  0.00     0.176 C 
BRANCH   7   8
ATOM      8  N   UNL A   1      33.009  23.396  22.010  1.00  0.00    -0.340 N 
ATOM      9  C   UNL A   1      32.283  22.322  22.459  1.00  0.00     0.255 C 
ATOM     10  O   UNL A   1      32.168  21.394  21.654  1.00  0.00    -0.269 OA
ATOM     11  H   UNL A   1      33.461  23.236  21.150  1.00  0.00     0.164 HD
BRANCH   9  12
ATOM     12  C   UNL A   1      31.742  22.237  23.813  1.00  0.00     0.081 A 
ATOM     13  C   UNL A   1      30.134  23.020  27.084  1.00  0.00     0.087 C 
ATOM     14  C   UNL A   1      30.783  22.568  25.838  1.00  0.00     0.101 A 
ATOM     15  C   UNL A   1      30.892  23.100  24.573  1.00  0.00     0.059 A 
ATOM     16  O   UNL A   1      31.415  21.372  25.889  1.00  0.00    -0.466 OA
ATOM     17  C   UNL A   1      31.964  21.153  24.662  1.00  0.00     0.113 A 
ATOM     18  C   UNL A   1      32.657  19.849  24.535  1.00  0.00     0.088 C 
ENDBRANCH   9  12
ENDBRANCH   7   8
BRANCH   7  19
ATOM     19  C   UNL A   1      34.506  24.882  23.440  1.00  0.00     0.070 C 
BRANCH  19  20
ATOM     20  C   UNL A   1      34.790  23.877  24.529  1.00  0.00    -0.045 A 
ATOM     21  C   UNL A   1      35.566  22.740  24.252  1.00  0.00     0.004 A 
ATOM     22  C   UNL A   1      34.266  24.039  25.821  1.00  0.00     0.004 A 
ATOM     23  C   UNL A   1      35.744  21.748  25.221  1.00  0.00     0.000 A 
ATOM     24  C   UNL A   1      34.427  23.035  26.780  1.00  0.00     0.000 A 
ATOM     25  C   UNL A   1      35.153  21.885  26.475  1.00  0.00     0.000 A 
ENDBRANCH  19  20
ENDBRANCH   7  19
ENDBRANCH   4   7
ENDBRANCH   2   3
ENDBRANCH   1   2
BRANCH   1  26
ATOM     26  C   UNL A   1      33.266  29.039  24.906  1.00  0.00     0.118 C 
BRANCH  26  27
ATOM     27  N   UNL A   1      32.692  30.172  25.630  1.00  0.00    -0.352 N 
ATOM     28  C   UNL A   1      33.106  30.882  26.735  1.00  0.00     0.251 C 
ATOM     29  H   UNL A   1      31.840  30.491  25.253  1.00  0.00     0.163 HD
ATOM     30  O   UNL A   1      32.349  31.707  27.232  1.00  0.00    -0.269 OA
BRANCH  28  31
ATOM     31  C   UNL A   1      34.430  30.643  27.356  1.00  0.00     0.039 A 
ATOM     32  C   UNL A   1      35.264  31.734  27.622  1.00  0.00     0.014 A 
ATOM     33  C   UNL A   1      34.871  29.358  27.661  1.00  0.00     0.014 A 
ATOM     34  C   UNL A   1      36.482  31.540  28.283  1.00  0.00     0.010 A 
ATOM     35  C   UNL A   1      36.009  29.179  28.437  1.00  0.00     0.010 A 
ATOM     36  C   UNL A   1      36.837  30.265  28.749  1.00  0.00    -0.014 A 
BRANCH  36  37
ATOM     37  C   UNL A   1      38.066  30.025  29.550  1.00  0.00     0.031 A 
ATOM     38  C   UNL A   1      39.129  29.093  29.032  1.00  0.00     0.074 A 
ATOM     39  C   UNL A   1      38.175  30.550  30.786  1.00  0.00     0.049 A 
ATOM     40  N   UNL A   1      40.194  28.629  29.637  1.00  0.00    -0.248 NA
ATOM     41  C   UNL A   1      38.942  28.571  27.669  1.00  0.00     0.031 C 
ATOM     42  C   UNL A   1      37.181  31.408  31.435  1.00  0.00     0.029 A 
ATOM     43  N   UNL A   1      39.164  30.420  31.729  1.00  0.00    -0.354 N 
ATOM     44  C   UNL A   1      40.771  27.731  28.747  1.00  0.00     0.074 A 
ATOM     45  C   UNL A   1      39.909  27.670  27.588  1.00  0.00     0.031 C 
ATOM     46  C   UNL A   1      37.623  31.749  32.655  1.00  0.00     0.029 A 
ATOM     47  C   UNL A   1      38.908  31.101  32.894  1.00  0.00     0.049 A 
ATOM     48  H   UNL A   1      39.980  29.888  31.584  1.00  0.00     0.167 HD
ATOM     49  C   UNL A   1      41.929  27.041  28.872  1.00  0.00     0.037 A 
ATOM     50  C   UNL A   1      39.625  31.186  34.030  1.00  0.00     0.037 A 
ATOM     51  C   UNL A   1      42.815  27.153  30.000  1.00  0.00     0.049 A 
ATOM     52  C   UNL A   1      40.935  30.455  34.125  1.00  0.00     0.074 A 
ATOM     53  C   UNL A   1      44.059  26.577  30.183  1.00  0.00     0.029 A 
ATOM     54  N   UNL A   1      42.548  27.902  31.137  1.00  0.00    -0.354 N 
ATOM     55  N   UNL A   1      41.509  29.668  33.248  1.00  0.00    -0.248 NA
ATOM     56  C   UNL A   1      41.702  30.629  35.367  1.00  0.00     0.031 C 
ATOM     57  C   UNL A   1      44.528  26.947  31.448  1.00  0.00     0.029 A 
ATOM     58  C   UNL A   1      43.598  27.790  32.033  1.00  0.00     0.049 A 
ATOM     59  H   UNL A   1      41.733  28.435  31.284  1.00  0.00     0.167 HD
ATOM     60  C   UNL A   1      42.710  29.271  33.818  1.00  0.00     0.074 A 
ATOM     61  C   UNL A   1      42.790  29.916  35.113  1.00  0.00     0.031 C 
ATOM     62  C   UNL A   1      43.660  28.445  33.316  1.00  0.00     0.037 A 
BRANCH  49  63
ATOM     63  C   UNL A   1      42.306  26.111  27.753  1.00  0.00     0.064 A 
ATOM     64  C   UNL A   1      43.210  26.491  26.748  1.00  0.00     0.173 A 
ATOM     65  C   UNL A   1      41.762  24.819  27.687  1.00  0.00     0.173 A 
ATOM     66  F   UNL A   1      43.750  27.720  26.756  1.00  0.00    -0.203 F 
ATOM     67  C   UNL A   1      43.518  25.632  25.697  1.00  0.00     0.198 A 
ATOM     68  C   UNL A   1      42.100  23.950  26.654  1.00  0.00     0.198 A 
ATOM     69  F   UNL A   1      40.898  24.400  28.624  1.00  0.00    -0.203 F 
ATOM     70  F   UNL A   1      44.331  26.044  24.714  1.00  0.00    -0.200 F 
ATOM     71  C   UNL A   1      42.968  24.360  25.653  1.00  0.00     0.200 A 
ATOM     72  F   UNL A   1      41.577  22.716  26.619  1.00  0.00    -0.200 F 
ATOM     73  F   UNL A   1      43.266  23.534  24.641  1.00  0.00    -0.200 F 
ENDBRANCH  49  63
BRANCH  50  74
ATOM     74  C   UNL A   1      39.135  32.031  35.148  1.00  0.00     0.064 A 
ATOM     75  C   UNL A   1      38.416  31.466  36.210  1.00  0.00     0.173 A 
ATOM     76  C   UNL A   1      39.394  33.408  35.195  1.00  0.00     0.173 A 
ATOM     77  F   UNL A   1      38.129  30.155  36.200  1.00  0.00    -0.203 F 
ATOM     78  C   UNL A   1      37.963  32.247  37.271  1.00  0.00     0.198 A 
ATOM     79  C   UNL A   1      38.962  34.185  36.269  1.00  0.00     0.198 A 
ATOM     80  F   UNL A   1      40.085  33.996  34.208  1.00  0.00    -0.203 F 
ATOM     81  F   UNL A   1      37.249  31.687  38.256  1.00  0.00    -0.200 F 
ATOM     82  C   UNL A   1      38.243  33.605  37.303  1.00  0.00     0.200 A 
ATOM     83  F   UNL A   1      39.249  35.493  36.305  1.00  0.00    -0.200 F 
ATOM     84  F   UNL A   1      37.818  34.355  38.330  1.00  0.00    -0.200 F 
ENDBRANCH  50  74
BRANCH  62  85
ATOM     85  C   UNL A   1      44.882  28.215  34.155  1.00  0.00     0.064 A 
ATOM     86  C   UNL A   1      45.991  29.068  34.085  1.00  0.00     0.173 A 
ATOM     87  C   UNL A   1      44.922  27.155  35.073  1.00  0.00     0.173 A 
ATOM     88  F   UNL A   1      46.006  30.087  33.211  1.00  0.00    -0.203 F 
ATOM     89  C   UNL A   1      47.108  28.856  34.889  1.00  0.00     0.198 A 
ATOM     90  C   UNL A   1      46.028  26.962  35.895  1.00  0.00     0.198 A 
ATOM     91  F   UNL A   1      43.882  26.313  35.182  1.00  0.00    -0.203 F 
ATOM     92  F   UNL A   1      48.175  29.659  34.776  1.00  0.00    -0.200 F 
ATOM     93  C   UNL A   1      47.123  27.809  35.799  1.00  0.00     0.200 A 
ATOM     94  F   UNL A   1      46.036  25.958  36.783  1.00  0.00    -0.200 F 
ATOM     95  F   UNL A   1      48.195  27.612  36.578  1.00  0.00    -0.200 F 
ENDBRANCH  62  85
ENDBRANCH  36  37
ENDBRANCH  28  31
ENDBRANCH  26  27
ENDBRANCH   1  26
TORSDOF 14
ENDMDL
