MODEL 1
REMARK VINA RESULT:     -11.9      0.000      0.000
REMARK SMILES COc1ccc(OC)c(-c2cc(C(=O)NCCCNC(=O)c3ccc(-c4c5nc(c(-c6c(F)c(F)c(F)c(F)c6F)c6ccc([nH]6)c(-c6c(F)c(F)c(F)c(F)c6F)c6nc(c(-c7c(F)c(F)c(F)c(F)c7F)c7ccc4[nH]7)C=C6)C=C5)cc3)ccn2)c1
REMARK SMILES IDX 17 1 16 2 15 3 13 4 14 5 12 7 10 8 11 9 87 10 86 11 85 12
REMARK SMILES IDX 9 13 3 14 4 15 88 16 5 17 6 18 2 19 1 20 7 21 8 22 18 23
REMARK SMILES IDX 19 24 20 25 21 27 22 28 23 29 84 30 24 31 83 32 25 33 26 34
REMARK SMILES IDX 27 35 77 36 28 37 82 38 76 39 78 40 29 41 81 42 75 43 74 44
REMARK SMILES IDX 30 46 62 47 42 48 61 49 43 50 46 51 60 52 79 53 44 54 45 55
REMARK SMILES IDX 59 57 80 58 47 59 31 60 32 61 40 62 33 63 34 64 38 65 41 66
REMARK SMILES IDX 35 67 36 68 39 69 37 70 63 71 64 72 72 73 65 74 66 75 70 76
REMARK SMILES IDX 73 77 67 78 68 79 71 80 69 81 48 82 49 83 57 84 50 85 51 86
REMARK SMILES IDX 55 87 58 88 52 89 53 90 56 91 54 92
REMARK H PARENT 15 6 19 26 78 45 46 56
REMARK Flexibility Score: inf
ROOT
ATOM      1  C   UNL A   1      31.477  32.228  26.878  1.00  0.00     0.042 C 
ENDROOT
BRANCH   1   2
ATOM      2  C   UNL A   1      31.753  30.745  26.617  1.00  0.00     0.118 C 
BRANCH   2   3
ATOM      3  N   UNL A   1      33.026  30.336  27.187  1.00  0.00    -0.352 N 
ATOM      4  C   UNL A   1      33.682  29.130  27.194  1.00  0.00     0.251 C 
ATOM      5  O   UNL A   1      34.811  29.081  27.678  1.00  0.00    -0.269 OA
ATOM      6  H   UNL A   1      33.507  31.057  27.654  1.00  0.00     0.163 HD
BRANCH   4   7
ATOM      7  C   UNL A   1      33.107  27.905  26.588  1.00  0.00     0.043 A 
ATOM      8  C   UNL A   1      33.245  25.836  25.391  1.00  0.00     0.075 A 
ATOM      9  C   UNL A   1      33.845  27.015  25.818  1.00  0.00     0.043 A 
ATOM     10  N   UNL A   1      31.944  25.554  25.633  1.00  0.00    -0.256 NA
ATOM     11  C   UNL A   1      31.218  26.480  26.297  1.00  0.00     0.112 A 
ATOM     12  C   UNL A   1      31.751  27.652  26.799  1.00  0.00     0.034 A 
BRANCH   8  13
ATOM     13  C   UNL A   1      34.048  24.784  24.764  1.00  0.00     0.046 A 
ATOM     14  C   UNL A   1      36.186  23.565  24.868  1.00  0.00     0.119 A 
ATOM     15  C   UNL A   1      35.909  23.002  23.629  1.00  0.00     0.050 A 
ATOM     16  C   UNL A   1      35.253  24.435  25.432  1.00  0.00     0.060 A 
ATOM     17  C   UNL A   1      34.719  23.308  22.966  1.00  0.00     0.051 A 
ATOM     18  C   UNL A   1      33.782  24.197  23.515  1.00  0.00     0.128 A 
BRANCH  14  19
ATOM     19  O   UNL A   1      37.400  23.227  25.395  1.00  0.00    -0.497 OA
ATOM     20  C   UNL A   1      37.745  21.847  25.400  1.00  0.00     0.278 C 
ENDBRANCH  14  19
BRANCH  18  21
ATOM     21  O   UNL A   1      32.738  24.431  22.661  1.00  0.00    -0.496 OA
ATOM     22  C   UNL A   1      32.850  25.480  21.711  1.00  0.00     0.278 C 
ENDBRANCH  18  21
ENDBRANCH   8  13
ENDBRANCH   4   7
ENDBRANCH   2   3
ENDBRANCH   1   2
BRANCH   1  23
ATOM     23  C   UNL A   1      32.742  33.080  26.937  1.00  0.00     0.118 C 
BRANCH  23  24
ATOM     24  N   UNL A   1      32.516  34.338  27.631  1.00  0.00    -0.352 N 
ATOM     25  C   UNL A   1      33.059  34.821  28.793  1.00  0.00     0.251 C 
ATOM     26  H   UNL A   1      31.870  34.939  27.196  1.00  0.00     0.163 HD
ATOM     27  O   UNL A   1      32.571  35.825  29.304  1.00  0.00    -0.269 OA
BRANCH  25  28
ATOM     28  C   UNL A   1      34.213  34.158  29.443  1.00  0.00     0.039 A 
ATOM     29  C   UNL A   1      35.499  34.498  29.009  1.00  0.00     0.014 A 
ATOM     30  C   UNL A   1      34.049  33.153  30.401  1.00  0.00     0.014 A 
ATOM     31  C   UNL A   1      36.614  33.855  29.549  1.00  0.00     0.010 A 
ATOM     32  C   UNL A   1      35.167  32.554  30.986  1.00  0.00     0.010 A 
ATOM     33  C   UNL A   1      36.458  32.887  30.553  1.00  0.00    -0.014 A 
BRANCH  33  34
ATOM     34  C   UNL A   1      37.643  32.206  31.134  1.00  0.00     0.031 A 
ATOM     35  C   UNL A   1      38.132  32.566  32.510  1.00  0.00     0.074 A 
ATOM     36  C   UNL A   1      38.295  31.277  30.409  1.00  0.00     0.049 A 
ATOM     37  N   UNL A   1      39.148  32.084  33.181  1.00  0.00    -0.248 NA
ATOM     38  C   UNL A   1      37.398  33.628  33.217  1.00  0.00     0.031 C 
ATOM     39  C   UNL A   1      37.948  30.876  29.044  1.00  0.00     0.029 A 
ATOM     40  N   UNL A   1      39.384  30.503  30.717  1.00  0.00    -0.354 N 
ATOM     41  C   UNL A   1      39.183  32.789  34.378  1.00  0.00     0.074 A 
ATOM     42  C   UNL A   1      38.116  33.766  34.322  1.00  0.00     0.031 C 
ATOM     43  C   UNL A   1      38.792  29.914  28.642  1.00  0.00     0.029 A 
ATOM     44  C   UNL A   1      39.752  29.645  29.709  1.00  0.00     0.049 A 
ATOM     45  H   UNL A   1      39.858  30.557  31.578  1.00  0.00     0.167 HD
ATOM     46  C   UNL A   1      40.014  32.622  35.434  1.00  0.00     0.037 A 
ATOM     47  C   UNL A   1      40.748  28.742  29.655  1.00  0.00     0.037 A 
ATOM     48  C   UNL A   1      41.055  31.630  35.499  1.00  0.00     0.049 A 
ATOM     49  C   UNL A   1      41.635  28.552  30.855  1.00  0.00     0.074 A 
ATOM     50  C   UNL A   1      41.915  31.346  36.544  1.00  0.00     0.029 A 
ATOM     51  N   UNL A   1      41.375  30.756  34.470  1.00  0.00    -0.354 N 
ATOM     52  N   UNL A   1      41.614  29.179  32.006  1.00  0.00    -0.248 NA
ATOM     53  C   UNL A   1      42.672  27.517  30.753  1.00  0.00     0.031 C 
ATOM     54  C   UNL A   1      42.779  30.323  36.136  1.00  0.00     0.029 A 
ATOM     55  C   UNL A   1      42.428  29.939  34.853  1.00  0.00     0.049 A 
ATOM     56  H   UNL A   1      40.922  30.721  33.597  1.00  0.00     0.167 HD
ATOM     57  C   UNL A   1      42.614  28.599  32.774  1.00  0.00     0.074 A 
ATOM     58  C   UNL A   1      43.211  27.557  31.963  1.00  0.00     0.031 C 
ATOM     59  C   UNL A   1      43.004  28.902  34.036  1.00  0.00     0.037 A 
BRANCH  46  60
ATOM     60  C   UNL A   1      39.826  33.532  36.614  1.00  0.00     0.064 A 
ATOM     61  C   UNL A   1      38.970  33.197  37.673  1.00  0.00     0.173 A 
ATOM     62  C   UNL A   1      40.538  34.738  36.704  1.00  0.00     0.173 A 
ATOM     63  F   UNL A   1      38.257  32.061  37.630  1.00  0.00    -0.203 F 
ATOM     64  C   UNL A   1      38.810  34.046  38.765  1.00  0.00     0.198 A 
ATOM     65  C   UNL A   1      40.398  35.572  37.811  1.00  0.00     0.198 A 
ATOM     66  F   UNL A   1      41.376  35.105  35.723  1.00  0.00    -0.203 F 
ATOM     67  F   UNL A   1      37.951  33.726  39.742  1.00  0.00    -0.200 F 
ATOM     68  C   UNL A   1      39.530  35.229  38.837  1.00  0.00     0.200 A 
ATOM     69  F   UNL A   1      41.103  36.709  37.885  1.00  0.00    -0.200 F 
ATOM     70  F   UNL A   1      39.381  36.043  39.890  1.00  0.00    -0.200 F 
ENDBRANCH  46  60
BRANCH  47  71
ATOM     71  C   UNL A   1      40.929  27.915  28.435  1.00  0.00     0.064 A 
ATOM     72  C   UNL A   1      41.740  28.358  27.381  1.00  0.00     0.173 A 
ATOM     73  C   UNL A   1      40.302  26.668  28.297  1.00  0.00     0.173 A 
ATOM     74  F   UNL A   1      42.345  29.552  27.458  1.00  0.00    -0.203 F 
ATOM     75  C   UNL A   1      41.901  27.594  26.226  1.00  0.00     0.198 A 
ATOM     76  C   UNL A   1      40.485  25.894  27.154  1.00  0.00     0.198 A 
ATOM     77  F   UNL A   1      39.521  26.198  29.281  1.00  0.00    -0.203 F 
ATOM     78  F   UNL A   1      42.647  28.060  25.216  1.00  0.00    -0.200 F 
ATOM     79  C   UNL A   1      41.277  26.360  26.117  1.00  0.00     0.200 A 
ATOM     80  F   UNL A   1      39.891  24.696  27.057  1.00  0.00    -0.200 F 
ATOM     81  F   UNL A   1      41.436  25.624  25.009  1.00  0.00    -0.200 F 
ENDBRANCH  47  71
BRANCH  59  82
ATOM     82  C   UNL A   1      44.103  28.072  34.628  1.00  0.00     0.064 A 
ATOM     83  C   UNL A   1      43.838  26.865  35.291  1.00  0.00     0.173 A 
ATOM     84  C   UNL A   1      45.441  28.481  34.515  1.00  0.00     0.173 A 
ATOM     85  F   UNL A   1      42.575  26.439  35.438  1.00  0.00    -0.203 F 
ATOM     86  C   UNL A   1      44.870  26.113  35.847  1.00  0.00     0.198 A 
ATOM     87  C   UNL A   1      46.472  27.712  35.047  1.00  0.00     0.198 A 
ATOM     88  F   UNL A   1      45.748  29.624  33.885  1.00  0.00    -0.203 F 
ATOM     89  F   UNL A   1      44.589  24.990  36.523  1.00  0.00    -0.200 F 
ATOM     90  C   UNL A   1      46.185  26.534  35.721  1.00  0.00     0.200 A 
ATOM     91  F   UNL A   1      47.743  28.115  34.915  1.00  0.00    -0.200 F 
ATOM     92  F   UNL A   1      47.177  25.809  36.257  1.00  0.00    -0.200 F 
ENDBRANCH  59  82
ENDBRANCH  33  34
ENDBRANCH  25  28
ENDBRANCH  23  24
ENDBRANCH   1  23
TORSDOF 13
ENDMDL
MODEL 2
REMARK VINA RESULT:     -11.9      1.157      2.405
REMARK SMILES COc1ccc(OC)c(-c2cc(C(=O)NCCCNC(=O)c3ccc(-c4c5nc(c(-c6c(F)c(F)c(F)c(F)c6F)c6ccc([nH]6)c(-c6c(F)c(F)c(F)c(F)c6F)c6nc(c(-c7c(F)c(F)c(F)c(F)c7F)c7ccc4[nH]7)C=C6)C=C5)cc3)ccn2)c1
REMARK SMILES IDX 17 1 16 2 15 3 13 4 14 5 12 7 10 8 11 9 87 10 86 11 85 12
REMARK SMILES IDX 9 13 3 14 4 15 88 16 5 17 6 18 2 19 1 20 7 21 8 22 18 23
REMARK SMILES IDX 19 24 20 25 21 27 22 28 23 29 84 30 24 31 83 32 25 33 26 34
REMARK SMILES IDX 27 35 77 36 28 37 82 38 76 39 78 40 29 41 81 42 75 43 74 44
REMARK SMILES IDX 30 46 62 47 42 48 61 49 43 50 46 51 60 52 79 53 44 54 45 55
REMARK SMILES IDX 59 57 80 58 47 59 31 60 32 61 40 62 33 63 34 64 38 65 41 66
REMARK SMILES IDX 35 67 36 68 39 69 37 70 63 71 64 72 72 73 65 74 66 75 70 76
REMARK SMILES IDX 73 77 67 78 68 79 71 80 69 81 48 82 49 83 57 84 50 85 51 86
REMARK SMILES IDX 55 87 58 88 52 89 53 90 56 91 54 92
REMARK H PARENT 15 6 19 26 78 45 46 56
REMARK Flexibility Score: inf
ROOT
ATOM      1  C   UNL A   1      31.504  32.044  26.887  1.00  0.00     0.042 C 
ENDROOT
BRANCH   1   2
ATOM      2  C   UNL A   1      31.752  30.534  26.917  1.00  0.00     0.118 C 
BRANCH   2   3
ATOM      3  N   UNL A   1      33.065  30.225  27.460  1.00  0.00    -0.352 N 
ATOM      4  C   UNL A   1      34.010  29.296  27.101  1.00  0.00     0.251 C 
ATOM      5  O   UNL A   1      35.094  29.308  27.682  1.00  0.00    -0.269 OA
ATOM      6  H   UNL A   1      33.325  30.785  28.226  1.00  0.00     0.163 HD
BRANCH   4   7
ATOM      7  C   UNL A   1      33.795  28.322  26.003  1.00  0.00     0.043 A 
ATOM      8  C   UNL A   1      33.183  26.180  25.126  1.00  0.00     0.075 A 
ATOM      9  C   UNL A   1      33.478  26.986  26.218  1.00  0.00     0.043 A 
ATOM     10  N   UNL A   1      33.265  26.625  23.851  1.00  0.00    -0.256 NA
ATOM     11  C   UNL A   1      33.672  27.900  23.661  1.00  0.00     0.112 A 
ATOM     12  C   UNL A   1      33.935  28.780  24.693  1.00  0.00     0.034 A 
BRANCH   8  13
ATOM     13  C   UNL A   1      32.642  24.834  25.327  1.00  0.00     0.046 A 
ATOM     14  C   UNL A   1      31.042  23.492  26.632  1.00  0.00     0.119 A 
ATOM     15  C   UNL A   1      31.603  22.336  26.106  1.00  0.00     0.050 A 
ATOM     16  C   UNL A   1      31.551  24.727  26.231  1.00  0.00     0.060 A 
ATOM     17  C   UNL A   1      32.657  22.416  25.194  1.00  0.00     0.051 A 
ATOM     18  C   UNL A   1      33.190  23.653  24.798  1.00  0.00     0.128 A 
BRANCH  14  19
ATOM     19  O   UNL A   1      30.049  23.285  27.548  1.00  0.00    -0.497 OA
ATOM     20  C   UNL A   1      29.020  22.369  27.195  1.00  0.00     0.278 C 
ENDBRANCH  14  19
BRANCH  18  21
ATOM     21  O   UNL A   1      34.276  23.501  23.978  1.00  0.00    -0.496 OA
ATOM     22  C   UNL A   1      35.124  22.377  24.162  1.00  0.00     0.278 C 
ENDBRANCH  18  21
ENDBRANCH   8  13
ENDBRANCH   4   7
ENDBRANCH   2   3
ENDBRANCH   1   2
BRANCH   1  23
ATOM     23  C   UNL A   1      32.786  32.872  26.934  1.00  0.00     0.118 C 
BRANCH  23  24
ATOM     24  N   UNL A   1      32.582  34.150  27.596  1.00  0.00    -0.352 N 
ATOM     25  C   UNL A   1      33.141  34.657  28.740  1.00  0.00     0.251 C 
ATOM     26  H   UNL A   1      31.940  34.747  27.150  1.00  0.00     0.163 HD
ATOM     27  O   UNL A   1      32.670  35.680  29.228  1.00  0.00    -0.269 OA
BRANCH  25  28
ATOM     28  C   UNL A   1      34.292  33.997  29.398  1.00  0.00     0.039 A 
ATOM     29  C   UNL A   1      35.581  34.389  29.019  1.00  0.00     0.014 A 
ATOM     30  C   UNL A   1      34.127  32.948  30.307  1.00  0.00     0.014 A 
ATOM     31  C   UNL A   1      36.696  33.752  29.566  1.00  0.00     0.010 A 
ATOM     32  C   UNL A   1      35.243  32.355  30.902  1.00  0.00     0.010 A 
ATOM     33  C   UNL A   1      36.537  32.738  30.524  1.00  0.00    -0.014 A 
BRANCH  33  34
ATOM     34  C   UNL A   1      37.721  32.064  31.113  1.00  0.00     0.031 A 
ATOM     35  C   UNL A   1      38.193  32.421  32.496  1.00  0.00     0.074 A 
ATOM     36  C   UNL A   1      38.389  31.146  30.389  1.00  0.00     0.049 A 
ATOM     37  N   UNL A   1      39.206  31.943  33.175  1.00  0.00    -0.248 NA
ATOM     38  C   UNL A   1      37.443  33.471  33.201  1.00  0.00     0.031 C 
ATOM     39  C   UNL A   1      38.060  30.751  29.018  1.00  0.00     0.029 A 
ATOM     40  N   UNL A   1      39.482  30.380  30.703  1.00  0.00    -0.354 N 
ATOM     41  C   UNL A   1      39.223  32.641  34.376  1.00  0.00     0.074 A 
ATOM     42  C   UNL A   1      38.148  33.609  34.315  1.00  0.00     0.031 C 
ATOM     43  C   UNL A   1      38.917  29.798  28.619  1.00  0.00     0.029 A 
ATOM     44  C   UNL A   1      39.868  29.531  29.694  1.00  0.00     0.049 A 
ATOM     45  H   UNL A   1      39.947  30.432  31.570  1.00  0.00     0.167 HD
ATOM     46  C   UNL A   1      40.044  32.475  35.440  1.00  0.00     0.037 A 
ATOM     47  C   UNL A   1      40.872  28.637  29.645  1.00  0.00     0.037 A 
ATOM     48  C   UNL A   1      41.094  31.491  35.509  1.00  0.00     0.049 A 
ATOM     49  C   UNL A   1      41.748  28.448  30.852  1.00  0.00     0.074 A 
ATOM     50  C   UNL A   1      41.946  31.208  36.562  1.00  0.00     0.029 A 
ATOM     51  N   UNL A   1      41.432  30.627  34.479  1.00  0.00    -0.354 N 
ATOM     52  N   UNL A   1      41.710  29.067  32.007  1.00  0.00    -0.248 NA
ATOM     53  C   UNL A   1      42.795  27.422  30.755  1.00  0.00     0.031 C 
ATOM     54  C   UNL A   1      42.823  30.196  36.156  1.00  0.00     0.029 A 
ATOM     55  C   UNL A   1      42.488  29.817  34.867  1.00  0.00     0.049 A 
ATOM     56  H   UNL A   1      40.988  30.593  33.601  1.00  0.00     0.167 HD
ATOM     57  C   UNL A   1      42.707  28.491  32.782  1.00  0.00     0.074 A 
ATOM     58  C   UNL A   1      43.322  27.460  31.971  1.00  0.00     0.031 C 
ATOM     59  C   UNL A   1      43.081  28.790  34.050  1.00  0.00     0.037 A 
BRANCH  46  60
ATOM     60  C   UNL A   1      39.837  33.376  36.623  1.00  0.00     0.064 A 
ATOM     61  C   UNL A   1      40.503  34.605  36.737  1.00  0.00     0.173 A 
ATOM     62  C   UNL A   1      38.936  33.023  37.639  1.00  0.00     0.173 A 
ATOM     63  F   UNL A   1      41.384  34.984  35.799  1.00  0.00    -0.203 F 
ATOM     64  C   UNL A   1      40.296  35.436  37.836  1.00  0.00     0.198 A 
ATOM     65  C   UNL A   1      38.710  33.869  38.723  1.00  0.00     0.198 A 
ATOM     66  F   UNL A   1      38.267  31.862  37.578  1.00  0.00    -0.203 F 
ATOM     67  F   UNL A   1      40.979  36.583  37.944  1.00  0.00    -0.200 F 
ATOM     68  C   UNL A   1      39.395  35.070  38.823  1.00  0.00     0.200 A 
ATOM     69  F   UNL A   1      37.829  33.519  39.671  1.00  0.00    -0.200 F 
ATOM     70  F   UNL A   1      39.191  35.872  39.878  1.00  0.00    -0.200 F 
ENDBRANCH  46  60
BRANCH  47  71
ATOM     71  C   UNL A   1      41.073  27.819  28.422  1.00  0.00     0.064 A 
ATOM     72  C   UNL A   1      40.404  26.599  28.256  1.00  0.00     0.173 A 
ATOM     73  C   UNL A   1      41.930  28.239  27.395  1.00  0.00     0.173 A 
ATOM     74  F   UNL A   1      39.588  26.146  29.220  1.00  0.00    -0.203 F 
ATOM     75  C   UNL A   1      40.600  25.819  27.119  1.00  0.00     0.198 A 
ATOM     76  C   UNL A   1      42.105  27.471  26.246  1.00  0.00     0.198 A 
ATOM     77  F   UNL A   1      42.588  29.402  27.504  1.00  0.00    -0.203 F 
ATOM     78  F   UNL A   1      39.981  24.635  27.005  1.00  0.00    -0.200 F 
ATOM     79  C   UNL A   1      41.447  26.258  26.112  1.00  0.00     0.200 A 
ATOM     80  F   UNL A   1      42.913  27.905  25.269  1.00  0.00    -0.200 F 
ATOM     81  F   UNL A   1      41.632  25.510  25.016  1.00  0.00    -0.200 F 
ENDBRANCH  47  71
BRANCH  59  82
ATOM     82  C   UNL A   1      44.182  27.966  34.648  1.00  0.00     0.064 A 
ATOM     83  C   UNL A   1      43.919  26.761  35.316  1.00  0.00     0.173 A 
ATOM     84  C   UNL A   1      45.518  28.378  34.537  1.00  0.00     0.173 A 
ATOM     85  F   UNL A   1      42.657  26.331  35.462  1.00  0.00    -0.203 F 
ATOM     86  C   UNL A   1      44.952  26.014  35.878  1.00  0.00     0.198 A 
ATOM     87  C   UNL A   1      46.551  27.616  35.075  1.00  0.00     0.198 A 
ATOM     88  F   UNL A   1      45.824  29.520  33.903  1.00  0.00    -0.203 F 
ATOM     89  F   UNL A   1      44.673  24.893  36.558  1.00  0.00    -0.200 F 
ATOM     90  C   UNL A   1      46.266  26.439  35.753  1.00  0.00     0.200 A 
ATOM     91  F   UNL A   1      47.821  28.021  34.944  1.00  0.00    -0.200 F 
ATOM     92  F   UNL A   1      47.259  25.720  36.294  1.00  0.00    -0.200 F 
ENDBRANCH  59  82
ENDBRANCH  33  34
ENDBRANCH  25  28
ENDBRANCH  23  24
ENDBRANCH   1  23
TORSDOF 13
ENDMDL
MODEL 3
REMARK VINA RESULT:     -11.9      2.020      3.555
REMARK SMILES COc1ccc(OC)c(-c2cc(C(=O)NCCCNC(=O)c3ccc(-c4c5nc(c(-c6c(F)c(F)c(F)c(F)c6F)c6ccc([nH]6)c(-c6c(F)c(F)c(F)c(F)c6F)c6nc(c(-c7c(F)c(F)c(F)c(F)c7F)c7ccc4[nH]7)C=C6)C=C5)cc3)ccn2)c1
REMARK SMILES IDX 17 1 16 2 15 3 13 4 14 5 12 7 10 8 11 9 87 10 86 11 85 12
REMARK SMILES IDX 9 13 3 14 4 15 88 16 5 17 6 18 2 19 1 20 7 21 8 22 18 23
REMARK SMILES IDX 19 24 20 25 21 27 22 28 23 29 84 30 24 31 83 32 25 33 26 34
REMARK SMILES IDX 27 35 77 36 28 37 82 38 76 39 78 40 29 41 81 42 75 43 74 44
REMARK SMILES IDX 30 46 62 47 42 48 61 49 43 50 46 51 60 52 79 53 44 54 45 55
REMARK SMILES IDX 59 57 80 58 47 59 31 60 32 61 40 62 33 63 34 64 38 65 41 66
REMARK SMILES IDX 35 67 36 68 39 69 37 70 63 71 64 72 72 73 65 74 66 75 70 76
REMARK SMILES IDX 73 77 67 78 68 79 71 80 69 81 48 82 49 83 57 84 50 85 51 86
REMARK SMILES IDX 55 87 58 88 52 89 53 90 56 91 54 92
REMARK H PARENT 15 6 19 26 78 45 46 56
REMARK Flexibility Score: inf
ROOT
ATOM      1  C   UNL A   1      33.230  28.949  23.643  1.00  0.00     0.042 C 
ENDROOT
BRANCH   1   2
ATOM      2  C   UNL A   1      32.235  27.846  23.278  1.00  0.00     0.118 C 
BRANCH   2   3
ATOM      3  N   UNL A   1      32.576  27.225  22.008  1.00  0.00    -0.352 N 
ATOM      4  C   UNL A   1      32.703  25.909  21.637  1.00  0.00     0.251 C 
ATOM      5  O   UNL A   1      32.916  25.653  20.452  1.00  0.00    -0.269 OA
ATOM      6  H   UNL A   1      32.747  27.865  21.280  1.00  0.00     0.163 HD
BRANCH   4   7
ATOM      7  C   UNL A   1      32.536  24.789  22.594  1.00  0.00     0.043 A 
ATOM      8  C   UNL A   1      33.343  22.997  23.960  1.00  0.00     0.075 A 
ATOM      9  C   UNL A   1      33.573  23.945  22.970  1.00  0.00     0.043 A 
ATOM     10  N   UNL A   1      32.126  22.812  24.521  1.00  0.00    -0.256 NA
ATOM     11  C   UNL A   1      31.109  23.577  24.068  1.00  0.00     0.112 A 
ATOM     12  C   UNL A   1      31.264  24.575  23.125  1.00  0.00     0.034 A 
BRANCH   8  13
ATOM     13  C   UNL A   1      34.460  22.238  24.528  1.00  0.00     0.046 A 
ATOM     14  C   UNL A   1      36.790  22.387  25.312  1.00  0.00     0.119 A 
ATOM     15  C   UNL A   1      36.842  21.000  25.379  1.00  0.00     0.050 A 
ATOM     16  C   UNL A   1      35.603  22.995  24.904  1.00  0.00     0.060 A 
ATOM     17  C   UNL A   1      35.723  20.237  25.042  1.00  0.00     0.051 A 
ATOM     18  C   UNL A   1      34.529  20.837  24.612  1.00  0.00     0.128 A 
BRANCH  14  19
ATOM     19  O   UNL A   1      37.959  23.022  25.621  1.00  0.00    -0.497 OA
ATOM     20  C   UNL A   1      39.021  22.220  26.126  1.00  0.00     0.278 C 
ENDBRANCH  14  19
BRANCH  18  21
ATOM     21  O   UNL A   1      33.595  19.907  24.240  1.00  0.00    -0.496 OA
ATOM     22  C   UNL A   1      32.881  19.209  25.250  1.00  0.00     0.278 C 
ENDBRANCH  18  21
ENDBRANCH   8  13
ENDBRANCH   4   7
ENDBRANCH   2   3
ENDBRANCH   1   2
BRANCH   1  23
ATOM     23  C   UNL A   1      33.514  29.042  25.140  1.00  0.00     0.118 C 
BRANCH  23  24
ATOM     24  N   UNL A   1      32.982  30.265  25.718  1.00  0.00    -0.352 N 
ATOM     25  C   UNL A   1      33.373  30.964  26.831  1.00  0.00     0.251 C 
ATOM     26  H   UNL A   1      32.219  30.653  25.233  1.00  0.00     0.163 HD
ATOM     27  O   UNL A   1      32.650  31.863  27.250  1.00  0.00    -0.269 OA
BRANCH  25  28
ATOM     28  C   UNL A   1      34.639  30.656  27.534  1.00  0.00     0.039 A 
ATOM     29  C   UNL A   1      34.792  29.379  28.086  1.00  0.00     0.014 A 
ATOM     30  C   UNL A   1      35.632  31.619  27.735  1.00  0.00     0.014 A 
ATOM     31  C   UNL A   1      35.942  29.061  28.811  1.00  0.00     0.010 A 
ATOM     32  C   UNL A   1      36.809  31.282  28.405  1.00  0.00     0.010 A 
ATOM     33  C   UNL A   1      36.967  30.007  28.965  1.00  0.00    -0.014 A 
BRANCH  33  34
ATOM     34  C   UNL A   1      38.195  29.670  29.730  1.00  0.00     0.031 A 
ATOM     35  C   UNL A   1      38.411  30.226  31.110  1.00  0.00     0.074 A 
ATOM     36  C   UNL A   1      39.129  28.880  29.167  1.00  0.00     0.049 A 
ATOM     37  N   UNL A   1      39.418  30.046  31.928  1.00  0.00    -0.248 NA
ATOM     38  C   UNL A   1      37.369  31.123  31.633  1.00  0.00     0.031 C 
ATOM     39  C   UNL A   1      39.059  28.320  27.817  1.00  0.00     0.029 A 
ATOM     40  N   UNL A   1      40.321  28.412  29.660  1.00  0.00    -0.354 N 
ATOM     41  C   UNL A   1      39.138  30.815  33.050  1.00  0.00     0.074 A 
ATOM     42  C   UNL A   1      37.890  31.501  32.791  1.00  0.00     0.031 C 
ATOM     43  C   UNL A   1      40.146  27.565  27.598  1.00  0.00     0.029 A 
ATOM     44  C   UNL A   1      41.001  27.605  28.781  1.00  0.00     0.049 A 
ATOM     45  H   UNL A   1      40.658  28.634  30.558  1.00  0.00     0.167 HD
ATOM     46  C   UNL A   1      39.846  30.922  34.201  1.00  0.00     0.037 A 
ATOM     47  C   UNL A   1      42.177  26.966  28.917  1.00  0.00     0.037 A 
ATOM     48  C   UNL A   1      41.072  30.215  34.468  1.00  0.00     0.049 A 
ATOM     49  C   UNL A   1      42.926  27.073  30.217  1.00  0.00     0.074 A 
ATOM     50  C   UNL A   1      41.837  30.215  35.621  1.00  0.00     0.029 A 
ATOM     51  N   UNL A   1      41.712  29.380  33.565  1.00  0.00    -0.354 N 
ATOM     52  N   UNL A   1      42.616  27.750  31.296  1.00  0.00    -0.248 NA
ATOM     53  C   UNL A   1      44.178  26.314  30.323  1.00  0.00     0.031 C 
ATOM     54  C   UNL A   1      42.958  29.406  35.404  1.00  0.00     0.029 A 
ATOM     55  C   UNL A   1      42.869  28.867  34.131  1.00  0.00     0.049 A 
ATOM     56  H   UNL A   1      41.392  29.180  32.655  1.00  0.00     0.167 HD
ATOM     57  C   UNL A   1      43.619  27.478  32.217  1.00  0.00     0.074 A 
ATOM     58  C   UNL A   1      44.537  26.560  31.575  1.00  0.00     0.031 C 
ATOM     59  C   UNL A   1      43.766  27.948  33.480  1.00  0.00     0.037 A 
BRANCH  46  60
ATOM     60  C   UNL A   1      39.307  31.835  35.264  1.00  0.00     0.064 A 
ATOM     61  C   UNL A   1      38.459  31.363  36.277  1.00  0.00     0.173 A 
ATOM     62  C   UNL A   1      39.670  33.190  35.292  1.00  0.00     0.173 A 
ATOM     63  F   UNL A   1      38.072  30.079  36.290  1.00  0.00    -0.203 F 
ATOM     64  C   UNL A   1      37.972  32.219  37.262  1.00  0.00     0.198 A 
ATOM     65  C   UNL A   1      39.204  34.037  36.295  1.00  0.00     0.198 A 
ATOM     66  F   UNL A   1      40.484  33.693  34.351  1.00  0.00    -0.203 F 
ATOM     67  F   UNL A   1      37.126  31.755  38.192  1.00  0.00    -0.200 F 
ATOM     68  C   UNL A   1      38.350  33.553  37.275  1.00  0.00     0.200 A 
ATOM     69  F   UNL A   1      39.580  35.323  36.312  1.00  0.00    -0.200 F 
ATOM     70  F   UNL A   1      37.886  34.374  38.226  1.00  0.00    -0.200 F 
ENDBRANCH  46  60
BRANCH  47  71
ATOM     71  C   UNL A   1      42.696  26.129  27.806  1.00  0.00     0.064 A 
ATOM     72  C   UNL A   1      42.305  24.790  27.672  1.00  0.00     0.173 A 
ATOM     73  C   UNL A   1      43.586  26.648  26.855  1.00  0.00     0.173 A 
ATOM     74  F   UNL A   1      41.470  24.243  28.568  1.00  0.00    -0.203 F 
ATOM     75  C   UNL A   1      42.800  23.995  26.641  1.00  0.00     0.198 A 
ATOM     76  C   UNL A   1      44.060  25.860  25.809  1.00  0.00     0.198 A 
ATOM     77  F   UNL A   1      43.985  27.926  26.936  1.00  0.00    -0.203 F 
ATOM     78  F   UNL A   1      42.444  22.706  26.560  1.00  0.00    -0.200 F 
ATOM     79  C   UNL A   1      43.674  24.533  25.706  1.00  0.00     0.200 A 
ATOM     80  F   UNL A   1      44.893  26.387  24.900  1.00  0.00    -0.200 F 
ATOM     81  F   UNL A   1      44.146  23.769  24.712  1.00  0.00    -0.200 F 
ENDBRANCH  47  71
BRANCH  59  82
ATOM     82  C   UNL A   1      44.945  27.447  34.260  1.00  0.00     0.064 A 
ATOM     83  C   UNL A   1      46.174  28.122  34.252  1.00  0.00     0.173 A 
ATOM     84  C   UNL A   1      44.837  26.285  35.041  1.00  0.00     0.173 A 
ATOM     85  F   UNL A   1      46.332  29.228  33.510  1.00  0.00    -0.203 F 
ATOM     86  C   UNL A   1      47.263  27.634  34.972  1.00  0.00     0.198 A 
ATOM     87  C   UNL A   1      45.919  25.817  35.781  1.00  0.00     0.198 A 
ATOM     88  F   UNL A   1      43.681  25.607  35.088  1.00  0.00    -0.203 F 
ATOM     89  F   UNL A   1      48.443  28.266  34.906  1.00  0.00    -0.200 F 
ATOM     90  C   UNL A   1      47.133  26.487  35.739  1.00  0.00     0.200 A 
ATOM     91  F   UNL A   1      45.789  24.714  36.531  1.00  0.00    -0.200 F 
ATOM     92  F   UNL A   1      48.181  26.019  36.430  1.00  0.00    -0.200 F 
ENDBRANCH  59  82
ENDBRANCH  33  34
ENDBRANCH  25  28
ENDBRANCH  23  24
ENDBRANCH   1  23
TORSDOF 13
ENDMDL
