MODEL 1
REMARK VINA RESULT:     -14.3      0.000      0.000
REMARK SMILES O=C(NCCCNC(=O)[C@@H]1c2[nH]cnc2CCN1C(=O)CCCc1c[nH]c2ccccc12)c1ccc(-c2c3nc(c(-c4c(F)c(F)c(F)c(F)c4F)c4ccc([nH]4)c(-c4c(F)c(F)c(F)c(F)c4F)c4nc(c(-c5c(F)c(F)c(F)c(F)c5F)c5ccc2[nH]5)C=C4)C=C3)cc1
REMARK SMILES IDX 7 1 8 2 9 3 6 5 5 6 4 7 3 8 1 9 2 10 33 12 34 13 95 14 35 15
REMARK SMILES IDX 94 16 36 17 37 18 38 19 88 20 39 21 93 22 87 23 89 24 40 25
REMARK SMILES IDX 92 26 86 27 85 28 41 30 73 31 53 32 72 33 54 34 57 35 71 36
REMARK SMILES IDX 90 37 55 38 56 39 70 41 91 42 58 43 42 44 43 45 51 46 44 47
REMARK SMILES IDX 45 48 49 49 52 50 46 51 47 52 50 53 48 54 74 55 75 56 83 57
REMARK SMILES IDX 76 58 77 59 81 60 84 61 78 62 79 63 82 64 80 65 59 66 60 67
REMARK SMILES IDX 68 68 61 69 62 70 66 71 69 72 63 73 64 74 67 75 65 76 10 77
REMARK SMILES IDX 11 78 18 79 12 80 15 81 17 82 13 83 14 85 16 86 19 87 20 88
REMARK SMILES IDX 21 89 22 90 23 91 24 92 25 93 32 94 26 95 27 96 31 97 28 99
REMARK SMILES IDX 30 100 29 101
REMARK H PARENT 7 4 3 11 89 29 57 40 12 84 26 98
REMARK Flexibility Score: inf
ROOT
ATOM      1  N   UNL A   1      35.622  21.164  26.159  1.00  0.00    -0.354 N 
ATOM      2  C   UNL A   1      34.431  21.796  26.324  1.00  0.00     0.249 C 
ATOM      3  O   UNL A   1      34.191  22.193  27.474  1.00  0.00    -0.272 OA
ATOM      4  H   UNL A   1      36.203  21.172  26.954  1.00  0.00     0.163 HD
ENDROOT
BRANCH   1   5
ATOM      5  C   UNL A   1      36.180  20.483  25.013  1.00  0.00     0.117 C 
BRANCH   5   6
ATOM      6  C   UNL A   1      37.510  21.109  24.602  1.00  0.00     0.042 C 
BRANCH   6   7
ATOM      7  C   UNL A   1      38.272  21.739  25.772  1.00  0.00     0.118 C 
BRANCH   7   8
ATOM      8  N   UNL A   1      39.707  21.547  25.709  1.00  0.00    -0.352 N 
ATOM      9  O   UNL A   1      41.882  21.679  26.059  1.00  0.00    -0.269 OA
ATOM     10  C   UNL A   1      40.778  22.208  26.231  1.00  0.00     0.251 C 
ATOM     11  H   UNL A   1      39.965  20.765  25.170  1.00  0.00     0.163 HD
BRANCH  10  12
ATOM     12  C   UNL A   1      40.718  23.529  26.911  1.00  0.00     0.039 A 
ATOM     13  C   UNL A   1      39.898  24.599  26.545  1.00  0.00     0.014 A 
ATOM     14  C   UNL A   1      41.626  23.709  27.969  1.00  0.00     0.014 A 
ATOM     15  C   UNL A   1      40.063  25.846  27.133  1.00  0.00     0.010 A 
ATOM     16  C   UNL A   1      41.780  24.945  28.578  1.00  0.00     0.010 A 
ATOM     17  C   UNL A   1      41.030  26.023  28.121  1.00  0.00    -0.014 A 
BRANCH  17  18
ATOM     18  C   UNL A   1      41.142  27.336  28.741  1.00  0.00     0.031 A 
ATOM     19  C   UNL A   1      42.289  28.157  28.255  1.00  0.00     0.074 A 
ATOM     20  C   UNL A   1      40.204  27.821  29.576  1.00  0.00     0.049 A 
ATOM     21  N   UNL A   1      43.250  28.686  28.940  1.00  0.00    -0.248 NA
ATOM     22  C   UNL A   1      42.428  28.330  26.799  1.00  0.00     0.031 C 
ATOM     23  C   UNL A   1      38.901  27.239  29.905  1.00  0.00     0.029 A 
ATOM     24  N   UNL A   1      40.178  29.014  30.231  1.00  0.00    -0.354 N 
ATOM     25  C   UNL A   1      44.029  29.397  28.026  1.00  0.00     0.074 A 
ATOM     26  C   UNL A   1      43.558  29.032  26.717  1.00  0.00     0.031 C 
ATOM     27  C   UNL A   1      38.131  28.178  30.500  1.00  0.00     0.029 A 
ATOM     28  C   UNL A   1      38.927  29.376  30.708  1.00  0.00     0.049 A 
ATOM     29  H   UNL A   1      40.981  29.573  30.356  1.00  0.00     0.167 HD
ATOM     30  C   UNL A   1      44.859  30.399  28.427  1.00  0.00     0.037 A 
ATOM     31  C   UNL A   1      38.559  30.600  31.164  1.00  0.00     0.037 A 
ATOM     32  C   UNL A   1      45.191  30.277  29.822  1.00  0.00     0.049 A 
ATOM     33  C   UNL A   1      39.797  31.344  31.504  1.00  0.00     0.074 A 
ATOM     34  C   UNL A   1      45.835  29.328  30.592  1.00  0.00     0.029 A 
ATOM     35  N   UNL A   1      44.556  31.101  30.716  1.00  0.00    -0.354 N 
ATOM     36  N   UNL A   1      40.584  31.034  32.495  1.00  0.00    -0.248 NA
ATOM     37  C   UNL A   1      40.398  32.163  30.461  1.00  0.00     0.031 C 
ATOM     38  C   UNL A   1      45.142  29.333  31.839  1.00  0.00     0.029 A 
ATOM     39  C   UNL A   1      44.157  30.318  31.767  1.00  0.00     0.049 A 
ATOM     40  H   UNL A   1      44.415  32.070  30.622  1.00  0.00     0.167 HD
ATOM     41  C   UNL A   1      41.864  31.239  32.005  1.00  0.00     0.074 A 
ATOM     42  C   UNL A   1      41.685  32.014  30.780  1.00  0.00     0.031 C 
ATOM     43  C   UNL A   1      42.923  30.523  32.483  1.00  0.00     0.037 A 
BRANCH  30  44
ATOM     44  C   UNL A   1      45.053  31.696  27.667  1.00  0.00     0.064 A 
ATOM     45  C   UNL A   1      46.290  31.931  27.029  1.00  0.00     0.173 A 
ATOM     46  C   UNL A   1      44.228  32.831  27.822  1.00  0.00     0.173 A 
ATOM     47  F   UNL A   1      47.155  30.927  26.820  1.00  0.00    -0.203 F 
ATOM     48  C   UNL A   1      46.715  33.219  26.692  1.00  0.00     0.198 A 
ATOM     49  C   UNL A   1      44.636  34.107  27.436  1.00  0.00     0.198 A 
ATOM     50  F   UNL A   1      43.048  32.780  28.448  1.00  0.00    -0.203 F 
ATOM     51  F   UNL A   1      47.958  33.409  26.230  1.00  0.00    -0.200 F 
ATOM     52  C   UNL A   1      45.894  34.309  26.912  1.00  0.00     0.200 A 
ATOM     53  F   UNL A   1      43.828  35.152  27.665  1.00  0.00    -0.200 F 
ATOM     54  F   UNL A   1      46.327  35.551  26.665  1.00  0.00    -0.200 F 
ENDBRANCH  30  44
BRANCH  31  55
ATOM     55  C   UNL A   1      37.251  31.277  30.998  1.00  0.00     0.064 A 
ATOM     56  C   UNL A   1      36.432  31.562  32.103  1.00  0.00     0.173 A 
ATOM     57  C   UNL A   1      36.904  31.905  29.785  1.00  0.00     0.173 A 
ATOM     58  F   UNL A   1      36.721  31.048  33.307  1.00  0.00    -0.203 F 
ATOM     59  C   UNL A   1      35.342  32.435  32.002  1.00  0.00     0.198 A 
ATOM     60  C   UNL A   1      35.814  32.770  29.684  1.00  0.00     0.198 A 
ATOM     61  F   UNL A   1      37.675  31.770  28.697  1.00  0.00    -0.203 F 
ATOM     62  F   UNL A   1      34.619  32.730  33.092  1.00  0.00    -0.200 F 
ATOM     63  C   UNL A   1      35.041  33.044  30.796  1.00  0.00     0.200 A 
ATOM     64  F   UNL A   1      35.558  33.383  28.521  1.00  0.00    -0.200 F 
ATOM     65  F   UNL A   1      34.034  33.926  30.713  1.00  0.00    -0.200 F 
ENDBRANCH  31  55
BRANCH  43  66
ATOM     66  C   UNL A   1      42.705  29.691  33.714  1.00  0.00     0.064 A 
ATOM     67  C   UNL A   1      42.184  28.386  33.693  1.00  0.00     0.173 A 
ATOM     68  C   UNL A   1      43.173  30.179  34.940  1.00  0.00     0.173 A 
ATOM     69  F   UNL A   1      41.815  27.809  32.543  1.00  0.00    -0.203 F 
ATOM     70  C   UNL A   1      42.092  27.625  34.856  1.00  0.00     0.198 A 
ATOM     71  C   UNL A   1      43.114  29.404  36.094  1.00  0.00     0.198 A 
ATOM     72  F   UNL A   1      43.738  31.395  35.009  1.00  0.00    -0.203 F 
ATOM     73  F   UNL A   1      41.581  26.385  34.811  1.00  0.00    -0.200 F 
ATOM     74  C   UNL A   1      42.563  28.133  36.055  1.00  0.00     0.200 A 
ATOM     75  F   UNL A   1      43.620  29.879  37.242  1.00  0.00    -0.200 F 
ATOM     76  F   UNL A   1      42.514  27.386  37.167  1.00  0.00    -0.200 F 
ENDBRANCH  43  66
ENDBRANCH  17  18
ENDBRANCH  10  12
ENDBRANCH   7   8
ENDBRANCH   6   7
ENDBRANCH   5   6
ENDBRANCH   1   5
BRANCH   2  77
ATOM     77  C   UNL A   1      33.293  21.733  25.270  1.00  0.00     0.223 C 
ATOM     78  C   UNL A   1      32.859  20.284  25.233  1.00  0.00     0.071 A 
ATOM     79  N   UNL A   1      33.477  22.136  23.845  1.00  0.00    -0.325 N 
ATOM     80  N   UNL A   1      32.942  19.353  26.234  1.00  0.00    -0.346 N 
ATOM     81  C   UNL A   1      32.387  19.588  24.146  1.00  0.00     0.066 A 
ATOM     82  C   UNL A   1      32.338  21.736  22.994  1.00  0.00     0.127 C 
ATOM     83  C   UNL A   1      32.609  18.144  25.682  1.00  0.00     0.197 A 
ATOM     84  H   UNL A   1      33.192  19.521  27.171  1.00  0.00     0.167 HD
ATOM     85  N   UNL A   1      32.245  18.260  24.423  1.00  0.00    -0.242 NA
ATOM     86  C   UNL A   1      32.212  20.209  22.820  1.00  0.00     0.080 C 
BRANCH  79  87
ATOM     87  C   UNL A   1      34.266  23.238  23.587  1.00  0.00     0.223 C 
ATOM     88  O   UNL A   1      35.321  23.091  22.954  1.00  0.00    -0.275 OA
BRANCH  87  89
ATOM     89  C   UNL A   1      33.917  24.676  24.009  1.00  0.00     0.100 C 
BRANCH  89  90
ATOM     90  C   UNL A   1      34.097  25.295  25.387  1.00  0.00     0.015 C 
BRANCH  90  91
ATOM     91  C   UNL A   1      32.985  26.025  26.125  1.00  0.00     0.038 C 
BRANCH  91  92
ATOM     92  C   UNL A   1      31.581  26.175  25.589  1.00  0.00    -0.023 A 
ATOM     93  C   UNL A   1      30.607  25.256  25.959  1.00  0.00     0.087 A 
ATOM     94  C   UNL A   1      30.868  27.172  24.813  1.00  0.00     0.003 A 
ATOM     95  N   UNL A   1      29.479  25.486  25.235  1.00  0.00    -0.361 N 
ATOM     96  C   UNL A   1      29.644  26.599  24.454  1.00  0.00     0.046 A 
ATOM     97  C   UNL A   1      31.072  28.501  24.371  1.00  0.00     0.010 A 
ATOM     98  H   UNL A   1      28.665  24.933  25.267  1.00  0.00     0.166 HD
ATOM     99  C   UNL A   1      28.764  27.162  23.521  1.00  0.00     0.026 A 
ATOM    100  C   UNL A   1      30.153  29.131  23.518  1.00  0.00     0.001 A 
ATOM    101  C   UNL A   1      29.041  28.446  23.056  1.00  0.00     0.002 A 
ENDBRANCH  91  92
ENDBRANCH  90  91
ENDBRANCH  89  90
ENDBRANCH  87  89
ENDBRANCH  79  87
ENDBRANCH   2  77
TORSDOF 15
ENDMDL
MODEL 2
REMARK VINA RESULT:     -14.2      3.102      8.809
REMARK SMILES O=C(NCCCNC(=O)[C@@H]1c2[nH]cnc2CCN1C(=O)CCCc1c[nH]c2ccccc12)c1ccc(-c2c3nc(c(-c4c(F)c(F)c(F)c(F)c4F)c4ccc([nH]4)c(-c4c(F)c(F)c(F)c(F)c4F)c4nc(c(-c5c(F)c(F)c(F)c(F)c5F)c5ccc2[nH]5)C=C4)C=C3)cc1
REMARK SMILES IDX 7 1 8 2 9 3 6 5 5 6 4 7 3 8 1 9 2 10 33 12 34 13 95 14 35 15
REMARK SMILES IDX 94 16 36 17 37 18 38 19 88 20 39 21 93 22 87 23 89 24 40 25
REMARK SMILES IDX 92 26 86 27 85 28 41 30 73 31 53 32 72 33 54 34 57 35 71 36
REMARK SMILES IDX 90 37 55 38 56 39 70 41 91 42 58 43 42 44 43 45 51 46 44 47
REMARK SMILES IDX 45 48 49 49 52 50 46 51 47 52 50 53 48 54 74 55 75 56 83 57
REMARK SMILES IDX 76 58 77 59 81 60 84 61 78 62 79 63 82 64 80 65 59 66 60 67
REMARK SMILES IDX 68 68 61 69 62 70 66 71 69 72 63 73 64 74 67 75 65 76 10 77
REMARK SMILES IDX 11 78 18 79 12 80 15 81 17 82 13 83 14 85 16 86 19 87 20 88
REMARK SMILES IDX 21 89 22 90 23 91 24 92 25 93 32 94 26 95 27 96 31 97 28 99
REMARK SMILES IDX 30 100 29 101
REMARK H PARENT 7 4 3 11 89 29 57 40 12 84 26 98
REMARK Flexibility Score: inf
ROOT
ATOM      1  N   UNL A   1      32.867  29.702  24.788  1.00  0.00    -0.354 N 
ATOM      2  C   UNL A   1      33.032  28.592  24.024  1.00  0.00     0.249 C 
ATOM      3  O   UNL A   1      34.096  28.532  23.389  1.00  0.00    -0.272 OA
ATOM      4  H   UNL A   1      33.654  30.295  24.823  1.00  0.00     0.163 HD
ENDROOT
BRANCH   1   5
ATOM      5  C   UNL A   1      31.734  30.160  25.559  1.00  0.00     0.117 C 
BRANCH   5   6
ATOM      6  C   UNL A   1      32.112  30.344  27.026  1.00  0.00     0.042 C 
BRANCH   6   7
ATOM      7  C   UNL A   1      33.578  30.735  27.231  1.00  0.00     0.118 C 
BRANCH   7   8
ATOM      8  N   UNL A   1      33.803  31.592  28.378  1.00  0.00    -0.352 N 
ATOM      9  O   UNL A   1      34.731  32.747  30.015  1.00  0.00    -0.269 OA
ATOM     10  C   UNL A   1      34.875  31.847  29.178  1.00  0.00     0.251 C 
ATOM     11  H   UNL A   1      33.002  32.102  28.637  1.00  0.00     0.163 HD
BRANCH  10  12
ATOM     12  C   UNL A   1      36.152  31.085  29.165  1.00  0.00     0.039 A 
ATOM     13  C   UNL A   1      36.272  29.693  29.174  1.00  0.00     0.014 A 
ATOM     14  C   UNL A   1      37.323  31.861  29.217  1.00  0.00     0.014 A 
ATOM     15  C   UNL A   1      37.511  29.094  29.351  1.00  0.00     0.010 A 
ATOM     16  C   UNL A   1      38.568  31.269  29.370  1.00  0.00     0.010 A 
ATOM     17  C   UNL A   1      38.650  29.886  29.487  1.00  0.00    -0.014 A 
BRANCH  17  18
ATOM     18  C   UNL A   1      39.936  29.218  29.630  1.00  0.00     0.031 A 
ATOM     19  C   UNL A   1      40.435  29.124  31.032  1.00  0.00     0.074 A 
ATOM     20  C   UNL A   1      40.549  28.607  28.598  1.00  0.00     0.049 A 
ATOM     21  N   UNL A   1      41.556  29.547  31.519  1.00  0.00    -0.248 NA
ATOM     22  C   UNL A   1      39.519  28.565  32.041  1.00  0.00     0.031 C 
ATOM     23  C   UNL A   1      40.031  28.379  27.248  1.00  0.00     0.029 A 
ATOM     24  N   UNL A   1      41.745  27.956  28.580  1.00  0.00    -0.354 N 
ATOM     25  C   UNL A   1      41.562  29.166  32.862  1.00  0.00     0.074 A 
ATOM     26  C   UNL A   1      40.237  28.691  33.157  1.00  0.00     0.031 C 
ATOM     27  C   UNL A   1      40.798  27.454  26.627  1.00  0.00     0.029 A 
ATOM     28  C   UNL A   1      41.925  27.125  27.483  1.00  0.00     0.049 A 
ATOM     29  H   UNL A   1      42.425  28.067  29.285  1.00  0.00     0.167 HD
ATOM     30  C   UNL A   1      42.721  29.068  33.569  1.00  0.00     0.037 A 
ATOM     31  C   UNL A   1      42.887  26.181  27.335  1.00  0.00     0.037 A 
ATOM     32  C   UNL A   1      43.770  29.846  32.964  1.00  0.00     0.049 A 
ATOM     33  C   UNL A   1      43.972  26.489  28.300  1.00  0.00     0.074 A 
ATOM     34  C   UNL A   1      43.957  31.187  32.690  1.00  0.00     0.029 A 
ATOM     35  N   UNL A   1      44.727  29.189  32.232  1.00  0.00    -0.354 N 
ATOM     36  N   UNL A   1      44.753  27.528  28.208  1.00  0.00    -0.248 NA
ATOM     37  C   UNL A   1      43.894  25.878  29.619  1.00  0.00     0.031 C 
ATOM     38  C   UNL A   1      44.657  31.216  31.448  1.00  0.00     0.029 A 
ATOM     39  C   UNL A   1      44.896  29.895  31.070  1.00  0.00     0.049 A 
ATOM     40  H   UNL A   1      45.203  28.368  32.492  1.00  0.00     0.167 HD
ATOM     41  C   UNL A   1      44.917  27.959  29.516  1.00  0.00     0.074 A 
ATOM     42  C   UNL A   1      44.437  26.857  30.346  1.00  0.00     0.031 C 
ATOM     43  C   UNL A   1      45.161  29.272  29.798  1.00  0.00     0.037 A 
BRANCH  30  44
ATOM     44  C   UNL A   1      43.014  27.971  34.573  1.00  0.00     0.064 A 
ATOM     45  C   UNL A   1      43.381  28.333  35.887  1.00  0.00     0.173 A 
ATOM     46  C   UNL A   1      43.276  26.630  34.220  1.00  0.00     0.173 A 
ATOM     47  F   UNL A   1      43.174  29.580  36.338  1.00  0.00    -0.203 F 
ATOM     48  C   UNL A   1      44.071  27.456  36.729  1.00  0.00     0.198 A 
ATOM     49  C   UNL A   1      43.918  25.743  35.084  1.00  0.00     0.198 A 
ATOM     50  F   UNL A   1      43.029  26.148  32.998  1.00  0.00    -0.203 F 
ATOM     51  F   UNL A   1      44.532  27.894  37.909  1.00  0.00    -0.200 F 
ATOM     52  C   UNL A   1      44.353  26.167  36.321  1.00  0.00     0.200 A 
ATOM     53  F   UNL A   1      44.190  24.500  34.665  1.00  0.00    -0.200 F 
ATOM     54  F   UNL A   1      45.082  25.351  37.092  1.00  0.00    -0.200 F 
ENDBRANCH  30  44
BRANCH  31  55
ATOM     55  C   UNL A   1      42.771  24.859  26.673  1.00  0.00     0.064 A 
ATOM     56  C   UNL A   1      43.508  24.556  25.517  1.00  0.00     0.173 A 
ATOM     57  C   UNL A   1      42.145  23.774  27.318  1.00  0.00     0.173 A 
ATOM     58  F   UNL A   1      44.179  25.521  24.872  1.00  0.00    -0.203 F 
ATOM     59  C   UNL A   1      43.625  23.243  25.045  1.00  0.00     0.198 A 
ATOM     60  C   UNL A   1      42.256  22.467  26.843  1.00  0.00     0.198 A 
ATOM     61  F   UNL A   1      41.495  23.946  28.477  1.00  0.00    -0.203 F 
ATOM     62  F   UNL A   1      44.386  22.982  23.973  1.00  0.00    -0.200 F 
ATOM     63  C   UNL A   1      43.005  22.200  25.714  1.00  0.00     0.200 A 
ATOM     64  F   UNL A   1      41.685  21.463  27.522  1.00  0.00    -0.200 F 
ATOM     65  F   UNL A   1      43.166  20.935  25.297  1.00  0.00    -0.200 F 
ENDBRANCH  31  55
BRANCH  43  66
ATOM     66  C   UNL A   1      45.488  30.184  28.650  1.00  0.00     0.064 A 
ATOM     67  C   UNL A   1      44.518  30.832  27.866  1.00  0.00     0.173 A 
ATOM     68  C   UNL A   1      46.828  30.523  28.429  1.00  0.00     0.173 A 
ATOM     69  F   UNL A   1      43.212  30.642  28.088  1.00  0.00    -0.203 F 
ATOM     70  C   UNL A   1      44.879  31.741  26.874  1.00  0.00     0.198 A 
ATOM     71  C   UNL A   1      47.185  31.460  27.463  1.00  0.00     0.198 A 
ATOM     72  F   UNL A   1      47.793  29.983  29.190  1.00  0.00    -0.203 F 
ATOM     73  F   UNL A   1      43.934  32.339  26.132  1.00  0.00    -0.200 F 
ATOM     74  C   UNL A   1      46.212  32.059  26.678  1.00  0.00     0.200 A 
ATOM     75  F   UNL A   1      48.472  31.804  27.313  1.00  0.00    -0.200 F 
ATOM     76  F   UNL A   1      46.558  32.965  25.753  1.00  0.00    -0.200 F 
ENDBRANCH  43  66
ENDBRANCH  17  18
ENDBRANCH  10  12
ENDBRANCH   7   8
ENDBRANCH   6   7
ENDBRANCH   5   6
ENDBRANCH   1   5
BRANCH   2  77
ATOM     77  C   UNL A   1      31.864  27.631  23.675  1.00  0.00     0.223 C 
ATOM     78  C   UNL A   1      30.909  28.447  22.831  1.00  0.00     0.071 A 
ATOM     79  N   UNL A   1      31.019  26.964  24.709  1.00  0.00    -0.325 N 
ATOM     80  N   UNL A   1      31.198  29.521  22.032  1.00  0.00    -0.346 N 
ATOM     81  C   UNL A   1      29.540  28.333  22.782  1.00  0.00     0.066 A 
ATOM     82  C   UNL A   1      29.821  26.321  24.131  1.00  0.00     0.127 C 
ATOM     83  C   UNL A   1      30.000  30.047  21.623  1.00  0.00     0.197 A 
ATOM     84  H   UNL A   1      32.094  29.852  21.796  1.00  0.00     0.167 HD
ATOM     85  N   UNL A   1      28.979  29.332  22.044  1.00  0.00    -0.242 NA
ATOM     86  C   UNL A   1      28.799  27.328  23.567  1.00  0.00     0.080 C 
BRANCH  79  87
ATOM     87  C   UNL A   1      31.644  26.514  25.853  1.00  0.00     0.223 C 
ATOM     88  O   UNL A   1      31.337  27.012  26.946  1.00  0.00    -0.275 OA
BRANCH  87  89
ATOM     89  C   UNL A   1      32.697  25.392  25.886  1.00  0.00     0.100 C 
BRANCH  89  90
ATOM     90  C   UNL A   1      34.032  25.369  25.157  1.00  0.00     0.015 C 
BRANCH  90  91
ATOM     91  C   UNL A   1      34.215  24.773  23.770  1.00  0.00     0.038 C 
BRANCH  91  92
ATOM     92  C   UNL A   1      33.590  23.471  23.327  1.00  0.00    -0.023 A 
ATOM     93  C   UNL A   1      32.906  23.417  22.120  1.00  0.00     0.087 A 
ATOM     94  C   UNL A   1      33.605  22.100  23.802  1.00  0.00     0.003 A 
ATOM     95  N   UNL A   1      32.292  22.208  22.008  1.00  0.00    -0.361 N 
ATOM     96  C   UNL A   1      32.628  21.414  23.072  1.00  0.00     0.046 A 
ATOM     97  C   UNL A   1      34.324  21.321  24.740  1.00  0.00     0.010 A 
ATOM     98  H   UNL A   1      31.695  21.943  21.272  1.00  0.00     0.166 HD
ATOM     99  C   UNL A   1      32.186  20.122  23.386  1.00  0.00     0.026 A 
ATOM    100  C   UNL A   1      33.970  19.989  24.999  1.00  0.00     0.001 A 
ATOM    101  C   UNL A   1      32.878  19.417  24.368  1.00  0.00     0.002 A 
ENDBRANCH  91  92
ENDBRANCH  90  91
ENDBRANCH  89  90
ENDBRANCH  87  89
ENDBRANCH  79  87
ENDBRANCH   2  77
TORSDOF 15
ENDMDL
MODEL 3
REMARK VINA RESULT:     -14.1      1.414      2.064
REMARK SMILES O=C(NCCCNC(=O)[C@@H]1c2[nH]cnc2CCN1C(=O)CCCc1c[nH]c2ccccc12)c1ccc(-c2c3nc(c(-c4c(F)c(F)c(F)c(F)c4F)c4ccc([nH]4)c(-c4c(F)c(F)c(F)c(F)c4F)c4nc(c(-c5c(F)c(F)c(F)c(F)c5F)c5ccc2[nH]5)C=C4)C=C3)cc1
REMARK SMILES IDX 7 1 8 2 9 3 6 5 5 6 4 7 3 8 1 9 2 10 33 12 34 13 95 14 35 15
REMARK SMILES IDX 94 16 36 17 37 18 38 19 88 20 39 21 93 22 87 23 89 24 40 25
REMARK SMILES IDX 92 26 86 27 85 28 41 30 73 31 53 32 72 33 54 34 57 35 71 36
REMARK SMILES IDX 90 37 55 38 56 39 70 41 91 42 58 43 42 44 43 45 51 46 44 47
REMARK SMILES IDX 45 48 49 49 52 50 46 51 47 52 50 53 48 54 74 55 75 56 83 57
REMARK SMILES IDX 76 58 77 59 81 60 84 61 78 62 79 63 82 64 80 65 59 66 60 67
REMARK SMILES IDX 68 68 61 69 62 70 66 71 69 72 63 73 64 74 67 75 65 76 10 77
REMARK SMILES IDX 11 78 18 79 12 80 15 81 17 82 13 83 14 85 16 86 19 87 20 88
REMARK SMILES IDX 21 89 22 90 23 91 24 92 25 93 32 94 26 95 27 96 31 97 28 99
REMARK SMILES IDX 30 100 29 101
REMARK H PARENT 7 4 3 11 89 29 57 40 12 84 26 98
REMARK Flexibility Score: inf
ROOT
ATOM      1  N   UNL A   1      36.932  23.005  24.201  1.00  0.00    -0.354 N 
ATOM      2  C   UNL A   1      35.621  22.921  23.857  1.00  0.00     0.249 C 
ATOM      3  O   UNL A   1      35.381  22.992  22.643  1.00  0.00    -0.272 OA
ATOM      4  H   UNL A   1      37.555  23.021  23.439  1.00  0.00     0.163 HD
ENDROOT
BRANCH   1   5
ATOM      5  C   UNL A   1      37.567  23.071  25.498  1.00  0.00     0.117 C 
BRANCH   5   6
ATOM      6  C   UNL A   1      38.391  21.815  25.767  1.00  0.00     0.042 C 
BRANCH   6   7
ATOM      7  C   UNL A   1      39.655  22.083  26.590  1.00  0.00     0.118 C 
BRANCH   7   8
ATOM      8  N   UNL A   1      40.867  22.153  25.798  1.00  0.00    -0.352 N 
ATOM      9  O   UNL A   1      42.859  22.686  25.010  1.00  0.00    -0.269 OA
ATOM     10  C   UNL A   1      41.925  23.011  25.753  1.00  0.00     0.251 C 
ATOM     11  H   UNL A   1      40.942  21.418  25.148  1.00  0.00     0.163 HD
BRANCH  10  12
ATOM     12  C   UNL A   1      41.997  24.315  26.462  1.00  0.00     0.039 A 
ATOM     13  C   UNL A   1      42.720  24.571  27.630  1.00  0.00     0.014 A 
ATOM     14  C   UNL A   1      41.204  25.344  25.924  1.00  0.00     0.014 A 
ATOM     15  C   UNL A   1      42.563  25.773  28.307  1.00  0.00     0.010 A 
ATOM     16  C   UNL A   1      41.060  26.556  26.581  1.00  0.00     0.010 A 
ATOM     17  C   UNL A   1      41.704  26.746  27.799  1.00  0.00    -0.014 A 
BRANCH  17  18
ATOM     18  C   UNL A   1      41.599  28.009  28.517  1.00  0.00     0.031 A 
ATOM     19  C   UNL A   1      42.702  28.974  28.242  1.00  0.00     0.074 A 
ATOM     20  C   UNL A   1      40.519  28.331  29.253  1.00  0.00     0.049 A 
ATOM     21  N   UNL A   1      43.510  29.537  29.081  1.00  0.00    -0.248 NA
ATOM     22  C   UNL A   1      43.000  29.278  26.831  1.00  0.00     0.031 C 
ATOM     23  C   UNL A   1      39.255  27.600  29.368  1.00  0.00     0.029 A 
ATOM     24  N   UNL A   1      40.285  29.459  29.979  1.00  0.00    -0.354 N 
ATOM     25  C   UNL A   1      44.315  30.393  28.327  1.00  0.00     0.074 A 
ATOM     26  C   UNL A   1      44.050  30.092  26.946  1.00  0.00     0.031 C 
ATOM     27  C   UNL A   1      38.322  28.408  29.921  1.00  0.00     0.029 A 
ATOM     28  C   UNL A   1      38.953  29.658  30.312  1.00  0.00     0.049 A 
ATOM     29  H   UNL A   1      41.002  30.081  30.245  1.00  0.00     0.167 HD
ATOM     30  C   UNL A   1      44.978  31.435  28.900  1.00  0.00     0.037 A 
ATOM     31  C   UNL A   1      38.404  30.798  30.799  1.00  0.00     0.037 A 
ATOM     32  C   UNL A   1      45.147  31.233  30.315  1.00  0.00     0.049 A 
ATOM     33  C   UNL A   1      39.504  31.629  31.347  1.00  0.00     0.074 A 
ATOM     34  C   UNL A   1      45.789  30.292  31.096  1.00  0.00     0.029 A 
ATOM     35  N   UNL A   1      44.322  31.915  31.173  1.00  0.00    -0.354 N 
ATOM     36  N   UNL A   1      40.191  31.318  32.409  1.00  0.00    -0.248 NA
ATOM     37  C   UNL A   1      40.137  32.585  30.450  1.00  0.00     0.031 C 
ATOM     38  C   UNL A   1      44.951  30.128  32.239  1.00  0.00     0.029 A 
ATOM     39  C   UNL A   1      43.883  31.014  32.107  1.00  0.00     0.049 A 
ATOM     40  H   UNL A   1      44.090  32.871  31.128  1.00  0.00     0.167 HD
ATOM     41  C   UNL A   1      41.493  31.686  32.106  1.00  0.00     0.074 A 
ATOM     42  C   UNL A   1      41.384  32.537  30.923  1.00  0.00     0.031 C 
ATOM     43  C   UNL A   1      42.555  31.040  32.668  1.00  0.00     0.037 A 
BRANCH  30  44
ATOM     44  C   UNL A   1      45.124  32.802  28.263  1.00  0.00     0.064 A 
ATOM     45  C   UNL A   1      46.420  33.315  28.046  1.00  0.00     0.173 A 
ATOM     46  C   UNL A   1      44.078  33.746  28.173  1.00  0.00     0.173 A 
ATOM     47  F   UNL A   1      47.494  32.511  28.098  1.00  0.00    -0.203 F 
ATOM     48  C   UNL A   1      46.656  34.683  27.881  1.00  0.00     0.198 A 
ATOM     49  C   UNL A   1      44.315  35.103  27.957  1.00  0.00     0.198 A 
ATOM     50  F   UNL A   1      42.800  33.425  28.401  1.00  0.00    -0.203 F 
ATOM     51  F   UNL A   1      47.915  35.139  27.832  1.00  0.00    -0.200 F 
ATOM     52  C   UNL A   1      45.604  35.578  27.854  1.00  0.00     0.200 A 
ATOM     53  F   UNL A   1      43.281  35.955  27.943  1.00  0.00    -0.200 F 
ATOM     54  F   UNL A   1      45.830  36.895  27.778  1.00  0.00    -0.200 F 
ENDBRANCH  30  44
BRANCH  31  55
ATOM     55  C   UNL A   1      37.061  31.356  30.510  1.00  0.00     0.064 A 
ATOM     56  C   UNL A   1      36.145  31.622  31.541  1.00  0.00     0.173 A 
ATOM     57  C   UNL A   1      36.753  31.897  29.245  1.00  0.00     0.173 A 
ATOM     58  F   UNL A   1      36.387  31.191  32.786  1.00  0.00    -0.203 F 
ATOM     59  C   UNL A   1      34.999  32.397  31.321  1.00  0.00     0.198 A 
ATOM     60  C   UNL A   1      35.608  32.663  29.026  1.00  0.00     0.198 A 
ATOM     61  F   UNL A   1      37.608  31.776  28.220  1.00  0.00    -0.203 F 
ATOM     62  F   UNL A   1      34.178  32.681  32.343  1.00  0.00    -0.200 F 
ATOM     63  C   UNL A   1      34.737  32.923  30.067  1.00  0.00     0.200 A 
ATOM     64  F   UNL A   1      35.388  33.199  27.818  1.00  0.00    -0.200 F 
ATOM     65  F   UNL A   1      33.672  33.714  29.871  1.00  0.00    -0.200 F 
ENDBRANCH  31  55
BRANCH  43  66
ATOM     66  C   UNL A   1      42.278  30.093  33.800  1.00  0.00     0.064 A 
ATOM     67  C   UNL A   1      41.884  28.756  33.622  1.00  0.00     0.173 A 
ATOM     68  C   UNL A   1      42.560  30.515  35.105  1.00  0.00     0.173 A 
ATOM     69  F   UNL A   1      41.700  28.248  32.397  1.00  0.00    -0.203 F 
ATOM     70  C   UNL A   1      41.732  27.896  34.708  1.00  0.00     0.198 A 
ATOM     71  C   UNL A   1      42.443  29.643  36.185  1.00  0.00     0.198 A 
ATOM     72  F   UNL A   1      43.000  31.763  35.329  1.00  0.00    -0.203 F 
ATOM     73  F   UNL A   1      41.345  26.627  34.512  1.00  0.00    -0.200 F 
ATOM     74  C   UNL A   1      42.018  28.339  35.988  1.00  0.00     0.200 A 
ATOM     75  F   UNL A   1      42.772  30.061  37.416  1.00  0.00    -0.200 F 
ATOM     76  F   UNL A   1      41.913  27.501  37.028  1.00  0.00    -0.200 F 
ENDBRANCH  43  66
ENDBRANCH  17  18
ENDBRANCH  10  12
ENDBRANCH   7   8
ENDBRANCH   6   7
ENDBRANCH   5   6
ENDBRANCH   1   5
BRANCH   2  77
ATOM     77  C   UNL A   1      34.471  23.077  24.888  1.00  0.00     0.223 C 
ATOM     78  C   UNL A   1      33.789  21.727  24.941  1.00  0.00     0.071 A 
ATOM     79  N   UNL A   1      33.373  24.078  24.740  1.00  0.00    -0.325 N 
ATOM     80  N   UNL A   1      34.333  20.498  24.677  1.00  0.00    -0.346 N 
ATOM     81  C   UNL A   1      32.457  21.479  25.166  1.00  0.00     0.066 A 
ATOM     82  C   UNL A   1      32.270  23.852  25.697  1.00  0.00     0.127 C 
ATOM     83  C   UNL A   1      33.299  19.599  24.665  1.00  0.00     0.197 A 
ATOM     84  H   UNL A   1      35.285  20.299  24.524  1.00  0.00     0.167 HD
ATOM     85  N   UNL A   1      32.153  20.163  24.983  1.00  0.00    -0.242 NA
ATOM     86  C   UNL A   1      31.482  22.555  25.425  1.00  0.00     0.080 C 
BRANCH  79  87
ATOM     87  C   UNL A   1      33.702  25.321  24.242  1.00  0.00     0.223 C 
ATOM     88  O   UNL A   1      34.340  26.109  24.955  1.00  0.00    -0.275 OA
BRANCH  87  89
ATOM     89  C   UNL A   1      33.356  25.809  22.824  1.00  0.00     0.100 C 
BRANCH  89  90
ATOM     90  C   UNL A   1      31.974  25.886  22.194  1.00  0.00     0.015 C 
BRANCH  90  91
ATOM     91  C   UNL A   1      30.783  26.542  22.875  1.00  0.00     0.038 C 
BRANCH  91  92
ATOM     92  C   UNL A   1      30.868  27.833  23.655  1.00  0.00    -0.023 A 
ATOM     93  C   UNL A   1      30.400  29.009  23.082  1.00  0.00     0.087 A 
ATOM     94  C   UNL A   1      31.233  28.205  25.008  1.00  0.00     0.003 A 
ATOM     95  N   UNL A   1      30.729  30.058  23.884  1.00  0.00    -0.361 N 
ATOM     96  C   UNL A   1      31.325  29.601  25.029  1.00  0.00     0.046 A 
ATOM     97  C   UNL A   1      31.484  27.560  26.243  1.00  0.00     0.010 A 
ATOM     98  H   UNL A   1      30.563  31.005  23.672  1.00  0.00     0.166 HD
ATOM     99  C   UNL A   1      31.864  30.330  26.096  1.00  0.00     0.026 A 
ATOM    100  C   UNL A   1      31.925  28.281  27.362  1.00  0.00     0.001 A 
ATOM    101  C   UNL A   1      32.165  29.642  27.270  1.00  0.00     0.002 A 
ENDBRANCH  91  92
ENDBRANCH  90  91
ENDBRANCH  89  90
ENDBRANCH  87  89
ENDBRANCH  79  87
ENDBRANCH   2  77
TORSDOF 15
ENDMDL
