MODEL 1
REMARK VINA RESULT:     -12.7      0.000      0.000
REMARK SMILES CC(C)[NH2+][C@]1(C(=O)NCCCNC(=O)c2ccc(-c3c4nc(c(-c5c(F)c(F)c(F)c(F)c5F)c5ccc([nH]5)c(-c5c(F)c(F)c(F)c(F)c5F)c5nc(c(-c6c(F)c(F)c(F)c(F)c6F)c6ccc3[nH]6)C=C5)C=C4)cc2)CC[C@H]([NH+]2CCC(C)(C)CC2)C1
REMARK SMILES IDX 10 1 9 2 8 3 6 4 7 5 5 7 78 8 89 9 79 10 80 11 4 12 2 15
REMARK SMILES IDX 1 16 3 17 81 18 82 19 88 20 83 22 87 23 84 24 85 25 86 26
REMARK SMILES IDX 11 27 12 28 13 29 14 31 15 32 16 33 77 34 17 35 76 36 18 37
REMARK SMILES IDX 19 38 20 39 70 40 21 41 75 42 69 43 71 44 22 45 74 46 68 47
REMARK SMILES IDX 67 48 23 50 55 51 35 52 54 53 36 54 39 55 53 56 72 57 37 58
REMARK SMILES IDX 38 59 52 61 73 62 40 63 24 64 25 65 33 66 26 67 27 68 31 69
REMARK SMILES IDX 34 70 28 71 29 72 32 73 30 74 56 75 57 76 65 77 58 78 59 79
REMARK SMILES IDX 63 80 66 81 60 82 61 83 64 84 62 85 41 86 42 87 50 88 43 89
REMARK SMILES IDX 44 90 48 91 51 92 45 93 46 94 49 95 47 96
REMARK H PARENT 8 6 4 13 4 14 81 21 12 30 71 49 39 60
REMARK Flexibility Score: inf
ROOT
ATOM      1  C   UNL A   1      31.375  32.231  26.512  1.00  0.00     0.042 C 
ENDROOT
BRANCH   1   2
ATOM      2  C   UNL A   1      31.637  30.870  25.872  1.00  0.00     0.118 C 
BRANCH   2   3
ATOM      3  N   UNL A   1      30.619  30.573  24.892  1.00  0.00    -0.351 N 
ATOM      4  C   UNL A   1      30.572  29.666  23.888  1.00  0.00     0.281 C 
ATOM      5  O   UNL A   1      29.628  29.808  23.096  1.00  0.00    -0.268 OA
ATOM      6  H   UNL A   1      29.812  31.131  24.968  1.00  0.00     0.163 HD
BRANCH   4   7
ATOM      7  C   UNL A   1      31.494  28.410  23.784  1.00  0.00     0.181 C 
ATOM      8  C   UNL A   1      32.618  28.813  22.771  1.00  0.00     0.085 C 
ATOM      9  C   UNL A   1      32.391  27.981  24.956  1.00  0.00     0.144 C 
ATOM     10  C   UNL A   1      33.866  27.965  23.048  1.00  0.00     0.072 C 
ATOM     11  C   UNL A   1      33.651  27.279  24.401  1.00  0.00     0.191 C 
BRANCH   7  12
ATOM     12  N   UNL A   1      30.675  27.353  23.140  1.00  0.00    -0.331 N 
ATOM     13  H   UNL A   1      29.911  27.825  22.657  1.00  0.00     0.347 HD
ATOM     14  H   UNL A   1      31.354  26.847  22.570  1.00  0.00     0.347 HD
BRANCH  12  15
ATOM     15  C   UNL A   1      30.065  26.287  23.959  1.00  0.00     0.176 C 
ATOM     16  C   UNL A   1      28.549  26.547  23.903  1.00  0.00     0.075 C 
ATOM     17  C   UNL A   1      30.290  24.830  23.534  1.00  0.00     0.075 C 
ENDBRANCH  12  15
ENDBRANCH   7  12
BRANCH  11  18
ATOM     18  N   UNL A   1      33.612  25.797  24.437  1.00  0.00    -0.332 N 
ATOM     19  C   UNL A   1      34.426  25.242  25.529  1.00  0.00     0.263 C 
ATOM     20  C   UNL A   1      33.934  25.153  23.162  1.00  0.00     0.263 C 
ATOM     21  H   UNL A   1      32.635  25.572  24.623  1.00  0.00     0.348 HD
ATOM     22  C   UNL A   1      34.369  23.702  25.594  1.00  0.00     0.068 C 
ATOM     23  C   UNL A   1      33.820  23.637  23.185  1.00  0.00     0.068 C 
ATOM     24  C   UNL A   1      34.722  23.022  24.254  1.00  0.00    -0.025 C 
ATOM     25  C   UNL A   1      34.436  21.514  24.309  1.00  0.00     0.011 C 
ATOM     26  C   UNL A   1      36.206  23.225  23.898  1.00  0.00     0.011 C 
ENDBRANCH  11  18
ENDBRANCH   4   7
ENDBRANCH   2   3
ENDBRANCH   1   2
BRANCH   1  27
ATOM     27  C   UNL A   1      32.598  32.781  27.241  1.00  0.00     0.118 C 
BRANCH  27  28
ATOM     28  N   UNL A   1      32.433  34.188  27.584  1.00  0.00    -0.352 N 
ATOM     29  C   UNL A   1      33.006  34.917  28.595  1.00  0.00     0.251 C 
ATOM     30  H   UNL A   1      31.819  34.691  27.003  1.00  0.00     0.163 HD
ATOM     31  O   UNL A   1      32.546  36.010  28.901  1.00  0.00    -0.269 OA
BRANCH  29  32
ATOM     32  C   UNL A   1      34.181  34.381  29.309  1.00  0.00     0.039 A 
ATOM     33  C   UNL A   1      33.994  33.719  30.526  1.00  0.00     0.014 A 
ATOM     34  C   UNL A   1      35.465  34.560  28.791  1.00  0.00     0.014 A 
ATOM     35  C   UNL A   1      35.098  33.185  31.194  1.00  0.00     0.010 A 
ATOM     36  C   UNL A   1      36.550  33.957  29.413  1.00  0.00     0.010 A 
ATOM     37  C   UNL A   1      36.378  33.271  30.625  1.00  0.00    -0.014 A 
BRANCH  37  38
ATOM     38  C   UNL A   1      37.562  32.664  31.279  1.00  0.00     0.031 A 
ATOM     39  C   UNL A   1      38.290  31.535  30.605  1.00  0.00     0.074 A 
ATOM     40  C   UNL A   1      37.920  33.069  32.511  1.00  0.00     0.049 A 
ATOM     41  N   UNL A   1      39.266  30.790  31.059  1.00  0.00    -0.248 NA
ATOM     42  C   UNL A   1      37.839  31.173  29.252  1.00  0.00     0.031 C 
ATOM     43  C   UNL A   1      37.260  34.126  33.279  1.00  0.00     0.029 A 
ATOM     44  N   UNL A   1      38.917  32.626  33.344  1.00  0.00    -0.354 N 
ATOM     45  C   UNL A   1      39.529  29.863  30.058  1.00  0.00     0.074 A 
ATOM     46  C   UNL A   1      38.574  30.101  28.998  1.00  0.00     0.031 C 
ATOM     47  C   UNL A   1      37.879  34.262  34.462  1.00  0.00     0.029 A 
ATOM     48  C   UNL A   1      38.948  33.273  34.556  1.00  0.00     0.049 A 
ATOM     49  H   UNL A   1      39.549  31.913  33.097  1.00  0.00     0.167 HD
ATOM     50  C   UNL A   1      40.494  28.915  30.021  1.00  0.00     0.037 A 
ATOM     51  C   UNL A   1      39.739  33.075  35.627  1.00  0.00     0.037 A 
ATOM     52  C   UNL A   1      41.453  28.703  31.073  1.00  0.00     0.049 A 
ATOM     53  C   UNL A   1      40.795  32.006  35.565  1.00  0.00     0.074 A 
ATOM     54  C   UNL A   1      42.507  27.808  31.113  1.00  0.00     0.029 A 
ATOM     55  N   UNL A   1      41.469  29.394  32.276  1.00  0.00    -0.354 N 
ATOM     56  N   UNL A   1      41.078  31.176  34.590  1.00  0.00    -0.248 NA
ATOM     57  C   UNL A   1      41.648  31.848  36.751  1.00  0.00     0.031 C 
ATOM     58  C   UNL A   1      43.126  27.918  32.361  1.00  0.00     0.029 A 
ATOM     59  C   UNL A   1      42.502  28.930  33.074  1.00  0.00     0.049 A 
ATOM     60  H   UNL A   1      40.841  30.110  32.526  1.00  0.00     0.167 HD
ATOM     61  C   UNL A   1      42.161  30.425  35.026  1.00  0.00     0.074 A 
ATOM     62  C   UNL A   1      42.490  30.904  36.352  1.00  0.00     0.031 C 
ATOM     63  C   UNL A   1      42.825  29.432  34.386  1.00  0.00     0.037 A 
BRANCH  50  64
ATOM     64  C   UNL A   1      40.561  28.036  28.804  1.00  0.00     0.064 A 
ATOM     65  C   UNL A   1      39.854  26.826  28.727  1.00  0.00     0.173 A 
ATOM     66  C   UNL A   1      41.315  28.424  27.685  1.00  0.00     0.173 A 
ATOM     67  F   UNL A   1      39.127  26.401  29.772  1.00  0.00    -0.203 F 
ATOM     68  C   UNL A   1      39.926  26.022  27.592  1.00  0.00     0.198 A 
ATOM     69  C   UNL A   1      41.356  27.635  26.538  1.00  0.00     0.198 A 
ATOM     70  F   UNL A   1      42.006  29.574  27.701  1.00  0.00    -0.203 F 
ATOM     71  F   UNL A   1      39.287  24.845  27.565  1.00  0.00    -0.200 F 
ATOM     72  C   UNL A   1      40.669  26.432  26.496  1.00  0.00     0.200 A 
ATOM     73  F   UNL A   1      42.062  28.041  25.474  1.00  0.00    -0.200 F 
ATOM     74  F   UNL A   1      40.731  25.662  25.400  1.00  0.00    -0.200 F 
ENDBRANCH  50  64
BRANCH  51  75
ATOM     75  C   UNL A   1      39.576  33.922  36.838  1.00  0.00     0.064 A 
ATOM     76  C   UNL A   1      38.787  33.492  37.915  1.00  0.00     0.173 A 
ATOM     77  C   UNL A   1      40.199  35.174  36.947  1.00  0.00     0.173 A 
ATOM     78  F   UNL A   1      38.157  32.311  37.853  1.00  0.00    -0.203 F 
ATOM     79  C   UNL A   1      38.608  34.292  39.041  1.00  0.00     0.198 A 
ATOM     80  C   UNL A   1      40.045  35.958  38.087  1.00  0.00     0.198 A 
ATOM     81  F   UNL A   1      40.972  35.628  35.949  1.00  0.00    -0.203 F 
ATOM     82  F   UNL A   1      37.808  33.878  40.034  1.00  0.00    -0.200 F 
ATOM     83  C   UNL A   1      39.242  35.521  39.129  1.00  0.00     0.200 A 
ATOM     84  F   UNL A   1      40.674  37.138  38.176  1.00  0.00    -0.200 F 
ATOM     85  F   UNL A   1      39.073  36.289  40.215  1.00  0.00    -0.200 F 
ENDBRANCH  51  75
BRANCH  63  86
ATOM     86  C   UNL A   1      44.010  28.831  35.085  1.00  0.00     0.064 A 
ATOM     87  C   UNL A   1      45.304  29.345  34.927  1.00  0.00     0.173 A 
ATOM     88  C   UNL A   1      43.835  27.753  35.968  1.00  0.00     0.173 A 
ATOM     89  F   UNL A   1      45.527  30.364  34.083  1.00  0.00    -0.203 F 
ATOM     90  C   UNL A   1      46.383  28.787  35.607  1.00  0.00     0.198 A 
ATOM     91  C   UNL A   1      44.910  27.220  36.672  1.00  0.00     0.198 A 
ATOM     92  F   UNL A   1      42.615  27.228  36.161  1.00  0.00    -0.203 F 
ATOM     93  F   UNL A   1      47.619  29.264  35.404  1.00  0.00    -0.200 F 
ATOM     94  C   UNL A   1      46.184  27.733  36.486  1.00  0.00     0.200 A 
ATOM     95  F   UNL A   1      44.711  26.214  37.535  1.00  0.00    -0.200 F 
ATOM     96  F   UNL A   1      47.221  27.207  37.151  1.00  0.00    -0.200 F 
ENDBRANCH  63  86
ENDBRANCH  37  38
ENDBRANCH  29  32
ENDBRANCH  27  28
ENDBRANCH   1  27
TORSDOF 13
ENDMDL
MODEL 2
REMARK VINA RESULT:     -12.7      0.088      1.952
REMARK SMILES CC(C)[NH2+][C@]1(C(=O)NCCCNC(=O)c2ccc(-c3c4nc(c(-c5c(F)c(F)c(F)c(F)c5F)c5ccc([nH]5)c(-c5c(F)c(F)c(F)c(F)c5F)c5nc(c(-c6c(F)c(F)c(F)c(F)c6F)c6ccc3[nH]6)C=C5)C=C4)cc2)CC[C@H]([NH+]2CCC(C)(C)CC2)C1
REMARK SMILES IDX 10 1 9 2 8 3 6 4 7 5 5 7 78 8 89 9 79 10 80 11 4 12 2 15
REMARK SMILES IDX 1 16 3 17 81 18 82 19 88 20 83 22 87 23 84 24 85 25 86 26
REMARK SMILES IDX 11 27 12 28 13 29 14 31 15 32 16 33 77 34 17 35 76 36 18 37
REMARK SMILES IDX 19 38 20 39 70 40 21 41 75 42 69 43 71 44 22 45 74 46 68 47
REMARK SMILES IDX 67 48 23 50 55 51 35 52 54 53 36 54 39 55 53 56 72 57 37 58
REMARK SMILES IDX 38 59 52 61 73 62 40 63 24 64 25 65 33 66 26 67 27 68 31 69
REMARK SMILES IDX 34 70 28 71 29 72 32 73 30 74 56 75 57 76 65 77 58 78 59 79
REMARK SMILES IDX 63 80 66 81 60 82 61 83 64 84 62 85 41 86 42 87 50 88 43 89
REMARK SMILES IDX 44 90 48 91 51 92 45 93 46 94 49 95 47 96
REMARK H PARENT 8 6 4 13 4 14 81 21 12 30 71 49 39 60
REMARK Flexibility Score: inf
ROOT
ATOM      1  C   UNL A   1      31.371  32.244  26.529  1.00  0.00     0.042 C 
ENDROOT
BRANCH   1   2
ATOM      2  C   UNL A   1      31.628  30.883  25.890  1.00  0.00     0.118 C 
BRANCH   2   3
ATOM      3  N   UNL A   1      30.617  30.596  24.900  1.00  0.00    -0.351 N 
ATOM      4  C   UNL A   1      30.574  29.694  23.892  1.00  0.00     0.281 C 
ATOM      5  O   UNL A   1      29.637  29.844  23.092  1.00  0.00    -0.268 OA
ATOM      6  H   UNL A   1      29.812  31.157  24.973  1.00  0.00     0.163 HD
BRANCH   4   7
ATOM      7  C   UNL A   1      31.491  28.434  23.789  1.00  0.00     0.181 C 
ATOM      8  C   UNL A   1      32.621  28.833  22.782  1.00  0.00     0.085 C 
ATOM      9  C   UNL A   1      32.382  27.998  24.964  1.00  0.00     0.144 C 
ATOM     10  C   UNL A   1      33.864  27.980  23.061  1.00  0.00     0.072 C 
ATOM     11  C   UNL A   1      33.641  27.293  24.413  1.00  0.00     0.191 C 
BRANCH   7  12
ATOM     12  N   UNL A   1      30.671  27.381  23.140  1.00  0.00    -0.331 N 
ATOM     13  H   UNL A   1      29.912  27.858  22.653  1.00  0.00     0.347 HD
ATOM     14  H   UNL A   1      31.350  26.873  22.573  1.00  0.00     0.347 HD
BRANCH  12  15
ATOM     15  C   UNL A   1      30.050  26.318  23.955  1.00  0.00     0.176 C 
ATOM     16  C   UNL A   1      28.535  26.579  23.882  1.00  0.00     0.075 C 
ATOM     17  C   UNL A   1      30.278  24.860  23.535  1.00  0.00     0.075 C 
ENDBRANCH  12  15
ENDBRANCH   7  12
BRANCH  11  18
ATOM     18  N   UNL A   1      33.596  25.810  24.446  1.00  0.00    -0.332 N 
ATOM     19  C   UNL A   1      34.399  25.250  25.544  1.00  0.00     0.263 C 
ATOM     20  C   UNL A   1      33.925  25.167  23.173  1.00  0.00     0.263 C 
ATOM     21  H   UNL A   1      32.616  25.589  24.624  1.00  0.00     0.348 HD
ATOM     22  C   UNL A   1      34.335  23.711  25.605  1.00  0.00     0.068 C 
ATOM     23  C   UNL A   1      33.804  23.652  23.192  1.00  0.00     0.068 C 
ATOM     24  C   UNL A   1      34.695  23.031  24.267  1.00  0.00    -0.025 C 
ATOM     25  C   UNL A   1      34.403  21.524  24.317  1.00  0.00     0.011 C 
ATOM     26  C   UNL A   1      36.183  23.229  23.922  1.00  0.00     0.011 C 
ENDBRANCH  11  18
ENDBRANCH   4   7
ENDBRANCH   2   3
ENDBRANCH   1   2
BRANCH   1  27
ATOM     27  C   UNL A   1      32.603  32.803  27.236  1.00  0.00     0.118 C 
BRANCH  27  28
ATOM     28  N   UNL A   1      32.431  34.205  27.594  1.00  0.00    -0.352 N 
ATOM     29  C   UNL A   1      32.997  34.927  28.613  1.00  0.00     0.251 C 
ATOM     30  H   UNL A   1      31.815  34.711  27.017  1.00  0.00     0.163 HD
ATOM     31  O   UNL A   1      32.530  36.013  28.931  1.00  0.00    -0.269 OA
BRANCH  29  32
ATOM     32  C   UNL A   1      34.173  34.389  29.325  1.00  0.00     0.039 A 
ATOM     33  C   UNL A   1      33.989  33.721  30.538  1.00  0.00     0.014 A 
ATOM     34  C   UNL A   1      35.457  34.573  28.806  1.00  0.00     0.014 A 
ATOM     35  C   UNL A   1      35.093  33.186  31.203  1.00  0.00     0.010 A 
ATOM     36  C   UNL A   1      36.543  33.968  29.426  1.00  0.00     0.010 A 
ATOM     37  C   UNL A   1      36.373  33.277  30.634  1.00  0.00    -0.014 A 
BRANCH  37  38
ATOM     38  C   UNL A   1      37.558  32.668  31.284  1.00  0.00     0.031 A 
ATOM     39  C   UNL A   1      38.278  31.532  30.612  1.00  0.00     0.074 A 
ATOM     40  C   UNL A   1      37.925  33.078  32.512  1.00  0.00     0.049 A 
ATOM     41  N   UNL A   1      39.254  30.786  31.065  1.00  0.00    -0.248 NA
ATOM     42  C   UNL A   1      37.817  31.165  29.264  1.00  0.00     0.031 C 
ATOM     43  C   UNL A   1      37.273  34.142  33.278  1.00  0.00     0.029 A 
ATOM     44  N   UNL A   1      38.925  32.636  33.342  1.00  0.00    -0.354 N 
ATOM     45  C   UNL A   1      39.507  29.853  30.067  1.00  0.00     0.074 A 
ATOM     46  C   UNL A   1      38.547  30.089  29.012  1.00  0.00     0.031 C 
ATOM     47  C   UNL A   1      37.901  34.282  34.457  1.00  0.00     0.029 A 
ATOM     48  C   UNL A   1      38.965  33.289  34.550  1.00  0.00     0.049 A 
ATOM     49  H   UNL A   1      39.552  31.919  33.095  1.00  0.00     0.167 HD
ATOM     50  C   UNL A   1      40.468  28.901  30.030  1.00  0.00     0.037 A 
ATOM     51  C   UNL A   1      39.762  33.094  35.617  1.00  0.00     0.037 A 
ATOM     52  C   UNL A   1      41.432  28.690  31.078  1.00  0.00     0.049 A 
ATOM     53  C   UNL A   1      40.814  32.020  35.555  1.00  0.00     0.074 A 
ATOM     54  C   UNL A   1      42.482  27.791  31.116  1.00  0.00     0.029 A 
ATOM     55  N   UNL A   1      41.458  29.388  32.277  1.00  0.00    -0.354 N 
ATOM     56  N   UNL A   1      41.087  31.184  34.583  1.00  0.00    -0.248 NA
ATOM     57  C   UNL A   1      41.673  31.865  36.737  1.00  0.00     0.031 C 
ATOM     58  C   UNL A   1      43.110  27.906  32.360  1.00  0.00     0.029 A 
ATOM     59  C   UNL A   1      42.494  28.924  33.071  1.00  0.00     0.049 A 
ATOM     60  H   UNL A   1      40.834  30.108  32.526  1.00  0.00     0.167 HD
ATOM     61  C   UNL A   1      42.170  30.431  35.017  1.00  0.00     0.074 A 
ATOM     62  C   UNL A   1      42.509  30.916  36.339  1.00  0.00     0.031 C 
ATOM     63  C   UNL A   1      42.826  29.432  34.379  1.00  0.00     0.037 A 
BRANCH  50  64
ATOM     64  C   UNL A   1      40.525  28.015  28.818  1.00  0.00     0.064 A 
ATOM     65  C   UNL A   1      41.296  28.349  27.694  1.00  0.00     0.173 A 
ATOM     66  C   UNL A   1      39.826  26.798  28.792  1.00  0.00     0.173 A 
ATOM     67  F   UNL A   1      41.976  29.505  27.660  1.00  0.00    -0.203 F 
ATOM     68  C   UNL A   1      41.339  27.516  26.578  1.00  0.00     0.198 A 
ATOM     69  C   UNL A   1      39.899  25.951  27.688  1.00  0.00     0.198 A 
ATOM     70  F   UNL A   1      39.077  26.424  29.841  1.00  0.00    -0.203 F 
ATOM     71  F   UNL A   1      42.037  27.885  25.495  1.00  0.00    -0.200 F 
ATOM     72  C   UNL A   1      40.647  26.315  26.580  1.00  0.00     0.200 A 
ATOM     73  F   UNL A   1      39.242  24.783  27.699  1.00  0.00    -0.200 F 
ATOM     74  F   UNL A   1      40.695  25.510  25.509  1.00  0.00    -0.200 F 
ENDBRANCH  50  64
BRANCH  51  75
ATOM     75  C   UNL A   1      39.610  33.948  36.825  1.00  0.00     0.064 A 
ATOM     76  C   UNL A   1      40.253  35.191  36.912  1.00  0.00     0.173 A 
ATOM     77  C   UNL A   1      38.824  33.544  37.914  1.00  0.00     0.173 A 
ATOM     78  F   UNL A   1      41.030  35.615  35.905  1.00  0.00    -0.203 F 
ATOM     79  C   UNL A   1      40.137  35.984  38.052  1.00  0.00     0.198 A 
ATOM     80  C   UNL A   1      38.683  34.352  39.040  1.00  0.00     0.198 A 
ATOM     81  F   UNL A   1      38.179  32.369  37.878  1.00  0.00    -0.203 F 
ATOM     82  F   UNL A   1      40.804  37.144  38.129  1.00  0.00    -0.200 F 
ATOM     83  C   UNL A   1      39.348  35.567  39.112  1.00  0.00     0.200 A 
ATOM     84  F   UNL A   1      37.904  33.954  40.055  1.00  0.00    -0.200 F 
ATOM     85  F   UNL A   1      39.232  36.332  40.206  1.00  0.00    -0.200 F 
ENDBRANCH  51  75
BRANCH  63  86
ATOM     86  C   UNL A   1      44.013  28.830  35.074  1.00  0.00     0.064 A 
ATOM     87  C   UNL A   1      43.895  27.712  35.911  1.00  0.00     0.173 A 
ATOM     88  C   UNL A   1      45.298  29.353  34.854  1.00  0.00     0.173 A 
ATOM     89  F   UNL A   1      42.688  27.184  36.165  1.00  0.00    -0.203 F 
ATOM     90  C   UNL A   1      45.015  27.155  36.522  1.00  0.00     0.198 A 
ATOM     91  C   UNL A   1      46.419  28.773  35.439  1.00  0.00     0.198 A 
ATOM     92  F   UNL A   1      45.467  30.418  34.055  1.00  0.00    -0.203 F 
ATOM     93  F   UNL A   1      44.872  26.116  37.358  1.00  0.00    -0.200 F 
ATOM     94  C   UNL A   1      46.275  27.679  36.279  1.00  0.00     0.200 A 
ATOM     95  F   UNL A   1      47.637  29.270  35.187  1.00  0.00    -0.200 F 
ATOM     96  F   UNL A   1      47.353  27.133  36.857  1.00  0.00    -0.200 F 
ENDBRANCH  63  86
ENDBRANCH  37  38
ENDBRANCH  29  32
ENDBRANCH  27  28
ENDBRANCH   1  27
TORSDOF 13
ENDMDL
MODEL 3
REMARK VINA RESULT:     -12.7      0.052      1.128
REMARK SMILES CC(C)[NH2+][C@]1(C(=O)NCCCNC(=O)c2ccc(-c3c4nc(c(-c5c(F)c(F)c(F)c(F)c5F)c5ccc([nH]5)c(-c5c(F)c(F)c(F)c(F)c5F)c5nc(c(-c6c(F)c(F)c(F)c(F)c6F)c6ccc3[nH]6)C=C5)C=C4)cc2)CC[C@H]([NH+]2CCC(C)(C)CC2)C1
REMARK SMILES IDX 10 1 9 2 8 3 6 4 7 5 5 7 78 8 89 9 79 10 80 11 4 12 2 15
REMARK SMILES IDX 1 16 3 17 81 18 82 19 88 20 83 22 87 23 84 24 85 25 86 26
REMARK SMILES IDX 11 27 12 28 13 29 14 31 15 32 16 33 77 34 17 35 76 36 18 37
REMARK SMILES IDX 19 38 20 39 70 40 21 41 75 42 69 43 71 44 22 45 74 46 68 47
REMARK SMILES IDX 67 48 23 50 55 51 35 52 54 53 36 54 39 55 53 56 72 57 37 58
REMARK SMILES IDX 38 59 52 61 73 62 40 63 24 64 25 65 33 66 26 67 27 68 31 69
REMARK SMILES IDX 34 70 28 71 29 72 32 73 30 74 56 75 57 76 65 77 58 78 59 79
REMARK SMILES IDX 63 80 66 81 60 82 61 83 64 84 62 85 41 86 42 87 50 88 43 89
REMARK SMILES IDX 44 90 48 91 51 92 45 93 46 94 49 95 47 96
REMARK H PARENT 8 6 4 13 4 14 81 21 12 30 71 49 39 60
REMARK Flexibility Score: inf
ROOT
ATOM      1  C   UNL A   1      31.380  32.244  26.518  1.00  0.00     0.042 C 
ENDROOT
BRANCH   1   2
ATOM      2  C   UNL A   1      31.646  30.890  25.867  1.00  0.00     0.118 C 
BRANCH   2   3
ATOM      3  N   UNL A   1      30.616  30.590  24.899  1.00  0.00    -0.351 N 
ATOM      4  C   UNL A   1      30.558  29.679  23.899  1.00  0.00     0.281 C 
ATOM      5  O   UNL A   1      29.605  29.819  23.117  1.00  0.00    -0.268 OA
ATOM      6  H   UNL A   1      29.811  31.149  24.982  1.00  0.00     0.163 HD
BRANCH   4   7
ATOM      7  C   UNL A   1      31.478  28.422  23.790  1.00  0.00     0.181 C 
ATOM      8  C   UNL A   1      32.602  28.827  22.779  1.00  0.00     0.085 C 
ATOM      9  C   UNL A   1      32.374  27.986  24.960  1.00  0.00     0.144 C 
ATOM     10  C   UNL A   1      33.849  27.977  23.051  1.00  0.00     0.072 C 
ATOM     11  C   UNL A   1      33.633  27.285  24.402  1.00  0.00     0.191 C 
BRANCH   7  12
ATOM     12  N   UNL A   1      30.657  27.369  23.141  1.00  0.00    -0.331 N 
ATOM     13  H   UNL A   1      29.895  27.845  22.659  1.00  0.00     0.347 HD
ATOM     14  H   UNL A   1      31.335  26.864  22.570  1.00  0.00     0.347 HD
BRANCH  12  15
ATOM     15  C   UNL A   1      30.043  26.302  23.956  1.00  0.00     0.176 C 
ATOM     16  C   UNL A   1      28.527  26.559  23.889  1.00  0.00     0.075 C 
ATOM     17  C   UNL A   1      30.274  24.846  23.532  1.00  0.00     0.075 C 
ENDBRANCH  12  15
ENDBRANCH   7  12
BRANCH  11  18
ATOM     18  N   UNL A   1      33.592  25.802  24.431  1.00  0.00    -0.332 N 
ATOM     19  C   UNL A   1      34.400  25.242  25.525  1.00  0.00     0.263 C 
ATOM     20  C   UNL A   1      33.918  25.164  23.155  1.00  0.00     0.263 C 
ATOM     21  H   UNL A   1      32.613  25.579  24.612  1.00  0.00     0.348 HD
ATOM     22  C   UNL A   1      34.341  23.702  25.582  1.00  0.00     0.068 C 
ATOM     23  C   UNL A   1      33.802  23.648  23.171  1.00  0.00     0.068 C 
ATOM     24  C   UNL A   1      34.698  23.027  24.241  1.00  0.00    -0.025 C 
ATOM     25  C   UNL A   1      34.410  21.519  24.288  1.00  0.00     0.011 C 
ATOM     26  C   UNL A   1      36.184  23.229  23.892  1.00  0.00     0.011 C 
ENDBRANCH  11  18
ENDBRANCH   4   7
ENDBRANCH   2   3
ENDBRANCH   1   2
BRANCH   1  27
ATOM     27  C   UNL A   1      32.605  32.795  27.243  1.00  0.00     0.118 C 
BRANCH  27  28
ATOM     28  N   UNL A   1      32.434  34.198  27.603  1.00  0.00    -0.352 N 
ATOM     29  C   UNL A   1      33.003  34.918  28.621  1.00  0.00     0.251 C 
ATOM     30  H   UNL A   1      31.815  34.704  27.029  1.00  0.00     0.163 HD
ATOM     31  O   UNL A   1      32.538  36.005  28.941  1.00  0.00    -0.269 OA
BRANCH  29  32
ATOM     32  C   UNL A   1      34.182  34.381  29.327  1.00  0.00     0.039 A 
ATOM     33  C   UNL A   1      34.001  33.702  30.535  1.00  0.00     0.014 A 
ATOM     34  C   UNL A   1      35.465  34.575  28.810  1.00  0.00     0.014 A 
ATOM     35  C   UNL A   1      35.109  33.167  31.196  1.00  0.00     0.010 A 
ATOM     36  C   UNL A   1      36.555  33.971  29.424  1.00  0.00     0.010 A 
ATOM     37  C   UNL A   1      36.388  33.268  30.627  1.00  0.00    -0.014 A 
BRANCH  37  38
ATOM     38  C   UNL A   1      37.576  32.660  31.272  1.00  0.00     0.031 A 
ATOM     39  C   UNL A   1      38.300  31.532  30.591  1.00  0.00     0.074 A 
ATOM     40  C   UNL A   1      37.942  33.063  32.503  1.00  0.00     0.049 A 
ATOM     41  N   UNL A   1      39.280  30.787  31.038  1.00  0.00    -0.248 NA
ATOM     42  C   UNL A   1      37.840  31.172  29.241  1.00  0.00     0.031 C 
ATOM     43  C   UNL A   1      37.287  34.118  33.277  1.00  0.00     0.029 A 
ATOM     44  N   UNL A   1      38.944  32.619  33.328  1.00  0.00    -0.354 N 
ATOM     45  C   UNL A   1      39.536  29.862  30.034  1.00  0.00     0.074 A 
ATOM     46  C   UNL A   1      38.574  30.102  28.980  1.00  0.00     0.031 C 
ATOM     47  C   UNL A   1      37.914  34.253  34.456  1.00  0.00     0.029 A 
ATOM     48  C   UNL A   1      38.983  33.264  34.542  1.00  0.00     0.049 A 
ATOM     49  H   UNL A   1      39.575  31.907  33.076  1.00  0.00     0.167 HD
ATOM     50  C   UNL A   1      40.502  28.915  29.989  1.00  0.00     0.037 A 
ATOM     51  C   UNL A   1      39.781  33.065  35.607  1.00  0.00     0.037 A 
ATOM     52  C   UNL A   1      41.467  28.701  31.034  1.00  0.00     0.049 A 
ATOM     53  C   UNL A   1      40.837  31.995  35.535  1.00  0.00     0.074 A 
ATOM     54  C   UNL A   1      42.521  27.806  31.065  1.00  0.00     0.029 A 
ATOM     55  N   UNL A   1      41.491  29.390  32.238  1.00  0.00    -0.354 N 
ATOM     56  N   UNL A   1      41.114  31.168  34.557  1.00  0.00    -0.248 NA
ATOM     57  C   UNL A   1      41.699  31.836  36.716  1.00  0.00     0.031 C 
ATOM     58  C   UNL A   1      43.149  27.915  32.310  1.00  0.00     0.029 A 
ATOM     59  C   UNL A   1      42.529  28.924  33.029  1.00  0.00     0.049 A 
ATOM     60  H   UNL A   1      40.864  30.105  32.493  1.00  0.00     0.167 HD
ATOM     61  C   UNL A   1      42.200  30.416  34.985  1.00  0.00     0.074 A 
ATOM     62  C   UNL A   1      42.538  30.893  36.310  1.00  0.00     0.031 C 
ATOM     63  C   UNL A   1      42.861  29.424  34.340  1.00  0.00     0.037 A 
BRANCH  50  64
ATOM     64  C   UNL A   1      40.561  28.038  28.770  1.00  0.00     0.064 A 
ATOM     65  C   UNL A   1      41.336  28.380  27.651  1.00  0.00     0.173 A 
ATOM     66  C   UNL A   1      39.862  26.821  28.733  1.00  0.00     0.173 A 
ATOM     67  F   UNL A   1      42.015  29.536  27.627  1.00  0.00    -0.203 F 
ATOM     68  C   UNL A   1      41.381  27.556  26.529  1.00  0.00     0.198 A 
ATOM     69  C   UNL A   1      39.937  25.983  27.624  1.00  0.00     0.198 A 
ATOM     70  F   UNL A   1      39.111  26.440  29.778  1.00  0.00    -0.203 F 
ATOM     71  F   UNL A   1      42.082  27.932  25.451  1.00  0.00    -0.200 F 
ATOM     72  C   UNL A   1      40.689  26.355  26.520  1.00  0.00     0.200 A 
ATOM     73  F   UNL A   1      39.281  24.815  27.624  1.00  0.00    -0.200 F 
ATOM     74  F   UNL A   1      40.739  25.557  25.443  1.00  0.00    -0.200 F 
ENDBRANCH  50  64
BRANCH  51  75
ATOM     75  C   UNL A   1      39.626  33.909  36.820  1.00  0.00     0.064 A 
ATOM     76  C   UNL A   1      38.851  33.474  37.905  1.00  0.00     0.173 A 
ATOM     77  C   UNL A   1      40.243  35.164  36.924  1.00  0.00     0.173 A 
ATOM     78  F   UNL A   1      38.227  32.289  37.848  1.00  0.00    -0.203 F 
ATOM     79  C   UNL A   1      38.679  34.271  39.034  1.00  0.00     0.198 A 
ATOM     80  C   UNL A   1      40.097  35.947  38.067  1.00  0.00     0.198 A 
ATOM     81  F   UNL A   1      41.004  35.624  35.919  1.00  0.00    -0.203 F 
ATOM     82  F   UNL A   1      37.891  33.852  40.034  1.00  0.00    -0.200 F 
ATOM     83  C   UNL A   1      39.306  35.504  39.116  1.00  0.00     0.200 A 
ATOM     84  F   UNL A   1      40.720  37.130  38.150  1.00  0.00    -0.200 F 
ATOM     85  F   UNL A   1      39.145  36.270  40.205  1.00  0.00    -0.200 F 
ENDBRANCH  51  75
BRANCH  63  86
ATOM     86  C   UNL A   1      44.050  28.822  35.029  1.00  0.00     0.064 A 
ATOM     87  C   UNL A   1      45.343  29.340  34.867  1.00  0.00     0.173 A 
ATOM     88  C   UNL A   1      43.882  27.740  35.908  1.00  0.00     0.173 A 
ATOM     89  F   UNL A   1      45.559  30.363  34.027  1.00  0.00    -0.203 F 
ATOM     90  C   UNL A   1      46.426  28.781  35.539  1.00  0.00     0.198 A 
ATOM     91  C   UNL A   1      44.961  27.207  36.605  1.00  0.00     0.198 A 
ATOM     92  F   UNL A   1      42.664  27.212  36.105  1.00  0.00    -0.203 F 
ATOM     93  F   UNL A   1      47.661  29.261  35.331  1.00  0.00    -0.200 F 
ATOM     94  C   UNL A   1      46.234  27.723  36.414  1.00  0.00     0.200 A 
ATOM     95  F   UNL A   1      44.769  26.196  37.464  1.00  0.00    -0.200 F 
ATOM     96  F   UNL A   1      47.275  27.196  37.071  1.00  0.00    -0.200 F 
ENDBRANCH  63  86
ENDBRANCH  37  38
ENDBRANCH  29  32
ENDBRANCH  27  28
ENDBRANCH   1  27
TORSDOF 13
ENDMDL
