MODEL 1
REMARK VINA RESULT:     -12.2      0.000      0.000
REMARK SMILES O=C(CC1CC[NH+](C[C@H]2Cc3ccccc3O2)CC1)NCCCNC(=O)c1ccc(-c2c3nc(c(-c4c(F)c(F)c(F)c(F)c4F)c4ccc([nH]4)c(-c4c(F)c(F)c(F)c(F)c4F)c4nc(c(-c5c(F)c(F)c(F)c(F)c5F)c5ccc2[nH]5)C=C4)C=C3)cc1
REMARK SMILES IDX 21 1 20 2 1 3 2 4 3 6 4 7 5 8 19 9 6 10 18 11 7 12 8 14 9 15
REMARK SMILES IDX 10 16 17 17 11 18 16 19 12 20 15 21 13 22 14 23 22 24 23 25
REMARK SMILES IDX 24 26 25 27 26 29 27 30 28 31 89 32 29 33 88 34 30 35 31 36
REMARK SMILES IDX 32 37 82 38 33 39 87 40 81 41 83 42 34 43 86 44 80 45 79 46
REMARK SMILES IDX 35 48 67 49 47 50 66 51 48 52 51 53 65 54 84 55 49 56 50 57
REMARK SMILES IDX 64 59 85 60 52 61 36 62 37 63 45 64 38 65 39 66 43 67 46 68
REMARK SMILES IDX 40 69 41 70 44 71 42 72 68 73 69 74 77 75 70 76 71 77 75 78
REMARK SMILES IDX 78 79 72 80 73 81 76 82 74 83 53 84 54 85 62 86 55 87 56 88
REMARK SMILES IDX 60 89 63 90 57 91 58 92 61 93 59 94
REMARK H PARENT 20 5 7 13 24 28 83 47 51 58
REMARK Flexibility Score: inf
ROOT
ATOM      1  C   UNL A   1      34.237  33.376  28.960  1.00  0.00     0.117 C 
ENDROOT
BRANCH   1   2
ATOM      2  N   UNL A   1      33.868  32.123  28.338  1.00  0.00    -0.356 N 
ATOM      3  O   UNL A   1      36.000  31.587  27.684  1.00  0.00    -0.275 OA
ATOM      4  C   UNL A   1      34.800  31.335  27.706  1.00  0.00     0.220 C 
ATOM      5  H   UNL A   1      32.929  31.829  28.368  1.00  0.00     0.163 HD
BRANCH   4   6
ATOM      6  C   UNL A   1      34.193  30.196  26.922  1.00  0.00     0.104 C 
BRANCH   6   7
ATOM      7  C   UNL A   1      32.861  29.636  27.462  1.00  0.00     0.009 C 
ATOM      8  C   UNL A   1      32.752  28.120  27.240  1.00  0.00     0.066 C 
ATOM      9  C   UNL A   1      31.655  30.262  26.747  1.00  0.00     0.066 C 
ATOM     10  C   UNL A   1      32.704  27.746  25.750  1.00  0.00     0.262 C 
ATOM     11  C   UNL A   1      31.659  29.943  25.248  1.00  0.00     0.262 C 
ATOM     12  N   UNL A   1      31.753  28.520  24.951  1.00  0.00    -0.332 N 
ATOM     13  H   UNL A   1      30.850  28.176  25.278  1.00  0.00     0.348 HD
BRANCH  12  14
ATOM     14  C   UNL A   1      31.813  28.209  23.504  1.00  0.00     0.308 C 
BRANCH  14  15
ATOM     15  C   UNL A   1      30.585  28.257  22.530  1.00  0.00     0.232 C 
ATOM     16  C   UNL A   1      29.184  28.085  23.140  1.00  0.00     0.090 C 
ATOM     17  O   UNL A   1      30.594  29.452  21.704  1.00  0.00    -0.484 OA
ATOM     18  C   UNL A   1      28.675  29.467  22.995  1.00  0.00    -0.002 A 
ATOM     19  C   UNL A   1      29.496  30.163  22.122  1.00  0.00     0.123 A 
ATOM     20  C   UNL A   1      27.570  30.075  23.563  1.00  0.00     0.007 A 
ATOM     21  C   UNL A   1      29.261  31.482  21.789  1.00  0.00     0.047 A 
ATOM     22  C   UNL A   1      27.330  31.422  23.264  1.00  0.00     0.001 A 
ATOM     23  C   UNL A   1      28.171  32.121  22.382  1.00  0.00     0.004 A 
ENDBRANCH  14  15
ENDBRANCH  12  14
ENDBRANCH   6   7
ENDBRANCH   4   6
ENDBRANCH   1   2
BRANCH   1  24
ATOM     24  C   UNL A   1      33.237  34.484  28.658  1.00  0.00     0.042 C 
BRANCH  24  25
ATOM     25  C   UNL A   1      33.508  35.796  29.386  1.00  0.00     0.118 C 
BRANCH  25  26
ATOM     26  N   UNL A   1      32.597  36.034  30.494  1.00  0.00    -0.352 N 
ATOM     27  C   UNL A   1      32.674  35.628  31.803  1.00  0.00     0.251 C 
ATOM     28  H   UNL A   1      31.803  36.571  30.272  1.00  0.00     0.163 HD
ATOM     29  O   UNL A   1      31.717  35.799  32.553  1.00  0.00    -0.269 OA
BRANCH  27  30
ATOM     30  C   UNL A   1      33.892  34.960  32.308  1.00  0.00     0.039 A 
ATOM     31  C   UNL A   1      33.789  33.650  32.785  1.00  0.00     0.014 A 
ATOM     32  C   UNL A   1      35.126  35.616  32.325  1.00  0.00     0.014 A 
ATOM     33  C   UNL A   1      34.934  32.975  33.209  1.00  0.00     0.010 A 
ATOM     34  C   UNL A   1      36.278  34.914  32.670  1.00  0.00     0.010 A 
ATOM     35  C   UNL A   1      36.195  33.587  33.116  1.00  0.00    -0.014 A 
BRANCH  35  36
ATOM     36  C   UNL A   1      37.434  32.843  33.463  1.00  0.00     0.031 A 
ATOM     37  C   UNL A   1      38.166  33.134  34.742  1.00  0.00     0.074 A 
ATOM     38  C   UNL A   1      37.932  31.944  32.591  1.00  0.00     0.049 A 
ATOM     39  N   UNL A   1      39.286  32.625  35.190  1.00  0.00    -0.248 NA
ATOM     40  C   UNL A   1      37.576  34.151  35.628  1.00  0.00     0.031 C 
ATOM     41  C   UNL A   1      37.342  31.610  31.293  1.00  0.00     0.029 A 
ATOM     42  N   UNL A   1      39.051  31.153  32.659  1.00  0.00    -0.354 N 
ATOM     43  C   UNL A   1      39.538  33.263  36.397  1.00  0.00     0.074 A 
ATOM     44  C   UNL A   1      38.487  34.239  36.585  1.00  0.00     0.031 C 
ATOM     45  C   UNL A   1      38.088  30.664  30.700  1.00  0.00     0.029 A 
ATOM     46  C   UNL A   1      39.231  30.356  31.555  1.00  0.00     0.049 A 
ATOM     47  H   UNL A   1      39.668  31.156  33.427  1.00  0.00     0.167 HD
ATOM     48  C   UNL A   1      40.541  33.039  37.279  1.00  0.00     0.037 A 
ATOM     49  C   UNL A   1      40.211  29.481  31.258  1.00  0.00     0.037 A 
ATOM     50  C   UNL A   1      41.576  32.055  37.095  1.00  0.00     0.049 A 
ATOM     51  C   UNL A   1      41.323  29.263  32.249  1.00  0.00     0.074 A 
ATOM     52  C   UNL A   1      42.603  31.712  37.958  1.00  0.00     0.029 A 
ATOM     53  N   UNL A   1      41.721  31.260  35.967  1.00  0.00    -0.354 N 
ATOM     54  N   UNL A   1      41.508  29.820  33.421  1.00  0.00    -0.248 NA
ATOM     55  C   UNL A   1      42.357  28.287  31.879  1.00  0.00     0.031 C 
ATOM     56  C   UNL A   1      43.402  30.752  37.328  1.00  0.00     0.029 A 
ATOM     57  C   UNL A   1      42.837  30.448  36.099  1.00  0.00     0.049 A 
ATOM     58  H   UNL A   1      41.119  31.270  35.188  1.00  0.00     0.167 HD
ATOM     59  C   UNL A   1      42.660  29.243  33.940  1.00  0.00     0.074 A 
ATOM     60  C   UNL A   1      43.120  28.279  32.962  1.00  0.00     0.031 C 
ATOM     61  C   UNL A   1      43.281  29.488  35.120  1.00  0.00     0.037 A 
BRANCH  48  62
ATOM     62  C   UNL A   1      40.570  33.874  38.528  1.00  0.00     0.064 A 
ATOM     63  C   UNL A   1      39.847  33.511  39.676  1.00  0.00     0.173 A 
ATOM     64  C   UNL A   1      41.362  35.031  38.594  1.00  0.00     0.173 A 
ATOM     65  F   UNL A   1      39.067  32.420  39.665  1.00  0.00    -0.203 F 
ATOM     66  C   UNL A   1      39.893  34.291  40.829  1.00  0.00     0.198 A 
ATOM     67  C   UNL A   1      41.432  35.789  39.759  1.00  0.00     0.198 A 
ATOM     68  F   UNL A   1      42.079  35.422  37.529  1.00  0.00    -0.203 F 
ATOM     69  F   UNL A   1      39.152  33.952  41.894  1.00  0.00    -0.200 F 
ATOM     70  C   UNL A   1      40.691  35.424  40.873  1.00  0.00     0.200 A 
ATOM     71  F   UNL A   1      42.216  36.875  39.805  1.00  0.00    -0.200 F 
ATOM     72  F   UNL A   1      40.739  36.168  41.987  1.00  0.00    -0.200 F 
ENDBRANCH  48  62
BRANCH  49  73
ATOM     73  C   UNL A   1      40.175  28.730  29.976  1.00  0.00     0.064 A 
ATOM     74  C   UNL A   1      39.526  27.491  29.884  1.00  0.00     0.173 A 
ATOM     75  C   UNL A   1      40.795  29.228  28.820  1.00  0.00     0.173 A 
ATOM     76  F   UNL A   1      38.936  26.962  30.966  1.00  0.00    -0.203 F 
ATOM     77  C   UNL A   1      39.521  26.767  28.692  1.00  0.00     0.198 A 
ATOM     78  C   UNL A   1      40.761  28.520  27.621  1.00  0.00     0.198 A 
ATOM     79  F   UNL A   1      41.425  30.412  28.852  1.00  0.00    -0.203 F 
ATOM     80  F   UNL A   1      38.939  25.561  28.647  1.00  0.00    -0.200 F 
ATOM     81  C   UNL A   1      40.133  27.284  27.561  1.00  0.00     0.200 A 
ATOM     82  F   UNL A   1      41.340  29.031  26.527  1.00  0.00    -0.200 F 
ATOM     83  F   UNL A   1      40.124  26.591  26.415  1.00  0.00    -0.200 F 
ENDBRANCH  49  73
BRANCH  61  84
ATOM     84  C   UNL A   1      44.504  28.676  35.438  1.00  0.00     0.064 A 
ATOM     85  C   UNL A   1      44.420  27.439  36.095  1.00  0.00     0.173 A 
ATOM     86  C   UNL A   1      45.775  29.128  35.050  1.00  0.00     0.173 A 
ATOM     87  F   UNL A   1      43.231  26.969  36.502  1.00  0.00    -0.203 F 
ATOM     88  C   UNL A   1      45.566  26.701  36.379  1.00  0.00     0.198 A 
ATOM     89  C   UNL A   1      46.915  28.370  35.303  1.00  0.00     0.198 A 
ATOM     90  F   UNL A   1      45.911  30.300  34.411  1.00  0.00    -0.203 F 
ATOM     91  F   UNL A   1      45.467  25.549  37.057  1.00  0.00    -0.200 F 
ATOM     92  C   UNL A   1      46.810  27.162  35.976  1.00  0.00     0.200 A 
ATOM     93  F   UNL A   1      48.114  28.809  34.898  1.00  0.00    -0.200 F 
ATOM     94  F   UNL A   1      47.912  26.446  36.244  1.00  0.00    -0.200 F 
ENDBRANCH  61  84
ENDBRANCH  35  36
ENDBRANCH  27  30
ENDBRANCH  25  26
ENDBRANCH  24  25
ENDBRANCH   1  24
TORSDOF 13
ENDMDL
MODEL 2
REMARK VINA RESULT:     -12.0      4.037      8.712
REMARK SMILES O=C(CC1CC[NH+](C[C@H]2Cc3ccccc3O2)CC1)NCCCNC(=O)c1ccc(-c2c3nc(c(-c4c(F)c(F)c(F)c(F)c4F)c4ccc([nH]4)c(-c4c(F)c(F)c(F)c(F)c4F)c4nc(c(-c5c(F)c(F)c(F)c(F)c5F)c5ccc2[nH]5)C=C4)C=C3)cc1
REMARK SMILES IDX 21 1 20 2 1 3 2 4 3 6 4 7 5 8 19 9 6 10 18 11 7 12 8 14 9 15
REMARK SMILES IDX 10 16 17 17 11 18 16 19 12 20 15 21 13 22 14 23 22 24 23 25
REMARK SMILES IDX 24 26 25 27 26 29 27 30 28 31 89 32 29 33 88 34 30 35 31 36
REMARK SMILES IDX 32 37 82 38 33 39 87 40 81 41 83 42 34 43 86 44 80 45 79 46
REMARK SMILES IDX 35 48 67 49 47 50 66 51 48 52 51 53 65 54 84 55 49 56 50 57
REMARK SMILES IDX 64 59 85 60 52 61 36 62 37 63 45 64 38 65 39 66 43 67 46 68
REMARK SMILES IDX 40 69 41 70 44 71 42 72 68 73 69 74 77 75 70 76 71 77 75 78
REMARK SMILES IDX 78 79 72 80 73 81 76 82 74 83 53 84 54 85 62 86 55 87 56 88
REMARK SMILES IDX 60 89 63 90 57 91 58 92 61 93 59 94
REMARK H PARENT 20 5 7 13 24 28 83 47 51 58
REMARK Flexibility Score: inf
ROOT
ATOM      1  C   UNL A   1      34.350  34.676  29.844  1.00  0.00     0.117 C 
ENDROOT
BRANCH   1   2
ATOM      2  N   UNL A   1      35.432  34.234  30.697  1.00  0.00    -0.356 N 
ATOM      3  O   UNL A   1      34.403  32.286  31.334  1.00  0.00    -0.275 OA
ATOM      4  C   UNL A   1      35.346  33.065  31.415  1.00  0.00     0.220 C 
ATOM      5  H   UNL A   1      36.247  34.783  30.764  1.00  0.00     0.163 HD
BRANCH   4   6
ATOM      6  C   UNL A   1      36.463  32.892  32.417  1.00  0.00     0.104 C 
BRANCH   6   7
ATOM      7  C   UNL A   1      36.780  34.118  33.297  1.00  0.00     0.009 C 
ATOM      8  C   UNL A   1      38.235  34.578  33.124  1.00  0.00     0.066 C 
ATOM      9  C   UNL A   1      36.605  33.803  34.789  1.00  0.00     0.066 C 
ATOM     10  C   UNL A   1      39.246  33.531  33.616  1.00  0.00     0.262 C 
ATOM     11  C   UNL A   1      37.569  32.704  35.251  1.00  0.00     0.262 C 
ATOM     12  N   UNL A   1      38.966  32.981  34.943  1.00  0.00    -0.332 N 
ATOM     13  H   UNL A   1      39.167  33.767  35.561  1.00  0.00     0.348 HD
BRANCH  12  14
ATOM     14  C   UNL A   1      39.895  31.897  35.337  1.00  0.00     0.308 C 
BRANCH  14  15
ATOM     15  C   UNL A   1      39.598  30.366  35.181  1.00  0.00     0.232 C 
ATOM     16  C   UNL A   1      39.922  29.711  33.828  1.00  0.00     0.090 C 
ATOM     17  O   UNL A   1      40.211  29.582  36.240  1.00  0.00    -0.484 OA
ATOM     18  C   UNL A   1      41.097  28.900  34.216  1.00  0.00    -0.002 A 
ATOM     19  C   UNL A   1      41.162  28.827  35.598  1.00  0.00     0.123 A 
ATOM     20  C   UNL A   1      42.036  28.254  33.430  1.00  0.00     0.007 A 
ATOM     21  C   UNL A   1      42.156  28.127  36.251  1.00  0.00     0.047 A 
ATOM     22  C   UNL A   1      43.071  27.564  34.070  1.00  0.00     0.001 A 
ATOM     23  C   UNL A   1      43.131  27.500  35.473  1.00  0.00     0.004 A 
ENDBRANCH  14  15
ENDBRANCH  12  14
ENDBRANCH   6   7
ENDBRANCH   4   6
ENDBRANCH   1   2
BRANCH   1  24
ATOM     24  C   UNL A   1      34.678  34.508  28.367  1.00  0.00     0.042 C 
BRANCH  24  25
ATOM     25  C   UNL A   1      35.334  33.178  28.012  1.00  0.00     0.118 C 
BRANCH  25  26
ATOM     26  N   UNL A   1      34.383  32.083  27.901  1.00  0.00    -0.352 N 
ATOM     27  C   UNL A   1      34.592  30.727  27.929  1.00  0.00     0.251 C 
ATOM     28  H   UNL A   1      33.444  32.357  27.790  1.00  0.00     0.163 HD
ATOM     29  O   UNL A   1      33.670  29.962  27.658  1.00  0.00    -0.269 OA
BRANCH  27  30
ATOM     30  C   UNL A   1      35.926  30.182  28.255  1.00  0.00     0.039 A 
ATOM     31  C   UNL A   1      36.898  30.143  27.251  1.00  0.00     0.014 A 
ATOM     32  C   UNL A   1      36.222  29.703  29.535  1.00  0.00     0.014 A 
ATOM     33  C   UNL A   1      38.184  29.691  27.549  1.00  0.00     0.010 A 
ATOM     34  C   UNL A   1      37.526  29.331  29.850  1.00  0.00     0.010 A 
ATOM     35  C   UNL A   1      38.521  29.322  28.861  1.00  0.00    -0.014 A 
BRANCH  35  36
ATOM     36  C   UNL A   1      39.914  28.942  29.216  1.00  0.00     0.031 A 
ATOM     37  C   UNL A   1      40.777  29.872  30.020  1.00  0.00     0.074 A 
ATOM     38  C   UNL A   1      40.419  27.779  28.759  1.00  0.00     0.049 A 
ATOM     39  N   UNL A   1      42.028  29.736  30.382  1.00  0.00    -0.248 NA
ATOM     40  C   UNL A   1      40.163  31.137  30.456  1.00  0.00     0.031 C 
ATOM     41  C   UNL A   1      39.699  26.814  27.926  1.00  0.00     0.029 A 
ATOM     42  N   UNL A   1      41.659  27.214  28.923  1.00  0.00    -0.354 N 
ATOM     43  C   UNL A   1      42.351  30.895  31.076  1.00  0.00     0.074 A 
ATOM     44  C   UNL A   1      41.185  31.750  31.034  1.00  0.00     0.031 C 
ATOM     45  C   UNL A   1      40.498  25.766  27.675  1.00  0.00     0.029 A 
ATOM     46  C   UNL A   1      41.800  26.002  28.292  1.00  0.00     0.049 A 
ATOM     47  H   UNL A   1      42.380  27.638  29.443  1.00  0.00     0.167 HD
ATOM     48  C   UNL A   1      43.507  31.207  31.710  1.00  0.00     0.037 A 
ATOM     49  C   UNL A   1      42.862  25.177  28.211  1.00  0.00     0.037 A 
ATOM     50  C   UNL A   1      44.659  30.345  31.763  1.00  0.00     0.049 A 
ATOM     51  C   UNL A   1      44.139  25.556  28.911  1.00  0.00     0.074 A 
ATOM     52  C   UNL A   1      45.856  30.545  32.429  1.00  0.00     0.029 A 
ATOM     53  N   UNL A   1      44.761  29.121  31.119  1.00  0.00    -0.354 N 
ATOM     54  N   UNL A   1      44.407  26.621  29.626  1.00  0.00    -0.248 NA
ATOM     55  C   UNL A   1      45.259  24.611  28.799  1.00  0.00     0.031 C 
ATOM     56  C   UNL A   1      46.703  29.471  32.140  1.00  0.00     0.029 A 
ATOM     57  C   UNL A   1      46.013  28.568  31.347  1.00  0.00     0.049 A 
ATOM     58  H   UNL A   1      44.051  28.704  30.579  1.00  0.00     0.167 HD
ATOM     59  C   UNL A   1      45.712  26.462  30.073  1.00  0.00     0.074 A 
ATOM     60  C   UNL A   1      46.175  25.188  29.564  1.00  0.00     0.031 C 
ATOM     61  C   UNL A   1      46.460  27.296  30.838  1.00  0.00     0.037 A 
BRANCH  48  62
ATOM     62  C   UNL A   1      43.584  32.539  32.401  1.00  0.00     0.064 A 
ATOM     63  C   UNL A   1      43.911  33.713  31.706  1.00  0.00     0.173 A 
ATOM     64  C   UNL A   1      43.288  32.649  33.769  1.00  0.00     0.173 A 
ATOM     65  F   UNL A   1      44.213  33.663  30.400  1.00  0.00    -0.203 F 
ATOM     66  C   UNL A   1      43.969  34.942  32.360  1.00  0.00     0.198 A 
ATOM     67  C   UNL A   1      43.314  33.884  34.411  1.00  0.00     0.198 A 
ATOM     68  F   UNL A   1      42.963  31.560  34.482  1.00  0.00    -0.203 F 
ATOM     69  F   UNL A   1      44.335  36.041  31.686  1.00  0.00    -0.200 F 
ATOM     70  C   UNL A   1      43.662  35.028  33.710  1.00  0.00     0.200 A 
ATOM     71  F   UNL A   1      43.002  33.968  35.712  1.00  0.00    -0.200 F 
ATOM     72  F   UNL A   1      43.710  36.213  34.335  1.00  0.00    -0.200 F 
ENDBRANCH  48  62
BRANCH  49  73
ATOM     73  C   UNL A   1      42.757  23.902  27.454  1.00  0.00     0.064 A 
ATOM     74  C   UNL A   1      42.282  22.735  28.070  1.00  0.00     0.173 A 
ATOM     75  C   UNL A   1      43.136  23.818  26.106  1.00  0.00     0.173 A 
ATOM     76  F   UNL A   1      41.926  22.757  29.363  1.00  0.00    -0.203 F 
ATOM     77  C   UNL A   1      42.215  21.529  27.373  1.00  0.00     0.198 A 
ATOM     78  C   UNL A   1      43.038  22.621  25.402  1.00  0.00     0.198 A 
ATOM     79  F   UNL A   1      43.592  24.907  25.468  1.00  0.00    -0.203 F 
ATOM     80  F   UNL A   1      41.807  20.418  28.002  1.00  0.00    -0.200 F 
ATOM     81  C   UNL A   1      42.587  21.473  26.039  1.00  0.00     0.200 A 
ATOM     82  F   UNL A   1      43.384  22.576  24.109  1.00  0.00    -0.200 F 
ATOM     83  F   UNL A   1      42.519  20.316  25.370  1.00  0.00    -0.200 F 
ENDBRANCH  49  73
BRANCH  61  84
ATOM     84  C   UNL A   1      47.844  26.841  31.203  1.00  0.00     0.064 A 
ATOM     85  C   UNL A   1      48.086  26.038  32.327  1.00  0.00     0.173 A 
ATOM     86  C   UNL A   1      48.939  27.188  30.397  1.00  0.00     0.173 A 
ATOM     87  F   UNL A   1      47.077  25.690  33.140  1.00  0.00    -0.203 F 
ATOM     88  C   UNL A   1      49.377  25.625  32.647  1.00  0.00     0.198 A 
ATOM     89  C   UNL A   1      50.224  26.744  30.699  1.00  0.00     0.198 A 
ATOM     90  F   UNL A   1      48.762  27.949  29.305  1.00  0.00    -0.203 F 
ATOM     91  F   UNL A   1      49.592  24.905  33.757  1.00  0.00    -0.200 F 
ATOM     92  C   UNL A   1      50.443  25.971  31.829  1.00  0.00     0.200 A 
ATOM     93  F   UNL A   1      51.249  27.066  29.899  1.00  0.00    -0.200 F 
ATOM     94  F   UNL A   1      51.684  25.567  32.135  1.00  0.00    -0.200 F 
ENDBRANCH  61  84
ENDBRANCH  35  36
ENDBRANCH  27  30
ENDBRANCH  25  26
ENDBRANCH  24  25
ENDBRANCH   1  24
TORSDOF 13
ENDMDL
MODEL 3
REMARK VINA RESULT:     -12.0      7.276     11.794
REMARK SMILES O=C(CC1CC[NH+](C[C@H]2Cc3ccccc3O2)CC1)NCCCNC(=O)c1ccc(-c2c3nc(c(-c4c(F)c(F)c(F)c(F)c4F)c4ccc([nH]4)c(-c4c(F)c(F)c(F)c(F)c4F)c4nc(c(-c5c(F)c(F)c(F)c(F)c5F)c5ccc2[nH]5)C=C4)C=C3)cc1
REMARK SMILES IDX 21 1 20 2 1 3 2 4 3 6 4 7 5 8 19 9 6 10 18 11 7 12 8 14 9 15
REMARK SMILES IDX 10 16 17 17 11 18 16 19 12 20 15 21 13 22 14 23 22 24 23 25
REMARK SMILES IDX 24 26 25 27 26 29 27 30 28 31 89 32 29 33 88 34 30 35 31 36
REMARK SMILES IDX 32 37 82 38 33 39 87 40 81 41 83 42 34 43 86 44 80 45 79 46
REMARK SMILES IDX 35 48 67 49 47 50 66 51 48 52 51 53 65 54 84 55 49 56 50 57
REMARK SMILES IDX 64 59 85 60 52 61 36 62 37 63 45 64 38 65 39 66 43 67 46 68
REMARK SMILES IDX 40 69 41 70 44 71 42 72 68 73 69 74 77 75 70 76 71 77 75 78
REMARK SMILES IDX 78 79 72 80 73 81 76 82 74 83 53 84 54 85 62 86 55 87 56 88
REMARK SMILES IDX 60 89 63 90 57 91 58 92 61 93 59 94
REMARK H PARENT 20 5 7 13 24 28 83 47 51 58
REMARK Flexibility Score: inf
ROOT
ATOM      1  C   UNL A   1      39.494  22.412  25.985  1.00  0.00     0.117 C 
ENDROOT
BRANCH   1   2
ATOM      2  N   UNL A   1      38.185  22.760  25.477  1.00  0.00    -0.356 N 
ATOM      3  O   UNL A   1      37.902  24.562  26.867  1.00  0.00    -0.275 OA
ATOM      4  C   UNL A   1      37.469  23.809  26.001  1.00  0.00     0.220 C 
ATOM      5  H   UNL A   1      37.798  22.232  24.741  1.00  0.00     0.163 HD
BRANCH   4   6
ATOM      6  C   UNL A   1      36.042  23.870  25.508  1.00  0.00     0.104 C 
BRANCH   6   7
ATOM      7  C   UNL A   1      34.954  23.500  26.535  1.00  0.00     0.009 C 
ATOM      8  C   UNL A   1      34.838  21.979  26.716  1.00  0.00     0.066 C 
ATOM      9  C   UNL A   1      33.567  23.984  26.088  1.00  0.00     0.066 C 
ATOM     10  C   UNL A   1      34.362  21.269  25.439  1.00  0.00     0.262 C 
ATOM     11  C   UNL A   1      33.135  23.323  24.773  1.00  0.00     0.262 C 
ATOM     12  N   UNL A   1      33.188  21.868  24.803  1.00  0.00    -0.332 N 
ATOM     13  H   UNL A   1      32.437  21.642  25.456  1.00  0.00     0.348 HD
BRANCH  12  14
ATOM     14  C   UNL A   1      32.825  21.226  23.518  1.00  0.00     0.308 C 
BRANCH  14  15
ATOM     15  C   UNL A   1      32.055  19.867  23.386  1.00  0.00     0.232 C 
ATOM     16  C   UNL A   1      32.615  18.822  22.407  1.00  0.00     0.090 C 
ATOM     17  O   UNL A   1      31.846  19.234  24.678  1.00  0.00    -0.484 OA
ATOM     18  C   UNL A   1      33.132  17.825  23.371  1.00  0.00    -0.002 A 
ATOM     19  C   UNL A   1      32.607  18.092  24.625  1.00  0.00     0.123 A 
ATOM     20  C   UNL A   1      33.982  16.751  23.175  1.00  0.00     0.007 A 
ATOM     21  C   UNL A   1      32.909  17.318  25.727  1.00  0.00     0.047 A 
ATOM     22  C   UNL A   1      34.327  15.970  24.284  1.00  0.00     0.001 A 
ATOM     23  C   UNL A   1      33.793  16.252  25.553  1.00  0.00     0.004 A 
ENDBRANCH  14  15
ENDBRANCH  12  14
ENDBRANCH   6   7
ENDBRANCH   4   6
ENDBRANCH   1   2
BRANCH   1  24
ATOM     24  C   UNL A   1      39.534  21.000  26.553  1.00  0.00     0.042 C 
BRANCH  24  25
ATOM     25  C   UNL A   1      39.679  19.901  25.505  1.00  0.00     0.118 C 
BRANCH  25  26
ATOM     26  N   UNL A   1      40.652  18.885  25.873  1.00  0.00    -0.352 N 
ATOM     27  C   UNL A   1      41.958  19.018  26.274  1.00  0.00     0.251 C 
ATOM     28  H   UNL A   1      40.323  17.959  25.829  1.00  0.00     0.163 HD
ATOM     29  O   UNL A   1      42.666  18.021  26.388  1.00  0.00    -0.269 OA
BRANCH  27  30
ATOM     30  C   UNL A   1      42.525  20.356  26.543  1.00  0.00     0.039 A 
ATOM     31  C   UNL A   1      43.029  21.097  25.470  1.00  0.00     0.014 A 
ATOM     32  C   UNL A   1      42.573  20.878  27.839  1.00  0.00     0.014 A 
ATOM     33  C   UNL A   1      43.513  22.388  25.688  1.00  0.00     0.010 A 
ATOM     34  C   UNL A   1      42.979  22.194  28.040  1.00  0.00     0.010 A 
ATOM     35  C   UNL A   1      43.453  22.963  26.967  1.00  0.00    -0.014 A 
BRANCH  35  36
ATOM     36  C   UNL A   1      43.865  24.374  27.192  1.00  0.00     0.031 A 
ATOM     37  C   UNL A   1      42.873  25.389  27.685  1.00  0.00     0.074 A 
ATOM     38  C   UNL A   1      45.124  24.751  26.894  1.00  0.00     0.049 A 
ATOM     39  N   UNL A   1      43.034  26.672  27.892  1.00  0.00    -0.248 NA
ATOM     40  C   UNL A   1      41.510  24.906  27.959  1.00  0.00     0.031 C 
ATOM     41  C   UNL A   1      46.165  23.872  26.360  1.00  0.00     0.029 A 
ATOM     42  N   UNL A   1      45.740  25.974  26.989  1.00  0.00    -0.354 N 
ATOM     43  C   UNL A   1      41.797  27.147  28.309  1.00  0.00     0.074 A 
ATOM     44  C   UNL A   1      40.881  26.029  28.269  1.00  0.00     0.031 C 
ATOM     45  C   UNL A   1      47.297  24.575  26.201  1.00  0.00     0.029 A 
ATOM     46  C   UNL A   1      47.051  25.963  26.580  1.00  0.00     0.049 A 
ATOM     47  H   UNL A   1      45.285  26.783  27.318  1.00  0.00     0.167 HD
ATOM     48  C   UNL A   1      41.463  28.397  28.710  1.00  0.00     0.037 A 
ATOM     49  C   UNL A   1      47.953  26.962  26.508  1.00  0.00     0.037 A 
ATOM     50  C   UNL A   1      42.384  29.503  28.764  1.00  0.00     0.049 A 
ATOM     51  C   UNL A   1      47.550  28.345  26.945  1.00  0.00     0.074 A 
ATOM     52  C   UNL A   1      42.157  30.793  29.211  1.00  0.00     0.029 A 
ATOM     53  N   UNL A   1      43.707  29.452  28.349  1.00  0.00    -0.354 N 
ATOM     54  N   UNL A   1      46.398  28.765  27.408  1.00  0.00    -0.248 NA
ATOM     55  C   UNL A   1      48.579  29.391  26.859  1.00  0.00     0.031 C 
ATOM     56  C   UNL A   1      43.324  31.537  29.014  1.00  0.00     0.029 A 
ATOM     57  C   UNL A   1      44.300  30.696  28.503  1.00  0.00     0.049 A 
ATOM     58  H   UNL A   1      44.159  28.651  27.998  1.00  0.00     0.167 HD
ATOM     59  C   UNL A   1      46.570  30.112  27.694  1.00  0.00     0.074 A 
ATOM     60  C   UNL A   1      47.944  30.435  27.371  1.00  0.00     0.031 C 
ATOM     61  C   UNL A   1      45.671  31.003  28.182  1.00  0.00     0.037 A 
BRANCH  48  62
ATOM     62  C   UNL A   1      40.040  28.638  29.126  1.00  0.00     0.064 A 
ATOM     63  C   UNL A   1      39.072  29.092  28.217  1.00  0.00     0.173 A 
ATOM     64  C   UNL A   1      39.627  28.373  30.441  1.00  0.00     0.173 A 
ATOM     65  F   UNL A   1      39.413  29.370  26.950  1.00  0.00    -0.203 F 
ATOM     66  C   UNL A   1      37.753  29.301  28.616  1.00  0.00     0.198 A 
ATOM     67  C   UNL A   1      38.302  28.550  30.828  1.00  0.00     0.198 A 
ATOM     68  F   UNL A   1      40.509  27.931  31.351  1.00  0.00    -0.203 F 
ATOM     69  F   UNL A   1      36.860  29.785  27.742  1.00  0.00    -0.200 F 
ATOM     70  C   UNL A   1      37.368  29.022  29.918  1.00  0.00     0.200 A 
ATOM     71  F   UNL A   1      37.927  28.265  32.083  1.00  0.00    -0.200 F 
ATOM     72  F   UNL A   1      36.097  29.216  30.298  1.00  0.00    -0.200 F 
ENDBRANCH  48  62
BRANCH  49  73
ATOM     73  C   UNL A   1      49.330  26.687  26.023  1.00  0.00     0.064 A 
ATOM     74  C   UNL A   1      49.699  26.969  24.700  1.00  0.00     0.173 A 
ATOM     75  C   UNL A   1      50.304  26.129  26.865  1.00  0.00     0.173 A 
ATOM     76  F   UNL A   1      48.798  27.484  23.850  1.00  0.00    -0.203 F 
ATOM     77  C   UNL A   1      50.980  26.680  24.231  1.00  0.00     0.198 A 
ATOM     78  C   UNL A   1      51.594  25.872  26.405  1.00  0.00     0.198 A 
ATOM     79  F   UNL A   1      50.006  25.845  28.142  1.00  0.00    -0.203 F 
ATOM     80  F   UNL A   1      51.288  26.911  22.947  1.00  0.00    -0.200 F 
ATOM     81  C   UNL A   1      51.928  26.138  25.084  1.00  0.00     0.200 A 
ATOM     82  F   UNL A   1      52.511  25.363  27.238  1.00  0.00    -0.200 F 
ATOM     83  F   UNL A   1      53.159  25.864  24.635  1.00  0.00    -0.200 F 
ENDBRANCH  49  73
BRANCH  61  84
ATOM     84  C   UNL A   1      46.154  32.403  28.433  1.00  0.00     0.064 A 
ATOM     85  C   UNL A   1      46.739  32.777  29.651  1.00  0.00     0.173 A 
ATOM     86  C   UNL A   1      46.058  33.377  27.425  1.00  0.00     0.173 A 
ATOM     87  F   UNL A   1      46.841  31.890  30.653  1.00  0.00    -0.203 F 
ATOM     88  C   UNL A   1      47.183  34.080  29.862  1.00  0.00     0.198 A 
ATOM     89  C   UNL A   1      46.535  34.669  27.627  1.00  0.00     0.198 A 
ATOM     90  F   UNL A   1      45.514  33.070  26.237  1.00  0.00    -0.203 F 
ATOM     91  F   UNL A   1      47.687  34.429  31.054  1.00  0.00    -0.200 F 
ATOM     92  C   UNL A   1      47.088  35.022  28.849  1.00  0.00     0.200 A 
ATOM     93  F   UNL A   1      46.457  35.572  26.641  1.00  0.00    -0.200 F 
ATOM     94  F   UNL A   1      47.521  36.274  29.052  1.00  0.00    -0.200 F 
ENDBRANCH  61  84
ENDBRANCH  35  36
ENDBRANCH  27  30
ENDBRANCH  25  26
ENDBRANCH  24  25
ENDBRANCH   1  24
TORSDOF 13
ENDMDL
