MODEL 1
REMARK VINA RESULT:     -13.9      0.000      0.000
REMARK SMILES COC(=O)c1ccc(C)c2c1[C@H]1C=CC[C@H]1[C@@H](c1ccc(C(=O)NCCCNC(=O)c3ccc(-c4c5nc(c(-c6c(F)c(F)c(F)c(F)c6F)c6ccc([nH]6)c(-c6c(F)c(F)c(F)c(F)c6F)c6nc(c(-c7c(F)c(F)c(F)c(F)c7F)c7ccc4[nH]7)C=C6)C=C5)cc3)cc1)N2
REMARK SMILES IDX 25 1 24 2 22 3 23 4 21 6 18 7 19 8 95 9 20 10 94 11 17 12
REMARK SMILES IDX 5 13 6 14 11 15 7 16 10 17 12 18 8 19 96 20 13 21 16 22 9 23
REMARK SMILES IDX 14 25 15 26 3 27 4 28 2 29 1 30 26 31 27 32 28 33 29 34
REMARK SMILES IDX 30 36 31 37 32 38 93 39 33 40 92 41 34 42 35 43 36 44 86 45
REMARK SMILES IDX 37 46 91 47 85 48 87 49 38 50 90 51 84 52 83 53 39 55 71 56
REMARK SMILES IDX 51 57 70 58 52 59 55 60 69 61 88 62 53 63 54 64 68 66 89 67
REMARK SMILES IDX 56 68 40 69 41 70 49 71 42 72 43 73 47 74 50 75 44 76 45 77
REMARK SMILES IDX 48 78 46 79 72 80 73 81 81 82 74 83 75 84 79 85 82 86 76 87
REMARK SMILES IDX 77 88 80 89 78 90 57 91 58 92 66 93 59 94 60 95 64 96 67 97
REMARK SMILES IDX 61 98 62 99 65 100 63 101
REMARK H PARENT 24 5 96 24 28 35 87 54 55 65
REMARK Flexibility Score: inf
ROOT
ATOM      1  C   UNL A   1      36.829  20.568  25.045  1.00  0.00     0.118 C 
ENDROOT
BRANCH   1   2
ATOM      2  N   UNL A   1      36.926  21.553  23.991  1.00  0.00    -0.352 N 
ATOM      3  C   UNL A   1      36.261  22.725  23.764  1.00  0.00     0.251 C 
ATOM      4  O   UNL A   1      36.571  23.349  22.749  1.00  0.00    -0.269 OA
ATOM      5  H   UNL A   1      37.600  21.338  23.306  1.00  0.00     0.163 HD
BRANCH   3   6
ATOM      6  C   UNL A   1      35.223  23.280  24.677  1.00  0.00     0.039 A 
ATOM      7  C   UNL A   1      33.129  24.504  26.160  1.00  0.00    -0.025 A 
ATOM      8  C   UNL A   1      33.876  25.226  25.218  1.00  0.00     0.006 A 
ATOM      9  C   UNL A   1      33.512  23.180  26.405  1.00  0.00     0.006 A 
ATOM     10  C   UNL A   1      34.903  24.627  24.489  1.00  0.00     0.014 A 
ATOM     11  C   UNL A   1      34.511  22.566  25.642  1.00  0.00     0.014 A 
BRANCH   7  12
ATOM     12  C   UNL A   1      31.841  25.027  26.802  1.00  0.00     0.114 C 
ATOM     13  C   UNL A   1      30.985  28.090  23.971  1.00  0.00     0.065 A 
ATOM     14  C   UNL A   1      31.645  29.315  24.106  1.00  0.00     0.016 A 
ATOM     15  C   UNL A   1      31.056  27.116  24.992  1.00  0.00    -0.003 A 
ATOM     16  C   UNL A   1      32.363  29.593  25.264  1.00  0.00     0.006 A 
ATOM     17  C   UNL A   1      31.773  27.414  26.182  1.00  0.00     0.042 A 
ATOM     18  C   UNL A   1      30.391  25.762  24.822  1.00  0.00     0.050 C 
ATOM     19  C   UNL A   1      32.435  28.658  26.308  1.00  0.00    -0.028 A 
ATOM     20  N   UNL A   1      31.944  26.433  27.150  1.00  0.00    -0.377 N 
ATOM     21  C   UNL A   1      30.917  24.893  23.702  1.00  0.00    -0.023 C 
ATOM     22  C   UNL A   1      30.523  24.804  26.023  1.00  0.00     0.031 C 
ATOM     23  C   UNL A   1      33.279  29.042  27.498  1.00  0.00     0.046 C 
ATOM     24  H   UNL A   1      32.138  26.693  28.079  1.00  0.00     0.161 HD
ATOM     25  C   UNL A   1      30.885  23.593  24.027  1.00  0.00    -0.030 C 
ATOM     26  C   UNL A   1      30.365  23.400  25.413  1.00  0.00     0.034 C 
BRANCH  13  27
ATOM     27  C   UNL A   1      30.191  27.863  22.739  1.00  0.00     0.338 C 
ATOM     28  O   UNL A   1      30.658  27.528  21.667  1.00  0.00    -0.246 OA
BRANCH  27  29
ATOM     29  O   UNL A   1      28.887  28.137  23.002  1.00  0.00    -0.465 OA
ATOM     30  C   UNL A   1      28.409  29.315  22.351  1.00  0.00     0.282 C 
ENDBRANCH  27  29
ENDBRANCH  13  27
ENDBRANCH   7  12
ENDBRANCH   3   6
ENDBRANCH   1   2
BRANCH   1  31
ATOM     31  C   UNL A   1      38.032  19.629  25.002  1.00  0.00     0.042 C 
BRANCH  31  32
ATOM     32  C   UNL A   1      39.219  20.188  25.781  1.00  0.00     0.118 C 
BRANCH  32  33
ATOM     33  N   UNL A   1      40.247  19.171  25.960  1.00  0.00    -0.352 N 
ATOM     34  C   UNL A   1      41.602  19.328  26.078  1.00  0.00     0.251 C 
ATOM     35  H   UNL A   1      39.923  18.242  26.003  1.00  0.00     0.163 HD
ATOM     36  O   UNL A   1      42.360  18.385  25.876  1.00  0.00    -0.269 OA
BRANCH  34  37
ATOM     37  C   UNL A   1      42.140  20.638  26.479  1.00  0.00     0.039 A 
ATOM     38  C   UNL A   1      42.218  20.966  27.834  1.00  0.00     0.014 A 
ATOM     39  C   UNL A   1      42.515  21.561  25.497  1.00  0.00     0.014 A 
ATOM     40  C   UNL A   1      42.702  22.218  28.208  1.00  0.00     0.010 A 
ATOM     41  C   UNL A   1      43.055  22.782  25.870  1.00  0.00     0.010 A 
ATOM     42  C   UNL A   1      43.128  23.127  27.228  1.00  0.00    -0.014 A 
BRANCH  42  43
ATOM     43  C   UNL A   1      43.577  24.489  27.584  1.00  0.00     0.031 A 
ATOM     44  C   UNL A   1      42.547  25.534  27.903  1.00  0.00     0.074 A 
ATOM     45  C   UNL A   1      44.888  24.788  27.575  1.00  0.00     0.049 A 
ATOM     46  N   UNL A   1      42.709  26.807  28.153  1.00  0.00    -0.248 NA
ATOM     47  C   UNL A   1      41.142  25.090  27.925  1.00  0.00     0.031 C 
ATOM     48  C   UNL A   1      45.967  23.849  27.277  1.00  0.00     0.029 A 
ATOM     49  N   UNL A   1      45.531  25.974  27.817  1.00  0.00    -0.354 N 
ATOM     50  C   UNL A   1      41.435  27.309  28.372  1.00  0.00     0.074 A 
ATOM     51  C   UNL A   1      40.503  26.226  28.156  1.00  0.00     0.031 C 
ATOM     52  C   UNL A   1      47.143  24.490  27.374  1.00  0.00     0.029 A 
ATOM     53  C   UNL A   1      46.896  25.891  27.703  1.00  0.00     0.049 A 
ATOM     54  H   UNL A   1      45.059  26.806  28.050  1.00  0.00     0.167 HD
ATOM     55  C   UNL A   1      41.079  28.557  28.755  1.00  0.00     0.037 A 
ATOM     56  C   UNL A   1      47.834  26.846  27.843  1.00  0.00     0.037 A 
ATOM     57  C   UNL A   1      42.014  29.629  28.967  1.00  0.00     0.049 A 
ATOM     58  C   UNL A   1      47.400  28.247  28.186  1.00  0.00     0.074 A 
ATOM     59  C   UNL A   1      41.759  30.932  29.354  1.00  0.00     0.029 A 
ATOM     60  N   UNL A   1      43.389  29.517  28.813  1.00  0.00    -0.354 N 
ATOM     61  N   UNL A   1      46.195  28.709  28.422  1.00  0.00    -0.248 NA
ATOM     62  C   UNL A   1      48.460  29.259  28.288  1.00  0.00     0.031 C 
ATOM     63  C   UNL A   1      42.974  31.621  29.390  1.00  0.00     0.029 A 
ATOM     64  C   UNL A   1      43.993  30.733  29.082  1.00  0.00     0.049 A 
ATOM     65  H   UNL A   1      43.863  28.695  28.551  1.00  0.00     0.167 HD
ATOM     66  C   UNL A   1      46.355  30.054  28.732  1.00  0.00     0.074 A 
ATOM     67  C   UNL A   1      47.776  30.327  28.675  1.00  0.00     0.031 C 
ATOM     68  C   UNL A   1      45.412  30.981  29.033  1.00  0.00     0.037 A 
BRANCH  55  69
ATOM     69  C   UNL A   1      39.622  28.825  28.993  1.00  0.00     0.064 A 
ATOM     70  C   UNL A   1      39.054  28.669  30.267  1.00  0.00     0.173 A 
ATOM     71  C   UNL A   1      38.801  29.306  27.963  1.00  0.00     0.173 A 
ATOM     72  F   UNL A   1      39.792  28.196  31.282  1.00  0.00    -0.203 F 
ATOM     73  C   UNL A   1      37.715  28.973  30.497  1.00  0.00     0.198 A 
ATOM     74  C   UNL A   1      37.471  29.638  28.203  1.00  0.00     0.198 A 
ATOM     75  F   UNL A   1      39.295  29.473  26.726  1.00  0.00    -0.203 F 
ATOM     76  F   UNL A   1      37.187  28.784  31.714  1.00  0.00    -0.200 F 
ATOM     77  C   UNL A   1      36.928  29.469  29.469  1.00  0.00     0.200 A 
ATOM     78  F   UNL A   1      36.715  30.130  27.213  1.00  0.00    -0.200 F 
ATOM     79  F   UNL A   1      35.646  29.783  29.697  1.00  0.00    -0.200 F 
ENDBRANCH  55  69
BRANCH  56  80
ATOM     80  C   UNL A   1      49.275  26.509  27.701  1.00  0.00     0.064 A 
ATOM     81  C   UNL A   1      50.079  26.328  28.835  1.00  0.00     0.173 A 
ATOM     82  C   UNL A   1      49.881  26.373  26.444  1.00  0.00     0.173 A 
ATOM     83  F   UNL A   1      49.549  26.466  30.059  1.00  0.00    -0.203 F 
ATOM     84  C   UNL A   1      51.438  26.047  28.718  1.00  0.00     0.198 A 
ATOM     85  C   UNL A   1      51.235  26.062  26.328  1.00  0.00     0.198 A 
ATOM     86  F   UNL A   1      49.157  26.532  25.326  1.00  0.00    -0.203 F 
ATOM     87  F   UNL A   1      52.193  25.929  29.819  1.00  0.00    -0.200 F 
ATOM     88  C   UNL A   1      52.014  25.909  27.465  1.00  0.00     0.200 A 
ATOM     89  F   UNL A   1      51.784  25.913  25.115  1.00  0.00    -0.200 F 
ATOM     90  F   UNL A   1      53.321  25.636  27.352  1.00  0.00    -0.200 F 
ENDBRANCH  56  80
BRANCH  68  91
ATOM     91  C   UNL A   1      45.886  32.369  29.357  1.00  0.00     0.064 A 
ATOM     92  C   UNL A   1      46.232  32.740  30.665  1.00  0.00     0.173 A 
ATOM     93  C   UNL A   1      46.047  33.321  28.339  1.00  0.00     0.173 A 
ATOM     94  F   UNL A   1      46.085  31.871  31.676  1.00  0.00    -0.203 F 
ATOM     95  C   UNL A   1      46.694  34.023  30.945  1.00  0.00     0.198 A 
ATOM     96  C   UNL A   1      46.545  34.591  28.617  1.00  0.00     0.198 A 
ATOM     97  F   UNL A   1      45.742  33.014  27.070  1.00  0.00    -0.203 F 
ATOM     98  F   UNL A   1      46.968  34.372  32.209  1.00  0.00    -0.200 F 
ATOM     99  C   UNL A   1      46.859  34.943  29.921  1.00  0.00     0.200 A 
ATOM    100  F   UNL A   1      46.724  35.471  27.623  1.00  0.00    -0.200 F 
ATOM    101  F   UNL A   1      47.317  36.174  30.191  1.00  0.00    -0.200 F 
ENDBRANCH  68  91
ENDBRANCH  42  43
ENDBRANCH  34  37
ENDBRANCH  32  33
ENDBRANCH  31  32
ENDBRANCH   1  31
TORSDOF 13
ENDMDL
MODEL 2
REMARK VINA RESULT:     -13.9      0.095      1.089
REMARK SMILES COC(=O)c1ccc(C)c2c1[C@H]1C=CC[C@H]1[C@@H](c1ccc(C(=O)NCCCNC(=O)c3ccc(-c4c5nc(c(-c6c(F)c(F)c(F)c(F)c6F)c6ccc([nH]6)c(-c6c(F)c(F)c(F)c(F)c6F)c6nc(c(-c7c(F)c(F)c(F)c(F)c7F)c7ccc4[nH]7)C=C6)C=C5)cc3)cc1)N2
REMARK SMILES IDX 25 1 24 2 22 3 23 4 21 6 18 7 19 8 95 9 20 10 94 11 17 12
REMARK SMILES IDX 5 13 6 14 11 15 7 16 10 17 12 18 8 19 96 20 13 21 16 22 9 23
REMARK SMILES IDX 14 25 15 26 3 27 4 28 2 29 1 30 26 31 27 32 28 33 29 34
REMARK SMILES IDX 30 36 31 37 32 38 93 39 33 40 92 41 34 42 35 43 36 44 86 45
REMARK SMILES IDX 37 46 91 47 85 48 87 49 38 50 90 51 84 52 83 53 39 55 71 56
REMARK SMILES IDX 51 57 70 58 52 59 55 60 69 61 88 62 53 63 54 64 68 66 89 67
REMARK SMILES IDX 56 68 40 69 41 70 49 71 42 72 43 73 47 74 50 75 44 76 45 77
REMARK SMILES IDX 48 78 46 79 72 80 73 81 81 82 74 83 75 84 79 85 82 86 76 87
REMARK SMILES IDX 77 88 80 89 78 90 57 91 58 92 66 93 59 94 60 95 64 96 67 97
REMARK SMILES IDX 61 98 62 99 65 100 63 101
REMARK H PARENT 24 5 96 24 28 35 87 54 55 65
REMARK Flexibility Score: inf
ROOT
ATOM      1  C   UNL A   1      36.856  20.527  25.042  1.00  0.00     0.118 C 
ENDROOT
BRANCH   1   2
ATOM      2  N   UNL A   1      36.975  21.524  24.002  1.00  0.00    -0.352 N 
ATOM      3  C   UNL A   1      36.328  22.709  23.785  1.00  0.00     0.251 C 
ATOM      4  O   UNL A   1      36.656  23.341  22.780  1.00  0.00    -0.269 OA
ATOM      5  H   UNL A   1      37.653  21.309  23.320  1.00  0.00     0.163 HD
BRANCH   3   6
ATOM      6  C   UNL A   1      35.289  23.265  24.695  1.00  0.00     0.039 A 
ATOM      7  C   UNL A   1      33.181  24.475  26.170  1.00  0.00    -0.025 A 
ATOM      8  C   UNL A   1      33.877  25.179  25.177  1.00  0.00     0.006 A 
ATOM      9  C   UNL A   1      33.624  23.181  26.468  1.00  0.00     0.006 A 
ATOM     10  C   UNL A   1      34.911  24.588  24.451  1.00  0.00     0.014 A 
ATOM     11  C   UNL A   1      34.630  22.571  25.710  1.00  0.00     0.014 A 
BRANCH   7  12
ATOM     12  C   UNL A   1      31.888  24.977  26.818  1.00  0.00     0.114 C 
ATOM     13  C   UNL A   1      30.953  28.007  23.977  1.00  0.00     0.065 A 
ATOM     14  C   UNL A   1      31.591  29.245  24.100  1.00  0.00     0.016 A 
ATOM     15  C   UNL A   1      31.050  27.040  25.003  1.00  0.00    -0.003 A 
ATOM     16  C   UNL A   1      32.311  29.543  25.251  1.00  0.00     0.006 A 
ATOM     17  C   UNL A   1      31.769  27.358  26.186  1.00  0.00     0.042 A 
ATOM     18  C   UNL A   1      30.411  25.672  24.844  1.00  0.00     0.050 C 
ATOM     19  C   UNL A   1      32.408  28.615  26.300  1.00  0.00    -0.028 A 
ATOM     20  N   UNL A   1      31.967  26.387  27.157  1.00  0.00    -0.377 N 
ATOM     21  C   UNL A   1      30.945  24.807  23.726  1.00  0.00    -0.023 C 
ATOM     22  C   UNL A   1      30.570  24.724  26.051  1.00  0.00     0.031 C 
ATOM     23  C   UNL A   1      33.253  29.023  27.481  1.00  0.00     0.046 C 
ATOM     24  H   UNL A   1      32.162  26.655  28.083  1.00  0.00     0.161 HD
ATOM     25  C   UNL A   1      30.941  23.509  24.058  1.00  0.00    -0.030 C 
ATOM     26  C   UNL A   1      30.434  23.314  25.449  1.00  0.00     0.034 C 
BRANCH  13  27
ATOM     27  C   UNL A   1      30.155  27.757  22.751  1.00  0.00     0.338 C 
ATOM     28  O   UNL A   1      30.626  27.547  21.650  1.00  0.00    -0.246 OA
BRANCH  27  29
ATOM     29  O   UNL A   1      28.836  27.851  23.061  1.00  0.00    -0.465 OA
ATOM     30  C   UNL A   1      28.266  29.123  22.749  1.00  0.00     0.282 C 
ENDBRANCH  27  29
ENDBRANCH  13  27
ENDBRANCH   7  12
ENDBRANCH   3   6
ENDBRANCH   1   2
BRANCH   1  31
ATOM     31  C   UNL A   1      38.056  19.583  25.008  1.00  0.00     0.042 C 
BRANCH  31  32
ATOM     32  C   UNL A   1      39.245  20.146  25.780  1.00  0.00     0.118 C 
BRANCH  32  33
ATOM     33  N   UNL A   1      40.281  19.135  25.946  1.00  0.00    -0.352 N 
ATOM     34  C   UNL A   1      41.636  19.301  26.060  1.00  0.00     0.251 C 
ATOM     35  H   UNL A   1      39.965  18.204  25.982  1.00  0.00     0.163 HD
ATOM     36  O   UNL A   1      42.399  18.366  25.846  1.00  0.00    -0.269 OA
BRANCH  34  37
ATOM     37  C   UNL A   1      42.165  20.613  26.470  1.00  0.00     0.039 A 
ATOM     38  C   UNL A   1      42.119  20.984  27.815  1.00  0.00     0.014 A 
ATOM     39  C   UNL A   1      42.658  21.493  25.501  1.00  0.00     0.014 A 
ATOM     40  C   UNL A   1      42.596  22.237  28.195  1.00  0.00     0.010 A 
ATOM     41  C   UNL A   1      43.191  22.713  25.887  1.00  0.00     0.010 A 
ATOM     42  C   UNL A   1      43.140  23.102  27.234  1.00  0.00    -0.014 A 
BRANCH  42  43
ATOM     43  C   UNL A   1      43.586  24.465  27.590  1.00  0.00     0.031 A 
ATOM     44  C   UNL A   1      42.555  25.509  27.909  1.00  0.00     0.074 A 
ATOM     45  C   UNL A   1      44.896  24.767  27.579  1.00  0.00     0.049 A 
ATOM     46  N   UNL A   1      42.715  26.781  28.158  1.00  0.00    -0.248 NA
ATOM     47  C   UNL A   1      41.151  25.062  27.932  1.00  0.00     0.031 C 
ATOM     48  C   UNL A   1      45.977  23.829  27.280  1.00  0.00     0.029 A 
ATOM     49  N   UNL A   1      45.537  25.954  27.821  1.00  0.00    -0.354 N 
ATOM     50  C   UNL A   1      41.440  27.282  28.379  1.00  0.00     0.074 A 
ATOM     51  C   UNL A   1      40.509  26.197  28.164  1.00  0.00     0.031 C 
ATOM     52  C   UNL A   1      47.152  24.472  27.376  1.00  0.00     0.029 A 
ATOM     53  C   UNL A   1      46.903  25.873  27.705  1.00  0.00     0.049 A 
ATOM     54  H   UNL A   1      45.065  26.785  28.053  1.00  0.00     0.167 HD
ATOM     55  C   UNL A   1      41.082  28.529  28.761  1.00  0.00     0.037 A 
ATOM     56  C   UNL A   1      47.839  26.830  27.844  1.00  0.00     0.037 A 
ATOM     57  C   UNL A   1      42.015  29.603  28.972  1.00  0.00     0.049 A 
ATOM     58  C   UNL A   1      47.403  28.230  28.187  1.00  0.00     0.074 A 
ATOM     59  C   UNL A   1      41.759  30.906  29.359  1.00  0.00     0.029 A 
ATOM     60  N   UNL A   1      43.390  29.493  28.817  1.00  0.00    -0.354 N 
ATOM     61  N   UNL A   1      46.198  28.690  28.424  1.00  0.00    -0.248 NA
ATOM     62  C   UNL A   1      48.461  29.244  28.287  1.00  0.00     0.031 C 
ATOM     63  C   UNL A   1      42.973  31.596  29.394  1.00  0.00     0.029 A 
ATOM     64  C   UNL A   1      43.993  30.711  29.085  1.00  0.00     0.049 A 
ATOM     65  H   UNL A   1      43.866  28.672  28.555  1.00  0.00     0.167 HD
ATOM     66  C   UNL A   1      46.356  30.035  28.734  1.00  0.00     0.074 A 
ATOM     67  C   UNL A   1      47.777  30.311  28.675  1.00  0.00     0.031 C 
ATOM     68  C   UNL A   1      45.411  30.961  29.035  1.00  0.00     0.037 A 
BRANCH  55  69
ATOM     69  C   UNL A   1      39.625  28.795  29.000  1.00  0.00     0.064 A 
ATOM     70  C   UNL A   1      39.060  28.648  30.277  1.00  0.00     0.173 A 
ATOM     71  C   UNL A   1      38.800  29.263  27.968  1.00  0.00     0.173 A 
ATOM     72  F   UNL A   1      39.803  28.187  31.295  1.00  0.00    -0.203 F 
ATOM     73  C   UNL A   1      37.722  28.951  30.508  1.00  0.00     0.198 A 
ATOM     74  C   UNL A   1      37.469  29.594  28.209  1.00  0.00     0.198 A 
ATOM     75  F   UNL A   1      39.290  29.421  26.729  1.00  0.00    -0.203 F 
ATOM     76  F   UNL A   1      37.197  28.771  31.728  1.00  0.00    -0.200 F 
ATOM     77  C   UNL A   1      36.931  29.435  29.477  1.00  0.00     0.200 A 
ATOM     78  F   UNL A   1      36.710  30.074  27.216  1.00  0.00    -0.200 F 
ATOM     79  F   UNL A   1      35.648  29.747  29.706  1.00  0.00    -0.200 F 
ENDBRANCH  55  69
BRANCH  56  80
ATOM     80  C   UNL A   1      49.281  26.495  27.701  1.00  0.00     0.064 A 
ATOM     81  C   UNL A   1      50.086  26.316  28.834  1.00  0.00     0.173 A 
ATOM     82  C   UNL A   1      49.886  26.360  26.443  1.00  0.00     0.173 A 
ATOM     83  F   UNL A   1      49.557  26.453  30.059  1.00  0.00    -0.203 F 
ATOM     84  C   UNL A   1      51.446  26.037  28.716  1.00  0.00     0.198 A 
ATOM     85  C   UNL A   1      51.240  26.051  26.326  1.00  0.00     0.198 A 
ATOM     86  F   UNL A   1      49.161  26.517  25.326  1.00  0.00    -0.203 F 
ATOM     87  F   UNL A   1      52.201  25.921  29.816  1.00  0.00    -0.200 F 
ATOM     88  C   UNL A   1      52.020  25.900  27.462  1.00  0.00     0.200 A 
ATOM     89  F   UNL A   1      51.789  25.902  25.113  1.00  0.00    -0.200 F 
ATOM     90  F   UNL A   1      53.328  25.629  27.348  1.00  0.00    -0.200 F 
ENDBRANCH  56  80
BRANCH  68  91
ATOM     91  C   UNL A   1      45.883  32.349  29.359  1.00  0.00     0.064 A 
ATOM     92  C   UNL A   1      45.991  33.338  28.370  1.00  0.00     0.173 A 
ATOM     93  C   UNL A   1      46.176  32.709  30.683  1.00  0.00     0.173 A 
ATOM     94  F   UNL A   1      45.733  33.042  27.087  1.00  0.00    -0.203 F 
ATOM     95  C   UNL A   1      46.405  34.628  28.691  1.00  0.00     0.198 A 
ATOM     96  C   UNL A   1      46.553  34.010  31.006  1.00  0.00     0.198 A 
ATOM     97  F   UNL A   1      46.077  31.805  31.669  1.00  0.00    -0.203 F 
ATOM     98  F   UNL A   1      46.552  35.542  27.722  1.00  0.00    -0.200 F 
ATOM     99  C   UNL A   1      46.676  34.965  30.009  1.00  0.00     0.200 A 
ATOM    100  F   UNL A   1      46.794  34.339  32.282  1.00  0.00    -0.200 F 
ATOM    101  F   UNL A   1      47.061  36.212  30.317  1.00  0.00    -0.200 F 
ENDBRANCH  68  91
ENDBRANCH  42  43
ENDBRANCH  34  37
ENDBRANCH  32  33
ENDBRANCH  31  32
ENDBRANCH   1  31
TORSDOF 13
ENDMDL
MODEL 3
REMARK VINA RESULT:     -13.6      0.734      7.108
REMARK SMILES COC(=O)c1ccc(C)c2c1[C@H]1C=CC[C@H]1[C@@H](c1ccc(C(=O)NCCCNC(=O)c3ccc(-c4c5nc(c(-c6c(F)c(F)c(F)c(F)c6F)c6ccc([nH]6)c(-c6c(F)c(F)c(F)c(F)c6F)c6nc(c(-c7c(F)c(F)c(F)c(F)c7F)c7ccc4[nH]7)C=C6)C=C5)cc3)cc1)N2
REMARK SMILES IDX 25 1 24 2 22 3 23 4 21 6 18 7 19 8 95 9 20 10 94 11 17 12
REMARK SMILES IDX 5 13 6 14 11 15 7 16 10 17 12 18 8 19 96 20 13 21 16 22 9 23
REMARK SMILES IDX 14 25 15 26 3 27 4 28 2 29 1 30 26 31 27 32 28 33 29 34
REMARK SMILES IDX 30 36 31 37 32 38 93 39 33 40 92 41 34 42 35 43 36 44 86 45
REMARK SMILES IDX 37 46 91 47 85 48 87 49 38 50 90 51 84 52 83 53 39 55 71 56
REMARK SMILES IDX 51 57 70 58 52 59 55 60 69 61 88 62 53 63 54 64 68 66 89 67
REMARK SMILES IDX 56 68 40 69 41 70 49 71 42 72 43 73 47 74 50 75 44 76 45 77
REMARK SMILES IDX 48 78 46 79 72 80 73 81 81 82 74 83 75 84 79 85 82 86 76 87
REMARK SMILES IDX 77 88 80 89 78 90 57 91 58 92 66 93 59 94 60 95 64 96 67 97
REMARK SMILES IDX 61 98 62 99 65 100 63 101
REMARK H PARENT 24 5 96 24 28 35 87 54 55 65
REMARK Flexibility Score: inf
ROOT
ATOM      1  C   UNL A   1      36.951  20.516  24.963  1.00  0.00     0.118 C 
ENDROOT
BRANCH   1   2
ATOM      2  N   UNL A   1      37.037  21.525  23.931  1.00  0.00    -0.352 N 
ATOM      3  C   UNL A   1      36.359  22.694  23.730  1.00  0.00     0.251 C 
ATOM      4  O   UNL A   1      36.662  23.344  22.729  1.00  0.00    -0.269 OA
ATOM      5  H   UNL A   1      37.715  21.334  23.242  1.00  0.00     0.163 HD
BRANCH   3   6
ATOM      6  C   UNL A   1      35.313  23.216  24.653  1.00  0.00     0.039 A 
ATOM      7  C   UNL A   1      33.207  24.387  26.163  1.00  0.00    -0.025 A 
ATOM      8  C   UNL A   1      33.967  25.143  25.258  1.00  0.00     0.006 A 
ATOM      9  C   UNL A   1      33.584  23.053  26.358  1.00  0.00     0.006 A 
ATOM     10  C   UNL A   1      35.000  24.570  24.515  1.00  0.00     0.014 A 
ATOM     11  C   UNL A   1      34.589  22.467  25.581  1.00  0.00     0.014 A 
BRANCH   7  12
ATOM     12  C   UNL A   1      31.915  24.888  26.812  1.00  0.00     0.114 C 
ATOM     13  C   UNL A   1      31.002  27.950  23.997  1.00  0.00     0.065 A 
ATOM     14  C   UNL A   1      31.644  29.184  24.134  1.00  0.00     0.016 A 
ATOM     15  C   UNL A   1      31.091  26.972  25.014  1.00  0.00    -0.003 A 
ATOM     16  C   UNL A   1      32.363  29.468  25.289  1.00  0.00     0.006 A 
ATOM     17  C   UNL A   1      31.809  27.276  26.201  1.00  0.00     0.042 A 
ATOM     18  C   UNL A   1      30.446  25.609  24.841  1.00  0.00     0.050 C 
ATOM     19  C   UNL A   1      32.453  28.530  26.329  1.00  0.00    -0.028 A 
ATOM     20  N   UNL A   1      31.999  26.295  27.164  1.00  0.00    -0.377 N 
ATOM     21  C   UNL A   1      30.980  24.752  23.715  1.00  0.00    -0.023 C 
ATOM     22  C   UNL A   1      30.598  24.649  26.038  1.00  0.00     0.031 C 
ATOM     23  C   UNL A   1      33.297  28.922  27.517  1.00  0.00     0.046 C 
ATOM     24  H   UNL A   1      32.193  26.554  28.094  1.00  0.00     0.161 HD
ATOM     25  C   UNL A   1      30.969  23.452  24.035  1.00  0.00    -0.030 C 
ATOM     26  C   UNL A   1      30.457  23.245  25.423  1.00  0.00     0.034 C 
BRANCH  13  27
ATOM     27  C   UNL A   1      30.206  27.715  22.767  1.00  0.00     0.338 C 
ATOM     28  O   UNL A   1      30.679  27.484  21.670  1.00  0.00    -0.246 OA
BRANCH  27  29
ATOM     29  O   UNL A   1      28.888  27.849  23.066  1.00  0.00    -0.465 OA
ATOM     30  C   UNL A   1      28.341  29.111  22.680  1.00  0.00     0.282 C 
ENDBRANCH  27  29
ENDBRANCH  13  27
ENDBRANCH   7  12
ENDBRANCH   3   6
ENDBRANCH   1   2
BRANCH   1  31
ATOM     31  C   UNL A   1      38.204  19.642  24.952  1.00  0.00     0.042 C 
BRANCH  31  32
ATOM     32  C   UNL A   1      39.202  20.067  26.026  1.00  0.00     0.118 C 
BRANCH  32  33
ATOM     33  N   UNL A   1      40.349  19.168  26.051  1.00  0.00    -0.352 N 
ATOM     34  C   UNL A   1      41.683  19.473  25.997  1.00  0.00     0.251 C 
ATOM     35  H   UNL A   1      40.137  18.209  26.117  1.00  0.00     0.163 HD
ATOM     36  O   UNL A   1      42.506  18.621  25.681  1.00  0.00    -0.269 OA
BRANCH  34  37
ATOM     37  C   UNL A   1      42.122  20.833  26.351  1.00  0.00     0.039 A 
ATOM     38  C   UNL A   1      42.329  21.163  27.692  1.00  0.00     0.014 A 
ATOM     39  C   UNL A   1      42.276  21.794  25.347  1.00  0.00     0.014 A 
ATOM     40  C   UNL A   1      42.718  22.459  28.026  1.00  0.00     0.010 A 
ATOM     41  C   UNL A   1      42.724  23.065  25.672  1.00  0.00     0.010 A 
ATOM     42  C   UNL A   1      42.923  23.412  27.016  1.00  0.00    -0.014 A 
BRANCH  42  43
ATOM     43  C   UNL A   1      43.264  24.813  27.338  1.00  0.00     0.031 A 
ATOM     44  C   UNL A   1      44.674  25.286  27.126  1.00  0.00     0.074 A 
ATOM     45  C   UNL A   1      42.331  25.629  27.857  1.00  0.00     0.049 A 
ATOM     46  N   UNL A   1      45.213  26.438  27.422  1.00  0.00    -0.248 NA
ATOM     47  C   UNL A   1      45.607  24.322  26.515  1.00  0.00     0.031 C 
ATOM     48  C   UNL A   1      40.936  25.269  28.105  1.00  0.00     0.029 A 
ATOM     49  N   UNL A   1      42.421  26.931  28.274  1.00  0.00    -0.354 N 
ATOM     50  C   UNL A   1      46.539  26.343  27.024  1.00  0.00     0.074 A 
ATOM     51  C   UNL A   1      46.745  25.000  26.532  1.00  0.00     0.031 C 
ATOM     52  C   UNL A   1      40.294  26.332  28.613  1.00  0.00     0.029 A 
ATOM     53  C   UNL A   1      41.241  27.434  28.762  1.00  0.00     0.049 A 
ATOM     54  H   UNL A   1      43.253  27.456  28.230  1.00  0.00     0.167 HD
ATOM     55  C   UNL A   1      47.490  27.305  27.035  1.00  0.00     0.037 A 
ATOM     56  C   UNL A   1      40.966  28.648  29.275  1.00  0.00     0.037 A 
ATOM     57  C   UNL A   1      47.277  28.640  27.527  1.00  0.00     0.049 A 
ATOM     58  C   UNL A   1      42.068  29.671  29.354  1.00  0.00     0.074 A 
ATOM     59  C   UNL A   1      48.173  29.691  27.587  1.00  0.00     0.029 A 
ATOM     60  N   UNL A   1      46.075  29.106  28.042  1.00  0.00    -0.354 N 
ATOM     61  N   UNL A   1      43.312  29.585  28.948  1.00  0.00    -0.248 NA
ATOM     62  C   UNL A   1      41.724  30.965  29.959  1.00  0.00     0.031 C 
ATOM     63  C   UNL A   1      47.527  30.780  28.178  1.00  0.00     0.029 A 
ATOM     64  C   UNL A   1      46.212  30.427  28.435  1.00  0.00     0.049 A 
ATOM     65  H   UNL A   1      45.248  28.577  28.116  1.00  0.00     0.167 HD
ATOM     66  C   UNL A   1      43.888  30.820  29.216  1.00  0.00     0.074 A 
ATOM     67  C   UNL A   1      42.851  31.644  29.801  1.00  0.00     0.031 C 
ATOM     68  C   UNL A   1      45.163  31.234  29.003  1.00  0.00     0.037 A 
BRANCH  55  69
ATOM     69  C   UNL A   1      48.840  26.959  26.479  1.00  0.00     0.064 A 
ATOM     70  C   UNL A   1      49.839  26.402  27.292  1.00  0.00     0.173 A 
ATOM     71  C   UNL A   1      49.118  27.118  25.114  1.00  0.00     0.173 A 
ATOM     72  F   UNL A   1      49.629  26.244  28.608  1.00  0.00    -0.203 F 
ATOM     73  C   UNL A   1      51.070  26.028  26.761  1.00  0.00     0.198 A 
ATOM     74  C   UNL A   1      50.339  26.715  24.581  1.00  0.00     0.198 A 
ATOM     75  F   UNL A   1      48.198  27.646  24.293  1.00  0.00    -0.203 F 
ATOM     76  F   UNL A   1      52.020  25.530  27.564  1.00  0.00    -0.200 F 
ATOM     77  C   UNL A   1      51.315  26.173  25.404  1.00  0.00     0.200 A 
ATOM     78  F   UNL A   1      50.569  26.843  23.267  1.00  0.00    -0.200 F 
ATOM     79  F   UNL A   1      52.492  25.792  24.890  1.00  0.00    -0.200 F 
ENDBRANCH  55  69
BRANCH  56  80
ATOM     80  C   UNL A   1      39.586  28.980  29.717  1.00  0.00     0.064 A 
ATOM     81  C   UNL A   1      38.652  29.498  28.808  1.00  0.00     0.173 A 
ATOM     82  C   UNL A   1      39.173  28.803  31.046  1.00  0.00     0.173 A 
ATOM     83  F   UNL A   1      39.005  29.703  27.531  1.00  0.00    -0.203 F 
ATOM     84  C   UNL A   1      37.367  29.847  29.215  1.00  0.00     0.198 A 
ATOM     85  C   UNL A   1      37.876  29.124  31.445  1.00  0.00     0.198 A 
ATOM     86  F   UNL A   1      40.024  28.307  31.955  1.00  0.00    -0.203 F 
ATOM     87  F   UNL A   1      36.512  30.387  28.336  1.00  0.00    -0.200 F 
ATOM     88  C   UNL A   1      36.978  29.655  30.532  1.00  0.00     0.200 A 
ATOM     89  F   UNL A   1      37.499  28.922  32.714  1.00  0.00    -0.200 F 
ATOM     90  F   UNL A   1      35.740  29.988  30.923  1.00  0.00    -0.200 F 
ENDBRANCH  56  80
BRANCH  68  91
ATOM     91  C   UNL A   1      45.499  32.651  29.371  1.00  0.00     0.064 A 
ATOM     92  C   UNL A   1      45.305  33.710  28.471  1.00  0.00     0.173 A 
ATOM     93  C   UNL A   1      45.969  32.959  30.656  1.00  0.00     0.173 A 
ATOM     94  F   UNL A   1      44.869  33.467  27.226  1.00  0.00    -0.203 F 
ATOM     95  C   UNL A   1      45.598  35.021  28.837  1.00  0.00     0.198 A 
ATOM     96  C   UNL A   1      46.225  34.276  31.030  1.00  0.00     0.198 A 
ATOM     97  F   UNL A   1      46.161  31.986  31.559  1.00  0.00    -0.203 F 
ATOM     98  F   UNL A   1      45.455  36.010  27.944  1.00  0.00    -0.200 F 
ATOM     99  C   UNL A   1      46.048  35.304  30.117  1.00  0.00     0.200 A 
ATOM    100  F   UNL A   1      46.639  34.549  32.275  1.00  0.00    -0.200 F 
ATOM    101  F   UNL A   1      46.316  36.569  30.470  1.00  0.00    -0.200 F 
ENDBRANCH  68  91
ENDBRANCH  42  43
ENDBRANCH  34  37
ENDBRANCH  32  33
ENDBRANCH  31  32
ENDBRANCH   1  31
TORSDOF 13
ENDMDL
