MODEL 1
REMARK VINA RESULT:     -13.1      0.000      0.000
REMARK SMILES C[C@]1(C(=O)N2CCC(CC(=O)NCCCNC(=O)c3ccc(-c4c5nc(c(-c6c(F)c(F)c(F)c(F)c6F)c6ccc([nH]6)c(-c6c(F)c(F)c(F)c(F)c6F)c6nc(c(-c7c(F)c(F)c(F)c(F)c7F)c7ccc4[nH]7)C=C6)C=C5)cc3)CC2)CCC[NH2+]C1
REMARK SMILES IDX 14 1 13 2 12 3 10 4 11 5 9 7 8 8 3 9 4 10 5 11 6 12 83 13
REMARK SMILES IDX 7 14 82 15 2 16 1 17 84 18 88 19 85 20 87 21 86 22 15 25
REMARK SMILES IDX 16 26 17 27 18 29 19 30 20 31 81 32 21 33 80 34 22 35 23 36
REMARK SMILES IDX 24 37 74 38 25 39 79 40 73 41 75 42 26 43 78 44 72 45 71 46
REMARK SMILES IDX 27 48 59 49 39 50 58 51 40 52 43 53 57 54 76 55 41 56 42 57
REMARK SMILES IDX 56 59 77 60 44 61 28 62 29 63 37 64 30 65 31 66 35 67 38 68
REMARK SMILES IDX 32 69 33 70 36 71 34 72 60 73 61 74 69 75 62 76 63 77 67 78
REMARK SMILES IDX 70 79 64 80 65 81 68 82 66 83 45 84 46 85 54 86 47 87 48 88
REMARK SMILES IDX 52 89 55 90 49 91 50 92 53 93 51 94
REMARK H PARENT 12 6 87 23 87 24 16 28 75 47 43 58
REMARK Flexibility Score: inf
ROOT
ATOM      1  C   UNL A   1      31.409  32.243  26.501  1.00  0.00     0.042 C 
ENDROOT
BRANCH   1   2
ATOM      2  C   UNL A   1      31.540  30.759  26.158  1.00  0.00     0.117 C 
BRANCH   2   3
ATOM      3  N   UNL A   1      30.997  30.453  24.845  1.00  0.00    -0.356 N 
ATOM      4  C   UNL A   1      31.033  29.310  24.099  1.00  0.00     0.220 C 
ATOM      5  O   UNL A   1      30.534  29.345  22.974  1.00  0.00    -0.275 OA
ATOM      6  H   UNL A   1      30.520  31.201  24.419  1.00  0.00     0.163 HD
BRANCH   4   7
ATOM      7  C   UNL A   1      31.645  28.026  24.636  1.00  0.00     0.103 C 
BRANCH   7   8
ATOM      8  C   UNL A   1      30.693  26.801  24.667  1.00  0.00     0.002 C 
ATOM      9  C   UNL A   1      32.095  23.066  25.381  1.00  0.00     0.234 C 
ATOM     10  O   UNL A   1      32.033  22.524  26.494  1.00  0.00    -0.274 OA
ATOM     11  N   UNL A   1      31.081  23.943  25.012  1.00  0.00    -0.342 N 
ATOM     12  C   UNL A   1      30.364  24.652  26.068  1.00  0.00     0.120 C 
ATOM     13  C   UNL A   1      30.653  24.380  23.693  1.00  0.00     0.120 C 
ATOM     14  C   UNL A   1      30.808  26.115  26.053  1.00  0.00     0.026 C 
ATOM     15  C   UNL A   1      30.989  25.855  23.487  1.00  0.00     0.026 C 
BRANCH   9  16
ATOM     16  C   UNL A   1      33.286  22.695  24.436  1.00  0.00     0.095 C 
ATOM     17  C   UNL A   1      32.731  21.832  23.291  1.00  0.00     0.028 C 
ATOM     18  C   UNL A   1      34.111  23.863  23.875  1.00  0.00     0.028 C 
ATOM     19  C   UNL A   1      34.318  21.820  25.233  1.00  0.00     0.277 C 
ATOM     20  C   UNL A   1      34.775  24.629  25.013  1.00  0.00     0.063 C 
ATOM     21  N   UNL A   1      35.108  22.539  26.247  1.00  0.00    -0.345 N 
ATOM     22  C   UNL A   1      35.759  23.742  25.752  1.00  0.00     0.260 C 
ATOM     23  H   UNL A   1      34.487  22.802  27.010  1.00  0.00     0.346 HD
ATOM     24  H   UNL A   1      35.852  21.905  26.543  1.00  0.00     0.346 HD
ENDBRANCH   9  16
ENDBRANCH   7   8
ENDBRANCH   4   7
ENDBRANCH   2   3
ENDBRANCH   1   2
BRANCH   1  25
ATOM     25  C   UNL A   1      32.585  32.799  27.292  1.00  0.00     0.118 C 
BRANCH  25  26
ATOM     26  N   UNL A   1      32.399  34.201  27.626  1.00  0.00    -0.352 N 
ATOM     27  C   UNL A   1      32.996  34.962  28.604  1.00  0.00     0.251 C 
ATOM     28  H   UNL A   1      31.746  34.680  27.066  1.00  0.00     0.163 HD
ATOM     29  O   UNL A   1      32.528  36.059  28.886  1.00  0.00    -0.269 OA
BRANCH  27  30
ATOM     30  C   UNL A   1      34.184  34.462  29.338  1.00  0.00     0.039 A 
ATOM     31  C   UNL A   1      34.003  33.889  30.601  1.00  0.00     0.014 A 
ATOM     32  C   UNL A   1      35.472  34.580  28.810  1.00  0.00     0.014 A 
ATOM     33  C   UNL A   1      35.100  33.370  31.297  1.00  0.00     0.010 A 
ATOM     34  C   UNL A   1      36.552  33.993  29.467  1.00  0.00     0.010 A 
ATOM     35  C   UNL A   1      36.377  33.376  30.715  1.00  0.00    -0.014 A 
BRANCH  35  36
ATOM     36  C   UNL A   1      37.537  32.725  31.380  1.00  0.00     0.031 A 
ATOM     37  C   UNL A   1      38.218  31.547  30.741  1.00  0.00     0.074 A 
ATOM     38  C   UNL A   1      37.924  33.145  32.601  1.00  0.00     0.049 A 
ATOM     39  N   UNL A   1      39.167  30.780  31.216  1.00  0.00    -0.248 NA
ATOM     40  C   UNL A   1      37.757  31.167  29.397  1.00  0.00     0.031 C 
ATOM     41  C   UNL A   1      37.322  34.255  33.342  1.00  0.00     0.029 A 
ATOM     42  N   UNL A   1      38.901  32.676  33.445  1.00  0.00    -0.354 N 
ATOM     43  C   UNL A   1      39.404  29.822  30.240  1.00  0.00     0.074 A 
ATOM     44  C   UNL A   1      38.470  30.074  29.165  1.00  0.00     0.031 C 
ATOM     45  C   UNL A   1      37.949  34.389  34.521  1.00  0.00     0.029 A 
ATOM     46  C   UNL A   1      38.959  33.342  34.644  1.00  0.00     0.049 A 
ATOM     47  H   UNL A   1      39.502  31.932  33.212  1.00  0.00     0.167 HD
ATOM     48  C   UNL A   1      40.331  28.832  30.236  1.00  0.00     0.037 A 
ATOM     49  C   UNL A   1      39.723  33.122  35.732  1.00  0.00     0.037 A 
ATOM     50  C   UNL A   1      41.270  28.596  31.301  1.00  0.00     0.049 A 
ATOM     51  C   UNL A   1      40.714  31.990  35.716  1.00  0.00     0.074 A 
ATOM     52  C   UNL A   1      42.291  27.663  31.359  1.00  0.00     0.029 A 
ATOM     53  N   UNL A   1      41.297  29.292  32.501  1.00  0.00    -0.354 N 
ATOM     54  N   UNL A   1      40.979  31.135  34.758  1.00  0.00    -0.248 NA
ATOM     55  C   UNL A   1      41.512  31.790  36.935  1.00  0.00     0.031 C 
ATOM     56  C   UNL A   1      42.893  27.751  32.618  1.00  0.00     0.029 A 
ATOM     57  C   UNL A   1      42.290  28.781  33.322  1.00  0.00     0.049 A 
ATOM     58  H   UNL A   1      40.700  30.039  32.734  1.00  0.00     0.167 HD
ATOM     59  C   UNL A   1      41.985  30.313  35.247  1.00  0.00     0.074 A 
ATOM     60  C   UNL A   1      42.299  30.784  36.580  1.00  0.00     0.031 C 
ATOM     61  C   UNL A   1      42.590  29.258  34.648  1.00  0.00     0.037 A 
BRANCH  48  62
ATOM     62  C   UNL A   1      40.373  27.919  29.043  1.00  0.00     0.064 A 
ATOM     63  C   UNL A   1      39.632  26.728  28.997  1.00  0.00     0.173 A 
ATOM     64  C   UNL A   1      41.124  28.266  27.909  1.00  0.00     0.173 A 
ATOM     65  F   UNL A   1      38.903  26.344  30.057  1.00  0.00    -0.203 F 
ATOM     66  C   UNL A   1      39.663  25.907  27.872  1.00  0.00     0.198 A 
ATOM     67  C   UNL A   1      41.127  27.459  26.774  1.00  0.00     0.198 A 
ATOM     68  F   UNL A   1      41.845  29.397  27.895  1.00  0.00    -0.203 F 
ATOM     69  F   UNL A   1      38.983  24.752  27.871  1.00  0.00    -0.200 F 
ATOM     70  C   UNL A   1      40.403  26.277  26.760  1.00  0.00     0.200 A 
ATOM     71  F   UNL A   1      41.829  27.827  25.694  1.00  0.00    -0.200 F 
ATOM     72  F   UNL A   1      40.421  25.491  25.674  1.00  0.00    -0.200 F 
ENDBRANCH  48  62
BRANCH  49  73
ATOM     73  C   UNL A   1      39.572  33.986  36.934  1.00  0.00     0.064 A 
ATOM     74  C   UNL A   1      38.769  33.588  38.012  1.00  0.00     0.173 A 
ATOM     75  C   UNL A   1      40.216  35.228  37.027  1.00  0.00     0.173 A 
ATOM     76  F   UNL A   1      38.115  32.417  37.963  1.00  0.00    -0.203 F 
ATOM     77  C   UNL A   1      38.598  34.408  39.126  1.00  0.00     0.198 A 
ATOM     78  C   UNL A   1      40.072  36.034  38.154  1.00  0.00     0.198 A 
ATOM     79  F   UNL A   1      41.000  35.655  36.026  1.00  0.00    -0.203 F 
ATOM     80  F   UNL A   1      37.786  34.025  40.119  1.00  0.00    -0.200 F 
ATOM     81  C   UNL A   1      39.255  35.627  39.199  1.00  0.00     0.200 A 
ATOM     82  F   UNL A   1      40.723  37.202  38.228  1.00  0.00    -0.200 F 
ATOM     83  F   UNL A   1      39.096  36.414  40.272  1.00  0.00    -0.200 F 
ENDBRANCH  49  73
BRANCH  61  84
ATOM     84  C   UNL A   1      43.667  28.549  35.419  1.00  0.00     0.064 A 
ATOM     85  C   UNL A   1      45.014  28.924  35.313  1.00  0.00     0.173 A 
ATOM     86  C   UNL A   1      43.342  27.515  36.310  1.00  0.00     0.173 A 
ATOM     87  F   UNL A   1      45.379  29.896  34.461  1.00  0.00    -0.203 F 
ATOM     88  C   UNL A   1      45.998  28.277  36.055  1.00  0.00     0.198 A 
ATOM     89  C   UNL A   1      44.324  26.893  37.076  1.00  0.00     0.198 A 
ATOM     90  F   UNL A   1      42.067  27.121  36.454  1.00  0.00    -0.203 F 
ATOM     91  F   UNL A   1      47.284  28.622  35.904  1.00  0.00    -0.200 F 
ATOM     92  C   UNL A   1      45.651  27.270  36.943  1.00  0.00     0.200 A 
ATOM     93  F   UNL A   1      43.985  25.930  37.945  1.00  0.00    -0.200 F 
ATOM     94  F   UNL A   1      46.599  26.657  37.666  1.00  0.00    -0.200 F 
ENDBRANCH  61  84
ENDBRANCH  35  36
ENDBRANCH  27  30
ENDBRANCH  25  26
ENDBRANCH   1  25
TORSDOF 12
ENDMDL
MODEL 2
REMARK VINA RESULT:     -13.1      0.181      1.611
REMARK SMILES C[C@]1(C(=O)N2CCC(CC(=O)NCCCNC(=O)c3ccc(-c4c5nc(c(-c6c(F)c(F)c(F)c(F)c6F)c6ccc([nH]6)c(-c6c(F)c(F)c(F)c(F)c6F)c6nc(c(-c7c(F)c(F)c(F)c(F)c7F)c7ccc4[nH]7)C=C6)C=C5)cc3)CC2)CCC[NH2+]C1
REMARK SMILES IDX 14 1 13 2 12 3 10 4 11 5 9 7 8 8 3 9 4 10 5 11 6 12 83 13
REMARK SMILES IDX 7 14 82 15 2 16 1 17 84 18 88 19 85 20 87 21 86 22 15 25
REMARK SMILES IDX 16 26 17 27 18 29 19 30 20 31 81 32 21 33 80 34 22 35 23 36
REMARK SMILES IDX 24 37 74 38 25 39 79 40 73 41 75 42 26 43 78 44 72 45 71 46
REMARK SMILES IDX 27 48 59 49 39 50 58 51 40 52 43 53 57 54 76 55 41 56 42 57
REMARK SMILES IDX 56 59 77 60 44 61 28 62 29 63 37 64 30 65 31 66 35 67 38 68
REMARK SMILES IDX 32 69 33 70 36 71 34 72 60 73 61 74 69 75 62 76 63 77 67 78
REMARK SMILES IDX 70 79 64 80 65 81 68 82 66 83 45 84 46 85 54 86 47 87 48 88
REMARK SMILES IDX 52 89 55 90 49 91 50 92 53 93 51 94
REMARK H PARENT 12 6 87 23 87 24 16 28 75 47 43 58
REMARK Flexibility Score: inf
ROOT
ATOM      1  C   UNL A   1      31.408  32.205  26.566  1.00  0.00     0.042 C 
ENDROOT
BRANCH   1   2
ATOM      2  C   UNL A   1      31.599  30.752  26.131  1.00  0.00     0.117 C 
BRANCH   2   3
ATOM      3  N   UNL A   1      30.939  30.470  24.867  1.00  0.00    -0.356 N 
ATOM      4  C   UNL A   1      30.912  29.343  24.096  1.00  0.00     0.220 C 
ATOM      5  O   UNL A   1      30.312  29.399  23.022  1.00  0.00    -0.275 OA
ATOM      6  H   UNL A   1      30.421  31.223  24.503  1.00  0.00     0.163 HD
BRANCH   4   7
ATOM      7  C   UNL A   1      31.578  28.053  24.546  1.00  0.00     0.103 C 
BRANCH   7   8
ATOM      8  C   UNL A   1      30.645  26.815  24.611  1.00  0.00     0.002 C 
ATOM      9  C   UNL A   1      32.132  23.090  25.200  1.00  0.00     0.234 C 
ATOM     10  O   UNL A   1      32.136  22.533  26.307  1.00  0.00    -0.274 OA
ATOM     11  N   UNL A   1      31.088  23.958  24.897  1.00  0.00    -0.342 N 
ATOM     12  C   UNL A   1      30.419  24.643  25.999  1.00  0.00     0.120 C 
ATOM     13  C   UNL A   1      30.586  24.405  23.609  1.00  0.00     0.120 C 
ATOM     14  C   UNL A   1      30.842  26.113  25.979  1.00  0.00     0.026 C 
ATOM     15  C   UNL A   1      30.891  25.887  23.404  1.00  0.00     0.026 C 
BRANCH   9  16
ATOM     16  C   UNL A   1      33.276  22.748  24.189  1.00  0.00     0.095 C 
ATOM     17  C   UNL A   1      32.680  21.866  23.080  1.00  0.00     0.028 C 
ATOM     18  C   UNL A   1      34.036  23.935  23.579  1.00  0.00     0.028 C 
ATOM     19  C   UNL A   1      34.375  21.904  24.927  1.00  0.00     0.277 C 
ATOM     20  C   UNL A   1      34.743  24.723  24.675  1.00  0.00     0.063 C 
ATOM     21  N   UNL A   1      35.203  22.648  25.892  1.00  0.00    -0.345 N 
ATOM     22  C   UNL A   1      35.791  23.866  25.358  1.00  0.00     0.260 C 
ATOM     23  H   UNL A   1      34.620  22.896  26.690  1.00  0.00     0.346 HD
ATOM     24  H   UNL A   1      35.979  22.035  26.146  1.00  0.00     0.346 HD
ENDBRANCH   9  16
ENDBRANCH   7   8
ENDBRANCH   4   7
ENDBRANCH   2   3
ENDBRANCH   1   2
BRANCH   1  25
ATOM     25  C   UNL A   1      32.625  32.807  27.255  1.00  0.00     0.118 C 
BRANCH  25  26
ATOM     26  N   UNL A   1      32.413  34.201  27.608  1.00  0.00    -0.352 N 
ATOM     27  C   UNL A   1      32.997  34.959  28.596  1.00  0.00     0.251 C 
ATOM     28  H   UNL A   1      31.751  34.675  27.056  1.00  0.00     0.163 HD
ATOM     29  O   UNL A   1      32.509  36.043  28.893  1.00  0.00    -0.269 OA
BRANCH  27  30
ATOM     30  C   UNL A   1      34.194  34.471  29.322  1.00  0.00     0.039 A 
ATOM     31  C   UNL A   1      34.027  33.879  30.578  1.00  0.00     0.014 A 
ATOM     32  C   UNL A   1      35.480  34.621  28.795  1.00  0.00     0.014 A 
ATOM     33  C   UNL A   1      35.133  33.371  31.266  1.00  0.00     0.010 A 
ATOM     34  C   UNL A   1      36.571  34.044  29.442  1.00  0.00     0.010 A 
ATOM     35  C   UNL A   1      36.410  33.408  30.683  1.00  0.00    -0.014 A 
BRANCH  35  36
ATOM     36  C   UNL A   1      37.582  32.770  31.337  1.00  0.00     0.031 A 
ATOM     37  C   UNL A   1      38.275  31.604  30.689  1.00  0.00     0.074 A 
ATOM     38  C   UNL A   1      37.971  33.190  32.557  1.00  0.00     0.049 A 
ATOM     39  N   UNL A   1      39.237  30.848  31.155  1.00  0.00    -0.248 NA
ATOM     40  C   UNL A   1      37.810  31.223  29.346  1.00  0.00     0.031 C 
ATOM     41  C   UNL A   1      37.359  34.289  33.307  1.00  0.00     0.029 A 
ATOM     42  N   UNL A   1      38.959  32.730  33.393  1.00  0.00    -0.354 N 
ATOM     43  C   UNL A   1      39.481  29.896  30.173  1.00  0.00     0.074 A 
ATOM     44  C   UNL A   1      38.537  30.141  29.105  1.00  0.00     0.031 C 
ATOM     45  C   UNL A   1      37.991  34.426  34.483  1.00  0.00     0.029 A 
ATOM     46  C   UNL A   1      39.016  33.393  34.595  1.00  0.00     0.049 A 
ATOM     47  H   UNL A   1      39.569  31.996  33.154  1.00  0.00     0.167 HD
ATOM     48  C   UNL A   1      40.420  28.919  30.159  1.00  0.00     0.037 A 
ATOM     49  C   UNL A   1      39.790  33.178  35.678  1.00  0.00     0.037 A 
ATOM     50  C   UNL A   1      41.369  28.692  31.217  1.00  0.00     0.049 A 
ATOM     51  C   UNL A   1      40.796  32.059  35.651  1.00  0.00     0.074 A 
ATOM     52  C   UNL A   1      42.402  27.772  31.266  1.00  0.00     0.029 A 
ATOM     53  N   UNL A   1      41.394  29.383  32.420  1.00  0.00    -0.354 N 
ATOM     54  N   UNL A   1      41.066  31.212  34.687  1.00  0.00    -0.248 NA
ATOM     55  C   UNL A   1      41.604  31.865  36.863  1.00  0.00     0.031 C 
ATOM     56  C   UNL A   1      43.012  27.863  32.521  1.00  0.00     0.029 A 
ATOM     57  C   UNL A   1      42.399  28.882  33.233  1.00  0.00     0.049 A 
ATOM     58  H   UNL A   1      40.789  30.121  32.660  1.00  0.00     0.167 HD
ATOM     59  C   UNL A   1      42.086  30.401  35.167  1.00  0.00     0.074 A 
ATOM     60  C   UNL A   1      42.402  30.871  36.500  1.00  0.00     0.031 C 
ATOM     61  C   UNL A   1      42.701  29.357  34.560  1.00  0.00     0.037 A 
BRANCH  48  62
ATOM     62  C   UNL A   1      40.467  28.012  28.963  1.00  0.00     0.064 A 
ATOM     63  C   UNL A   1      39.716  26.828  28.902  1.00  0.00     0.173 A 
ATOM     64  C   UNL A   1      41.233  28.358  27.838  1.00  0.00     0.173 A 
ATOM     65  F   UNL A   1      38.973  26.445  29.952  1.00  0.00    -0.203 F 
ATOM     66  C   UNL A   1      39.752  26.012  27.774  1.00  0.00     0.198 A 
ATOM     67  C   UNL A   1      41.241  27.557  26.700  1.00  0.00     0.198 A 
ATOM     68  F   UNL A   1      41.964  29.483  27.838  1.00  0.00    -0.203 F 
ATOM     69  F   UNL A   1      39.062  24.863  27.760  1.00  0.00    -0.200 F 
ATOM     70  C   UNL A   1      40.507  26.381  26.671  1.00  0.00     0.200 A 
ATOM     71  F   UNL A   1      41.959  27.923  25.628  1.00  0.00    -0.200 F 
ATOM     72  F   UNL A   1      40.530  25.600  25.582  1.00  0.00    -0.200 F 
ENDBRANCH  48  62
BRANCH  49  73
ATOM     73  C   UNL A   1      39.635  34.035  36.884  1.00  0.00     0.064 A 
ATOM     74  C   UNL A   1      40.304  35.262  36.988  1.00  0.00     0.173 A 
ATOM     75  C   UNL A   1      38.825  33.643  37.959  1.00  0.00     0.173 A 
ATOM     76  F   UNL A   1      41.108  35.673  35.995  1.00  0.00    -0.203 F 
ATOM     77  C   UNL A   1      40.188  36.053  38.130  1.00  0.00     0.198 A 
ATOM     78  C   UNL A   1      38.682  34.448  39.087  1.00  0.00     0.198 A 
ATOM     79  F   UNL A   1      38.157  32.480  37.909  1.00  0.00    -0.203 F 
ATOM     80  F   UNL A   1      40.878  37.197  38.223  1.00  0.00    -0.200 F 
ATOM     81  C   UNL A   1      39.372  35.648  39.176  1.00  0.00     0.200 A 
ATOM     82  F   UNL A   1      37.878  34.061  40.086  1.00  0.00    -0.200 F 
ATOM     83  F   UNL A   1      39.255  36.411  40.271  1.00  0.00    -0.200 F 
ENDBRANCH  49  73
BRANCH  61  84
ATOM     84  C   UNL A   1      43.792  28.660  35.321  1.00  0.00     0.064 A 
ATOM     85  C   UNL A   1      43.513  27.609  36.206  1.00  0.00     0.173 A 
ATOM     86  C   UNL A   1      45.136  29.014  35.125  1.00  0.00     0.173 A 
ATOM     87  F   UNL A   1      42.243  27.243  36.441  1.00  0.00    -0.203 F 
ATOM     88  C   UNL A   1      44.537  26.952  36.884  1.00  0.00     0.198 A 
ATOM     89  C   UNL A   1      46.159  28.333  35.778  1.00  0.00     0.198 A 
ATOM     90  F   UNL A   1      45.458  30.009  34.285  1.00  0.00    -0.203 F 
ATOM     91  F   UNL A   1      44.243  25.981  37.759  1.00  0.00    -0.200 F 
ATOM     92  C   UNL A   1      45.859  27.308  36.661  1.00  0.00     0.200 A 
ATOM     93  F   UNL A   1      47.437  28.668  35.551  1.00  0.00    -0.200 F 
ATOM     94  F   UNL A   1      46.844  26.665  37.304  1.00  0.00    -0.200 F 
ENDBRANCH  61  84
ENDBRANCH  35  36
ENDBRANCH  27  30
ENDBRANCH  25  26
ENDBRANCH   1  25
TORSDOF 12
ENDMDL
MODEL 3
REMARK VINA RESULT:     -13.1      0.311      1.631
REMARK SMILES C[C@]1(C(=O)N2CCC(CC(=O)NCCCNC(=O)c3ccc(-c4c5nc(c(-c6c(F)c(F)c(F)c(F)c6F)c6ccc([nH]6)c(-c6c(F)c(F)c(F)c(F)c6F)c6nc(c(-c7c(F)c(F)c(F)c(F)c7F)c7ccc4[nH]7)C=C6)C=C5)cc3)CC2)CCC[NH2+]C1
REMARK SMILES IDX 14 1 13 2 12 3 10 4 11 5 9 7 8 8 3 9 4 10 5 11 6 12 83 13
REMARK SMILES IDX 7 14 82 15 2 16 1 17 84 18 88 19 85 20 87 21 86 22 15 25
REMARK SMILES IDX 16 26 17 27 18 29 19 30 20 31 81 32 21 33 80 34 22 35 23 36
REMARK SMILES IDX 24 37 74 38 25 39 79 40 73 41 75 42 26 43 78 44 72 45 71 46
REMARK SMILES IDX 27 48 59 49 39 50 58 51 40 52 43 53 57 54 76 55 41 56 42 57
REMARK SMILES IDX 56 59 77 60 44 61 28 62 29 63 37 64 30 65 31 66 35 67 38 68
REMARK SMILES IDX 32 69 33 70 36 71 34 72 60 73 61 74 69 75 62 76 63 77 67 78
REMARK SMILES IDX 70 79 64 80 65 81 68 82 66 83 45 84 46 85 54 86 47 87 48 88
REMARK SMILES IDX 52 89 55 90 49 91 50 92 53 93 51 94
REMARK H PARENT 12 6 87 23 87 24 16 28 75 47 43 58
REMARK Flexibility Score: inf
ROOT
ATOM      1  C   UNL A   1      31.371  32.253  26.513  1.00  0.00     0.042 C 
ENDROOT
BRANCH   1   2
ATOM      2  C   UNL A   1      31.517  30.776  26.145  1.00  0.00     0.117 C 
BRANCH   2   3
ATOM      3  N   UNL A   1      30.951  30.482  24.839  1.00  0.00    -0.356 N 
ATOM      4  C   UNL A   1      30.973  29.345  24.084  1.00  0.00     0.220 C 
ATOM      5  O   UNL A   1      30.456  29.389  22.967  1.00  0.00    -0.275 OA
ATOM      6  H   UNL A   1      30.468  31.233  24.427  1.00  0.00     0.163 HD
BRANCH   4   7
ATOM      7  C   UNL A   1      31.593  28.056  24.600  1.00  0.00     0.103 C 
BRANCH   7   8
ATOM      8  C   UNL A   1      30.635  26.837  24.656  1.00  0.00     0.002 C 
ATOM      9  C   UNL A   1      32.055  23.063  25.075  1.00  0.00     0.234 C 
ATOM     10  O   UNL A   1      32.083  22.470  26.163  1.00  0.00    -0.274 OA
ATOM     11  N   UNL A   1      31.021  23.964  24.835  1.00  0.00    -0.342 N 
ATOM     12  C   UNL A   1      30.405  24.626  25.980  1.00  0.00     0.120 C 
ATOM     13  C   UNL A   1      30.487  24.464  23.580  1.00  0.00     0.120 C 
ATOM     14  C   UNL A   1      30.860  26.086  25.994  1.00  0.00     0.026 C 
ATOM     15  C   UNL A   1      30.819  25.945  23.413  1.00  0.00     0.026 C 
BRANCH   9  16
ATOM     16  C   UNL A   1      33.157  22.730  24.015  1.00  0.00     0.095 C 
ATOM     17  C   UNL A   1      32.512  21.871  22.915  1.00  0.00     0.028 C 
ATOM     18  C   UNL A   1      33.902  23.922  23.397  1.00  0.00     0.028 C 
ATOM     19  C   UNL A   1      34.276  21.866  24.696  1.00  0.00     0.277 C 
ATOM     20  C   UNL A   1      34.657  24.685  24.477  1.00  0.00     0.063 C 
ATOM     21  N   UNL A   1      35.146  22.587  25.641  1.00  0.00    -0.345 N 
ATOM     22  C   UNL A   1      35.723  23.810  25.106  1.00  0.00     0.260 C 
ATOM     23  H   UNL A   1      34.596  22.826  26.465  1.00  0.00     0.346 HD
ATOM     24  H   UNL A   1      35.926  21.964  25.855  1.00  0.00     0.346 HD
ENDBRANCH   9  16
ENDBRANCH   7   8
ENDBRANCH   4   7
ENDBRANCH   2   3
ENDBRANCH   1   2
BRANCH   1  25
ATOM     25  C   UNL A   1      32.574  32.826  27.249  1.00  0.00     0.118 C 
BRANCH  25  26
ATOM     26  N   UNL A   1      32.374  34.221  27.609  1.00  0.00    -0.352 N 
ATOM     27  C   UNL A   1      32.978  34.974  28.590  1.00  0.00     0.251 C 
ATOM     28  H   UNL A   1      31.706  34.700  27.068  1.00  0.00     0.163 HD
ATOM     29  O   UNL A   1      32.500  36.059  28.897  1.00  0.00    -0.269 OA
BRANCH  27  30
ATOM     30  C   UNL A   1      34.184  34.477  29.296  1.00  0.00     0.039 A 
ATOM     31  C   UNL A   1      34.030  33.858  30.540  1.00  0.00     0.014 A 
ATOM     32  C   UNL A   1      35.464  34.645  28.761  1.00  0.00     0.014 A 
ATOM     33  C   UNL A   1      35.145  33.342  31.208  1.00  0.00     0.010 A 
ATOM     34  C   UNL A   1      36.564  34.062  29.388  1.00  0.00     0.010 A 
ATOM     35  C   UNL A   1      36.416  33.399  30.616  1.00  0.00    -0.014 A 
BRANCH  35  36
ATOM     36  C   UNL A   1      37.597  32.754  31.248  1.00  0.00     0.031 A 
ATOM     37  C   UNL A   1      38.280  31.594  30.579  1.00  0.00     0.074 A 
ATOM     38  C   UNL A   1      38.004  33.163  32.466  1.00  0.00     0.049 A 
ATOM     39  N   UNL A   1      39.248  30.833  31.024  1.00  0.00    -0.248 NA
ATOM     40  C   UNL A   1      37.796  31.226  29.239  1.00  0.00     0.031 C 
ATOM     41  C   UNL A   1      37.403  34.255  33.235  1.00  0.00     0.029 A 
ATOM     42  N   UNL A   1      39.004  32.694  33.284  1.00  0.00    -0.354 N 
ATOM     43  C   UNL A   1      39.477  29.891  30.030  1.00  0.00     0.074 A 
ATOM     44  C   UNL A   1      38.518  30.145  28.978  1.00  0.00     0.031 C 
ATOM     45  C   UNL A   1      38.052  34.380  34.403  1.00  0.00     0.029 A 
ATOM     46  C   UNL A   1      39.078  33.345  34.491  1.00  0.00     0.049 A 
ATOM     47  H   UNL A   1      39.609  31.962  33.029  1.00  0.00     0.167 HD
ATOM     48  C   UNL A   1      40.416  28.913  29.993  1.00  0.00     0.037 A 
ATOM     49  C   UNL A   1      39.867  33.120  35.560  1.00  0.00     0.037 A 
ATOM     50  C   UNL A   1      41.380  28.675  31.036  1.00  0.00     0.049 A 
ATOM     51  C   UNL A   1      40.872  32.001  35.508  1.00  0.00     0.074 A 
ATOM     52  C   UNL A   1      42.413  27.755  31.061  1.00  0.00     0.029 A 
ATOM     53  N   UNL A   1      41.422  29.355  32.245  1.00  0.00    -0.354 N 
ATOM     54  N   UNL A   1      41.127  31.163  34.533  1.00  0.00    -0.248 NA
ATOM     55  C   UNL A   1      41.697  31.795  36.707  1.00  0.00     0.031 C 
ATOM     56  C   UNL A   1      43.040  27.833  32.308  1.00  0.00     0.029 A 
ATOM     57  C   UNL A   1      42.438  28.846  33.038  1.00  0.00     0.049 A 
ATOM     58  H   UNL A   1      40.821  30.091  32.500  1.00  0.00     0.167 HD
ATOM     59  C   UNL A   1      42.153  30.347  34.990  1.00  0.00     0.074 A 
ATOM     60  C   UNL A   1      42.489  30.804  36.323  1.00  0.00     0.031 C 
ATOM     61  C   UNL A   1      42.760  29.309  34.365  1.00  0.00     0.037 A 
BRANCH  48  62
ATOM     62  C   UNL A   1      40.445  28.017  28.788  1.00  0.00     0.064 A 
ATOM     63  C   UNL A   1      41.192  28.340  27.644  1.00  0.00     0.173 A 
ATOM     64  C   UNL A   1      39.760  26.792  28.796  1.00  0.00     0.173 A 
ATOM     65  F   UNL A   1      41.860  29.502  27.580  1.00  0.00    -0.203 F 
ATOM     66  C   UNL A   1      41.228  27.484  26.546  1.00  0.00     0.198 A 
ATOM     67  C   UNL A   1      39.824  25.924  27.710  1.00  0.00     0.198 A 
ATOM     68  F   UNL A   1      39.037  26.429  29.867  1.00  0.00    -0.203 F 
ATOM     69  F   UNL A   1      41.911  27.837  25.448  1.00  0.00    -0.200 F 
ATOM     70  C   UNL A   1      40.552  26.274  26.583  1.00  0.00     0.200 A 
ATOM     71  F   UNL A   1      39.183  24.748  27.754  1.00  0.00    -0.200 F 
ATOM     72  F   UNL A   1      40.598  25.447  25.529  1.00  0.00    -0.200 F 
ENDBRANCH  48  62
BRANCH  49  73
ATOM     73  C   UNL A   1      39.729  33.966  36.777  1.00  0.00     0.064 A 
ATOM     74  C   UNL A   1      38.904  33.572  37.839  1.00  0.00     0.173 A 
ATOM     75  C   UNL A   1      40.409  35.186  36.899  1.00  0.00     0.173 A 
ATOM     76  F   UNL A   1      38.215  32.423  37.761  1.00  0.00    -0.203 F 
ATOM     77  C   UNL A   1      38.747  34.376  38.966  1.00  0.00     0.198 A 
ATOM     78  C   UNL A   1      40.278  35.974  38.040  1.00  0.00     0.198 A 
ATOM     79  F   UNL A   1      41.216  35.607  35.914  1.00  0.00    -0.203 F 
ATOM     80  F   UNL A   1      37.913  33.999  39.945  1.00  0.00    -0.200 F 
ATOM     81  C   UNL A   1      39.439  35.573  39.069  1.00  0.00     0.200 A 
ATOM     82  F   UNL A   1      40.963  37.121  38.142  1.00  0.00    -0.200 F 
ATOM     83  F   UNL A   1      39.292  36.344  40.155  1.00  0.00    -0.200 F 
ENDBRANCH  49  73
BRANCH  61  84
ATOM     84  C   UNL A   1      43.861  28.603  35.103  1.00  0.00     0.064 A 
ATOM     85  C   UNL A   1      43.602  27.497  35.926  1.00  0.00     0.173 A 
ATOM     86  C   UNL A   1      45.195  29.008  34.950  1.00  0.00     0.173 A 
ATOM     87  F   UNL A   1      42.341  27.081  36.119  1.00  0.00    -0.203 F 
ATOM     88  C   UNL A   1      44.636  26.835  36.582  1.00  0.00     0.198 A 
ATOM     89  C   UNL A   1      46.230  28.324  35.580  1.00  0.00     0.198 A 
ATOM     90  F   UNL A   1      45.499  30.058  34.170  1.00  0.00    -0.203 F 
ATOM     91  F   UNL A   1      44.360  25.809  37.397  1.00  0.00    -0.200 F 
ATOM     92  C   UNL A   1      45.950  27.242  36.401  1.00  0.00     0.200 A 
ATOM     93  F   UNL A   1      47.500  28.709  35.392  1.00  0.00    -0.200 F 
ATOM     94  F   UNL A   1      46.945  26.596  37.023  1.00  0.00    -0.200 F 
ENDBRANCH  61  84
ENDBRANCH  35  36
ENDBRANCH  27  30
ENDBRANCH  25  26
ENDBRANCH   1  25
TORSDOF 12
ENDMDL
