MODEL 1
REMARK VINA RESULT:     -11.3      0.000      0.000
REMARK SMILES C[N@H+]1CCO[C@H](CNC(=O)N(CCC(=O)NCCCNC(=O)c2ccc(-c3c4nc(c(-c5c(F)c(F)c(F)c(F)c5F)c5ccc([nH]5)c(-c5c(F)c(F)c(F)c(F)c5F)c5nc(c(-c6c(F)c(F)c(F)c(F)c6F)c6ccc3[nH]6)C=C5)C=C4)cc2)C2CC2)C1
REMARK SMILES IDX 14 1 15 2 16 3 13 5 12 6 11 7 9 8 8 9 10 11 7 12 6 13 1 14
REMARK SMILES IDX 2 15 3 16 89 17 4 19 5 20 86 21 87 22 88 23 17 24 18 25
REMARK SMILES IDX 19 26 20 27 21 28 22 30 23 31 24 32 85 33 25 34 84 35 26 36
REMARK SMILES IDX 27 37 28 38 78 39 29 40 83 41 77 42 79 43 30 44 82 45 76 46
REMARK SMILES IDX 75 47 31 49 63 50 43 51 62 52 44 53 47 54 61 55 80 56 45 57
REMARK SMILES IDX 46 58 60 60 81 61 48 62 32 63 33 64 41 65 34 66 35 67 39 68
REMARK SMILES IDX 42 69 36 70 37 71 40 72 38 73 64 74 65 75 73 76 66 77 67 78
REMARK SMILES IDX 71 79 74 80 68 81 69 82 72 83 70 84 49 85 50 86 58 87 51 88
REMARK SMILES IDX 52 89 56 90 59 91 53 92 54 93 57 94 55 95
REMARK H PARENT 16 4 8 10 2 18 20 29 79 48 47 59
REMARK Flexibility Score: inf
ROOT
ATOM      1  C   UNL A   1      33.703  29.217  26.428  1.00  0.00     0.221 C 
ATOM      2  O   UNL A   1      34.700  28.920  27.090  1.00  0.00    -0.275 OA
ATOM      3  N   UNL A   1      32.808  30.073  26.990  1.00  0.00    -0.356 N 
ATOM      4  H   UNL A   1      33.048  30.360  27.900  1.00  0.00     0.163 HD
ENDROOT
BRANCH   1   5
ATOM      5  C   UNL A   1      33.497  28.639  25.046  1.00  0.00     0.121 C 
BRANCH   5   6
ATOM      6  C   UNL A   1      33.652  27.117  25.081  1.00  0.00     0.131 C 
BRANCH   6   7
ATOM      7  N   UNL A   1      33.401  26.507  23.769  1.00  0.00    -0.321 N 
BRANCH   7   8
ATOM      8  C   UNL A   1      33.009  27.169  22.632  1.00  0.00     0.317 C 
ATOM      9  N   UNL A   1      31.726  27.484  22.365  1.00  0.00    -0.335 N 
ATOM     10  H   UNL A   1      31.562  27.608  21.403  1.00  0.00     0.165 HD
ATOM     11  O   UNL A   1      33.810  27.501  21.750  1.00  0.00    -0.249 OA
BRANCH   9  12
ATOM     12  C   UNL A   1      30.525  27.686  23.162  1.00  0.00     0.155 C 
BRANCH  12  13
ATOM     13  C   UNL A   1      29.701  28.957  22.842  1.00  0.00     0.192 C 
ATOM     14  C   UNL A   1      27.282  30.855  23.570  1.00  0.00     0.332 C 
ATOM     15  N   UNL A   1      27.400  29.960  22.426  1.00  0.00    -0.333 N 
ATOM     16  C   UNL A   1      28.011  30.614  21.253  1.00  0.00     0.290 C 
ATOM     17  C   UNL A   1      28.170  28.737  22.747  1.00  0.00     0.296 C 
ATOM     18  H   UNL A   1      26.442  29.698  22.193  1.00  0.00     0.348 HD
ATOM     19  C   UNL A   1      29.536  30.786  21.351  1.00  0.00     0.222 C 
ATOM     20  O   UNL A   1      30.194  29.536  21.616  1.00  0.00    -0.365 OA
ENDBRANCH  12  13
ENDBRANCH   9  12
ENDBRANCH   7   8
BRANCH   7  21
ATOM     21  C   UNL A   1      33.230  25.063  23.810  1.00  0.00     0.087 C 
ATOM     22  C   UNL A   1      33.286  24.212  22.570  1.00  0.00     0.027 C 
ATOM     23  C   UNL A   1      34.374  24.109  23.593  1.00  0.00     0.027 C 
ENDBRANCH   7  21
ENDBRANCH   6   7
ENDBRANCH   5   6
ENDBRANCH   1   5
BRANCH   3  24
ATOM     24  C   UNL A   1      31.562  30.643  26.500  1.00  0.00     0.117 C 
BRANCH  24  25
ATOM     25  C   UNL A   1      31.457  32.159  26.667  1.00  0.00     0.042 C 
BRANCH  25  26
ATOM     26  C   UNL A   1      32.753  32.892  27.018  1.00  0.00     0.118 C 
BRANCH  26  27
ATOM     27  N   UNL A   1      32.513  34.190  27.624  1.00  0.00    -0.352 N 
ATOM     28  C   UNL A   1      33.069  34.739  28.756  1.00  0.00     0.251 C 
ATOM     29  H   UNL A   1      31.858  34.759  27.158  1.00  0.00     0.163 HD
ATOM     30  O   UNL A   1      32.596  35.771  29.223  1.00  0.00    -0.269 OA
BRANCH  28  31
ATOM     31  C   UNL A   1      34.229  34.106  29.432  1.00  0.00     0.039 A 
ATOM     32  C   UNL A   1      35.517  34.430  28.991  1.00  0.00     0.014 A 
ATOM     33  C   UNL A   1      34.061  33.136  30.425  1.00  0.00     0.014 A 
ATOM     34  C   UNL A   1      36.634  33.814  29.566  1.00  0.00     0.010 A 
ATOM     35  C   UNL A   1      35.180  32.544  31.023  1.00  0.00     0.010 A 
ATOM     36  C   UNL A   1      36.477  32.873  30.595  1.00  0.00    -0.014 A 
BRANCH  36  37
ATOM     37  C   UNL A   1      37.659  32.225  31.226  1.00  0.00     0.031 A 
ATOM     38  C   UNL A   1      38.403  31.130  30.516  1.00  0.00     0.074 A 
ATOM     39  C   UNL A   1      38.046  32.596  32.462  1.00  0.00     0.049 A 
ATOM     40  N   UNL A   1      39.412  30.405  30.934  1.00  0.00    -0.248 NA
ATOM     41  C   UNL A   1      37.946  30.797  29.158  1.00  0.00     0.031 C 
ATOM     42  C   UNL A   1      37.409  33.635  33.269  1.00  0.00     0.029 A 
ATOM     43  N   UNL A   1      39.061  32.127  33.261  1.00  0.00    -0.354 N 
ATOM     44  C   UNL A   1      39.706  29.527  29.900  1.00  0.00     0.074 A 
ATOM     45  C   UNL A   1      38.749  29.788  28.843  1.00  0.00     0.031 C 
ATOM     46  C   UNL A   1      38.046  33.727  34.447  1.00  0.00     0.029 A 
ATOM     47  C   UNL A   1      39.114  32.731  34.493  1.00  0.00     0.049 A 
ATOM     48  H   UNL A   1      39.690  31.426  32.977  1.00  0.00     0.167 HD
ATOM     49  C   UNL A   1      40.688  28.597  29.831  1.00  0.00     0.037 A 
ATOM     50  C   UNL A   1      39.917  32.497  35.549  1.00  0.00     0.037 A 
ATOM     51  C   UNL A   1      41.656  28.347  30.868  1.00  0.00     0.049 A 
ATOM     52  C   UNL A   1      40.972  31.427  35.464  1.00  0.00     0.074 A 
ATOM     53  C   UNL A   1      42.730  27.472  30.854  1.00  0.00     0.029 A 
ATOM     54  N   UNL A   1      41.662  28.964  32.110  1.00  0.00    -0.354 N 
ATOM     55  N   UNL A   1      41.274  30.642  34.460  1.00  0.00    -0.248 NA
ATOM     56  C   UNL A   1      41.794  31.209  36.663  1.00  0.00     0.031 C 
ATOM     57  C   UNL A   1      43.359  27.529  32.102  1.00  0.00     0.029 A 
ATOM     58  C   UNL A   1      42.702  28.466  32.880  1.00  0.00     0.049 A 
ATOM     59  H   UNL A   1      41.023  29.654  32.401  1.00  0.00     0.167 HD
ATOM     60  C   UNL A   1      42.328  29.851  34.898  1.00  0.00     0.074 A 
ATOM     61  C   UNL A   1      42.624  30.258  36.254  1.00  0.00     0.031 C 
ATOM     62  C   UNL A   1      42.988  28.874  34.231  1.00  0.00     0.037 A 
BRANCH  49  63
ATOM     63  C   UNL A   1      40.775  27.768  28.585  1.00  0.00     0.064 A 
ATOM     64  C   UNL A   1      40.090  26.550  28.466  1.00  0.00     0.173 A 
ATOM     65  C   UNL A   1      41.503  28.225  27.476  1.00  0.00     0.173 A 
ATOM     66  F   UNL A   1      39.384  26.069  29.501  1.00  0.00    -0.203 F 
ATOM     67  C   UNL A   1      40.145  25.810  27.288  1.00  0.00     0.198 A 
ATOM     68  C   UNL A   1      41.537  27.494  26.292  1.00  0.00     0.198 A 
ATOM     69  F   UNL A   1      42.168  29.388  27.537  1.00  0.00    -0.203 F 
ATOM     70  F   UNL A   1      39.507  24.635  27.205  1.00  0.00    -0.200 F 
ATOM     71  C   UNL A   1      40.863  26.286  26.200  1.00  0.00     0.200 A 
ATOM     72  F   UNL A   1      42.222  27.960  25.238  1.00  0.00    -0.200 F 
ATOM     73  F   UNL A   1      40.907  25.577  25.064  1.00  0.00    -0.200 F 
ENDBRANCH  49  63
BRANCH  50  74
ATOM     74  C   UNL A   1      39.751  33.293  36.790  1.00  0.00     0.064 A 
ATOM     75  C   UNL A   1      38.825  32.913  37.770  1.00  0.00     0.173 A 
ATOM     76  C   UNL A   1      40.511  34.449  37.020  1.00  0.00     0.173 A 
ATOM     77  F   UNL A   1      38.055  31.830  37.579  1.00  0.00    -0.203 F 
ATOM     78  C   UNL A   1      38.658  33.664  38.931  1.00  0.00     0.198 A 
ATOM     79  C   UNL A   1      40.359  35.188  38.191  1.00  0.00     0.198 A 
ATOM     80  F   UNL A   1      41.404  34.857  36.107  1.00  0.00    -0.203 F 
ATOM     81  F   UNL A   1      37.739  33.300  39.835  1.00  0.00    -0.200 F 
ATOM     82  C   UNL A   1      39.430  34.797  39.143  1.00  0.00     0.200 A 
ATOM     83  F   UNL A   1      41.109  36.278  38.396  1.00  0.00    -0.200 F 
ATOM     84  F   UNL A   1      39.270  35.517  40.261  1.00  0.00    -0.200 F 
ENDBRANCH  50  74
BRANCH  62  85
ATOM     85  C   UNL A   1      44.108  28.182  34.950  1.00  0.00     0.064 A 
ATOM     86  C   UNL A   1      43.907  26.961  35.612  1.00  0.00     0.173 A 
ATOM     87  C   UNL A   1      45.403  28.719  34.938  1.00  0.00     0.173 A 
ATOM     88  F   UNL A   1      42.682  26.417  35.665  1.00  0.00    -0.203 F 
ATOM     89  C   UNL A   1      44.962  26.311  36.247  1.00  0.00     0.198 A 
ATOM     90  C   UNL A   1      46.460  28.054  35.555  1.00  0.00     0.198 A 
ATOM     91  F   UNL A   1      45.648  29.882  34.315  1.00  0.00    -0.203 F 
ATOM     92  F   UNL A   1      44.741  25.162  36.901  1.00  0.00    -0.200 F 
ATOM     93  C   UNL A   1      46.238  26.854  36.212  1.00  0.00     0.200 A 
ATOM     94  F   UNL A   1      47.694  28.575  35.512  1.00  0.00    -0.200 F 
ATOM     95  F   UNL A   1      47.253  26.221  36.817  1.00  0.00    -0.200 F 
ENDBRANCH  62  85
ENDBRANCH  36  37
ENDBRANCH  28  31
ENDBRANCH  26  27
ENDBRANCH  25  26
ENDBRANCH  24  25
ENDBRANCH   3  24
TORSDOF 16
ENDMDL
MODEL 2
REMARK VINA RESULT:     -11.3      5.788     11.025
REMARK SMILES C[N@H+]1CCO[C@H](CNC(=O)N(CCC(=O)NCCCNC(=O)c2ccc(-c3c4nc(c(-c5c(F)c(F)c(F)c(F)c5F)c5ccc([nH]5)c(-c5c(F)c(F)c(F)c(F)c5F)c5nc(c(-c6c(F)c(F)c(F)c(F)c6F)c6ccc3[nH]6)C=C5)C=C4)cc2)C2CC2)C1
REMARK SMILES IDX 14 1 15 2 16 3 13 5 12 6 11 7 9 8 8 9 10 11 7 12 6 13 1 14
REMARK SMILES IDX 2 15 3 16 89 17 4 19 5 20 86 21 87 22 88 23 17 24 18 25
REMARK SMILES IDX 19 26 20 27 21 28 22 30 23 31 24 32 85 33 25 34 84 35 26 36
REMARK SMILES IDX 27 37 28 38 78 39 29 40 83 41 77 42 79 43 30 44 82 45 76 46
REMARK SMILES IDX 75 47 31 49 63 50 43 51 62 52 44 53 47 54 61 55 80 56 45 57
REMARK SMILES IDX 46 58 60 60 81 61 48 62 32 63 33 64 41 65 34 66 35 67 39 68
REMARK SMILES IDX 42 69 36 70 37 71 40 72 38 73 64 74 65 75 73 76 66 77 67 78
REMARK SMILES IDX 71 79 74 80 68 81 69 82 72 83 70 84 49 85 50 86 58 87 51 88
REMARK SMILES IDX 52 89 56 90 59 91 53 92 54 93 57 94 55 95
REMARK H PARENT 16 4 8 10 2 18 20 29 79 48 47 59
REMARK Flexibility Score: inf
ROOT
ATOM      1  C   UNL A   1      36.890  23.046  25.356  1.00  0.00     0.221 C 
ATOM      2  O   UNL A   1      37.282  23.921  26.132  1.00  0.00    -0.275 OA
ATOM      3  N   UNL A   1      37.475  21.821  25.442  1.00  0.00    -0.356 N 
ATOM      4  H   UNL A   1      38.184  21.765  26.123  1.00  0.00     0.163 HD
ENDROOT
BRANCH   1   5
ATOM      5  C   UNL A   1      35.802  23.342  24.348  1.00  0.00     0.121 C 
BRANCH   5   6
ATOM      6  C   UNL A   1      34.510  23.735  25.065  1.00  0.00     0.131 C 
BRANCH   6   7
ATOM      7  N   UNL A   1      33.715  22.564  25.453  1.00  0.00    -0.321 N 
BRANCH   7   8
ATOM      8  C   UNL A   1      33.303  22.252  26.725  1.00  0.00     0.317 C 
ATOM      9  N   UNL A   1      32.099  22.603  27.219  1.00  0.00    -0.335 N 
ATOM     10  H   UNL A   1      32.094  22.642  28.203  1.00  0.00     0.165 HD
ATOM     11  O   UNL A   1      34.025  21.644  27.525  1.00  0.00    -0.249 OA
BRANCH   9  12
ATOM     12  C   UNL A   1      30.804  22.938  26.645  1.00  0.00     0.155 C 
BRANCH  12  13
ATOM     13  C   UNL A   1      30.647  24.387  26.119  1.00  0.00     0.192 C 
ATOM     14  C   UNL A   1      29.375  26.364  24.009  1.00  0.00     0.332 C 
ATOM     15  N   UNL A   1      30.770  25.955  24.120  1.00  0.00    -0.333 N 
ATOM     16  C   UNL A   1      31.555  26.845  24.997  1.00  0.00     0.290 C 
ATOM     17  C   UNL A   1      30.910  24.563  24.603  1.00  0.00     0.296 C 
ATOM     18  H   UNL A   1      31.142  26.018  23.172  1.00  0.00     0.348 HD
ATOM     19  C   UNL A   1      31.308  26.625  26.499  1.00  0.00     0.222 C 
ATOM     20  O   UNL A   1      31.517  25.254  26.875  1.00  0.00    -0.365 OA
ENDBRANCH  12  13
ENDBRANCH   9  12
ENDBRANCH   7   8
BRANCH   7  21
ATOM     21  C   UNL A   1      33.682  21.511  24.449  1.00  0.00     0.087 C 
ATOM     22  C   UNL A   1      32.771  20.318  24.566  1.00  0.00     0.027 C 
ATOM     23  C   UNL A   1      32.528  21.339  23.499  1.00  0.00     0.027 C 
ENDBRANCH   7  21
ENDBRANCH   6   7
ENDBRANCH   5   6
ENDBRANCH   1   5
BRANCH   3  24
ATOM     24  C   UNL A   1      37.254  20.579  24.717  1.00  0.00     0.117 C 
BRANCH  24  25
ATOM     25  C   UNL A   1      38.292  19.493  25.001  1.00  0.00     0.042 C 
BRANCH  25  26
ATOM     26  C   UNL A   1      39.327  19.813  26.080  1.00  0.00     0.118 C 
BRANCH  26  27
ATOM     27  N   UNL A   1      40.463  18.908  26.049  1.00  0.00    -0.352 N 
ATOM     28  C   UNL A   1      41.807  19.196  26.048  1.00  0.00     0.251 C 
ATOM     29  H   UNL A   1      40.237  17.949  26.024  1.00  0.00     0.163 HD
ATOM     30  O   UNL A   1      42.618  18.303  25.820  1.00  0.00    -0.269 OA
BRANCH  28  31
ATOM     31  C   UNL A   1      42.302  20.570  26.314  1.00  0.00     0.039 A 
ATOM     32  C   UNL A   1      42.329  21.027  27.636  1.00  0.00     0.014 A 
ATOM     33  C   UNL A   1      42.651  21.439  25.275  1.00  0.00     0.014 A 
ATOM     34  C   UNL A   1      42.738  22.334  27.923  1.00  0.00     0.010 A 
ATOM     35  C   UNL A   1      43.091  22.736  25.564  1.00  0.00     0.010 A 
ATOM     36  C   UNL A   1      43.134  23.198  26.890  1.00  0.00    -0.014 A 
BRANCH  36  37
ATOM     37  C   UNL A   1      43.587  24.584  27.184  1.00  0.00     0.031 A 
ATOM     38  C   UNL A   1      42.617  25.619  27.682  1.00  0.00     0.074 A 
ATOM     39  C   UNL A   1      44.871  24.929  26.969  1.00  0.00     0.049 A 
ATOM     40  N   UNL A   1      42.814  26.891  27.928  1.00  0.00    -0.248 NA
ATOM     41  C   UNL A   1      41.239  25.167  27.924  1.00  0.00     0.031 C 
ATOM     42  C   UNL A   1      45.915  24.030  26.479  1.00  0.00     0.029 A 
ATOM     43  N   UNL A   1      45.513  26.135  27.121  1.00  0.00    -0.354 N 
ATOM     44  C   UNL A   1      41.589  27.393  28.345  1.00  0.00     0.074 A 
ATOM     45  C   UNL A   1      40.646  26.296  28.291  1.00  0.00     0.031 C 
ATOM     46  C   UNL A   1      47.066  24.713  26.370  1.00  0.00     0.029 A 
ATOM     47  C   UNL A   1      46.834  26.105  26.750  1.00  0.00     0.049 A 
ATOM     48  H   UNL A   1      45.067  26.943  27.463  1.00  0.00     0.167 HD
ATOM     49  C   UNL A   1      41.281  28.649  28.748  1.00  0.00     0.037 A 
ATOM     50  C   UNL A   1      47.752  27.089  26.701  1.00  0.00     0.037 A 
ATOM     51  C   UNL A   1      42.219  29.740  28.826  1.00  0.00     0.049 A 
ATOM     52  C   UNL A   1      47.374  28.487  27.110  1.00  0.00     0.074 A 
ATOM     53  C   UNL A   1      42.009  31.028  29.290  1.00  0.00     0.029 A 
ATOM     54  N   UNL A   1      43.544  29.675  28.419  1.00  0.00    -0.354 N 
ATOM     55  N   UNL A   1      46.225  28.936  27.554  1.00  0.00    -0.248 NA
ATOM     56  C   UNL A   1      48.419  29.516  27.006  1.00  0.00     0.031 C 
ATOM     57  C   UNL A   1      43.194  31.754  29.125  1.00  0.00     0.029 A 
ATOM     58  C   UNL A   1      44.153  30.908  28.594  1.00  0.00     0.049 A 
ATOM     59  H   UNL A   1      43.986  28.871  28.061  1.00  0.00     0.167 HD
ATOM     60  C   UNL A   1      46.414  30.290  27.798  1.00  0.00     0.074 A 
ATOM     61  C   UNL A   1      47.790  30.589  27.465  1.00  0.00     0.031 C 
ATOM     62  C   UNL A   1      45.522  31.200  28.256  1.00  0.00     0.037 A 
BRANCH  49  63
ATOM     63  C   UNL A   1      39.861  28.925  29.141  1.00  0.00     0.064 A 
ATOM     64  C   UNL A   1      38.907  29.337  28.200  1.00  0.00     0.173 A 
ATOM     65  C   UNL A   1      39.437  28.718  30.463  1.00  0.00     0.173 A 
ATOM     66  F   UNL A   1      39.266  29.553  26.925  1.00  0.00    -0.203 F 
ATOM     67  C   UNL A   1      37.582  29.548  28.570  1.00  0.00     0.198 A 
ATOM     68  C   UNL A   1      38.106  28.908  30.824  1.00  0.00     0.198 A 
ATOM     69  F   UNL A   1      40.310  28.316  31.398  1.00  0.00    -0.203 F 
ATOM     70  F   UNL A   1      36.692  29.970  27.662  1.00  0.00    -0.200 F 
ATOM     71  C   UNL A   1      37.181  29.328  29.881  1.00  0.00     0.200 A 
ATOM     72  F   UNL A   1      37.718  28.684  32.087  1.00  0.00    -0.200 F 
ATOM     73  F   UNL A   1      35.903  29.523  30.233  1.00  0.00    -0.200 F 
ENDBRANCH  49  63
BRANCH  50  74
ATOM     74  C   UNL A   1      49.130  26.788  26.237  1.00  0.00     0.064 A 
ATOM     75  C   UNL A   1      50.098  26.303  27.127  1.00  0.00     0.173 A 
ATOM     76  C   UNL A   1      49.506  26.982  24.901  1.00  0.00     0.173 A 
ATOM     77  F   UNL A   1      49.791  26.131  28.422  1.00  0.00    -0.203 F 
ATOM     78  C   UNL A   1      51.395  26.031  26.698  1.00  0.00     0.198 A 
ATOM     79  C   UNL A   1      50.797  26.688  24.468  1.00  0.00     0.198 A 
ATOM     80  F   UNL A   1      48.616  27.452  24.015  1.00  0.00    -0.203 F 
ATOM     81  F   UNL A   1      52.312  25.604  27.576  1.00  0.00    -0.200 F 
ATOM     82  C   UNL A   1      51.741  26.217  25.368  1.00  0.00     0.200 A 
ATOM     83  F   UNL A   1      51.127  26.864  23.182  1.00  0.00    -0.200 F 
ATOM     84  F   UNL A   1      52.988  25.952  24.956  1.00  0.00    -0.200 F 
ENDBRANCH  50  74
BRANCH  62  85
ATOM     85  C   UNL A   1      46.004  32.608  28.440  1.00  0.00     0.064 A 
ATOM     86  C   UNL A   1      46.602  33.024  29.640  1.00  0.00     0.173 A 
ATOM     87  C   UNL A   1      45.912  33.537  27.393  1.00  0.00     0.173 A 
ATOM     88  F   UNL A   1      46.697  32.176  30.675  1.00  0.00    -0.203 F 
ATOM     89  C   UNL A   1      47.077  34.325  29.788  1.00  0.00     0.198 A 
ATOM     90  C   UNL A   1      46.409  34.830  27.538  1.00  0.00     0.198 A 
ATOM     91  F   UNL A   1      45.352  33.187  26.226  1.00  0.00    -0.203 F 
ATOM     92  F   UNL A   1      47.615  34.711  30.953  1.00  0.00    -0.200 F 
ATOM     93  C   UNL A   1      46.987  35.224  28.735  1.00  0.00     0.200 A 
ATOM     94  F   UNL A   1      46.329  35.695  26.517  1.00  0.00    -0.200 F 
ATOM     95  F   UNL A   1      47.453  36.472  28.877  1.00  0.00    -0.200 F 
ENDBRANCH  62  85
ENDBRANCH  36  37
ENDBRANCH  28  31
ENDBRANCH  26  27
ENDBRANCH  25  26
ENDBRANCH  24  25
ENDBRANCH   3  24
TORSDOF 16
ENDMDL
MODEL 3
REMARK VINA RESULT:     -11.2      6.180     11.536
REMARK SMILES C[N@H+]1CCO[C@H](CNC(=O)N(CCC(=O)NCCCNC(=O)c2ccc(-c3c4nc(c(-c5c(F)c(F)c(F)c(F)c5F)c5ccc([nH]5)c(-c5c(F)c(F)c(F)c(F)c5F)c5nc(c(-c6c(F)c(F)c(F)c(F)c6F)c6ccc3[nH]6)C=C5)C=C4)cc2)C2CC2)C1
REMARK SMILES IDX 14 1 15 2 16 3 13 5 12 6 11 7 9 8 8 9 10 11 7 12 6 13 1 14
REMARK SMILES IDX 2 15 3 16 89 17 4 19 5 20 86 21 87 22 88 23 17 24 18 25
REMARK SMILES IDX 19 26 20 27 21 28 22 30 23 31 24 32 85 33 25 34 84 35 26 36
REMARK SMILES IDX 27 37 28 38 78 39 29 40 83 41 77 42 79 43 30 44 82 45 76 46
REMARK SMILES IDX 75 47 31 49 63 50 43 51 62 52 44 53 47 54 61 55 80 56 45 57
REMARK SMILES IDX 46 58 60 60 81 61 48 62 32 63 33 64 41 65 34 66 35 67 39 68
REMARK SMILES IDX 42 69 36 70 37 71 40 72 38 73 64 74 65 75 73 76 66 77 67 78
REMARK SMILES IDX 71 79 74 80 68 81 69 82 72 83 70 84 49 85 50 86 58 87 51 88
REMARK SMILES IDX 52 89 56 90 59 91 53 92 54 93 57 94 55 95
REMARK H PARENT 16 4 8 10 2 18 20 29 79 48 47 59
REMARK Flexibility Score: inf
ROOT
ATOM      1  C   UNL A   1      37.145  22.972  24.992  1.00  0.00     0.221 C 
ATOM      2  O   UNL A   1      37.449  23.862  25.791  1.00  0.00    -0.275 OA
ATOM      3  N   UNL A   1      37.495  21.697  25.308  1.00  0.00    -0.356 N 
ATOM      4  H   UNL A   1      37.984  21.617  26.159  1.00  0.00     0.163 HD
ENDROOT
BRANCH   1   5
ATOM      5  C   UNL A   1      36.414  23.306  23.711  1.00  0.00     0.121 C 
BRANCH   5   6
ATOM      6  C   UNL A   1      35.011  22.697  23.728  1.00  0.00     0.131 C 
BRANCH   6   7
ATOM      7  N   UNL A   1      34.287  23.013  24.965  1.00  0.00    -0.321 N 
BRANCH   7   8
ATOM      8  C   UNL A   1      34.016  22.139  25.988  1.00  0.00     0.317 C 
ATOM      9  N   UNL A   1      32.973  21.285  25.975  1.00  0.00    -0.335 N 
ATOM     10  H   UNL A   1      32.702  21.009  26.880  1.00  0.00     0.165 HD
ATOM     11  O   UNL A   1      34.701  22.091  27.017  1.00  0.00    -0.249 OA
BRANCH   9  12
ATOM     12  C   UNL A   1      32.152  20.673  24.940  1.00  0.00     0.155 C 
BRANCH  12  13
ATOM     13  C   UNL A   1      32.524  19.223  24.544  1.00  0.00     0.192 C 
ATOM     14  C   UNL A   1      33.651  16.399  25.404  1.00  0.00     0.332 C 
ATOM     15  N   UNL A   1      34.293  17.395  24.556  1.00  0.00    -0.333 N 
ATOM     16  C   UNL A   1      33.971  17.217  23.127  1.00  0.00     0.290 C 
ATOM     17  C   UNL A   1      33.950  18.779  24.955  1.00  0.00     0.296 C 
ATOM     18  H   UNL A   1      35.295  17.250  24.686  1.00  0.00     0.348 HD
ATOM     19  C   UNL A   1      32.566  17.702  22.733  1.00  0.00     0.222 C 
ATOM     20  O   UNL A   1      32.349  19.069  23.121  1.00  0.00    -0.365 OA
ENDBRANCH  12  13
ENDBRANCH   9  12
ENDBRANCH   7   8
BRANCH   7  21
ATOM     21  C   UNL A   1      33.522  24.249  24.905  1.00  0.00     0.087 C 
ATOM     22  C   UNL A   1      32.877  24.854  26.123  1.00  0.00     0.027 C 
ATOM     23  C   UNL A   1      34.037  25.544  25.474  1.00  0.00     0.027 C 
ENDBRANCH   7  21
ENDBRANCH   6   7
ENDBRANCH   5   6
ENDBRANCH   1   5
BRANCH   3  24
ATOM     24  C   UNL A   1      37.284  20.429  24.627  1.00  0.00     0.117 C 
BRANCH  24  25
ATOM     25  C   UNL A   1      38.289  19.340  25.003  1.00  0.00     0.042 C 
BRANCH  25  26
ATOM     26  C   UNL A   1      39.344  19.723  26.042  1.00  0.00     0.118 C 
BRANCH  26  27
ATOM     27  N   UNL A   1      40.489  18.828  26.031  1.00  0.00    -0.352 N 
ATOM     28  C   UNL A   1      41.830  19.129  26.046  1.00  0.00     0.251 C 
ATOM     29  H   UNL A   1      40.272  17.867  26.008  1.00  0.00     0.163 HD
ATOM     30  O   UNL A   1      42.652  18.243  25.834  1.00  0.00    -0.269 OA
BRANCH  28  31
ATOM     31  C   UNL A   1      42.308  20.509  26.311  1.00  0.00     0.039 A 
ATOM     32  C   UNL A   1      42.302  20.977  27.629  1.00  0.00     0.014 A 
ATOM     33  C   UNL A   1      42.674  21.372  25.273  1.00  0.00     0.014 A 
ATOM     34  C   UNL A   1      42.694  22.290  27.914  1.00  0.00     0.010 A 
ATOM     35  C   UNL A   1      43.098  22.674  25.560  1.00  0.00     0.010 A 
ATOM     36  C   UNL A   1      43.107  23.148  26.882  1.00  0.00    -0.014 A 
BRANCH  36  37
ATOM     37  C   UNL A   1      43.543  24.540  27.175  1.00  0.00     0.031 A 
ATOM     38  C   UNL A   1      42.569  25.553  27.709  1.00  0.00     0.074 A 
ATOM     39  C   UNL A   1      44.814  24.910  26.925  1.00  0.00     0.049 A 
ATOM     40  N   UNL A   1      42.751  26.826  27.960  1.00  0.00    -0.248 NA
ATOM     41  C   UNL A   1      41.208  25.073  27.988  1.00  0.00     0.031 C 
ATOM     42  C   UNL A   1      45.859  24.035  26.396  1.00  0.00     0.029 A 
ATOM     43  N   UNL A   1      45.437  26.127  27.068  1.00  0.00    -0.354 N 
ATOM     44  C   UNL A   1      41.529  27.302  28.418  1.00  0.00     0.074 A 
ATOM     45  C   UNL A   1      40.605  26.187  28.382  1.00  0.00     0.031 C 
ATOM     46  C   UNL A   1      46.993  24.740  26.260  1.00  0.00     0.029 A 
ATOM     47  C   UNL A   1      46.748  26.125  26.658  1.00  0.00     0.049 A 
ATOM     48  H   UNL A   1      44.987  26.924  27.430  1.00  0.00     0.167 HD
ATOM     49  C   UNL A   1      41.210  28.549  28.839  1.00  0.00     0.037 A 
ATOM     50  C   UNL A   1      47.645  27.127  26.590  1.00  0.00     0.037 A 
ATOM     51  C   UNL A   1      42.130  29.656  28.899  1.00  0.00     0.049 A 
ATOM     52  C   UNL A   1      47.253  28.513  27.021  1.00  0.00     0.074 A 
ATOM     53  C   UNL A   1      41.910  30.937  29.380  1.00  0.00     0.029 A 
ATOM     54  N   UNL A   1      43.443  29.619  28.453  1.00  0.00    -0.354 N 
ATOM     55  N   UNL A   1      46.111  28.937  27.503  1.00  0.00    -0.248 NA
ATOM     56  C   UNL A   1      48.276  29.563  26.895  1.00  0.00     0.031 C 
ATOM     57  C   UNL A   1      43.075  31.686  29.185  1.00  0.00     0.029 A 
ATOM     58  C   UNL A   1      44.034  30.862  28.619  1.00  0.00     0.049 A 
ATOM     59  H   UNL A   1      43.889  28.827  28.075  1.00  0.00     0.167 HD
ATOM     60  C   UNL A   1      46.281  30.293  27.752  1.00  0.00     0.074 A 
ATOM     61  C   UNL A   1      47.641  30.620  27.381  1.00  0.00     0.031 C 
ATOM     62  C   UNL A   1      45.386  31.183  28.244  1.00  0.00     0.037 A 
BRANCH  49  63
ATOM     63  C   UNL A   1      39.798  28.795  29.276  1.00  0.00     0.064 A 
ATOM     64  C   UNL A   1      39.404  28.629  30.612  1.00  0.00     0.173 A 
ATOM     65  C   UNL A   1      38.841  29.261  28.360  1.00  0.00     0.173 A 
ATOM     66  F   UNL A   1      40.281  28.182  31.523  1.00  0.00    -0.203 F 
ATOM     67  C   UNL A   1      38.099  28.903  31.012  1.00  0.00     0.198 A 
ATOM     68  C   UNL A   1      37.544  29.555  28.769  1.00  0.00     0.198 A 
ATOM     69  F   UNL A   1      39.171  29.445  27.073  1.00  0.00    -0.203 F 
ATOM     70  F   UNL A   1      37.735  28.708  32.287  1.00  0.00    -0.200 F 
ATOM     71  C   UNL A   1      37.172  29.371  30.092  1.00  0.00     0.200 A 
ATOM     72  F   UNL A   1      36.653  30.019  27.882  1.00  0.00    -0.200 F 
ATOM     73  F   UNL A   1      35.919  29.643  30.481  1.00  0.00    -0.200 F 
ENDBRANCH  49  63
BRANCH  50  74
ATOM     74  C   UNL A   1      49.014  26.855  26.083  1.00  0.00     0.064 A 
ATOM     75  C   UNL A   1      49.330  27.041  24.731  1.00  0.00     0.173 A 
ATOM     76  C   UNL A   1      50.029  26.403  26.938  1.00  0.00     0.173 A 
ATOM     77  F   UNL A   1      48.382  27.444  23.871  1.00  0.00    -0.203 F 
ATOM     78  C   UNL A   1      50.610  26.776  24.250  1.00  0.00     0.198 A 
ATOM     79  C   UNL A   1      51.314  26.158  26.460  1.00  0.00     0.198 A 
ATOM     80  F   UNL A   1      49.771  26.202  28.238  1.00  0.00    -0.203 F 
ATOM     81  F   UNL A   1      50.878  26.926  22.946  1.00  0.00    -0.200 F 
ATOM     82  C   UNL A   1      51.603  26.341  25.116  1.00  0.00     0.200 A 
ATOM     83  F   UNL A   1      52.272  25.744  27.299  1.00  0.00    -0.200 F 
ATOM     84  F   UNL A   1      52.834  26.089  24.653  1.00  0.00    -0.200 F 
ENDBRANCH  50  74
BRANCH  62  85
ATOM     85  C   UNL A   1      45.848  32.598  28.426  1.00  0.00     0.064 A 
ATOM     86  C   UNL A   1      45.663  33.560  27.422  1.00  0.00     0.173 A 
ATOM     87  C   UNL A   1      46.437  33.008  29.631  1.00  0.00     0.173 A 
ATOM     88  F   UNL A   1      45.120  33.212  26.246  1.00  0.00    -0.203 F 
ATOM     89  C   UNL A   1      46.065  34.880  27.614  1.00  0.00     0.198 A 
ATOM     90  C   UNL A   1      46.817  34.333  29.828  1.00  0.00     0.198 A 
ATOM     91  F   UNL A   1      46.632  32.126  30.622  1.00  0.00    -0.203 F 
ATOM     92  F   UNL A   1      45.909  35.776  26.630  1.00  0.00    -0.200 F 
ATOM     93  C   UNL A   1      46.635  35.266  28.819  1.00  0.00     0.200 A 
ATOM     94  F   UNL A   1      47.358  34.707  30.995  1.00  0.00    -0.200 F 
ATOM     95  F   UNL A   1      47.013  36.539  29.004  1.00  0.00    -0.200 F 
ENDBRANCH  62  85
ENDBRANCH  36  37
ENDBRANCH  28  31
ENDBRANCH  26  27
ENDBRANCH  25  26
ENDBRANCH  24  25
ENDBRANCH   3  24
TORSDOF 16
ENDMDL
