MODEL 1
REMARK VINA RESULT:      -9.6      0.000      0.000
REMARK SMILES CCOCCCC(=O)N[C@@H]1[C@@H]2CC[C@@H](C2)[C@@H]1C(=O)NCCCNC(=O)c1ccc(-c2c3nc(c(-c4c(F)c(F)c(F)c(F)c4F)c4ccc([nH]4)c(-c4c(F)c(F)c(F)c(F)c4F)c4nc(c(-c5c(F)c(F)c(F)c(F)c5F)c5ccc2[nH]5)C=C4)C=C3)cc1
REMARK SMILES IDX 17 1 18 2 19 3 16 5 10 6 11 7 12 8 15 9 14 10 13 11 9 12
REMARK SMILES IDX 7 13 8 14 6 16 5 17 4 18 3 19 2 20 1 21 20 22 21 23 22 24
REMARK SMILES IDX 23 25 24 26 25 28 26 29 27 30 88 31 28 32 87 33 29 34 30 35
REMARK SMILES IDX 31 36 81 37 32 38 86 39 80 40 82 41 33 42 85 43 79 44 78 45
REMARK SMILES IDX 34 47 66 48 46 49 65 50 47 51 50 52 64 53 83 54 48 55 49 56
REMARK SMILES IDX 63 58 84 59 51 60 35 61 36 62 44 63 37 64 38 65 42 66 45 67
REMARK SMILES IDX 39 68 40 69 43 70 41 71 67 72 68 73 76 74 69 75 70 76 74 77
REMARK SMILES IDX 77 78 71 79 72 80 75 81 73 82 52 83 53 84 61 85 54 86 55 87
REMARK SMILES IDX 59 88 62 89 56 90 57 91 60 92 58 93
REMARK H PARENT 19 4 9 15 23 27 82 46 50 57
REMARK Flexibility Score: inf
ROOT
ATOM      1  C   UNL A   1      35.577  33.142  33.417  1.00  0.00     0.225 C 
ATOM      2  O   UNL A   1      34.856  33.456  34.377  1.00  0.00    -0.275 OA
ATOM      3  N   UNL A   1      34.895  32.709  32.328  1.00  0.00    -0.356 N 
ATOM      4  H   UNL A   1      33.931  32.597  32.492  1.00  0.00     0.163 HD
ENDROOT
BRANCH   1   5
ATOM      5  C   UNL A   1      37.091  33.090  33.608  1.00  0.00     0.104 C 
ATOM      6  C   UNL A   1      38.090  31.895  33.398  1.00  0.00     0.097 C 
ATOM      7  C   UNL A   1      39.417  32.450  34.022  1.00  0.00     0.012 C 
ATOM      8  C   UNL A   1      39.417  32.550  35.547  1.00  0.00     0.006 C 
ATOM      9  C   UNL A   1      39.287  33.960  33.716  1.00  0.00     0.010 C 
ATOM     10  C   UNL A   1      37.924  34.098  34.435  1.00  0.00     0.004 C 
ATOM     11  C   UNL A   1      38.301  33.576  35.830  1.00  0.00     0.005 C 
BRANCH   6  12
ATOM     12  N   UNL A   1      37.944  30.417  33.303  1.00  0.00    -0.352 N 
ATOM     13  C   UNL A   1      38.353  29.166  33.087  1.00  0.00     0.220 C 
ATOM     14  O   UNL A   1      37.376  28.385  33.072  1.00  0.00    -0.275 OA
ATOM     15  H   UNL A   1      36.995  30.287  33.533  1.00  0.00     0.163 HD
BRANCH  13  16
ATOM     16  C   UNL A   1      39.691  28.453  32.966  1.00  0.00     0.102 C 
BRANCH  16  17
ATOM     17  C   UNL A   1      40.949  28.747  33.734  1.00  0.00     0.038 C 
BRANCH  17  18
ATOM     18  C   UNL A   1      41.780  27.541  34.044  1.00  0.00     0.160 C 
BRANCH  18  19
ATOM     19  O   UNL A   1      41.410  26.758  35.153  1.00  0.00    -0.382 OA
BRANCH  19  20
ATOM     20  C   UNL A   1      42.304  25.790  35.670  1.00  0.00     0.156 C 
ATOM     21  C   UNL A   1      41.563  24.458  35.740  1.00  0.00     0.035 C 
ENDBRANCH  19  20
ENDBRANCH  18  19
ENDBRANCH  17  18
ENDBRANCH  16  17
ENDBRANCH  13  16
ENDBRANCH   6  12
ENDBRANCH   1   5
BRANCH   3  22
ATOM     22  C   UNL A   1      35.288  32.377  30.969  1.00  0.00     0.117 C 
BRANCH  22  23
ATOM     23  C   UNL A   1      34.415  33.112  29.945  1.00  0.00     0.042 C 
BRANCH  23  24
ATOM     24  C   UNL A   1      34.659  32.682  28.496  1.00  0.00     0.118 C 
BRANCH  24  25
ATOM     25  N   UNL A   1      33.982  31.434  28.159  1.00  0.00    -0.352 N 
ATOM     26  C   UNL A   1      34.497  30.185  27.914  1.00  0.00     0.251 C 
ATOM     27  H   UNL A   1      33.001  31.499  28.099  1.00  0.00     0.163 HD
ATOM     28  O   UNL A   1      33.769  29.311  27.433  1.00  0.00    -0.269 OA
BRANCH  26  29
ATOM     29  C   UNL A   1      35.914  29.867  28.202  1.00  0.00     0.039 A 
ATOM     30  C   UNL A   1      36.256  29.337  29.450  1.00  0.00     0.014 A 
ATOM     31  C   UNL A   1      36.920  30.137  27.271  1.00  0.00     0.014 A 
ATOM     32  C   UNL A   1      37.590  29.034  29.742  1.00  0.00     0.010 A 
ATOM     33  C   UNL A   1      38.233  29.746  27.526  1.00  0.00     0.010 A 
ATOM     34  C   UNL A   1      38.591  29.213  28.773  1.00  0.00    -0.014 A 
BRANCH  34  35
ATOM     35  C   UNL A   1      40.015  28.897  29.069  1.00  0.00     0.031 A 
ATOM     36  C   UNL A   1      40.844  29.839  29.903  1.00  0.00     0.074 A 
ATOM     37  C   UNL A   1      40.579  27.782  28.564  1.00  0.00     0.049 A 
ATOM     38  N   UNL A   1      42.099  29.741  30.273  1.00  0.00    -0.248 NA
ATOM     39  C   UNL A   1      40.185  31.073  30.356  1.00  0.00     0.031 C 
ATOM     40  C   UNL A   1      39.904  26.811  27.703  1.00  0.00     0.029 A 
ATOM     41  N   UNL A   1      41.846  27.274  28.708  1.00  0.00    -0.354 N 
ATOM     42  C   UNL A   1      42.374  30.899  30.988  1.00  0.00     0.074 A 
ATOM     43  C   UNL A   1      41.186  31.722  30.928  1.00  0.00     0.031 C 
ATOM     44  C   UNL A   1      40.748  25.801  27.437  1.00  0.00     0.029 A 
ATOM     45  C   UNL A   1      42.032  26.069  28.077  1.00  0.00     0.049 A 
ATOM     46  H   UNL A   1      42.556  27.731  29.217  1.00  0.00     0.167 HD
ATOM     47  C   UNL A   1      43.498  31.236  31.667  1.00  0.00     0.037 A 
ATOM     48  C   UNL A   1      43.111  25.264  28.032  1.00  0.00     0.037 A 
ATOM     49  C   UNL A   1      44.677  30.413  31.732  1.00  0.00     0.049 A 
ATOM     50  C   UNL A   1      44.359  25.665  28.774  1.00  0.00     0.074 A 
ATOM     51  C   UNL A   1      45.857  30.641  32.419  1.00  0.00     0.029 A 
ATOM     52  N   UNL A   1      44.827  29.199  31.074  1.00  0.00    -0.354 N 
ATOM     53  N   UNL A   1      44.585  26.730  29.505  1.00  0.00    -0.248 NA
ATOM     54  C   UNL A   1      45.498  24.742  28.691  1.00  0.00     0.031 C 
ATOM     55  C   UNL A   1      46.741  29.593  32.131  1.00  0.00     0.029 A 
ATOM     56  C   UNL A   1      46.087  28.677  31.322  1.00  0.00     0.049 A 
ATOM     57  H   UNL A   1      44.140  28.772  30.513  1.00  0.00     0.167 HD
ATOM     58  C   UNL A   1      45.872  26.583  30.007  1.00  0.00     0.074 A 
ATOM     59  C   UNL A   1      46.373  25.322  29.499  1.00  0.00     0.031 C 
ATOM     60  C   UNL A   1      46.572  27.414  30.820  1.00  0.00     0.037 A 
BRANCH  47  61
ATOM     61  C   UNL A   1      43.495  32.560  32.383  1.00  0.00     0.064 A 
ATOM     62  C   UNL A   1      43.047  32.681  33.709  1.00  0.00     0.173 A 
ATOM     63  C   UNL A   1      43.924  33.727  31.733  1.00  0.00     0.173 A 
ATOM     64  F   UNL A   1      42.616  31.601  34.378  1.00  0.00    -0.203 F 
ATOM     65  C   UNL A   1      42.970  33.925  34.332  1.00  0.00     0.198 A 
ATOM     66  C   UNL A   1      43.885  34.963  32.375  1.00  0.00     0.198 A 
ATOM     67  F   UNL A   1      44.373  33.674  30.470  1.00  0.00    -0.203 F 
ATOM     68  F   UNL A   1      42.456  34.023  35.567  1.00  0.00    -0.200 F 
ATOM     69  C   UNL A   1      43.392  35.064  33.666  1.00  0.00     0.200 A 
ATOM     70  F   UNL A   1      44.310  36.062  31.734  1.00  0.00    -0.200 F 
ATOM     71  F   UNL A   1      43.309  36.261  34.264  1.00  0.00    -0.200 F 
ENDBRANCH  47  61
BRANCH  48  72
ATOM     72  C   UNL A   1      43.036  23.963  27.316  1.00  0.00     0.064 A 
ATOM     73  C   UNL A   1      43.448  23.857  25.980  1.00  0.00     0.173 A 
ATOM     74  C   UNL A   1      42.566  22.802  27.947  1.00  0.00     0.173 A 
ATOM     75  F   UNL A   1      43.887  24.944  25.328  1.00  0.00    -0.203 F 
ATOM     76  C   UNL A   1      43.379  22.645  25.298  1.00  0.00     0.198 A 
ATOM     77  C   UNL A   1      42.525  21.583  27.272  1.00  0.00     0.198 A 
ATOM     78  F   UNL A   1      42.165  22.847  29.225  1.00  0.00    -0.203 F 
ATOM     79  F   UNL A   1      43.742  22.583  24.009  1.00  0.00    -0.200 F 
ATOM     80  C   UNL A   1      42.924  21.507  25.947  1.00  0.00     0.200 A 
ATOM     81  F   UNL A   1      42.099  20.483  27.906  1.00  0.00    -0.200 F 
ATOM     82  F   UNL A   1      42.867  20.339  25.293  1.00  0.00    -0.200 F 
ENDBRANCH  48  72
BRANCH  60  83
ATOM     83  C   UNL A   1      47.935  26.958  31.264  1.00  0.00     0.064 A 
ATOM     84  C   UNL A   1      49.106  27.339  30.592  1.00  0.00     0.173 A 
ATOM     85  C   UNL A   1      48.068  26.140  32.397  1.00  0.00     0.173 A 
ATOM     86  F   UNL A   1      49.035  28.111  29.496  1.00  0.00    -0.203 F 
ATOM     87  C   UNL A   1      50.354  26.884  31.012  1.00  0.00     0.198 A 
ATOM     88  C   UNL A   1      49.320  25.718  32.837  1.00  0.00     0.198 A 
ATOM     89  F   UNL A   1      46.982  25.753  33.084  1.00  0.00    -0.203 F 
ATOM     90  F   UNL A   1      51.451  27.207  30.315  1.00  0.00    -0.200 F 
ATOM     91  C   UNL A   1      50.460  26.080  32.137  1.00  0.00     0.200 A 
ATOM     92  F   UNL A   1      49.420  24.956  33.935  1.00  0.00    -0.200 F 
ATOM     93  F   UNL A   1      51.661  25.646  32.541  1.00  0.00    -0.200 F 
ENDBRANCH  60  83
ENDBRANCH  34  35
ENDBRANCH  26  29
ENDBRANCH  24  25
ENDBRANCH  23  24
ENDBRANCH  22  23
ENDBRANCH   3  22
TORSDOF 16
ENDMDL
MODEL 2
REMARK VINA RESULT:      -9.3      4.253     10.613
REMARK SMILES CCOCCCC(=O)N[C@@H]1[C@@H]2CC[C@@H](C2)[C@@H]1C(=O)NCCCNC(=O)c1ccc(-c2c3nc(c(-c4c(F)c(F)c(F)c(F)c4F)c4ccc([nH]4)c(-c4c(F)c(F)c(F)c(F)c4F)c4nc(c(-c5c(F)c(F)c(F)c(F)c5F)c5ccc2[nH]5)C=C4)C=C3)cc1
REMARK SMILES IDX 17 1 18 2 19 3 16 5 10 6 11 7 12 8 15 9 14 10 13 11 9 12
REMARK SMILES IDX 7 13 8 14 6 16 5 17 4 18 3 19 2 20 1 21 20 22 21 23 22 24
REMARK SMILES IDX 23 25 24 26 25 28 26 29 27 30 88 31 28 32 87 33 29 34 30 35
REMARK SMILES IDX 31 36 81 37 32 38 86 39 80 40 82 41 33 42 85 43 79 44 78 45
REMARK SMILES IDX 34 47 66 48 46 49 65 50 47 51 50 52 64 53 83 54 48 55 49 56
REMARK SMILES IDX 63 58 84 59 51 60 35 61 36 62 44 63 37 64 38 65 42 66 45 67
REMARK SMILES IDX 39 68 40 69 43 70 41 71 67 72 68 73 76 74 69 75 70 76 74 77
REMARK SMILES IDX 77 78 71 79 72 80 75 81 73 82 52 83 53 84 61 85 54 86 55 87
REMARK SMILES IDX 59 88 62 89 56 90 57 91 60 92 58 93
REMARK H PARENT 19 4 9 15 23 27 82 46 50 57
REMARK Flexibility Score: inf
ROOT
ATOM      1  C   UNL A   1      31.964  25.489  26.356  1.00  0.00     0.225 C 
ATOM      2  O   UNL A   1      30.946  24.887  26.730  1.00  0.00    -0.275 OA
ATOM      3  N   UNL A   1      33.027  24.684  26.108  1.00  0.00    -0.356 N 
ATOM      4  H   UNL A   1      32.874  23.747  26.369  1.00  0.00     0.163 HD
ENDROOT
BRANCH   1   5
ATOM      5  C   UNL A   1      31.984  27.015  26.394  1.00  0.00     0.104 C 
ATOM      6  C   UNL A   1      31.300  28.054  25.433  1.00  0.00     0.097 C 
ATOM      7  C   UNL A   1      31.944  29.410  25.887  1.00  0.00     0.012 C 
ATOM      8  C   UNL A   1      33.410  29.588  25.494  1.00  0.00     0.006 C 
ATOM      9  C   UNL A   1      32.164  29.150  27.395  1.00  0.00     0.010 C 
ATOM     10  C   UNL A   1      33.014  27.878  27.162  1.00  0.00     0.004 C 
ATOM     11  C   UNL A   1      34.118  28.453  26.262  1.00  0.00     0.005 C 
BRANCH   6  12
ATOM     12  N   UNL A   1      30.740  27.989  24.056  1.00  0.00    -0.352 N 
ATOM     13  C   UNL A   1      29.781  27.854  23.138  1.00  0.00     0.220 C 
ATOM     14  O   UNL A   1      30.283  27.762  21.995  1.00  0.00    -0.275 OA
ATOM     15  H   UNL A   1      31.541  28.123  23.499  1.00  0.00     0.163 HD
BRANCH  13  16
ATOM     16  C   UNL A   1      28.261  27.892  23.123  1.00  0.00     0.102 C 
BRANCH  16  17
ATOM     17  C   UNL A   1      27.386  29.073  22.808  1.00  0.00     0.038 C 
BRANCH  17  18
ATOM     18  C   UNL A   1      28.022  30.093  21.916  1.00  0.00     0.160 C 
BRANCH  18  19
ATOM     19  O   UNL A   1      28.839  31.068  22.515  1.00  0.00    -0.382 OA
BRANCH  19  20
ATOM     20  C   UNL A   1      28.266  32.078  23.326  1.00  0.00     0.156 C 
ATOM     21  C   UNL A   1      29.061  33.362  23.107  1.00  0.00     0.035 C 
ENDBRANCH  19  20
ENDBRANCH  18  19
ENDBRANCH  17  18
ENDBRANCH  16  17
ENDBRANCH  13  16
ENDBRANCH   6  12
ENDBRANCH   1   5
BRANCH   3  22
ATOM     22  C   UNL A   1      34.344  24.913  25.536  1.00  0.00     0.117 C 
BRANCH  22  23
ATOM     23  C   UNL A   1      35.293  23.752  25.852  1.00  0.00     0.042 C 
BRANCH  23  24
ATOM     24  C   UNL A   1      36.635  23.827  25.117  1.00  0.00     0.118 C 
BRANCH  24  25
ATOM     25  N   UNL A   1      37.565  22.785  25.538  1.00  0.00    -0.352 N 
ATOM     26  C   UNL A   1      38.771  22.883  26.188  1.00  0.00     0.251 C 
ATOM     27  H   UNL A   1      37.283  21.866  25.323  1.00  0.00     0.163 HD
ATOM     28  O   UNL A   1      39.505  21.894  26.260  1.00  0.00    -0.269 OA
BRANCH  26  29
ATOM     29  C   UNL A   1      39.216  24.159  26.794  1.00  0.00     0.039 A 
ATOM     30  C   UNL A   1      39.999  25.038  26.039  1.00  0.00     0.014 A 
ATOM     31  C   UNL A   1      38.913  24.475  28.121  1.00  0.00     0.014 A 
ATOM     32  C   UNL A   1      40.432  26.246  26.595  1.00  0.00     0.010 A 
ATOM     33  C   UNL A   1      39.263  25.719  28.642  1.00  0.00     0.010 A 
ATOM     34  C   UNL A   1      40.048  26.611  27.897  1.00  0.00    -0.014 A 
BRANCH  34  35
ATOM     35  C   UNL A   1      40.502  27.892  28.503  1.00  0.00     0.031 A 
ATOM     36  C   UNL A   1      41.961  28.113  28.807  1.00  0.00     0.074 A 
ATOM     37  C   UNL A   1      39.605  28.848  28.813  1.00  0.00     0.049 A 
ATOM     38  N   UNL A   1      42.554  29.158  29.331  1.00  0.00    -0.248 NA
ATOM     39  C   UNL A   1      42.873  26.998  28.511  1.00  0.00     0.031 C 
ATOM     40  C   UNL A   1      38.159  28.744  28.618  1.00  0.00     0.029 A 
ATOM     41  N   UNL A   1      39.777  30.098  29.354  1.00  0.00    -0.354 N 
ATOM     42  C   UNL A   1      43.897  28.819  29.435  1.00  0.00     0.074 A 
ATOM     43  C   UNL A   1      44.018  27.445  29.000  1.00  0.00     0.031 C 
ATOM     44  C   UNL A   1      37.583  29.900  28.985  1.00  0.00     0.029 A 
ATOM     45  C   UNL A   1      38.611  30.813  29.475  1.00  0.00     0.049 A 
ATOM     46  H   UNL A   1      40.656  30.450  29.630  1.00  0.00     0.167 HD
ATOM     47  C   UNL A   1      44.945  29.589  29.820  1.00  0.00     0.037 A 
ATOM     48  C   UNL A   1      38.397  32.067  29.916  1.00  0.00     0.037 A 
ATOM     49  C   UNL A   1      44.825  30.959  30.245  1.00  0.00     0.049 A 
ATOM     50  C   UNL A   1      39.570  32.900  30.362  1.00  0.00     0.074 A 
ATOM     51  C   UNL A   1      45.823  31.840  30.622  1.00  0.00     0.029 A 
ATOM     52  N   UNL A   1      43.623  31.646  30.358  1.00  0.00    -0.354 N 
ATOM     53  N   UNL A   1      40.844  32.593  30.389  1.00  0.00    -0.248 NA
ATOM     54  C   UNL A   1      39.272  34.261  30.826  1.00  0.00     0.031 C 
ATOM     55  C   UNL A   1      45.220  33.042  31.016  1.00  0.00     0.029 A 
ATOM     56  C   UNL A   1      43.852  32.933  30.818  1.00  0.00     0.049 A 
ATOM     57  H   UNL A   1      42.737  31.273  30.143  1.00  0.00     0.167 HD
ATOM     58  C   UNL A   1      41.504  33.734  30.828  1.00  0.00     0.074 A 
ATOM     59  C   UNL A   1      40.485  34.741  31.049  1.00  0.00     0.031 C 
ATOM     60  C   UNL A   1      42.832  33.932  31.024  1.00  0.00     0.037 A 
BRANCH  47  61
ATOM     61  C   UNL A   1      46.307  28.950  29.802  1.00  0.00     0.064 A 
ATOM     62  C   UNL A   1      46.837  28.308  30.934  1.00  0.00     0.173 A 
ATOM     63  C   UNL A   1      47.105  28.995  28.649  1.00  0.00     0.173 A 
ATOM     64  F   UNL A   1      46.124  28.241  32.069  1.00  0.00    -0.203 F 
ATOM     65  C   UNL A   1      48.133  27.794  30.931  1.00  0.00     0.198 A 
ATOM     66  C   UNL A   1      48.384  28.442  28.636  1.00  0.00     0.198 A 
ATOM     67  F   UNL A   1      46.650  29.584  27.532  1.00  0.00    -0.203 F 
ATOM     68  F   UNL A   1      48.644  27.266  32.052  1.00  0.00    -0.200 F 
ATOM     69  C   UNL A   1      48.903  27.859  29.781  1.00  0.00     0.200 A 
ATOM     70  F   UNL A   1      49.122  28.490  27.518  1.00  0.00    -0.200 F 
ATOM     71  F   UNL A   1      50.152  27.372  29.782  1.00  0.00    -0.200 F 
ENDBRANCH  47  61
BRANCH  48  72
ATOM     72  C   UNL A   1      37.024  32.637  29.892  1.00  0.00     0.064 A 
ATOM     73  C   UNL A   1      36.175  32.504  31.000  1.00  0.00     0.173 A 
ATOM     74  C   UNL A   1      36.536  33.332  28.777  1.00  0.00     0.173 A 
ATOM     75  F   UNL A   1      36.590  31.831  32.084  1.00  0.00    -0.203 F 
ATOM     76  C   UNL A   1      34.886  33.030  30.988  1.00  0.00     0.198 A 
ATOM     77  C   UNL A   1      35.255  33.884  28.777  1.00  0.00     0.198 A 
ATOM     78  F   UNL A   1      37.309  33.492  27.693  1.00  0.00    -0.203 F 
ATOM     79  F   UNL A   1      34.082  32.853  32.046  1.00  0.00    -0.200 F 
ATOM     80  C   UNL A   1      34.429  33.727  29.879  1.00  0.00     0.200 A 
ATOM     81  F   UNL A   1      34.823  34.568  27.709  1.00  0.00    -0.200 F 
ATOM     82  F   UNL A   1      33.192  34.241  29.872  1.00  0.00    -0.200 F 
ENDBRANCH  48  72
BRANCH  60  83
ATOM     83  C   UNL A   1      43.270  35.309  31.440  1.00  0.00     0.064 A 
ATOM     84  C   UNL A   1      43.324  35.699  32.787  1.00  0.00     0.173 A 
ATOM     85  C   UNL A   1      43.663  36.246  30.471  1.00  0.00     0.173 A 
ATOM     86  F   UNL A   1      42.949  34.847  33.753  1.00  0.00    -0.203 F 
ATOM     87  C   UNL A   1      43.713  36.989  33.144  1.00  0.00     0.198 A 
ATOM     88  C   UNL A   1      44.087  37.521  30.834  1.00  0.00     0.198 A 
ATOM     89  F   UNL A   1      43.641  35.923  29.170  1.00  0.00    -0.203 F 
ATOM     90  F   UNL A   1      43.693  37.360  34.431  1.00  0.00    -0.200 F 
ATOM     91  C   UNL A   1      44.100  37.895  32.168  1.00  0.00     0.200 A 
ATOM     92  F   UNL A   1      44.479  38.388  29.890  1.00  0.00    -0.200 F 
ATOM     93  F   UNL A   1      44.477  39.133  32.514  1.00  0.00    -0.200 F 
ENDBRANCH  60  83
ENDBRANCH  34  35
ENDBRANCH  26  29
ENDBRANCH  24  25
ENDBRANCH  23  24
ENDBRANCH  22  23
ENDBRANCH   3  22
TORSDOF 16
ENDMDL
MODEL 3
REMARK VINA RESULT:      -9.3      3.965      7.826
REMARK SMILES CCOCCCC(=O)N[C@@H]1[C@@H]2CC[C@@H](C2)[C@@H]1C(=O)NCCCNC(=O)c1ccc(-c2c3nc(c(-c4c(F)c(F)c(F)c(F)c4F)c4ccc([nH]4)c(-c4c(F)c(F)c(F)c(F)c4F)c4nc(c(-c5c(F)c(F)c(F)c(F)c5F)c5ccc2[nH]5)C=C4)C=C3)cc1
REMARK SMILES IDX 17 1 18 2 19 3 16 5 10 6 11 7 12 8 15 9 14 10 13 11 9 12
REMARK SMILES IDX 7 13 8 14 6 16 5 17 4 18 3 19 2 20 1 21 20 22 21 23 22 24
REMARK SMILES IDX 23 25 24 26 25 28 26 29 27 30 88 31 28 32 87 33 29 34 30 35
REMARK SMILES IDX 31 36 81 37 32 38 86 39 80 40 82 41 33 42 85 43 79 44 78 45
REMARK SMILES IDX 34 47 66 48 46 49 65 50 47 51 50 52 64 53 83 54 48 55 49 56
REMARK SMILES IDX 63 58 84 59 51 60 35 61 36 62 44 63 37 64 38 65 42 66 45 67
REMARK SMILES IDX 39 68 40 69 43 70 41 71 67 72 68 73 76 74 69 75 70 76 74 77
REMARK SMILES IDX 77 78 71 79 72 80 75 81 73 82 52 83 53 84 61 85 54 86 55 87
REMARK SMILES IDX 59 88 62 89 56 90 57 91 60 92 58 93
REMARK H PARENT 19 4 9 15 23 27 82 46 50 57
REMARK Flexibility Score: inf
ROOT
ATOM      1  C   UNL A   1      33.658  26.088  22.842  1.00  0.00     0.225 C 
ATOM      2  O   UNL A   1      33.653  26.133  21.602  1.00  0.00    -0.275 OA
ATOM      3  N   UNL A   1      33.790  27.298  23.441  1.00  0.00    -0.356 N 
ATOM      4  H   UNL A   1      33.978  28.027  22.807  1.00  0.00     0.163 HD
ENDROOT
BRANCH   1   5
ATOM      5  C   UNL A   1      33.708  24.731  23.539  1.00  0.00     0.104 C 
ATOM      6  C   UNL A   1      32.622  24.013  24.420  1.00  0.00     0.097 C 
ATOM      7  C   UNL A   1      33.421  22.805  25.022  1.00  0.00     0.012 C 
ATOM      8  C   UNL A   1      34.445  23.181  26.092  1.00  0.00     0.006 C 
ATOM      9  C   UNL A   1      34.417  22.501  23.880  1.00  0.00     0.010 C 
ATOM     10  C   UNL A   1      34.996  23.935  23.858  1.00  0.00     0.004 C 
ATOM     11  C   UNL A   1      35.446  24.067  25.321  1.00  0.00     0.005 C 
BRANCH   6  12
ATOM     12  N   UNL A   1      31.408  24.463  25.152  1.00  0.00    -0.352 N 
ATOM     13  C   UNL A   1      30.350  25.241  25.390  1.00  0.00     0.220 C 
ATOM     14  O   UNL A   1      29.848  24.964  26.502  1.00  0.00    -0.275 OA
ATOM     15  H   UNL A   1      31.353  23.810  25.886  1.00  0.00     0.163 HD
BRANCH  13  16
ATOM     16  C   UNL A   1      29.556  26.282  24.617  1.00  0.00     0.102 C 
BRANCH  16  17
ATOM     17  C   UNL A   1      30.009  27.659  24.220  1.00  0.00     0.038 C 
BRANCH  17  18
ATOM     18  C   UNL A   1      30.284  27.822  22.758  1.00  0.00     0.160 C 
BRANCH  18  19
ATOM     19  O   UNL A   1      29.377  28.588  22.003  1.00  0.00    -0.382 OA
BRANCH  19  20
ATOM     20  C   UNL A   1      29.142  29.944  22.335  1.00  0.00     0.156 C 
ATOM     21  C   UNL A   1      27.682  30.076  22.761  1.00  0.00     0.035 C 
ENDBRANCH  19  20
ENDBRANCH  18  19
ENDBRANCH  17  18
ENDBRANCH  16  17
ENDBRANCH  13  16
ENDBRANCH   6  12
ENDBRANCH   1   5
BRANCH   3  22
ATOM     22  C   UNL A   1      33.712  27.744  24.822  1.00  0.00     0.117 C 
BRANCH  22  23
ATOM     23  C   UNL A   1      33.267  29.208  24.907  1.00  0.00     0.042 C 
BRANCH  23  24
ATOM     24  C   UNL A   1      32.730  29.618  26.281  1.00  0.00     0.118 C 
BRANCH  24  25
ATOM     25  N   UNL A   1      32.657  31.066  26.446  1.00  0.00    -0.352 N 
ATOM     26  C   UNL A   1      33.392  31.904  27.248  1.00  0.00     0.251 C 
ATOM     27  H   UNL A   1      31.972  31.511  25.896  1.00  0.00     0.163 HD
ATOM     28  O   UNL A   1      33.026  33.073  27.401  1.00  0.00    -0.269 OA
BRANCH  26  29
ATOM     29  C   UNL A   1      34.609  31.431  27.945  1.00  0.00     0.039 A 
ATOM     30  C   UNL A   1      35.689  32.306  28.106  1.00  0.00     0.014 A 
ATOM     31  C   UNL A   1      34.719  30.113  28.395  1.00  0.00     0.014 A 
ATOM     32  C   UNL A   1      36.849  31.875  28.758  1.00  0.00     0.010 A 
ATOM     33  C   UNL A   1      35.835  29.714  29.128  1.00  0.00     0.010 A 
ATOM     34  C   UNL A   1      36.925  30.580  29.298  1.00  0.00    -0.014 A 
BRANCH  34  35
ATOM     35  C   UNL A   1      38.153  30.107  29.993  1.00  0.00     0.031 A 
ATOM     36  C   UNL A   1      38.459  30.571  31.394  1.00  0.00     0.074 A 
ATOM     37  C   UNL A   1      39.014  29.286  29.361  1.00  0.00     0.049 A 
ATOM     38  N   UNL A   1      39.474  30.271  32.168  1.00  0.00    -0.248 NA
ATOM     39  C   UNL A   1      37.514  31.525  31.994  1.00  0.00     0.031 C 
ATOM     40  C   UNL A   1      38.865  28.800  27.989  1.00  0.00     0.029 A 
ATOM     41  N   UNL A   1      40.185  28.711  29.791  1.00  0.00    -0.354 N 
ATOM     42  C   UNL A   1      39.291  31.006  33.333  1.00  0.00     0.074 A 
ATOM     43  C   UNL A   1      38.118  31.827  33.131  1.00  0.00     0.031 C 
ATOM     44  C   UNL A   1      39.875  27.962  27.708  1.00  0.00     0.029 A 
ATOM     45  C   UNL A   1      40.762  27.878  28.864  1.00  0.00     0.049 A 
ATOM     46  H   UNL A   1      40.573  28.879  30.681  1.00  0.00     0.167 HD
ATOM     47  C   UNL A   1      40.008  30.975  34.483  1.00  0.00     0.037 A 
ATOM     48  C   UNL A   1      41.874  27.122  28.943  1.00  0.00     0.037 A 
ATOM     49  C   UNL A   1      41.171  30.151  34.685  1.00  0.00     0.049 A 
ATOM     50  C   UNL A   1      42.671  27.118  30.221  1.00  0.00     0.074 A 
ATOM     51  C   UNL A   1      41.951  30.016  35.821  1.00  0.00     0.029 A 
ATOM     52  N   UNL A   1      41.728  29.324  33.719  1.00  0.00    -0.354 N 
ATOM     53  N   UNL A   1      42.450  27.762  31.340  1.00  0.00    -0.248 NA
ATOM     54  C   UNL A   1      43.869  26.267  30.245  1.00  0.00     0.031 C 
ATOM     55  C   UNL A   1      43.012  29.151  35.524  1.00  0.00     0.029 A 
ATOM     56  C   UNL A   1      42.853  28.692  34.225  1.00  0.00     0.049 A 
ATOM     57  H   UNL A   1      41.376  29.204  32.807  1.00  0.00     0.167 HD
ATOM     58  C   UNL A   1      43.450  27.361  32.217  1.00  0.00     0.074 A 
ATOM     59  C   UNL A   1      44.276  26.413  31.497  1.00  0.00     0.031 C 
ATOM     60  C   UNL A   1      43.662  27.740  33.503  1.00  0.00     0.037 A 
BRANCH  47  61
ATOM     61  C   UNL A   1      39.548  31.871  35.601  1.00  0.00     0.064 A 
ATOM     62  C   UNL A   1      38.582  31.454  36.533  1.00  0.00     0.173 A 
ATOM     63  C   UNL A   1      40.060  33.170  35.736  1.00  0.00     0.173 A 
ATOM     64  F   UNL A   1      38.049  30.224  36.449  1.00  0.00    -0.203 F 
ATOM     65  C   UNL A   1      38.103  32.321  37.512  1.00  0.00     0.198 A 
ATOM     66  C   UNL A   1      39.609  34.021  36.743  1.00  0.00     0.198 A 
ATOM     67  F   UNL A   1      40.992  33.623  34.884  1.00  0.00    -0.203 F 
ATOM     68  F   UNL A   1      37.118  31.925  38.331  1.00  0.00    -0.200 F 
ATOM     69  C   UNL A   1      38.619  33.602  37.618  1.00  0.00     0.200 A 
ATOM     70  F   UNL A   1      40.122  35.254  36.855  1.00  0.00    -0.200 F 
ATOM     71  F   UNL A   1      38.151  34.439  38.555  1.00  0.00    -0.200 F 
ENDBRANCH  47  61
BRANCH  48  72
ATOM     72  C   UNL A   1      42.260  26.250  27.802  1.00  0.00     0.064 A 
ATOM     73  C   UNL A   1      43.249  26.656  26.894  1.00  0.00     0.173 A 
ATOM     74  C   UNL A   1      41.664  24.997  27.600  1.00  0.00     0.173 A 
ATOM     75  F   UNL A   1      43.834  27.855  27.035  1.00  0.00    -0.203 F 
ATOM     76  C   UNL A   1      43.616  25.850  25.819  1.00  0.00     0.198 A 
ATOM     77  C   UNL A   1      42.053  24.178  26.540  1.00  0.00     0.198 A 
ATOM     78  F   UNL A   1      40.717  24.559  28.441  1.00  0.00    -0.203 F 
ATOM     79  F   UNL A   1      44.535  26.281  24.945  1.00  0.00    -0.200 F 
ATOM     80  C   UNL A   1      43.023  24.608  25.647  1.00  0.00     0.200 A 
ATOM     81  F   UNL A   1      41.489  22.973  26.385  1.00  0.00    -0.200 F 
ATOM     82  F   UNL A   1      43.384  23.829  24.619  1.00  0.00    -0.200 F 
ENDBRANCH  48  72
BRANCH  60  83
ATOM     83  C   UNL A   1      44.795  27.080  34.238  1.00  0.00     0.064 A 
ATOM     84  C   UNL A   1      44.631  25.872  34.934  1.00  0.00     0.173 A 
ATOM     85  C   UNL A   1      46.074  27.660  34.227  1.00  0.00     0.173 A 
ATOM     86  F   UNL A   1      43.428  25.281  34.986  1.00  0.00    -0.203 F 
ATOM     87  C   UNL A   1      45.693  25.293  35.625  1.00  0.00     0.198 A 
ATOM     88  C   UNL A   1      47.142  27.059  34.888  1.00  0.00     0.198 A 
ATOM     89  F   UNL A   1      46.290  28.809  33.570  1.00  0.00    -0.203 F 
ATOM     90  F   UNL A   1      45.497  24.176  36.337  1.00  0.00    -0.200 F 
ATOM     91  C   UNL A   1      46.948  25.884  35.596  1.00  0.00     0.200 A 
ATOM     92  F   UNL A   1      48.358  27.622  34.842  1.00  0.00    -0.200 F 
ATOM     93  F   UNL A   1      47.969  25.324  36.259  1.00  0.00    -0.200 F 
ENDBRANCH  60  83
ENDBRANCH  34  35
ENDBRANCH  26  29
ENDBRANCH  24  25
ENDBRANCH  23  24
ENDBRANCH  22  23
ENDBRANCH   3  22
TORSDOF 16
ENDMDL
