MODEL 1
REMARK VINA RESULT:     -14.2      0.000      0.000
REMARK SMILES Cc1cccc(-c2ccccc2O)c1C(=O)NCCCNC(=O)c1ccc(-c2c3nc(c(-c4c(F)c(F)c(F)c(F)c4F)c4ccc([nH]4)c(-c4c(F)c(F)c(F)c(F)c4F)c4nc(c(-c5c(F)c(F)c(F)c(F)c5F)c5ccc2[nH]5)C=C4)C=C3)cc1
REMARK SMILES IDX 19 1 18 2 17 3 15 4 16 5 14 7 1 8 2 9 3 10 4 11 6 12 5 13
REMARK SMILES IDX 7 14 8 15 12 16 9 17 11 18 10 19 13 20 20 22 21 23 22 24
REMARK SMILES IDX 23 26 24 27 25 28 86 29 26 30 85 31 27 32 28 33 29 34 79 35
REMARK SMILES IDX 30 36 84 37 78 38 80 39 31 40 83 41 77 42 76 43 32 45 64 46
REMARK SMILES IDX 44 47 63 48 45 49 48 50 62 51 81 52 46 53 47 54 61 56 82 57
REMARK SMILES IDX 49 58 33 59 34 60 42 61 35 62 36 63 40 64 43 65 37 66 38 67
REMARK SMILES IDX 41 68 39 69 65 70 66 71 74 72 67 73 68 74 72 75 75 76 69 77
REMARK SMILES IDX 70 78 73 79 71 80 50 81 51 82 59 83 52 84 53 85 57 86 60 87
REMARK SMILES IDX 54 88 55 89 58 90 56 91
REMARK H PARENT 17 6 13 21 21 25 80 44 48 55
REMARK Flexibility Score: inf
ROOT
ATOM      1  C   UNL A   1      32.407  30.859  26.835  1.00  0.00     0.042 C 
ENDROOT
BRANCH   1   2
ATOM      2  C   UNL A   1      31.925  29.997  25.659  1.00  0.00     0.118 C 
BRANCH   2   3
ATOM      3  N   UNL A   1      31.489  28.688  26.123  1.00  0.00    -0.352 N 
ATOM      4  C   UNL A   1      31.373  27.404  25.642  1.00  0.00     0.252 C 
ATOM      5  O   UNL A   1      30.785  26.687  26.461  1.00  0.00    -0.269 OA
ATOM      6  H   UNL A   1      31.188  28.736  27.058  1.00  0.00     0.163 HD
BRANCH   4   7
ATOM      7  C   UNL A   1      31.887  26.813  24.331  1.00  0.00     0.050 A 
ATOM      8  C   UNL A   1      34.145  25.839  25.188  1.00  0.00     0.045 C 
ATOM      9  C   UNL A   1      33.053  26.009  24.181  1.00  0.00    -0.038 A 
ATOM     10  C   UNL A   1      33.357  25.382  22.947  1.00  0.00     0.004 A 
ATOM     11  C   UNL A   1      32.624  25.635  21.810  1.00  0.00     0.001 A 
ATOM     12  C   UNL A   1      31.180  27.135  23.118  1.00  0.00    -0.002 A 
ATOM     13  C   UNL A   1      31.578  26.533  21.891  1.00  0.00     0.010 A 
BRANCH  12  14
ATOM     14  C   UNL A   1      30.062  28.105  22.962  1.00  0.00     0.024 A 
ATOM     15  C   UNL A   1      28.752  27.729  23.323  1.00  0.00     0.012 A 
ATOM     16  C   UNL A   1      30.205  29.349  22.321  1.00  0.00     0.123 A 
ATOM     17  C   UNL A   1      27.659  28.567  23.077  1.00  0.00     0.001 A 
ATOM     18  C   UNL A   1      29.126  30.203  22.099  1.00  0.00     0.047 A 
ATOM     19  C   UNL A   1      27.848  29.809  22.477  1.00  0.00     0.004 A 
BRANCH  16  20
ATOM     20  O   UNL A   1      31.434  29.810  21.929  1.00  0.00    -0.507 OA
ATOM     21  H   UNL A   1      32.096  29.206  21.656  1.00  0.00     0.293 HD
ENDBRANCH  16  20
ENDBRANCH  12  14
ENDBRANCH   4   7
ENDBRANCH   2   3
ENDBRANCH   1   2
BRANCH   1  22
ATOM     22  C   UNL A   1      33.625  30.349  27.587  1.00  0.00     0.118 C 
BRANCH  22  23
ATOM     23  N   UNL A   1      34.221  31.341  28.482  1.00  0.00    -0.352 N 
ATOM     24  C   UNL A   1      35.452  31.286  29.125  1.00  0.00     0.251 C 
ATOM     25  H   UNL A   1      33.684  32.149  28.649  1.00  0.00     0.163 HD
ATOM     26  O   UNL A   1      35.861  32.200  29.809  1.00  0.00    -0.269 OA
BRANCH  24  27
ATOM     27  C   UNL A   1      36.302  30.109  28.835  1.00  0.00     0.039 A 
ATOM     28  C   UNL A   1      36.742  29.367  29.931  1.00  0.00     0.014 A 
ATOM     29  C   UNL A   1      36.936  30.024  27.599  1.00  0.00     0.014 A 
ATOM     30  C   UNL A   1      37.992  28.761  29.868  1.00  0.00     0.010 A 
ATOM     31  C   UNL A   1      38.218  29.506  27.567  1.00  0.00     0.010 A 
ATOM     32  C   UNL A   1      38.774  28.947  28.726  1.00  0.00    -0.014 A 
BRANCH  32  33
ATOM     33  C   UNL A   1      40.203  28.655  28.701  1.00  0.00     0.031 A 
ATOM     34  C   UNL A   1      40.670  27.332  28.246  1.00  0.00     0.074 A 
ATOM     35  C   UNL A   1      41.116  29.572  29.094  1.00  0.00     0.049 A 
ATOM     36  N   UNL A   1      41.759  26.773  28.652  1.00  0.00    -0.248 NA
ATOM     37  C   UNL A   1      39.907  26.511  27.317  1.00  0.00     0.031 C 
ATOM     38  C   UNL A   1      42.568  29.481  28.948  1.00  0.00     0.029 A 
ATOM     39  N   UNL A   1      40.922  30.702  29.906  1.00  0.00    -0.354 N 
ATOM     40  C   UNL A   1      41.978  25.665  27.872  1.00  0.00     0.074 A 
ATOM     41  C   UNL A   1      40.767  25.513  27.095  1.00  0.00     0.031 C 
ATOM     42  C   UNL A   1      43.146  30.262  29.872  1.00  0.00     0.029 A 
ATOM     43  C   UNL A   1      42.092  30.803  30.706  1.00  0.00     0.049 A 
ATOM     44  H   UNL A   1      40.139  31.298  29.919  1.00  0.00     0.167 HD
ATOM     45  C   UNL A   1      43.204  25.066  27.884  1.00  0.00     0.037 A 
ATOM     46  C   UNL A   1      42.029  30.729  32.067  1.00  0.00     0.037 A 
ATOM     47  C   UNL A   1      44.118  25.711  28.827  1.00  0.00     0.049 A 
ATOM     48  C   UNL A   1      42.769  29.554  32.667  1.00  0.00     0.074 A 
ATOM     49  C   UNL A   1      45.144  26.633  28.703  1.00  0.00     0.029 A 
ATOM     50  N   UNL A   1      43.840  25.640  30.181  1.00  0.00    -0.354 N 
ATOM     51  N   UNL A   1      43.456  28.683  31.982  1.00  0.00    -0.248 NA
ATOM     52  C   UNL A   1      42.680  29.205  34.085  1.00  0.00     0.031 C 
ATOM     53  C   UNL A   1      45.493  27.097  30.004  1.00  0.00     0.029 A 
ATOM     54  C   UNL A   1      44.676  26.459  30.918  1.00  0.00     0.049 A 
ATOM     55  H   UNL A   1      43.134  25.076  30.572  1.00  0.00     0.167 HD
ATOM     56  C   UNL A   1      43.828  27.654  32.807  1.00  0.00     0.074 A 
ATOM     57  C   UNL A   1      43.316  28.024  34.112  1.00  0.00     0.031 C 
ATOM     58  C   UNL A   1      44.485  26.545  32.356  1.00  0.00     0.037 A 
BRANCH  45  59
ATOM     59  C   UNL A   1      43.645  24.052  26.853  1.00  0.00     0.064 A 
ATOM     60  C   UNL A   1      43.170  22.724  26.892  1.00  0.00     0.173 A 
ATOM     61  C   UNL A   1      44.574  24.312  25.829  1.00  0.00     0.173 A 
ATOM     62  F   UNL A   1      42.186  22.356  27.722  1.00  0.00    -0.203 F 
ATOM     63  C   UNL A   1      43.692  21.717  26.076  1.00  0.00     0.198 A 
ATOM     64  C   UNL A   1      45.146  23.296  25.057  1.00  0.00     0.198 A 
ATOM     65  F   UNL A   1      44.914  25.566  25.501  1.00  0.00    -0.203 F 
ATOM     66  F   UNL A   1      43.204  20.472  26.165  1.00  0.00    -0.200 F 
ATOM     67  C   UNL A   1      44.714  21.993  25.192  1.00  0.00     0.200 A 
ATOM     68  F   UNL A   1      46.117  23.590  24.182  1.00  0.00    -0.200 F 
ATOM     69  F   UNL A   1      45.257  21.016  24.454  1.00  0.00    -0.200 F 
ENDBRANCH  45  59
BRANCH  46  70
ATOM     70  C   UNL A   1      40.773  31.320  32.596  1.00  0.00     0.064 A 
ATOM     71  C   UNL A   1      40.647  32.722  32.548  1.00  0.00     0.173 A 
ATOM     72  C   UNL A   1      39.603  30.560  32.695  1.00  0.00     0.173 A 
ATOM     73  F   UNL A   1      41.743  33.493  32.477  1.00  0.00    -0.203 F 
ATOM     74  C   UNL A   1      39.401  33.323  32.403  1.00  0.00     0.198 A 
ATOM     75  C   UNL A   1      38.355  31.172  32.593  1.00  0.00     0.198 A 
ATOM     76  F   UNL A   1      39.661  29.222  32.750  1.00  0.00    -0.203 F 
ATOM     77  F   UNL A   1      39.316  34.642  32.177  1.00  0.00    -0.200 F 
ATOM     78  C   UNL A   1      38.258  32.542  32.386  1.00  0.00     0.200 A 
ATOM     79  F   UNL A   1      37.247  30.418  32.588  1.00  0.00    -0.200 F 
ATOM     80  F   UNL A   1      37.070  33.100  32.117  1.00  0.00    -0.200 F 
ENDBRANCH  46  70
BRANCH  58  81
ATOM     81  C   UNL A   1      44.967  25.438  33.258  1.00  0.00     0.064 A 
ATOM     82  C   UNL A   1      46.324  25.086  33.362  1.00  0.00     0.173 A 
ATOM     83  C   UNL A   1      44.068  24.622  33.979  1.00  0.00     0.173 A 
ATOM     84  F   UNL A   1      47.257  25.714  32.631  1.00  0.00    -0.203 F 
ATOM     85  C   UNL A   1      46.759  24.060  34.204  1.00  0.00     0.198 A 
ATOM     86  C   UNL A   1      44.499  23.562  34.775  1.00  0.00     0.198 A 
ATOM     87  F   UNL A   1      42.745  24.838  33.952  1.00  0.00    -0.203 F 
ATOM     88  F   UNL A   1      48.070  23.813  34.328  1.00  0.00    -0.200 F 
ATOM     89  C   UNL A   1      45.847  23.296  34.908  1.00  0.00     0.200 A 
ATOM     90  F   UNL A   1      43.599  22.806  35.419  1.00  0.00    -0.200 F 
ATOM     91  F   UNL A   1      46.264  22.305  35.706  1.00  0.00    -0.200 F 
ENDBRANCH  58  81
ENDBRANCH  32  33
ENDBRANCH  24  27
ENDBRANCH  22  23
ENDBRANCH   1  22
TORSDOF 12
ENDMDL
MODEL 2
REMARK VINA RESULT:     -14.1      0.667      1.324
REMARK SMILES Cc1cccc(-c2ccccc2O)c1C(=O)NCCCNC(=O)c1ccc(-c2c3nc(c(-c4c(F)c(F)c(F)c(F)c4F)c4ccc([nH]4)c(-c4c(F)c(F)c(F)c(F)c4F)c4nc(c(-c5c(F)c(F)c(F)c(F)c5F)c5ccc2[nH]5)C=C4)C=C3)cc1
REMARK SMILES IDX 19 1 18 2 17 3 15 4 16 5 14 7 1 8 2 9 3 10 4 11 6 12 5 13
REMARK SMILES IDX 7 14 8 15 12 16 9 17 11 18 10 19 13 20 20 22 21 23 22 24
REMARK SMILES IDX 23 26 24 27 25 28 86 29 26 30 85 31 27 32 28 33 29 34 79 35
REMARK SMILES IDX 30 36 84 37 78 38 80 39 31 40 83 41 77 42 76 43 32 45 64 46
REMARK SMILES IDX 44 47 63 48 45 49 48 50 62 51 81 52 46 53 47 54 61 56 82 57
REMARK SMILES IDX 49 58 33 59 34 60 42 61 35 62 36 63 40 64 43 65 37 66 38 67
REMARK SMILES IDX 41 68 39 69 65 70 66 71 74 72 67 73 68 74 72 75 75 76 69 77
REMARK SMILES IDX 70 78 73 79 71 80 50 81 51 82 59 83 52 84 53 85 57 86 60 87
REMARK SMILES IDX 54 88 55 89 58 90 56 91
REMARK H PARENT 17 6 13 21 21 25 80 44 48 55
REMARK Flexibility Score: inf
ROOT
ATOM      1  C   UNL A   1      32.319  30.895  26.835  1.00  0.00     0.042 C 
ENDROOT
BRANCH   1   2
ATOM      2  C   UNL A   1      31.858  30.024  25.658  1.00  0.00     0.118 C 
BRANCH   2   3
ATOM      3  N   UNL A   1      31.430  28.712  26.123  1.00  0.00    -0.352 N 
ATOM      4  C   UNL A   1      31.330  27.426  25.646  1.00  0.00     0.252 C 
ATOM      5  O   UNL A   1      30.742  26.706  26.462  1.00  0.00    -0.269 OA
ATOM      6  H   UNL A   1      31.120  28.761  27.056  1.00  0.00     0.163 HD
BRANCH   4   7
ATOM      7  C   UNL A   1      31.861  26.835  24.341  1.00  0.00     0.050 A 
ATOM      8  C   UNL A   1      34.109  25.865  25.226  1.00  0.00     0.045 C 
ATOM      9  C   UNL A   1      33.030  26.032  24.205  1.00  0.00    -0.038 A 
ATOM     10  C   UNL A   1      33.350  25.406  22.976  1.00  0.00     0.004 A 
ATOM     11  C   UNL A   1      32.631  25.658  21.830  1.00  0.00     0.001 A 
ATOM     12  C   UNL A   1      31.169  27.156  23.119  1.00  0.00    -0.002 A 
ATOM     13  C   UNL A   1      31.582  26.555  21.897  1.00  0.00     0.010 A 
BRANCH  12  14
ATOM     14  C   UNL A   1      30.051  28.124  22.949  1.00  0.00     0.024 A 
ATOM     15  C   UNL A   1      28.742  27.755  23.316  1.00  0.00     0.012 A 
ATOM     16  C   UNL A   1      30.196  29.359  22.290  1.00  0.00     0.123 A 
ATOM     17  C   UNL A   1      27.649  28.590  23.058  1.00  0.00     0.001 A 
ATOM     18  C   UNL A   1      29.118  30.211  22.056  1.00  0.00     0.047 A 
ATOM     19  C   UNL A   1      27.839  29.824  22.440  1.00  0.00     0.004 A 
BRANCH  16  20
ATOM     20  O   UNL A   1      31.425  29.813  21.891  1.00  0.00    -0.507 OA
ATOM     21  H   UNL A   1      31.726  29.647  21.020  1.00  0.00     0.293 HD
ENDBRANCH  16  20
ENDBRANCH  12  14
ENDBRANCH   4   7
ENDBRANCH   2   3
ENDBRANCH   1   2
BRANCH   1  22
ATOM     22  C   UNL A   1      33.540  30.404  27.596  1.00  0.00     0.118 C 
BRANCH  22  23
ATOM     23  N   UNL A   1      34.172  31.434  28.422  1.00  0.00    -0.352 N 
ATOM     24  C   UNL A   1      35.406  31.385  29.058  1.00  0.00     0.251 C 
ATOM     25  H   UNL A   1      33.658  32.265  28.541  1.00  0.00     0.163 HD
ATOM     26  O   UNL A   1      35.847  32.329  29.679  1.00  0.00    -0.269 OA
BRANCH  24  27
ATOM     27  C   UNL A   1      36.221  30.170  28.837  1.00  0.00     0.039 A 
ATOM     28  C   UNL A   1      36.698  29.518  29.974  1.00  0.00     0.014 A 
ATOM     29  C   UNL A   1      36.796  29.961  27.587  1.00  0.00     0.014 A 
ATOM     30  C   UNL A   1      37.932  28.882  29.911  1.00  0.00     0.010 A 
ATOM     31  C   UNL A   1      38.066  29.415  27.545  1.00  0.00     0.010 A 
ATOM     32  C   UNL A   1      38.664  28.949  28.723  1.00  0.00    -0.014 A 
BRANCH  32  33
ATOM     33  C   UNL A   1      40.085  28.624  28.661  1.00  0.00     0.031 A 
ATOM     34  C   UNL A   1      40.509  27.277  28.238  1.00  0.00     0.074 A 
ATOM     35  C   UNL A   1      41.030  29.535  28.991  1.00  0.00     0.049 A 
ATOM     36  N   UNL A   1      41.600  26.708  28.627  1.00  0.00    -0.248 NA
ATOM     37  C   UNL A   1      39.698  26.441  27.364  1.00  0.00     0.031 C 
ATOM     38  C   UNL A   1      42.474  29.406  28.801  1.00  0.00     0.029 A 
ATOM     39  N   UNL A   1      40.887  30.695  29.769  1.00  0.00    -0.354 N 
ATOM     40  C   UNL A   1      41.768  25.569  27.879  1.00  0.00     0.074 A 
ATOM     41  C   UNL A   1      40.529  25.418  27.148  1.00  0.00     0.031 C 
ATOM     42  C   UNL A   1      43.099  30.205  29.677  1.00  0.00     0.029 A 
ATOM     43  C   UNL A   1      42.085  30.798  30.526  1.00  0.00     0.049 A 
ATOM     44  H   UNL A   1      40.118  31.309  29.787  1.00  0.00     0.167 HD
ATOM     45  C   UNL A   1      42.981  24.944  27.872  1.00  0.00     0.037 A 
ATOM     46  C   UNL A   1      42.067  30.772  31.890  1.00  0.00     0.037 A 
ATOM     47  C   UNL A   1      43.940  25.601  28.761  1.00  0.00     0.049 A 
ATOM     48  C   UNL A   1      42.802  29.603  32.506  1.00  0.00     0.074 A 
ATOM     49  C   UNL A   1      44.980  26.496  28.571  1.00  0.00     0.029 A 
ATOM     50  N   UNL A   1      43.706  25.582  30.125  1.00  0.00    -0.354 N 
ATOM     51  N   UNL A   1      43.447  28.693  31.830  1.00  0.00    -0.248 NA
ATOM     52  C   UNL A   1      42.754  29.304  33.938  1.00  0.00     0.031 C 
ATOM     53  C   UNL A   1      45.383  26.996  29.842  1.00  0.00     0.029 A 
ATOM     54  C   UNL A   1      44.584  26.407  30.805  1.00  0.00     0.049 A 
ATOM     55  H   UNL A   1      43.003  25.048  30.559  1.00  0.00     0.167 HD
ATOM     56  C   UNL A   1      43.826  27.685  32.677  1.00  0.00     0.074 A 
ATOM     57  C   UNL A   1      43.366  28.111  33.986  1.00  0.00     0.031 C 
ATOM     58  C   UNL A   1      44.444  26.547  32.244  1.00  0.00     0.037 A 
BRANCH  45  59
ATOM     59  C   UNL A   1      43.366  23.886  26.863  1.00  0.00     0.064 A 
ATOM     60  C   UNL A   1      42.948  22.548  27.020  1.00  0.00     0.173 A 
ATOM     61  C   UNL A   1      44.189  24.115  25.745  1.00  0.00     0.173 A 
ATOM     62  F   UNL A   1      42.057  22.198  27.956  1.00  0.00    -0.203 F 
ATOM     63  C   UNL A   1      43.431  21.512  26.217  1.00  0.00     0.198 A 
ATOM     64  C   UNL A   1      44.727  23.074  24.982  1.00  0.00     0.198 A 
ATOM     65  F   UNL A   1      44.450  25.358  25.318  1.00  0.00    -0.203 F 
ATOM     66  F   UNL A   1      43.001  20.259  26.420  1.00  0.00    -0.200 F 
ATOM     67  C   UNL A   1      44.359  21.768  25.229  1.00  0.00     0.200 A 
ATOM     68  F   UNL A   1      45.603  23.348  24.006  1.00  0.00    -0.200 F 
ATOM     69  F   UNL A   1      44.870  20.768  24.500  1.00  0.00    -0.200 F 
ENDBRANCH  45  59
BRANCH  46  70
ATOM     70  C   UNL A   1      40.842  31.408  32.440  1.00  0.00     0.064 A 
ATOM     71  C   UNL A   1      39.821  30.554  32.901  1.00  0.00     0.173 A 
ATOM     72  C   UNL A   1      40.862  32.722  32.916  1.00  0.00     0.173 A 
ATOM     73  F   UNL A   1      39.747  29.291  32.452  1.00  0.00    -0.203 F 
ATOM     74  C   UNL A   1      38.983  30.940  33.942  1.00  0.00     0.198 A 
ATOM     75  C   UNL A   1      39.990  33.117  33.930  1.00  0.00     0.198 A 
ATOM     76  F   UNL A   1      41.806  33.581  32.509  1.00  0.00    -0.203 F 
ATOM     77  F   UNL A   1      38.141  30.050  34.488  1.00  0.00    -0.200 F 
ATOM     78  C   UNL A   1      39.097  32.209  34.482  1.00  0.00     0.200 A 
ATOM     79  F   UNL A   1      40.092  34.350  34.447  1.00  0.00    -0.200 F 
ATOM     80  F   UNL A   1      38.384  32.540  35.568  1.00  0.00    -0.200 F 
ENDBRANCH  46  70
BRANCH  58  81
ATOM     81  C   UNL A   1      44.932  25.462  33.168  1.00  0.00     0.064 A 
ATOM     82  C   UNL A   1      46.287  25.096  33.253  1.00  0.00     0.173 A 
ATOM     83  C   UNL A   1      44.040  24.679  33.934  1.00  0.00     0.173 A 
ATOM     84  F   UNL A   1      47.210  25.690  32.482  1.00  0.00    -0.203 F 
ATOM     85  C   UNL A   1      46.729  24.090  34.115  1.00  0.00     0.198 A 
ATOM     86  C   UNL A   1      44.477  23.638  34.751  1.00  0.00     0.198 A 
ATOM     87  F   UNL A   1      42.720  24.911  33.930  1.00  0.00    -0.203 F 
ATOM     88  F   UNL A   1      48.039  23.830  34.217  1.00  0.00    -0.200 F 
ATOM     89  C   UNL A   1      45.824  23.359  34.861  1.00  0.00     0.200 A 
ATOM     90  F   UNL A   1      43.583  22.913  35.438  1.00  0.00    -0.200 F 
ATOM     91  F   UNL A   1      46.247  22.387  35.680  1.00  0.00    -0.200 F 
ENDBRANCH  58  81
ENDBRANCH  32  33
ENDBRANCH  24  27
ENDBRANCH  22  23
ENDBRANCH   1  22
TORSDOF 12
ENDMDL
MODEL 3
REMARK VINA RESULT:     -14.1      0.708      1.766
REMARK SMILES Cc1cccc(-c2ccccc2O)c1C(=O)NCCCNC(=O)c1ccc(-c2c3nc(c(-c4c(F)c(F)c(F)c(F)c4F)c4ccc([nH]4)c(-c4c(F)c(F)c(F)c(F)c4F)c4nc(c(-c5c(F)c(F)c(F)c(F)c5F)c5ccc2[nH]5)C=C4)C=C3)cc1
REMARK SMILES IDX 19 1 18 2 17 3 15 4 16 5 14 7 1 8 2 9 3 10 4 11 6 12 5 13
REMARK SMILES IDX 7 14 8 15 12 16 9 17 11 18 10 19 13 20 20 22 21 23 22 24
REMARK SMILES IDX 23 26 24 27 25 28 86 29 26 30 85 31 27 32 28 33 29 34 79 35
REMARK SMILES IDX 30 36 84 37 78 38 80 39 31 40 83 41 77 42 76 43 32 45 64 46
REMARK SMILES IDX 44 47 63 48 45 49 48 50 62 51 81 52 46 53 47 54 61 56 82 57
REMARK SMILES IDX 49 58 33 59 34 60 42 61 35 62 36 63 40 64 43 65 37 66 38 67
REMARK SMILES IDX 41 68 39 69 65 70 66 71 74 72 67 73 68 74 72 75 75 76 69 77
REMARK SMILES IDX 70 78 73 79 71 80 50 81 51 82 59 83 52 84 53 85 57 86 60 87
REMARK SMILES IDX 54 88 55 89 58 90 56 91
REMARK H PARENT 17 6 13 21 21 25 80 44 48 55
REMARK Flexibility Score: inf
ROOT
ATOM      1  C   UNL A   1      32.570  30.891  26.857  1.00  0.00     0.042 C 
ENDROOT
BRANCH   1   2
ATOM      2  C   UNL A   1      32.192  30.006  25.660  1.00  0.00     0.118 C 
BRANCH   2   3
ATOM      3  N   UNL A   1      31.631  28.741  26.112  1.00  0.00    -0.352 N 
ATOM      4  C   UNL A   1      31.408  27.474  25.624  1.00  0.00     0.252 C 
ATOM      5  O   UNL A   1      30.743  26.811  26.429  1.00  0.00    -0.269 OA
ATOM      6  H   UNL A   1      31.318  28.814  27.042  1.00  0.00     0.163 HD
BRANCH   4   7
ATOM      7  C   UNL A   1      31.891  26.842  24.320  1.00  0.00     0.050 A 
ATOM      8  C   UNL A   1      34.153  25.865  25.160  1.00  0.00     0.045 C 
ATOM      9  C   UNL A   1      33.045  26.020  24.170  1.00  0.00    -0.038 A 
ATOM     10  C   UNL A   1      33.318  25.357  22.948  1.00  0.00     0.004 A 
ATOM     11  C   UNL A   1      32.566  25.588  21.819  1.00  0.00     0.001 A 
ATOM     12  C   UNL A   1      31.164  27.139  23.112  1.00  0.00    -0.002 A 
ATOM     13  C   UNL A   1      31.532  26.499  21.894  1.00  0.00     0.010 A 
BRANCH  12  14
ATOM     14  C   UNL A   1      30.054  28.117  22.950  1.00  0.00     0.024 A 
ATOM     15  C   UNL A   1      28.741  27.752  23.308  1.00  0.00     0.012 A 
ATOM     16  C   UNL A   1      30.209  29.358  22.307  1.00  0.00     0.123 A 
ATOM     17  C   UNL A   1      27.655  28.598  23.058  1.00  0.00     0.001 A 
ATOM     18  C   UNL A   1      29.138  30.221  22.080  1.00  0.00     0.047 A 
ATOM     19  C   UNL A   1      27.855  29.838  22.455  1.00  0.00     0.004 A 
BRANCH  16  20
ATOM     20  O   UNL A   1      31.443  29.809  21.917  1.00  0.00    -0.507 OA
ATOM     21  H   UNL A   1      32.112  29.954  22.557  1.00  0.00     0.293 HD
ENDBRANCH  16  20
ENDBRANCH  12  14
ENDBRANCH   4   7
ENDBRANCH   2   3
ENDBRANCH   1   2
BRANCH   1  22
ATOM     22  C   UNL A   1      33.613  30.327  27.807  1.00  0.00     0.118 C 
BRANCH  22  23
ATOM     23  N   UNL A   1      34.314  31.349  28.586  1.00  0.00    -0.352 N 
ATOM     24  C   UNL A   1      35.601  31.298  29.106  1.00  0.00     0.251 C 
ATOM     25  H   UNL A   1      33.809  32.176  28.763  1.00  0.00     0.163 HD
ATOM     26  O   UNL A   1      36.093  32.236  29.698  1.00  0.00    -0.269 OA
BRANCH  24  27
ATOM     27  C   UNL A   1      36.397  30.090  28.794  1.00  0.00     0.039 A 
ATOM     28  C   UNL A   1      36.848  29.338  29.879  1.00  0.00     0.014 A 
ATOM     29  C   UNL A   1      36.985  29.975  27.538  1.00  0.00     0.014 A 
ATOM     30  C   UNL A   1      38.072  28.687  29.777  1.00  0.00     0.010 A 
ATOM     31  C   UNL A   1      38.245  29.411  27.466  1.00  0.00     0.010 A 
ATOM     32  C   UNL A   1      38.820  28.838  28.608  1.00  0.00    -0.014 A 
BRANCH  32  33
ATOM     33  C   UNL A   1      40.236  28.494  28.536  1.00  0.00     0.031 A 
ATOM     34  C   UNL A   1      40.637  27.140  28.112  1.00  0.00     0.074 A 
ATOM     35  C   UNL A   1      41.196  29.392  28.856  1.00  0.00     0.049 A 
ATOM     36  N   UNL A   1      41.723  26.556  28.494  1.00  0.00    -0.248 NA
ATOM     37  C   UNL A   1      39.808  26.314  27.247  1.00  0.00     0.031 C 
ATOM     38  C   UNL A   1      42.637  29.242  28.655  1.00  0.00     0.029 A 
ATOM     39  N   UNL A   1      41.075  30.556  29.633  1.00  0.00    -0.354 N 
ATOM     40  C   UNL A   1      41.870  25.414  27.748  1.00  0.00     0.074 A 
ATOM     41  C   UNL A   1      40.623  25.278  27.027  1.00  0.00     0.031 C 
ATOM     42  C   UNL A   1      43.280  30.035  29.525  1.00  0.00     0.029 A 
ATOM     43  C   UNL A   1      42.281  30.643  30.380  1.00  0.00     0.049 A 
ATOM     44  H   UNL A   1      40.315  31.180  29.656  1.00  0.00     0.167 HD
ATOM     45  C   UNL A   1      43.074  24.772  27.733  1.00  0.00     0.037 A 
ATOM     46  C   UNL A   1      42.273  30.621  31.745  1.00  0.00     0.037 A 
ATOM     47  C   UNL A   1      44.049  25.417  28.613  1.00  0.00     0.049 A 
ATOM     48  C   UNL A   1      42.996  29.442  32.358  1.00  0.00     0.074 A 
ATOM     49  C   UNL A   1      45.100  26.297  28.412  1.00  0.00     0.029 A 
ATOM     50  N   UNL A   1      43.826  25.405  29.979  1.00  0.00    -0.354 N 
ATOM     51  N   UNL A   1      43.623  28.522  31.678  1.00  0.00    -0.248 NA
ATOM     52  C   UNL A   1      42.955  29.148  33.790  1.00  0.00     0.031 C 
ATOM     53  C   UNL A   1      45.519  26.794  29.680  1.00  0.00     0.029 A 
ATOM     54  C   UNL A   1      44.720  26.219  30.650  1.00  0.00     0.049 A 
ATOM     55  H   UNL A   1      43.118  24.881  30.419  1.00  0.00     0.167 HD
ATOM     56  C   UNL A   1      43.994  27.511  32.525  1.00  0.00     0.074 A 
ATOM     57  C   UNL A   1      43.550  27.946  33.836  1.00  0.00     0.031 C 
ATOM     58  C   UNL A   1      44.593  26.364  32.090  1.00  0.00     0.037 A 
BRANCH  45  59
ATOM     59  C   UNL A   1      43.436  23.707  26.722  1.00  0.00     0.064 A 
ATOM     60  C   UNL A   1      43.026  22.369  26.901  1.00  0.00     0.173 A 
ATOM     61  C   UNL A   1      44.230  23.929  25.582  1.00  0.00     0.173 A 
ATOM     62  F   UNL A   1      42.161  22.024  27.862  1.00  0.00    -0.203 F 
ATOM     63  C   UNL A   1      43.492  21.327  26.095  1.00  0.00     0.198 A 
ATOM     64  C   UNL A   1      44.751  22.883  24.815  1.00  0.00     0.198 A 
ATOM     65  F   UNL A   1      44.477  25.169  25.138  1.00  0.00    -0.203 F 
ATOM     66  F   UNL A   1      43.071  20.075  26.320  1.00  0.00    -0.200 F 
ATOM     67  C   UNL A   1      44.394  21.578  25.082  1.00  0.00     0.200 A 
ATOM     68  F   UNL A   1      45.602  23.150  23.814  1.00  0.00    -0.200 F 
ATOM     69  F   UNL A   1      44.889  20.573  24.348  1.00  0.00    -0.200 F 
ENDBRANCH  45  59
BRANCH  46  70
ATOM     70  C   UNL A   1      41.061  31.275  32.302  1.00  0.00     0.064 A 
ATOM     71  C   UNL A   1      40.024  30.436  32.756  1.00  0.00     0.173 A 
ATOM     72  C   UNL A   1      41.107  32.583  32.792  1.00  0.00     0.173 A 
ATOM     73  F   UNL A   1      39.925  29.180  32.295  1.00  0.00    -0.203 F 
ATOM     74  C   UNL A   1      39.195  30.828  33.802  1.00  0.00     0.198 A 
ATOM     75  C   UNL A   1      40.245  32.985  33.811  1.00  0.00     0.198 A 
ATOM     76  F   UNL A   1      42.067  33.428  32.392  1.00  0.00    -0.203 F 
ATOM     77  F   UNL A   1      38.336  29.949  34.340  1.00  0.00    -0.200 F 
ATOM     78  C   UNL A   1      39.334  32.089  34.355  1.00  0.00     0.200 A 
ATOM     79  F   UNL A   1      40.371  34.210  34.340  1.00  0.00    -0.200 F 
ATOM     80  F   UNL A   1      38.629  32.423  35.445  1.00  0.00    -0.200 F 
ENDBRANCH  46  70
BRANCH  58  81
ATOM     81  C   UNL A   1      45.073  25.274  33.012  1.00  0.00     0.064 A 
ATOM     82  C   UNL A   1      44.191  24.478  33.764  1.00  0.00     0.173 A 
ATOM     83  C   UNL A   1      46.448  25.054  33.251  1.00  0.00     0.173 A 
ATOM     84  F   UNL A   1      42.866  24.678  33.709  1.00  0.00    -0.203 F 
ATOM     85  C   UNL A   1      44.648  23.468  34.614  1.00  0.00     0.198 A 
ATOM     86  C   UNL A   1      46.902  24.083  34.143  1.00  0.00     0.198 A 
ATOM     87  F   UNL A   1      47.394  25.757  32.613  1.00  0.00    -0.203 F 
ATOM     88  F   UNL A   1      43.766  22.685  35.251  1.00  0.00    -0.200 F 
ATOM     89  C   UNL A   1      46.003  23.273  34.806  1.00  0.00     0.200 A 
ATOM     90  F   UNL A   1      48.218  23.933  34.347  1.00  0.00    -0.200 F 
ATOM     91  F   UNL A   1      46.441  22.313  35.630  1.00  0.00    -0.200 F 
ENDBRANCH  58  81
ENDBRANCH  32  33
ENDBRANCH  24  27
ENDBRANCH  22  23
ENDBRANCH   1  22
TORSDOF 12
ENDMDL
