MODEL 1
REMARK VINA RESULT:     -14.3      0.000      0.000
REMARK SMILES CC1(C)S[C@@H](c2cccc3c2sc2ccccc23)[NH2+][C@@H]1C(=O)NCCCNC(=O)c1ccc(-c2c3nc(c(-c4c(F)c(F)c(F)c(F)c4F)c4ccc([nH]4)c(-c4c(F)c(F)c(F)c(F)c4F)c4nc(c(-c5c(F)c(F)c(F)c(F)c5F)c5ccc2[nH]5)C=C4)C=C3)cc1
REMARK SMILES IDX 25 1 24 2 23 3 21 4 22 5 20 7 1 8 2 9 3 10 4 11 5 12 19 13
REMARK SMILES IDX 6 16 7 17 11 18 8 19 10 20 12 21 9 22 18 23 13 24 17 25
REMARK SMILES IDX 14 26 16 27 15 28 26 29 27 30 28 31 29 33 30 34 31 35 92 36
REMARK SMILES IDX 32 37 91 38 33 39 34 40 35 41 85 42 36 43 90 44 84 45 86 46
REMARK SMILES IDX 37 47 89 48 83 49 82 50 38 52 70 53 50 54 69 55 51 56 54 57
REMARK SMILES IDX 68 58 87 59 52 60 53 61 67 63 88 64 55 65 39 66 40 67 48 68
REMARK SMILES IDX 41 69 42 70 46 71 49 72 43 73 44 74 47 75 45 76 71 77 72 78
REMARK SMILES IDX 80 79 73 80 74 81 78 82 81 83 75 84 76 85 79 86 77 87 56 88
REMARK SMILES IDX 57 89 65 90 58 91 59 92 63 93 66 94 60 95 61 96 64 97 62 98
REMARK H PARENT 23 6 19 14 19 15 27 32 86 51 54 62
REMARK Flexibility Score: inf
ROOT
ATOM      1  C   UNL A   1      31.595  29.160  26.174  1.00  0.00     0.042 C 
ENDROOT
BRANCH   1   2
ATOM      2  C   UNL A   1      31.639  28.337  27.451  1.00  0.00     0.118 C 
BRANCH   2   3
ATOM      3  N   UNL A   1      31.130  26.991  27.251  1.00  0.00    -0.351 N 
ATOM      4  C   UNL A   1      31.517  25.961  26.449  1.00  0.00     0.279 C 
ATOM      5  O   UNL A   1      30.743  24.998  26.440  1.00  0.00    -0.268 OA
ATOM      6  H   UNL A   1      30.345  26.782  27.807  1.00  0.00     0.163 HD
BRANCH   4   7
ATOM      7  C   UNL A   1      32.758  26.021  25.514  1.00  0.00     0.289 C 
ATOM      8  C   UNL A   1      33.653  26.551  23.184  1.00  0.00     0.030 C 
ATOM      9  C   UNL A   1      32.475  25.958  23.983  1.00  0.00     0.077 C 
ATOM     10  C   UNL A   1      31.186  26.612  23.482  1.00  0.00     0.030 C 
ATOM     11  S   UNL A   1      32.436  24.156  23.631  1.00  0.00    -0.081 SA
ATOM     12  C   UNL A   1      33.196  23.705  25.213  1.00  0.00     0.276 C 
ATOM     13  N   UNL A   1      33.739  24.940  25.793  1.00  0.00    -0.320 N 
ATOM     14  H   UNL A   1      34.637  25.163  25.363  1.00  0.00     0.348 HD
ATOM     15  H   UNL A   1      33.888  24.835  26.796  1.00  0.00     0.348 HD
BRANCH  12  16
ATOM     16  C   UNL A   1      34.269  22.636  25.113  1.00  0.00     0.038 A 
ATOM     17  C   UNL A   1      35.632  22.986  25.257  1.00  0.00     0.012 A 
ATOM     18  C   UNL A   1      33.983  21.249  24.929  1.00  0.00     0.046 A 
ATOM     19  C   UNL A   1      36.647  22.046  25.208  1.00  0.00     0.001 A 
ATOM     20  C   UNL A   1      34.992  20.282  24.857  1.00  0.00     0.001 A 
ATOM     21  S   UNL A   1      32.434  20.501  24.778  1.00  0.00    -0.135 S 
ATOM     22  C   UNL A   1      36.337  20.706  25.001  1.00  0.00     0.010 A 
ATOM     23  C   UNL A   1      34.470  18.944  24.628  1.00  0.00     0.000 A 
ATOM     24  C   UNL A   1      33.080  18.928  24.583  1.00  0.00     0.036 A 
ATOM     25  C   UNL A   1      35.152  17.710  24.457  1.00  0.00     0.010 A 
ATOM     26  C   UNL A   1      32.358  17.732  24.393  1.00  0.00     0.019 A 
ATOM     27  C   UNL A   1      34.444  16.522  24.253  1.00  0.00     0.001 A 
ATOM     28  C   UNL A   1      33.058  16.534  24.228  1.00  0.00     0.002 A 
ENDBRANCH  12  16
ENDBRANCH   4   7
ENDBRANCH   2   3
ENDBRANCH   1   2
BRANCH   1  29
ATOM     29  C   UNL A   1      32.836  30.002  25.937  1.00  0.00     0.118 C 
BRANCH  29  30
ATOM     30  N   UNL A   1      32.673  31.388  26.359  1.00  0.00    -0.352 N 
ATOM     31  C   UNL A   1      33.382  32.122  27.276  1.00  0.00     0.251 C 
ATOM     32  H   UNL A   1      31.939  31.874  25.916  1.00  0.00     0.163 HD
ATOM     33  O   UNL A   1      32.974  33.228  27.626  1.00  0.00    -0.269 OA
BRANCH  31  34
ATOM     34  C   UNL A   1      34.619  31.575  27.869  1.00  0.00     0.039 A 
ATOM     35  C   UNL A   1      35.691  32.436  28.117  1.00  0.00     0.014 A 
ATOM     36  C   UNL A   1      34.726  30.219  28.185  1.00  0.00     0.014 A 
ATOM     37  C   UNL A   1      36.836  31.950  28.752  1.00  0.00     0.010 A 
ATOM     38  C   UNL A   1      35.819  29.760  28.912  1.00  0.00     0.010 A 
ATOM     39  C   UNL A   1      36.890  30.619  29.197  1.00  0.00    -0.014 A 
BRANCH  39  40
ATOM     40  C   UNL A   1      38.059  30.103  29.953  1.00  0.00     0.031 A 
ATOM     41  C   UNL A   1      38.304  30.558  31.366  1.00  0.00     0.074 A 
ATOM     42  C   UNL A   1      38.934  29.279  29.346  1.00  0.00     0.049 A 
ATOM     43  N   UNL A   1      39.300  30.273  32.167  1.00  0.00    -0.248 NA
ATOM     44  C   UNL A   1      37.313  31.477  31.948  1.00  0.00     0.031 C 
ATOM     45  C   UNL A   1      38.835  28.808  27.963  1.00  0.00     0.029 A 
ATOM     46  N   UNL A   1      40.085  28.694  29.812  1.00  0.00    -0.354 N 
ATOM     47  C   UNL A   1      39.061  30.985  33.335  1.00  0.00     0.074 A 
ATOM     48  C   UNL A   1      37.863  31.766  33.117  1.00  0.00     0.031 C 
ATOM     49  C   UNL A   1      39.861  27.982  27.705  1.00  0.00     0.029 A 
ATOM     50  C   UNL A   1      40.715  27.900  28.885  1.00  0.00     0.049 A 
ATOM     51  H   UNL A   1      40.427  28.831  30.726  1.00  0.00     0.167 HD
ATOM     52  C   UNL A   1      39.758  30.966  34.496  1.00  0.00     0.037 A 
ATOM     53  C   UNL A   1      41.857  27.191  28.976  1.00  0.00     0.037 A 
ATOM     54  C   UNL A   1      40.938  30.172  34.714  1.00  0.00     0.049 A 
ATOM     55  C   UNL A   1      42.625  27.205  30.270  1.00  0.00     0.074 A 
ATOM     56  C   UNL A   1      41.689  30.042  35.868  1.00  0.00     0.029 A 
ATOM     57  N   UNL A   1      41.543  29.375  33.752  1.00  0.00    -0.354 N 
ATOM     58  N   UNL A   1      42.350  27.826  31.391  1.00  0.00    -0.248 NA
ATOM     59  C   UNL A   1      43.860  26.409  30.312  1.00  0.00     0.031 C 
ATOM     60  C   UNL A   1      42.779  29.210  35.590  1.00  0.00     0.029 A 
ATOM     61  C   UNL A   1      42.672  28.770  34.281  1.00  0.00     0.049 A 
ATOM     62  H   UNL A   1      41.217  29.255  32.831  1.00  0.00     0.167 HD
ATOM     63  C   UNL A   1      43.357  27.475  32.280  1.00  0.00     0.074 A 
ATOM     64  C   UNL A   1      44.239  26.570  31.572  1.00  0.00     0.031 C 
ATOM     65  C   UNL A   1      43.536  27.865  33.566  1.00  0.00     0.037 A 
BRANCH  52  66
ATOM     66  C   UNL A   1      39.259  31.828  35.621  1.00  0.00     0.064 A 
ATOM     67  C   UNL A   1      38.369  31.334  36.588  1.00  0.00     0.173 A 
ATOM     68  C   UNL A   1      39.701  33.153  35.755  1.00  0.00     0.173 A 
ATOM     69  F   UNL A   1      37.905  30.078  36.501  1.00  0.00    -0.203 F 
ATOM     70  C   UNL A   1      37.915  32.144  37.626  1.00  0.00     0.198 A 
ATOM     71  C   UNL A   1      39.273  33.949  36.814  1.00  0.00     0.198 A 
ATOM     72  F   UNL A   1      40.556  33.675  34.863  1.00  0.00    -0.203 F 
ATOM     73  F   UNL A   1      37.023  31.667  38.504  1.00  0.00    -0.200 F 
ATOM     74  C   UNL A   1      38.374  33.447  37.744  1.00  0.00     0.200 A 
ATOM     75  F   UNL A   1      39.730  35.203  36.936  1.00  0.00    -0.200 F 
ATOM     76  F   UNL A   1      37.944  34.222  38.749  1.00  0.00    -0.200 F 
ENDBRANCH  52  66
BRANCH  53  77
ATOM     77  C   UNL A   1      42.330  26.389  27.816  1.00  0.00     0.064 A 
ATOM     78  C   UNL A   1      41.829  25.101  27.580  1.00  0.00     0.173 A 
ATOM     79  C   UNL A   1      43.297  26.885  26.929  1.00  0.00     0.173 A 
ATOM     80  F   UNL A   1      40.917  24.575  28.411  1.00  0.00    -0.203 F 
ATOM     81  C   UNL A   1      42.294  24.331  26.517  1.00  0.00     0.198 A 
ATOM     82  C   UNL A   1      43.738  26.125  25.847  1.00  0.00     0.198 A 
ATOM     83  F   UNL A   1      43.806  28.113  27.106  1.00  0.00    -0.203 F 
ATOM     84  F   UNL A   1      41.836  23.083  26.346  1.00  0.00    -0.200 F 
ATOM     85  C   UNL A   1      43.245  24.845  25.648  1.00  0.00     0.200 A 
ATOM     86  F   UNL A   1      44.645  26.632  25.000  1.00  0.00    -0.200 F 
ATOM     87  F   UNL A   1      43.691  24.104  24.625  1.00  0.00    -0.200 F 
ENDBRANCH  53  77
BRANCH  65  88
ATOM     88  C   UNL A   1      44.707  27.284  34.305  1.00  0.00     0.064 A 
ATOM     89  C   UNL A   1      45.957  27.921  34.330  1.00  0.00     0.173 A 
ATOM     90  C   UNL A   1      44.565  26.089  35.030  1.00  0.00     0.173 A 
ATOM     91  F   UNL A   1      46.149  29.057  33.643  1.00  0.00    -0.203 F 
ATOM     92  C   UNL A   1      47.029  27.367  35.025  1.00  0.00     0.198 A 
ATOM     93  C   UNL A   1      45.629  25.558  35.752  1.00  0.00     0.198 A 
ATOM     94  F   UNL A   1      43.389  25.444  35.046  1.00  0.00    -0.203 F 
ATOM     95  F   UNL A   1      48.228  27.964  34.988  1.00  0.00    -0.200 F 
ATOM     96  C   UNL A   1      46.862  26.191  35.742  1.00  0.00     0.200 A 
ATOM     97  F   UNL A   1      45.460  24.432  36.459  1.00  0.00    -0.200 F 
ATOM     98  F   UNL A   1      47.893  25.664  36.417  1.00  0.00    -0.200 F 
ENDBRANCH  65  88
ENDBRANCH  39  40
ENDBRANCH  31  34
ENDBRANCH  29  30
ENDBRANCH   1  29
TORSDOF 11
ENDMDL
MODEL 2
REMARK VINA RESULT:     -14.0      0.422      7.290
REMARK SMILES CC1(C)S[C@@H](c2cccc3c2sc2ccccc23)[NH2+][C@@H]1C(=O)NCCCNC(=O)c1ccc(-c2c3nc(c(-c4c(F)c(F)c(F)c(F)c4F)c4ccc([nH]4)c(-c4c(F)c(F)c(F)c(F)c4F)c4nc(c(-c5c(F)c(F)c(F)c(F)c5F)c5ccc2[nH]5)C=C4)C=C3)cc1
REMARK SMILES IDX 25 1 24 2 23 3 21 4 22 5 20 7 1 8 2 9 3 10 4 11 5 12 19 13
REMARK SMILES IDX 6 16 7 17 11 18 8 19 10 20 12 21 9 22 18 23 13 24 17 25
REMARK SMILES IDX 14 26 16 27 15 28 26 29 27 30 28 31 29 33 30 34 31 35 92 36
REMARK SMILES IDX 32 37 91 38 33 39 34 40 35 41 85 42 36 43 90 44 84 45 86 46
REMARK SMILES IDX 37 47 89 48 83 49 82 50 38 52 70 53 50 54 69 55 51 56 54 57
REMARK SMILES IDX 68 58 87 59 52 60 53 61 67 63 88 64 55 65 39 66 40 67 48 68
REMARK SMILES IDX 41 69 42 70 46 71 49 72 43 73 44 74 47 75 45 76 71 77 72 78
REMARK SMILES IDX 80 79 73 80 74 81 78 82 81 83 75 84 76 85 79 86 77 87 56 88
REMARK SMILES IDX 57 89 65 90 58 91 59 92 63 93 66 94 60 95 61 96 64 97 62 98
REMARK H PARENT 23 6 19 14 19 15 27 32 86 51 54 62
REMARK Flexibility Score: inf
ROOT
ATOM      1  C   UNL A   1      31.776  28.943  25.977  1.00  0.00     0.042 C 
ENDROOT
BRANCH   1   2
ATOM      2  C   UNL A   1      31.678  28.260  27.330  1.00  0.00     0.118 C 
BRANCH   2   3
ATOM      3  N   UNL A   1      31.201  26.891  27.218  1.00  0.00    -0.351 N 
ATOM      4  C   UNL A   1      31.588  25.833  26.455  1.00  0.00     0.279 C 
ATOM      5  O   UNL A   1      30.843  24.850  26.524  1.00  0.00    -0.268 OA
ATOM      6  H   UNL A   1      30.444  26.689  27.814  1.00  0.00     0.163 HD
BRANCH   4   7
ATOM      7  C   UNL A   1      32.791  25.879  25.470  1.00  0.00     0.289 C 
ATOM      8  C   UNL A   1      33.592  26.372  23.098  1.00  0.00     0.030 C 
ATOM      9  C   UNL A   1      32.447  25.791  23.952  1.00  0.00     0.077 C 
ATOM     10  C   UNL A   1      31.138  26.436  23.493  1.00  0.00     0.030 C 
ATOM     11  S   UNL A   1      32.397  23.984  23.631  1.00  0.00    -0.081 SA
ATOM     12  C   UNL A   1      33.220  23.559  25.189  1.00  0.00     0.276 C 
ATOM     13  N   UNL A   1      33.783  24.804  25.726  1.00  0.00    -0.320 N 
ATOM     14  H   UNL A   1      34.664  25.020  25.257  1.00  0.00     0.348 HD
ATOM     15  H   UNL A   1      33.973  24.715  26.725  1.00  0.00     0.348 HD
BRANCH  12  16
ATOM     16  C   UNL A   1      34.290  22.489  25.063  1.00  0.00     0.038 A 
ATOM     17  C   UNL A   1      35.658  22.848  25.114  1.00  0.00     0.012 A 
ATOM     18  C   UNL A   1      33.999  21.096  24.946  1.00  0.00     0.046 A 
ATOM     19  C   UNL A   1      36.672  21.908  25.038  1.00  0.00     0.001 A 
ATOM     20  C   UNL A   1      35.007  20.130  24.847  1.00  0.00     0.001 A 
ATOM     21  S   UNL A   1      32.448  20.340  24.912  1.00  0.00    -0.135 S 
ATOM     22  C   UNL A   1      36.356  20.561  24.897  1.00  0.00     0.010 A 
ATOM     23  C   UNL A   1      34.478  18.783  24.697  1.00  0.00     0.000 A 
ATOM     24  C   UNL A   1      33.087  18.763  24.735  1.00  0.00     0.036 A 
ATOM     25  C   UNL A   1      35.154  17.546  24.529  1.00  0.00     0.010 A 
ATOM     26  C   UNL A   1      32.361  17.558  24.630  1.00  0.00     0.019 A 
ATOM     27  C   UNL A   1      34.440  16.349  24.410  1.00  0.00     0.001 A 
ATOM     28  C   UNL A   1      33.055  16.358  24.466  1.00  0.00     0.002 A 
ENDBRANCH  12  16
ENDBRANCH   4   7
ENDBRANCH   2   3
ENDBRANCH   1   2
BRANCH   1  29
ATOM     29  C   UNL A   1      32.970  29.871  25.836  1.00  0.00     0.118 C 
BRANCH  29  30
ATOM     30  N   UNL A   1      32.686  31.234  26.272  1.00  0.00    -0.352 N 
ATOM     31  C   UNL A   1      33.306  32.005  27.223  1.00  0.00     0.251 C 
ATOM     32  H   UNL A   1      31.932  31.668  25.811  1.00  0.00     0.163 HD
ATOM     33  O   UNL A   1      32.803  33.070  27.574  1.00  0.00    -0.269 OA
BRANCH  31  34
ATOM     34  C   UNL A   1      34.562  31.544  27.849  1.00  0.00     0.039 A 
ATOM     35  C   UNL A   1      35.629  32.439  27.967  1.00  0.00     0.014 A 
ATOM     36  C   UNL A   1      34.691  30.237  28.324  1.00  0.00     0.014 A 
ATOM     37  C   UNL A   1      36.792  32.044  28.630  1.00  0.00     0.010 A 
ATOM     38  C   UNL A   1      35.804  29.880  29.077  1.00  0.00     0.010 A 
ATOM     39  C   UNL A   1      36.871  30.776  29.232  1.00  0.00    -0.014 A 
BRANCH  39  40
ATOM     40  C   UNL A   1      38.062  30.367  30.018  1.00  0.00     0.031 A 
ATOM     41  C   UNL A   1      39.051  29.395  29.438  1.00  0.00     0.074 A 
ATOM     42  C   UNL A   1      38.217  30.821  31.277  1.00  0.00     0.049 A 
ATOM     43  N   UNL A   1      40.116  28.867  29.990  1.00  0.00    -0.248 NA
ATOM     44  C   UNL A   1      38.797  28.930  28.065  1.00  0.00     0.031 C 
ATOM     45  C   UNL A   1      37.299  31.727  31.970  1.00  0.00     0.029 A 
ATOM     46  N   UNL A   1      39.201  30.577  32.202  1.00  0.00    -0.354 N 
ATOM     47  C   UNL A   1      40.646  28.005  29.039  1.00  0.00     0.074 A 
ATOM     48  C   UNL A   1      39.752  28.027  27.902  1.00  0.00     0.031 C 
ATOM     49  C   UNL A   1      37.780  31.988  33.195  1.00  0.00     0.029 A 
ATOM     50  C   UNL A   1      39.014  31.234  33.394  1.00  0.00     0.049 A 
ATOM     51  H   UNL A   1      39.970  29.986  32.028  1.00  0.00     0.167 HD
ATOM     52  C   UNL A   1      41.790  27.282  29.096  1.00  0.00     0.037 A 
ATOM     53  C   UNL A   1      39.751  31.225  34.520  1.00  0.00     0.037 A 
ATOM     54  C   UNL A   1      42.686  27.279  30.222  1.00  0.00     0.049 A 
ATOM     55  C   UNL A   1      41.007  30.396  34.565  1.00  0.00     0.074 A 
ATOM     56  C   UNL A   1      43.896  26.622  30.360  1.00  0.00     0.029 A 
ATOM     57  N   UNL A   1      42.465  27.963  31.409  1.00  0.00    -0.354 N 
ATOM     58  N   UNL A   1      41.535  29.640  33.634  1.00  0.00    -0.248 NA
ATOM     59  C   UNL A   1      41.774  30.429  35.818  1.00  0.00     0.031 C 
ATOM     60  C   UNL A   1      44.380  26.865  31.649  1.00  0.00     0.029 A 
ATOM     61  C   UNL A   1      43.505  27.725  32.293  1.00  0.00     0.049 A 
ATOM     62  H   UNL A   1      41.685  28.535  31.595  1.00  0.00     0.167 HD
ATOM     63  C   UNL A   1      42.708  29.131  34.174  1.00  0.00     0.074 A 
ATOM     64  C   UNL A   1      42.824  29.681  35.510  1.00  0.00     0.031 C 
ATOM     65  C   UNL A   1      43.610  28.286  33.617  1.00  0.00     0.037 A 
BRANCH  52  66
ATOM     66  C   UNL A   1      42.139  26.439  27.903  1.00  0.00     0.064 A 
ATOM     67  C   UNL A   1      41.568  25.171  27.704  1.00  0.00     0.173 A 
ATOM     68  C   UNL A   1      43.029  26.915  26.928  1.00  0.00     0.173 A 
ATOM     69  F   UNL A   1      40.720  24.663  28.611  1.00  0.00    -0.203 F 
ATOM     70  C   UNL A   1      41.900  24.400  26.593  1.00  0.00     0.198 A 
ATOM     71  C   UNL A   1      43.332  26.156  25.800  1.00  0.00     0.198 A 
ATOM     72  F   UNL A   1      43.600  28.121  27.064  1.00  0.00    -0.203 F 
ATOM     73  F   UNL A   1      41.384  23.172  26.454  1.00  0.00    -0.200 F 
ATOM     74  C   UNL A   1      42.774  24.896  25.638  1.00  0.00     0.200 A 
ATOM     75  F   UNL A   1      44.164  26.643  24.870  1.00  0.00    -0.200 F 
ATOM     76  F   UNL A   1      43.085  24.158  24.564  1.00  0.00    -0.200 F 
ENDBRANCH  52  66
BRANCH  53  77
ATOM     77  C   UNL A   1      39.336  32.045  35.690  1.00  0.00     0.064 A 
ATOM     78  C   UNL A   1      39.855  33.333  35.885  1.00  0.00     0.173 A 
ATOM     79  C   UNL A   1      38.425  31.558  36.639  1.00  0.00     0.173 A 
ATOM     80  F   UNL A   1      40.744  33.835  35.017  1.00  0.00    -0.203 F 
ATOM     81  C   UNL A   1      39.498  34.092  36.998  1.00  0.00     0.198 A 
ATOM     82  C   UNL A   1      38.045  32.332  37.734  1.00  0.00     0.198 A 
ATOM     83  F   UNL A   1      37.895  30.335  36.497  1.00  0.00    -0.203 F 
ATOM     84  F   UNL A   1      40.050  35.298  37.188  1.00  0.00    -0.200 F 
ATOM     85  C   UNL A   1      38.590  33.593  37.919  1.00  0.00     0.200 A 
ATOM     86  F   UNL A   1      37.154  31.852  38.613  1.00  0.00    -0.200 F 
ATOM     87  F   UNL A   1      38.245  34.324  38.987  1.00  0.00    -0.200 F 
ENDBRANCH  53  77
BRANCH  65  88
ATOM     88  C   UNL A   1      44.821  27.934  34.432  1.00  0.00     0.064 A 
ATOM     89  C   UNL A   1      44.850  26.806  35.266  1.00  0.00     0.173 A 
ATOM     90  C   UNL A   1      45.982  28.720  34.350  1.00  0.00     0.173 A 
ATOM     91  F   UNL A   1      43.763  26.031  35.391  1.00  0.00    -0.203 F 
ATOM     92  C   UNL A   1      45.985  26.496  36.011  1.00  0.00     0.198 A 
ATOM     93  C   UNL A   1      47.126  28.386  35.069  1.00  0.00     0.198 A 
ATOM     94  F   UNL A   1      46.010  29.805  33.562  1.00  0.00    -0.203 F 
ATOM     95  F   UNL A   1      45.971  25.445  36.843  1.00  0.00    -0.200 F 
ATOM     96  C   UNL A   1      47.124  27.281  35.905  1.00  0.00     0.200 A 
ATOM     97  F   UNL A   1      48.231  29.135  34.951  1.00  0.00    -0.200 F 
ATOM     98  F   UNL A   1      48.218  26.976  36.617  1.00  0.00    -0.200 F 
ENDBRANCH  65  88
ENDBRANCH  39  40
ENDBRANCH  31  34
ENDBRANCH  29  30
ENDBRANCH   1  29
TORSDOF 11
ENDMDL
MODEL 3
REMARK VINA RESULT:     -13.9      4.636      8.751
REMARK SMILES CC1(C)S[C@@H](c2cccc3c2sc2ccccc23)[NH2+][C@@H]1C(=O)NCCCNC(=O)c1ccc(-c2c3nc(c(-c4c(F)c(F)c(F)c(F)c4F)c4ccc([nH]4)c(-c4c(F)c(F)c(F)c(F)c4F)c4nc(c(-c5c(F)c(F)c(F)c(F)c5F)c5ccc2[nH]5)C=C4)C=C3)cc1
REMARK SMILES IDX 25 1 24 2 23 3 21 4 22 5 20 7 1 8 2 9 3 10 4 11 5 12 19 13
REMARK SMILES IDX 6 16 7 17 11 18 8 19 10 20 12 21 9 22 18 23 13 24 17 25
REMARK SMILES IDX 14 26 16 27 15 28 26 29 27 30 28 31 29 33 30 34 31 35 92 36
REMARK SMILES IDX 32 37 91 38 33 39 34 40 35 41 85 42 36 43 90 44 84 45 86 46
REMARK SMILES IDX 37 47 89 48 83 49 82 50 38 52 70 53 50 54 69 55 51 56 54 57
REMARK SMILES IDX 68 58 87 59 52 60 53 61 67 63 88 64 55 65 39 66 40 67 48 68
REMARK SMILES IDX 41 69 42 70 46 71 49 72 43 73 44 74 47 75 45 76 71 77 72 78
REMARK SMILES IDX 80 79 73 80 74 81 78 82 81 83 75 84 76 85 79 86 77 87 56 88
REMARK SMILES IDX 57 89 65 90 58 91 59 92 63 93 66 94 60 95 61 96 64 97 62 98
REMARK H PARENT 23 6 19 14 19 15 27 32 86 51 54 62
REMARK Flexibility Score: inf
ROOT
ATOM      1  C   UNL A   1      37.804  20.064  24.850  1.00  0.00     0.042 C 
ENDROOT
BRANCH   1   2
ATOM      2  C   UNL A   1      36.509  20.775  25.208  1.00  0.00     0.118 C 
BRANCH   2   3
ATOM      3  N   UNL A   1      36.182  21.825  24.258  1.00  0.00    -0.351 N 
ATOM      4  C   UNL A   1      35.386  22.928  24.330  1.00  0.00     0.279 C 
ATOM      5  O   UNL A   1      35.233  23.521  23.258  1.00  0.00    -0.268 OA
ATOM      6  H   UNL A   1      36.624  21.717  23.385  1.00  0.00     0.163 HD
BRANCH   4   7
ATOM      7  C   UNL A   1      34.618  23.349  25.615  1.00  0.00     0.289 C 
ATOM      8  C   UNL A   1      32.666  22.877  27.189  1.00  0.00     0.030 C 
ATOM      9  C   UNL A   1      33.135  22.884  25.719  1.00  0.00     0.077 C 
ATOM     10  C   UNL A   1      32.782  21.529  25.104  1.00  0.00     0.030 C 
ATOM     11  S   UNL A   1      32.209  24.218  24.863  1.00  0.00    -0.081 SA
ATOM     12  C   UNL A   1      33.607  25.370  24.881  1.00  0.00     0.276 C 
ATOM     13  N   UNL A   1      34.599  24.821  25.814  1.00  0.00    -0.320 N 
ATOM     14  H   UNL A   1      34.335  25.042  26.775  1.00  0.00     0.348 HD
ATOM     15  H   UNL A   1      35.520  25.224  25.641  1.00  0.00     0.348 HD
BRANCH  12  16
ATOM     16  C   UNL A   1      33.242  26.796  25.254  1.00  0.00     0.038 A 
ATOM     17  C   UNL A   1      33.991  27.483  26.238  1.00  0.00     0.012 A 
ATOM     18  C   UNL A   1      32.193  27.530  24.622  1.00  0.00     0.046 A 
ATOM     19  C   UNL A   1      33.721  28.794  26.591  1.00  0.00     0.001 A 
ATOM     20  C   UNL A   1      31.889  28.850  24.975  1.00  0.00     0.001 A 
ATOM     21  S   UNL A   1      31.144  26.998  23.358  1.00  0.00    -0.135 S 
ATOM     22  C   UNL A   1      32.675  29.473  25.976  1.00  0.00     0.010 A 
ATOM     23  C   UNL A   1      30.761  29.383  24.228  1.00  0.00     0.000 A 
ATOM     24  C   UNL A   1      30.274  28.471  23.297  1.00  0.00     0.036 A 
ATOM     25  C   UNL A   1      30.120  30.648  24.311  1.00  0.00     0.010 A 
ATOM     26  C   UNL A   1      29.195  28.785  22.445  1.00  0.00     0.019 A 
ATOM     27  C   UNL A   1      29.040  30.961  23.480  1.00  0.00     0.001 A 
ATOM     28  C   UNL A   1      28.587  30.038  22.552  1.00  0.00     0.002 A 
ENDBRANCH  12  16
ENDBRANCH   4   7
ENDBRANCH   2   3
ENDBRANCH   1   2
BRANCH   1  29
ATOM     29  C   UNL A   1      38.973  20.415  25.753  1.00  0.00     0.118 C 
BRANCH  29  30
ATOM     30  N   UNL A   1      39.966  19.350  25.838  1.00  0.00    -0.352 N 
ATOM     31  C   UNL A   1      41.316  19.418  26.075  1.00  0.00     0.251 C 
ATOM     32  H   UNL A   1      39.612  18.441  25.705  1.00  0.00     0.163 HD
ATOM     33  O   UNL A   1      42.016  18.418  25.928  1.00  0.00    -0.269 OA
BRANCH  31  34
ATOM     34  C   UNL A   1      41.937  20.696  26.477  1.00  0.00     0.039 A 
ATOM     35  C   UNL A   1      42.369  21.581  25.486  1.00  0.00     0.014 A 
ATOM     36  C   UNL A   1      42.091  21.028  27.825  1.00  0.00     0.014 A 
ATOM     37  C   UNL A   1      42.882  22.828  25.848  1.00  0.00     0.010 A 
ATOM     38  C   UNL A   1      42.500  22.308  28.181  1.00  0.00     0.010 A 
ATOM     39  C   UNL A   1      42.908  23.220  27.198  1.00  0.00    -0.014 A 
BRANCH  39  40
ATOM     40  C   UNL A   1      43.366  24.574  27.600  1.00  0.00     0.031 A 
ATOM     41  C   UNL A   1      42.361  25.638  27.946  1.00  0.00     0.074 A 
ATOM     42  C   UNL A   1      44.681  24.863  27.591  1.00  0.00     0.049 A 
ATOM     43  N   UNL A   1      42.559  26.895  28.258  1.00  0.00    -0.248 NA
ATOM     44  C   UNL A   1      40.942  25.247  27.910  1.00  0.00     0.031 C 
ATOM     45  C   UNL A   1      45.750  23.932  27.223  1.00  0.00     0.029 A 
ATOM     46  N   UNL A   1      45.345  26.026  27.893  1.00  0.00    -0.354 N 
ATOM     47  C   UNL A   1      41.295  27.442  28.442  1.00  0.00     0.074 A 
ATOM     48  C   UNL A   1      40.336  26.401  28.142  1.00  0.00     0.031 C 
ATOM     49  C   UNL A   1      46.935  24.549  27.354  1.00  0.00     0.029 A 
ATOM     50  C   UNL A   1      46.710  25.930  27.769  1.00  0.00     0.049 A 
ATOM     51  H   UNL A   1      44.886  26.851  28.173  1.00  0.00     0.167 HD
ATOM     52  C   UNL A   1      40.964  28.689  28.853  1.00  0.00     0.037 A 
ATOM     53  C   UNL A   1      47.670  26.854  27.963  1.00  0.00     0.037 A 
ATOM     54  C   UNL A   1      41.924  29.714  29.168  1.00  0.00     0.049 A 
ATOM     55  C   UNL A   1      47.274  28.239  28.398  1.00  0.00     0.074 A 
ATOM     56  C   UNL A   1      41.694  30.994  29.641  1.00  0.00     0.029 A 
ATOM     57  N   UNL A   1      43.298  29.577  29.036  1.00  0.00    -0.354 N 
ATOM     58  N   UNL A   1      46.080  28.724  28.637  1.00  0.00    -0.248 NA
ATOM     59  C   UNL A   1      48.364  29.204  28.598  1.00  0.00     0.031 C 
ATOM     60  C   UNL A   1      42.926  31.649  29.744  1.00  0.00     0.029 A 
ATOM     61  C   UNL A   1      43.928  30.758  29.396  1.00  0.00     0.049 A 
ATOM     62  H   UNL A   1      43.758  28.761  28.734  1.00  0.00     0.167 HD
ATOM     63  C   UNL A   1      46.275  30.037  29.044  1.00  0.00     0.074 A 
ATOM     64  C   UNL A   1      47.705  30.267  29.038  1.00  0.00     0.031 C 
ATOM     65  C   UNL A   1      45.354  30.969  29.392  1.00  0.00     0.037 A 
BRANCH  52  66
ATOM     66  C   UNL A   1      39.503  29.012  28.988  1.00  0.00     0.064 A 
ATOM     67  C   UNL A   1      38.731  29.408  27.885  1.00  0.00     0.173 A 
ATOM     68  C   UNL A   1      38.858  28.890  30.228  1.00  0.00     0.173 A 
ATOM     69  F   UNL A   1      39.300  29.552  26.678  1.00  0.00    -0.203 F 
ATOM     70  C   UNL A   1      37.377  29.703  28.025  1.00  0.00     0.198 A 
ATOM     71  C   UNL A   1      37.496  29.151  30.358  1.00  0.00     0.198 A 
ATOM     72  F   UNL A   1      39.546  28.509  31.315  1.00  0.00    -0.203 F 
ATOM     73  F   UNL A   1      36.675  30.133  26.969  1.00  0.00    -0.200 F 
ATOM     74  C   UNL A   1      36.759  29.566  29.258  1.00  0.00     0.200 A 
ATOM     75  F   UNL A   1      36.897  29.003  31.547  1.00  0.00    -0.200 F 
ATOM     76  F   UNL A   1      35.454  29.841  29.390  1.00  0.00    -0.200 F 
ENDBRANCH  52  66
BRANCH  53  77
ATOM     77  C   UNL A   1      49.100  26.494  27.771  1.00  0.00     0.064 A 
ATOM     78  C   UNL A   1      49.936  26.259  28.872  1.00  0.00     0.173 A 
ATOM     79  C   UNL A   1      49.664  26.389  26.491  1.00  0.00     0.173 A 
ATOM     80  F   UNL A   1      49.450  26.366  30.117  1.00  0.00    -0.203 F 
ATOM     81  C   UNL A   1      51.285  25.957  28.701  1.00  0.00     0.198 A 
ATOM     82  C   UNL A   1      51.006  26.055  26.321  1.00  0.00     0.198 A 
ATOM     83  F   UNL A   1      48.908  26.598  25.404  1.00  0.00    -0.203 F 
ATOM     84  F   UNL A   1      52.073  25.789  29.772  1.00  0.00    -0.200 F 
ATOM     85  C   UNL A   1      51.819  25.850  27.426  1.00  0.00     0.200 A 
ATOM     86  F   UNL A   1      51.514  25.937  25.086  1.00  0.00    -0.200 F 
ATOM     87  F   UNL A   1      53.116  25.558  27.262  1.00  0.00    -0.200 F 
ENDBRANCH  53  77
BRANCH  65  88
ATOM     88  C   UNL A   1      45.864  32.310  29.835  1.00  0.00     0.064 A 
ATOM     89  C   UNL A   1      46.228  32.561  31.166  1.00  0.00     0.173 A 
ATOM     90  C   UNL A   1      46.022  33.350  28.904  1.00  0.00     0.173 A 
ATOM     91  F   UNL A   1      46.083  31.607  32.097  1.00  0.00    -0.203 F 
ATOM     92  C   UNL A   1      46.702  33.812  31.555  1.00  0.00     0.198 A 
ATOM     93  C   UNL A   1      46.530  34.587  29.290  1.00  0.00     0.198 A 
ATOM     94  F   UNL A   1      45.696  33.161  27.617  1.00  0.00    -0.203 F 
ATOM     95  F   UNL A   1      46.991  34.045  32.843  1.00  0.00    -0.200 F 
ATOM     96  C   UNL A   1      46.860  34.820  30.616  1.00  0.00     0.200 A 
ATOM     97  F   UNL A   1      46.699  35.554  28.377  1.00  0.00    -0.200 F 
ATOM     98  F   UNL A   1      47.324  36.020  30.991  1.00  0.00    -0.200 F 
ENDBRANCH  65  88
ENDBRANCH  39  40
ENDBRANCH  31  34
ENDBRANCH  29  30
ENDBRANCH   1  29
TORSDOF 11
ENDMDL
