MODEL 1
REMARK VINA RESULT:     -13.5      0.000      0.000
REMARK SMILES COC(=O)c1c(-c2ccccc2Cl)csc1NC(=O)[C@@H]1[C@@H]2CC[C@@H](C2)[C@@H]1C(=O)NCCCNC(=O)c1ccc(-c2c3nc(c(-c4c(F)c(F)c(F)c(F)c4F)c4ccc([nH]4)c(-c4c(F)c(F)c(F)c(F)c4F)c4nc(c(-c5c(F)c(F)c(F)c(F)c5F)c5ccc2[nH]5)C=C4)C=C3)cc1
REMARK SMILES IDX 30 1 29 2 27 3 28 4 26 6 20 7 21 8 22 9 25 10 24 11 23 12
REMARK SMILES IDX 18 13 17 14 19 16 16 17 5 18 6 19 14 20 15 21 3 22 4 23 2 24
REMARK SMILES IDX 1 25 7 26 8 27 12 28 9 29 11 30 13 31 10 32 31 33 32 34
REMARK SMILES IDX 33 35 34 36 35 38 36 39 37 40 98 41 38 42 97 43 39 44 40 45
REMARK SMILES IDX 41 46 91 47 42 48 96 49 90 50 92 51 43 52 95 53 89 54 88 55
REMARK SMILES IDX 44 57 76 58 56 59 75 60 57 61 60 62 74 63 93 64 58 65 59 66
REMARK SMILES IDX 73 68 94 69 61 70 45 71 46 72 54 73 47 74 48 75 52 76 55 77
REMARK SMILES IDX 49 78 50 79 53 80 51 81 77 82 78 83 86 84 79 85 80 86 84 87
REMARK SMILES IDX 87 88 81 89 82 90 85 91 83 92 62 93 63 94 71 95 64 96 65 97
REMARK SMILES IDX 69 98 72 99 66 100 67 101 70 102 68 103
REMARK H PARENT 29 5 17 15 33 37 92 56 60 67
REMARK Flexibility Score: inf
ROOT
ATOM      1  C   UNL A   1      31.409  30.695  26.264  1.00  0.00     0.117 C 
ENDROOT
BRANCH   1   2
ATOM      2  N   UNL A   1      32.187  30.391  25.084  1.00  0.00    -0.356 N 
ATOM      3  C   UNL A   1      32.336  29.151  24.546  1.00  0.00     0.224 C 
ATOM      4  O   UNL A   1      33.492  28.734  24.442  1.00  0.00    -0.275 OA
ATOM      5  H   UNL A   1      32.644  31.139  24.635  1.00  0.00     0.163 HD
BRANCH   3   6
ATOM      6  C   UNL A   1      31.131  28.286  24.223  1.00  0.00     0.094 C 
ATOM      7  C   UNL A   1      30.614  27.456  25.401  1.00  0.00     0.094 C 
ATOM      8  C   UNL A   1      29.770  26.347  24.700  1.00  0.00     0.002 C 
ATOM      9  C   UNL A   1      30.665  25.203  24.245  1.00  0.00     0.005 C 
ATOM     10  C   UNL A   1      29.423  26.979  23.331  1.00  0.00     0.009 C 
ATOM     11  C   UNL A   1      30.898  27.319  23.016  1.00  0.00     0.002 C 
ATOM     12  C   UNL A   1      31.416  25.851  23.076  1.00  0.00     0.005 C 
BRANCH   7  13
ATOM     13  C   UNL A   1      31.463  27.003  26.610  1.00  0.00     0.229 C 
ATOM     14  N   UNL A   1      32.361  25.997  26.773  1.00  0.00    -0.317 N 
ATOM     15  H   UNL A   1      32.586  25.898  27.725  1.00  0.00     0.170 HD
ATOM     16  O   UNL A   1      31.175  27.570  27.686  1.00  0.00    -0.274 OA
BRANCH  14  17
ATOM     17  C   UNL A   1      33.061  25.065  26.022  1.00  0.00     0.110 A 
ATOM     18  C   UNL A   1      33.020  23.674  26.150  1.00  0.00     0.102 A 
ATOM     19  C   UNL A   1      33.633  23.026  24.998  1.00  0.00     0.011 A 
ATOM     20  C   UNL A   1      34.301  23.948  24.224  1.00  0.00     0.076 A 
ATOM     21  S   UNL A   1      34.320  25.455  24.975  1.00  0.00    -0.125 S 
BRANCH  18  22
ATOM     22  C   UNL A   1      32.401  23.016  27.297  1.00  0.00     0.341 C 
ATOM     23  O   UNL A   1      32.952  22.147  27.952  1.00  0.00    -0.246 OA
BRANCH  22  24
ATOM     24  O   UNL A   1      31.102  23.404  27.455  1.00  0.00    -0.465 OA
ATOM     25  C   UNL A   1      30.157  22.640  26.711  1.00  0.00     0.282 C 
ENDBRANCH  22  24
ENDBRANCH  18  22
BRANCH  19  26
ATOM     26  C   UNL A   1      33.528  21.638  24.540  1.00  0.00     0.002 A 
ATOM     27  C   UNL A   1      34.431  20.702  25.079  1.00  0.00     0.010 A 
ATOM     28  C   UNL A   1      32.526  21.176  23.665  1.00  0.00     0.048 A 
ATOM     29  C   UNL A   1      34.333  19.347  24.760  1.00  0.00     0.001 A 
ATOM     30  C   UNL A   1      32.419  19.812  23.371  1.00  0.00     0.021 A 
ATOM     31  Cl  UNL A   1      31.388  22.224  22.885  1.00  0.00    -0.084 Cl
ATOM     32  C   UNL A   1      33.321  18.900  23.917  1.00  0.00     0.002 A 
ENDBRANCH  19  26
ENDBRANCH  14  17
ENDBRANCH   7  13
ENDBRANCH   3   6
ENDBRANCH   1   2
BRANCH   1  33
ATOM     33  C   UNL A   1      31.332  32.207  26.518  1.00  0.00     0.042 C 
BRANCH  33  34
ATOM     34  C   UNL A   1      32.596  32.857  27.094  1.00  0.00     0.118 C 
BRANCH  34  35
ATOM     35  N   UNL A   1      32.370  34.197  27.617  1.00  0.00    -0.352 N 
ATOM     36  C   UNL A   1      33.006  34.894  28.616  1.00  0.00     0.251 C 
ATOM     37  H   UNL A   1      31.636  34.686  27.183  1.00  0.00     0.163 HD
ATOM     38  O   UNL A   1      32.545  35.976  28.974  1.00  0.00    -0.269 OA
BRANCH  36  39
ATOM     39  C   UNL A   1      34.214  34.366  29.294  1.00  0.00     0.039 A 
ATOM     40  C   UNL A   1      34.047  33.705  30.517  1.00  0.00     0.014 A 
ATOM     41  C   UNL A   1      35.502  34.567  28.792  1.00  0.00     0.014 A 
ATOM     42  C   UNL A   1      35.156  33.186  31.195  1.00  0.00     0.010 A 
ATOM     43  C   UNL A   1      36.605  34.004  29.444  1.00  0.00     0.010 A 
ATOM     44  C   UNL A   1      36.443  33.299  30.647  1.00  0.00    -0.014 A 
BRANCH  44  45
ATOM     45  C   UNL A   1      37.612  32.651  31.305  1.00  0.00     0.031 A 
ATOM     46  C   UNL A   1      38.295  31.467  30.678  1.00  0.00     0.074 A 
ATOM     47  C   UNL A   1      38.023  33.097  32.509  1.00  0.00     0.049 A 
ATOM     48  N   UNL A   1      39.287  30.745  31.139  1.00  0.00    -0.248 NA
ATOM     49  C   UNL A   1      37.786  31.020  29.372  1.00  0.00     0.031 C 
ATOM     50  C   UNL A   1      37.420  34.205  33.250  1.00  0.00     0.029 A 
ATOM     51  N   UNL A   1      39.034  32.661  33.331  1.00  0.00    -0.354 N 
ATOM     52  C   UNL A   1      39.506  29.749  30.195  1.00  0.00     0.074 A 
ATOM     53  C   UNL A   1      38.527  29.943  29.147  1.00  0.00     0.031 C 
ATOM     54  C   UNL A   1      38.074  34.367  34.411  1.00  0.00     0.029 A 
ATOM     55  C   UNL A   1      39.120  33.355  34.515  1.00  0.00     0.049 A 
ATOM     56  H   UNL A   1      39.639  31.922  33.096  1.00  0.00     0.167 HD
ATOM     57  C   UNL A   1      40.444  28.772  30.198  1.00  0.00     0.037 A 
ATOM     58  C   UNL A   1      39.940  33.189  35.571  1.00  0.00     0.037 A 
ATOM     59  C   UNL A   1      41.446  28.603  31.219  1.00  0.00     0.049 A 
ATOM     60  C   UNL A   1      40.982  32.104  35.536  1.00  0.00     0.074 A 
ATOM     61  C   UNL A   1      42.499  27.703  31.252  1.00  0.00     0.029 A 
ATOM     62  N   UNL A   1      41.520  29.344  32.387  1.00  0.00    -0.354 N 
ATOM     63  N   UNL A   1      41.237  31.230  34.593  1.00  0.00    -0.248 NA
ATOM     64  C   UNL A   1      41.858  31.987  36.712  1.00  0.00     0.031 C 
ATOM     65  C   UNL A   1      43.181  27.868  32.462  1.00  0.00     0.029 A 
ATOM     66  C   UNL A   1      42.581  28.902  33.162  1.00  0.00     0.049 A 
ATOM     67  H   UNL A   1      40.909  30.077  32.633  1.00  0.00     0.167 HD
ATOM     68  C   UNL A   1      42.313  30.481  35.049  1.00  0.00     0.074 A 
ATOM     69  C   UNL A   1      42.678  31.013  36.344  1.00  0.00     0.031 C 
ATOM     70  C   UNL A   1      42.942  29.444  34.445  1.00  0.00     0.037 A 
BRANCH  57  71
ATOM     71  C   UNL A   1      40.446  27.795  29.060  1.00  0.00     0.064 A 
ATOM     72  C   UNL A   1      39.641  26.648  29.072  1.00  0.00     0.173 A 
ATOM     73  C   UNL A   1      41.198  28.058  27.905  1.00  0.00     0.173 A 
ATOM     74  F   UNL A   1      38.906  26.351  30.154  1.00  0.00    -0.203 F 
ATOM     75  C   UNL A   1      39.600  25.790  27.976  1.00  0.00     0.198 A 
ATOM     76  C   UNL A   1      41.137  27.211  26.801  1.00  0.00     0.198 A 
ATOM     77  F   UNL A   1      41.977  29.148  27.837  1.00  0.00    -0.203 F 
ATOM     78  F   UNL A   1      38.842  24.685  28.020  1.00  0.00    -0.200 F 
ATOM     79  C   UNL A   1      40.339  26.077  26.838  1.00  0.00     0.200 A 
ATOM     80  F   UNL A   1      41.841  27.498  25.697  1.00  0.00    -0.200 F 
ATOM     81  F   UNL A   1      40.285  25.261  25.777  1.00  0.00    -0.200 F 
ENDBRANCH  57  71
BRANCH  58  82
ATOM     82  C   UNL A   1      39.816  34.073  36.758  1.00  0.00     0.064 A 
ATOM     83  C   UNL A   1      40.552  35.263  36.850  1.00  0.00     0.173 A 
ATOM     84  C   UNL A   1      38.984  33.735  37.835  1.00  0.00     0.173 A 
ATOM     85  F   UNL A   1      41.379  35.617  35.856  1.00  0.00    -0.203 F 
ATOM     86  C   UNL A   1      40.482  36.065  37.988  1.00  0.00     0.198 A 
ATOM     87  C   UNL A   1      38.893  34.553  38.958  1.00  0.00     0.198 A 
ATOM     88  F   UNL A   1      38.257  32.609  37.794  1.00  0.00    -0.203 F 
ATOM     89  F   UNL A   1      41.239  37.168  38.073  1.00  0.00    -0.200 F 
ATOM     90  C   UNL A   1      39.650  35.711  39.039  1.00  0.00     0.200 A 
ATOM     91  F   UNL A   1      38.078  34.213  39.968  1.00  0.00    -0.200 F 
ATOM     92  F   UNL A   1      39.586  36.482  40.133  1.00  0.00    -0.200 F 
ENDBRANCH  58  82
BRANCH  70  93
ATOM     93  C   UNL A   1      44.112  28.837  35.164  1.00  0.00     0.064 A 
ATOM     94  C   UNL A   1      43.942  27.824  36.120  1.00  0.00     0.173 A 
ATOM     95  C   UNL A   1      45.420  29.250  34.868  1.00  0.00     0.173 A 
ATOM     96  F   UNL A   1      42.711  27.406  36.447  1.00  0.00    -0.203 F 
ATOM     97  C   UNL A   1      45.038  27.266  36.772  1.00  0.00     0.198 A 
ATOM     98  C   UNL A   1      46.515  28.671  35.503  1.00  0.00     0.198 A 
ATOM     99  F   UNL A   1      45.636  30.212  33.959  1.00  0.00    -0.203 F 
ATOM    100  F   UNL A   1      44.850  26.334  37.716  1.00  0.00    -0.200 F 
ATOM    101  C   UNL A   1      46.323  27.685  36.459  1.00  0.00     0.200 A 
ATOM    102  F   UNL A   1      47.757  29.068  35.192  1.00  0.00    -0.200 F 
ATOM    103  F   UNL A   1      47.377  27.143  37.085  1.00  0.00    -0.200 F 
ENDBRANCH  70  93
ENDBRANCH  44  45
ENDBRANCH  36  39
ENDBRANCH  34  35
ENDBRANCH  33  34
ENDBRANCH   1  33
TORSDOF 15
ENDMDL
MODEL 2
REMARK VINA RESULT:     -13.4      5.345     10.820
REMARK SMILES COC(=O)c1c(-c2ccccc2Cl)csc1NC(=O)[C@@H]1[C@@H]2CC[C@@H](C2)[C@@H]1C(=O)NCCCNC(=O)c1ccc(-c2c3nc(c(-c4c(F)c(F)c(F)c(F)c4F)c4ccc([nH]4)c(-c4c(F)c(F)c(F)c(F)c4F)c4nc(c(-c5c(F)c(F)c(F)c(F)c5F)c5ccc2[nH]5)C=C4)C=C3)cc1
REMARK SMILES IDX 30 1 29 2 27 3 28 4 26 6 20 7 21 8 22 9 25 10 24 11 23 12
REMARK SMILES IDX 18 13 17 14 19 16 16 17 5 18 6 19 14 20 15 21 3 22 4 23 2 24
REMARK SMILES IDX 1 25 7 26 8 27 12 28 9 29 11 30 13 31 10 32 31 33 32 34
REMARK SMILES IDX 33 35 34 36 35 38 36 39 37 40 98 41 38 42 97 43 39 44 40 45
REMARK SMILES IDX 41 46 91 47 42 48 96 49 90 50 92 51 43 52 95 53 89 54 88 55
REMARK SMILES IDX 44 57 76 58 56 59 75 60 57 61 60 62 74 63 93 64 58 65 59 66
REMARK SMILES IDX 73 68 94 69 61 70 45 71 46 72 54 73 47 74 48 75 52 76 55 77
REMARK SMILES IDX 49 78 50 79 53 80 51 81 77 82 78 83 86 84 79 85 80 86 84 87
REMARK SMILES IDX 87 88 81 89 82 90 85 91 83 92 62 93 63 94 71 95 64 96 65 97
REMARK SMILES IDX 69 98 72 99 66 100 67 101 70 102 68 103
REMARK H PARENT 29 5 17 15 33 37 92 56 60 67
REMARK Flexibility Score: inf
ROOT
ATOM      1  C   UNL A   1      36.764  20.418  24.627  1.00  0.00     0.117 C 
ENDROOT
BRANCH   1   2
ATOM      2  N   UNL A   1      35.840  20.632  25.719  1.00  0.00    -0.356 N 
ATOM      3  C   UNL A   1      34.767  21.466  25.682  1.00  0.00     0.224 C 
ATOM      4  O   UNL A   1      34.736  22.358  26.533  1.00  0.00    -0.275 OA
ATOM      5  H   UNL A   1      36.000  20.134  26.554  1.00  0.00     0.163 HD
BRANCH   3   6
ATOM      6  C   UNL A   1      33.744  21.379  24.564  1.00  0.00     0.094 C 
ATOM      7  C   UNL A   1      34.103  22.182  23.312  1.00  0.00     0.094 C 
ATOM      8  C   UNL A   1      32.730  22.330  22.588  1.00  0.00     0.002 C 
ATOM      9  C   UNL A   1      31.950  23.507  23.157  1.00  0.00     0.005 C 
ATOM     10  C   UNL A   1      31.901  21.155  23.158  1.00  0.00     0.009 C 
ATOM     11  C   UNL A   1      32.191  21.549  24.625  1.00  0.00     0.002 C 
ATOM     12  C   UNL A   1      31.553  22.968  24.537  1.00  0.00     0.005 C 
BRANCH   7  13
ATOM     13  C   UNL A   1      35.023  23.424  23.286  1.00  0.00     0.229 C 
ATOM     14  N   UNL A   1      34.807  24.731  23.590  1.00  0.00    -0.317 N 
ATOM     15  H   UNL A   1      35.574  25.274  23.299  1.00  0.00     0.170 HD
ATOM     16  O   UNL A   1      36.138  23.232  22.753  1.00  0.00    -0.274 OA
BRANCH  14  17
ATOM     17  C   UNL A   1      33.849  25.540  24.179  1.00  0.00     0.110 A 
ATOM     18  C   UNL A   1      33.183  26.622  23.598  1.00  0.00     0.102 A 
ATOM     19  C   UNL A   1      32.037  27.022  24.404  1.00  0.00     0.011 A 
ATOM     20  C   UNL A   1      32.066  26.397  25.631  1.00  0.00     0.076 A 
ATOM     21  S   UNL A   1      33.501  25.537  25.827  1.00  0.00    -0.125 S 
BRANCH  18  22
ATOM     22  C   UNL A   1      33.609  27.208  22.331  1.00  0.00     0.341 C 
ATOM     23  O   UNL A   1      33.798  28.403  22.172  1.00  0.00    -0.246 OA
BRANCH  22  24
ATOM     24  O   UNL A   1      33.641  26.276  21.334  1.00  0.00    -0.465 OA
ATOM     25  C   UNL A   1      32.369  25.953  20.779  1.00  0.00     0.282 C 
ENDBRANCH  22  24
ENDBRANCH  18  22
BRANCH  19  26
ATOM     26  C   UNL A   1      30.885  27.853  24.043  1.00  0.00     0.002 A 
ATOM     27  C   UNL A   1      31.044  29.250  24.098  1.00  0.00     0.010 A 
ATOM     28  C   UNL A   1      29.665  27.335  23.565  1.00  0.00     0.048 A 
ATOM     29  C   UNL A   1      30.022  30.105  23.681  1.00  0.00     0.001 A 
ATOM     30  C   UNL A   1      28.655  28.199  23.126  1.00  0.00     0.021 A 
ATOM     31  Cl  UNL A   1      29.312  25.640  23.501  1.00  0.00    -0.084 Cl
ATOM     32  C   UNL A   1      28.833  29.580  23.185  1.00  0.00     0.002 A 
ENDBRANCH  19  26
ENDBRANCH  14  17
ENDBRANCH   7  13
ENDBRANCH   3   6
ENDBRANCH   1   2
BRANCH   1  33
ATOM     33  C   UNL A   1      37.858  19.409  25.001  1.00  0.00     0.042 C 
BRANCH  33  34
ATOM     34  C   UNL A   1      39.070  19.978  25.752  1.00  0.00     0.118 C 
BRANCH  34  35
ATOM     35  N   UNL A   1      40.174  19.037  25.863  1.00  0.00    -0.352 N 
ATOM     36  C   UNL A   1      41.512  19.240  26.104  1.00  0.00     0.251 C 
ATOM     37  H   UNL A   1      39.921  18.093  25.744  1.00  0.00     0.163 HD
ATOM     38  O   UNL A   1      42.284  18.288  26.020  1.00  0.00    -0.269 OA
BRANCH  36  39
ATOM     39  C   UNL A   1      42.054  20.580  26.434  1.00  0.00     0.039 A 
ATOM     40  C   UNL A   1      42.404  21.428  25.376  1.00  0.00     0.014 A 
ATOM     41  C   UNL A   1      42.288  20.990  27.749  1.00  0.00     0.014 A 
ATOM     42  C   UNL A   1      42.917  22.704  25.634  1.00  0.00     0.010 A 
ATOM     43  C   UNL A   1      42.752  22.284  28.008  1.00  0.00     0.010 A 
ATOM     44  C   UNL A   1      43.064  23.159  26.954  1.00  0.00    -0.014 A 
BRANCH  44  45
ATOM     45  C   UNL A   1      43.501  24.554  27.236  1.00  0.00     0.031 A 
ATOM     46  C   UNL A   1      42.528  25.582  27.746  1.00  0.00     0.074 A 
ATOM     47  C   UNL A   1      44.773  24.914  26.972  1.00  0.00     0.049 A 
ATOM     48  N   UNL A   1      42.722  26.855  27.989  1.00  0.00    -0.248 NA
ATOM     49  C   UNL A   1      41.152  25.128  27.998  1.00  0.00     0.031 C 
ATOM     50  C   UNL A   1      45.805  24.030  26.430  1.00  0.00     0.029 A 
ATOM     51  N   UNL A   1      45.411  26.124  27.105  1.00  0.00    -0.354 N 
ATOM     52  C   UNL A   1      41.494  27.358  28.399  1.00  0.00     0.074 A 
ATOM     53  C   UNL A   1      40.553  26.259  28.347  1.00  0.00     0.031 C 
ATOM     54  C   UNL A   1      46.946  24.721  26.283  1.00  0.00     0.029 A 
ATOM     55  C   UNL A   1      46.720  26.105  26.687  1.00  0.00     0.049 A 
ATOM     56  H   UNL A   1      44.972  26.927  27.465  1.00  0.00     0.167 HD
ATOM     57  C   UNL A   1      41.184  28.617  28.792  1.00  0.00     0.037 A 
ATOM     58  C   UNL A   1      47.634  27.093  26.624  1.00  0.00     0.037 A 
ATOM     59  C   UNL A   1      42.127  29.702  28.885  1.00  0.00     0.049 A 
ATOM     60  C   UNL A   1      47.262  28.477  27.084  1.00  0.00     0.074 A 
ATOM     61  C   UNL A   1      41.922  30.982  29.370  1.00  0.00     0.029 A 
ATOM     62  N   UNL A   1      43.451  29.636  28.481  1.00  0.00    -0.354 N 
ATOM     63  N   UNL A   1      46.121  28.913  27.557  1.00  0.00    -0.248 NA
ATOM     64  C   UNL A   1      48.310  29.506  27.007  1.00  0.00     0.031 C 
ATOM     65  C   UNL A   1      43.109  31.706  29.216  1.00  0.00     0.029 A 
ATOM     66  C   UNL A   1      44.067  30.863  28.678  1.00  0.00     0.049 A 
ATOM     67  H   UNL A   1      43.891  28.837  28.109  1.00  0.00     0.167 HD
ATOM     68  C   UNL A   1      46.321  30.254  27.858  1.00  0.00     0.074 A 
ATOM     69  C   UNL A   1      47.697  30.557  27.531  1.00  0.00     0.031 C 
ATOM     70  C   UNL A   1      45.440  31.153  28.360  1.00  0.00     0.037 A 
BRANCH  57  71
ATOM     71  C   UNL A   1      39.759  28.908  29.161  1.00  0.00     0.064 A 
ATOM     72  C   UNL A   1      39.294  28.758  30.475  1.00  0.00     0.173 A 
ATOM     73  C   UNL A   1      38.873  29.426  28.204  1.00  0.00     0.173 A 
ATOM     74  F   UNL A   1      40.101  28.263  31.424  1.00  0.00    -0.203 F 
ATOM     75  C   UNL A   1      37.988  29.103  30.815  1.00  0.00     0.198 A 
ATOM     76  C   UNL A   1      37.576  29.792  28.553  1.00  0.00     0.198 A 
ATOM     77  F   UNL A   1      39.271  29.599  26.935  1.00  0.00    -0.203 F 
ATOM     78  F   UNL A   1      37.556  28.927  32.072  1.00  0.00    -0.200 F 
ATOM     79  C   UNL A   1      37.133  29.628  29.857  1.00  0.00     0.200 A 
ATOM     80  F   UNL A   1      36.756  30.313  27.629  1.00  0.00    -0.200 F 
ATOM     81  F   UNL A   1      35.883  29.975  30.190  1.00  0.00    -0.200 F 
ENDBRANCH  57  71
BRANCH  58  82
ATOM     82  C   UNL A   1      48.999  26.815  26.106  1.00  0.00     0.064 A 
ATOM     83  C   UNL A   1      49.311  27.018  24.755  1.00  0.00     0.173 A 
ATOM     84  C   UNL A   1      50.007  26.316  26.943  1.00  0.00     0.173 A 
ATOM     85  F   UNL A   1      48.373  27.472  23.912  1.00  0.00    -0.203 F 
ATOM     86  C   UNL A   1      50.573  26.703  24.254  1.00  0.00     0.198 A 
ATOM     87  C   UNL A   1      51.276  26.029  26.446  1.00  0.00     0.198 A 
ATOM     88  F   UNL A   1      49.759  26.108  28.244  1.00  0.00    -0.203 F 
ATOM     89  F   UNL A   1      50.828  26.854  22.947  1.00  0.00    -0.200 F 
ATOM     90  C   UNL A   1      51.556  26.213  25.101  1.00  0.00     0.200 A 
ATOM     91  F   UNL A   1      52.227  25.566  27.270  1.00  0.00    -0.200 F 
ATOM     92  F   UNL A   1      52.768  25.907  24.617  1.00  0.00    -0.200 F 
ENDBRANCH  58  82
BRANCH  70  93
ATOM     93  C   UNL A   1      45.946  32.541  28.619  1.00  0.00     0.064 A 
ATOM     94  C   UNL A   1      46.563  32.883  29.832  1.00  0.00     0.173 A 
ATOM     95  C   UNL A   1      45.843  33.532  27.631  1.00  0.00     0.173 A 
ATOM     96  F   UNL A   1      46.672  31.976  30.813  1.00  0.00    -0.203 F 
ATOM     97  C   UNL A   1      47.035  34.175  30.054  1.00  0.00     0.198 A 
ATOM     98  C   UNL A   1      46.340  34.814  27.847  1.00  0.00     0.198 A 
ATOM     99  F   UNL A   1      45.265  33.254  26.452  1.00  0.00    -0.203 F 
ATOM    100  F   UNL A   1      47.578  34.493  31.237  1.00  0.00    -0.200 F 
ATOM    101  C   UNL A   1      46.929  35.136  29.060  1.00  0.00     0.200 A 
ATOM    102  F   UNL A   1      46.247  35.740  26.881  1.00  0.00    -0.200 F 
ATOM    103  F   UNL A   1      47.387  36.378  29.275  1.00  0.00    -0.200 F 
ENDBRANCH  70  93
ENDBRANCH  44  45
ENDBRANCH  36  39
ENDBRANCH  34  35
ENDBRANCH  33  34
ENDBRANCH   1  33
TORSDOF 15
ENDMDL
MODEL 3
REMARK VINA RESULT:     -13.3      1.401      2.402
REMARK SMILES COC(=O)c1c(-c2ccccc2Cl)csc1NC(=O)[C@@H]1[C@@H]2CC[C@@H](C2)[C@@H]1C(=O)NCCCNC(=O)c1ccc(-c2c3nc(c(-c4c(F)c(F)c(F)c(F)c4F)c4ccc([nH]4)c(-c4c(F)c(F)c(F)c(F)c4F)c4nc(c(-c5c(F)c(F)c(F)c(F)c5F)c5ccc2[nH]5)C=C4)C=C3)cc1
REMARK SMILES IDX 30 1 29 2 27 3 28 4 26 6 20 7 21 8 22 9 25 10 24 11 23 12
REMARK SMILES IDX 18 13 17 14 19 16 16 17 5 18 6 19 14 20 15 21 3 22 4 23 2 24
REMARK SMILES IDX 1 25 7 26 8 27 12 28 9 29 11 30 13 31 10 32 31 33 32 34
REMARK SMILES IDX 33 35 34 36 35 38 36 39 37 40 98 41 38 42 97 43 39 44 40 45
REMARK SMILES IDX 41 46 91 47 42 48 96 49 90 50 92 51 43 52 95 53 89 54 88 55
REMARK SMILES IDX 44 57 76 58 56 59 75 60 57 61 60 62 74 63 93 64 58 65 59 66
REMARK SMILES IDX 73 68 94 69 61 70 45 71 46 72 54 73 47 74 48 75 52 76 55 77
REMARK SMILES IDX 49 78 50 79 53 80 51 81 77 82 78 83 86 84 79 85 80 86 84 87
REMARK SMILES IDX 87 88 81 89 82 90 85 91 83 92 62 93 63 94 71 95 64 96 65 97
REMARK SMILES IDX 69 98 72 99 66 100 67 101 70 102 68 103
REMARK H PARENT 29 5 17 15 33 37 92 56 60 67
REMARK Flexibility Score: inf
ROOT
ATOM      1  C   UNL A   1      31.451  30.379  25.368  1.00  0.00     0.117 C 
ENDROOT
BRANCH   1   2
ATOM      2  N   UNL A   1      32.188  29.289  25.967  1.00  0.00    -0.356 N 
ATOM      3  C   UNL A   1      31.647  28.105  26.362  1.00  0.00     0.224 C 
ATOM      4  O   UNL A   1      31.794  27.804  27.548  1.00  0.00    -0.275 OA
ATOM      5  H   UNL A   1      33.156  29.414  26.101  1.00  0.00     0.163 HD
BRANCH   3   6
ATOM      6  C   UNL A   1      30.795  27.278  25.416  1.00  0.00     0.094 C 
ATOM      7  C   UNL A   1      31.440  25.965  24.965  1.00  0.00     0.094 C 
ATOM      8  C   UNL A   1      30.631  25.604  23.682  1.00  0.00     0.002 C 
ATOM      9  C   UNL A   1      31.197  26.334  22.472  1.00  0.00     0.005 C 
ATOM     10  C   UNL A   1      29.306  26.378  23.870  1.00  0.00     0.009 C 
ATOM     11  C   UNL A   1      30.025  27.721  24.129  1.00  0.00     0.002 C 
ATOM     12  C   UNL A   1      30.759  27.776  22.756  1.00  0.00     0.005 C 
BRANCH   7  13
ATOM     13  C   UNL A   1      32.961  25.696  24.910  1.00  0.00     0.229 C 
ATOM     14  N   UNL A   1      33.718  24.635  25.294  1.00  0.00    -0.317 N 
ATOM     15  H   UNL A   1      34.672  24.875  25.264  1.00  0.00     0.170 HD
ATOM     16  O   UNL A   1      33.651  26.687  24.586  1.00  0.00    -0.274 OA
BRANCH  14  17
ATOM     17  C   UNL A   1      33.572  23.322  25.713  1.00  0.00     0.110 A 
ATOM     18  C   UNL A   1      33.293  22.207  24.919  1.00  0.00     0.102 A 
ATOM     19  C   UNL A   1      33.524  20.971  25.655  1.00  0.00     0.011 A 
ATOM     20  C   UNL A   1      33.712  21.234  26.994  1.00  0.00     0.076 A 
ATOM     21  S   UNL A   1      33.431  22.861  27.327  1.00  0.00    -0.125 S 
BRANCH  18  22
ATOM     22  C   UNL A   1      32.861  22.330  23.530  1.00  0.00     0.341 C 
ATOM     23  O   UNL A   1      31.850  21.807  23.090  1.00  0.00    -0.246 OA
BRANCH  22  24
ATOM     24  O   UNL A   1      33.788  22.987  22.774  1.00  0.00    -0.465 OA
ATOM     25  C   UNL A   1      33.279  23.559  21.571  1.00  0.00     0.282 C 
ENDBRANCH  22  24
ENDBRANCH  18  22
BRANCH  19  26
ATOM     26  C   UNL A   1      33.688  19.603  25.157  1.00  0.00     0.002 A 
ATOM     27  C   UNL A   1      32.525  18.832  24.972  1.00  0.00     0.010 A 
ATOM     28  C   UNL A   1      34.926  19.052  24.774  1.00  0.00     0.048 A 
ATOM     29  C   UNL A   1      32.594  17.554  24.415  1.00  0.00     0.001 A 
ATOM     30  C   UNL A   1      34.983  17.780  24.192  1.00  0.00     0.021 A 
ATOM     31  Cl  UNL A   1      36.439  19.865  25.000  1.00  0.00    -0.084 Cl
ATOM     32  C   UNL A   1      33.820  17.033  24.015  1.00  0.00     0.002 A 
ENDBRANCH  19  26
ENDBRANCH  14  17
ENDBRANCH   7  13
ENDBRANCH   3   6
ENDBRANCH   1   2
BRANCH   1  33
ATOM     33  C   UNL A   1      31.264  31.545  26.349  1.00  0.00     0.042 C 
BRANCH  33  34
ATOM     34  C   UNL A   1      32.552  32.191  26.877  1.00  0.00     0.118 C 
BRANCH  34  35
ATOM     35  N   UNL A   1      32.373  33.573  27.300  1.00  0.00    -0.352 N 
ATOM     36  C   UNL A   1      33.034  34.319  28.245  1.00  0.00     0.251 C 
ATOM     37  H   UNL A   1      31.655  34.054  26.830  1.00  0.00     0.163 HD
ATOM     38  O   UNL A   1      32.612  35.440  28.522  1.00  0.00    -0.269 OA
BRANCH  36  39
ATOM     39  C   UNL A   1      34.225  33.801  28.961  1.00  0.00     0.039 A 
ATOM     40  C   UNL A   1      34.028  32.834  29.953  1.00  0.00     0.014 A 
ATOM     41  C   UNL A   1      35.512  34.293  28.726  1.00  0.00     0.014 A 
ATOM     42  C   UNL A   1      35.119  32.311  30.656  1.00  0.00     0.010 A 
ATOM     43  C   UNL A   1      36.608  33.734  29.392  1.00  0.00     0.010 A 
ATOM     44  C   UNL A   1      36.425  32.731  30.358  1.00  0.00    -0.014 A 
BRANCH  44  45
ATOM     45  C   UNL A   1      37.600  32.097  31.019  1.00  0.00     0.031 A 
ATOM     46  C   UNL A   1      38.393  31.024  30.327  1.00  0.00     0.074 A 
ATOM     47  C   UNL A   1      37.917  32.451  32.281  1.00  0.00     0.049 A 
ATOM     48  N   UNL A   1      39.407  30.325  30.776  1.00  0.00    -0.248 NA
ATOM     49  C   UNL A   1      37.985  30.673  28.958  1.00  0.00     0.031 C 
ATOM     50  C   UNL A   1      37.202  33.443  33.085  1.00  0.00     0.029 A 
ATOM     51  N   UNL A   1      38.912  32.003  33.117  1.00  0.00    -0.354 N 
ATOM     52  C   UNL A   1      39.742  29.440  29.759  1.00  0.00     0.074 A 
ATOM     53  C   UNL A   1      38.808  29.671  28.677  1.00  0.00     0.031 C 
ATOM     54  C   UNL A   1      37.782  33.534  34.291  1.00  0.00     0.029 A 
ATOM     55  C   UNL A   1      38.889  32.585  34.362  1.00  0.00     0.049 A 
ATOM     56  H   UNL A   1      39.577  31.330  32.850  1.00  0.00     0.167 HD
ATOM     57  C   UNL A   1      40.743  28.528  29.726  1.00  0.00     0.037 A 
ATOM     58  C   UNL A   1      39.662  32.370  35.444  1.00  0.00     0.037 A 
ATOM     59  C   UNL A   1      41.701  28.325  30.783  1.00  0.00     0.049 A 
ATOM     60  C   UNL A   1      40.776  31.362  35.370  1.00  0.00     0.074 A 
ATOM     61  C   UNL A   1      42.809  27.495  30.794  1.00  0.00     0.029 A 
ATOM     62  N   UNL A   1      41.663  28.955  32.017  1.00  0.00    -0.354 N 
ATOM     63  N   UNL A   1      41.138  30.600  34.367  1.00  0.00    -0.248 NA
ATOM     64  C   UNL A   1      41.595  31.188  36.579  1.00  0.00     0.031 C 
ATOM     65  C   UNL A   1      43.414  27.586  32.052  1.00  0.00     0.029 A 
ATOM     66  C   UNL A   1      42.710  28.508  32.808  1.00  0.00     0.049 A 
ATOM     67  H   UNL A   1      40.992  29.620  32.293  1.00  0.00     0.167 HD
ATOM     68  C   UNL A   1      42.238  29.880  34.813  1.00  0.00     0.074 A 
ATOM     69  C   UNL A   1      42.498  30.307  36.171  1.00  0.00     0.031 C 
ATOM     70  C   UNL A   1      42.967  28.947  34.155  1.00  0.00     0.037 A 
BRANCH  57  71
ATOM     71  C   UNL A   1      40.871  27.666  28.505  1.00  0.00     0.064 A 
ATOM     72  C   UNL A   1      40.189  26.448  28.388  1.00  0.00     0.173 A 
ATOM     73  C   UNL A   1      41.617  28.110  27.402  1.00  0.00     0.173 A 
ATOM     74  F   UNL A   1      39.466  25.978  29.416  1.00  0.00    -0.203 F 
ATOM     75  C   UNL A   1      40.260  25.696  27.218  1.00  0.00     0.198 A 
ATOM     76  C   UNL A   1      41.667  27.369  26.225  1.00  0.00     0.198 A 
ATOM     77  F   UNL A   1      42.280  29.275  27.457  1.00  0.00    -0.203 F 
ATOM     78  F   UNL A   1      39.620  24.521  27.139  1.00  0.00    -0.200 F 
ATOM     79  C   UNL A   1      40.990  26.161  26.134  1.00  0.00     0.200 A 
ATOM     80  F   UNL A   1      42.361  27.827  25.173  1.00  0.00    -0.200 F 
ATOM     81  F   UNL A   1      41.044  25.445  25.003  1.00  0.00    -0.200 F 
ENDBRANCH  57  71
BRANCH  58  82
ATOM     82  C   UNL A   1      39.416  33.127  36.699  1.00  0.00     0.064 A 
ATOM     83  C   UNL A   1      38.470  32.684  37.633  1.00  0.00     0.173 A 
ATOM     84  C   UNL A   1      40.099  34.320  36.975  1.00  0.00     0.173 A 
ATOM     85  F   UNL A   1      37.776  31.561  37.402  1.00  0.00    -0.203 F 
ATOM     86  C   UNL A   1      38.195  33.422  38.783  1.00  0.00     0.198 A 
ATOM     87  C   UNL A   1      39.843  35.042  38.139  1.00  0.00     0.198 A 
ATOM     88  F   UNL A   1      41.016  34.785  36.114  1.00  0.00    -0.203 F 
ATOM     89  F   UNL A   1      37.246  33.005  39.632  1.00  0.00    -0.200 F 
ATOM     90  C   UNL A   1      38.885  34.598  39.037  1.00  0.00     0.200 A 
ATOM     91  F   UNL A   1      40.521  36.172  38.386  1.00  0.00    -0.200 F 
ATOM     92  F   UNL A   1      38.617  35.309  40.141  1.00  0.00    -0.200 F 
ENDBRANCH  58  82
BRANCH  70  93
ATOM     93  C   UNL A   1      44.136  28.349  34.881  1.00  0.00     0.064 A 
ATOM     94  C   UNL A   1      45.402  28.954  34.859  1.00  0.00     0.173 A 
ATOM     95  C   UNL A   1      43.981  27.175  35.634  1.00  0.00     0.173 A 
ATOM     96  F   UNL A   1      45.604  30.068  34.141  1.00  0.00    -0.203 F 
ATOM     97  C   UNL A   1      46.475  28.390  35.544  1.00  0.00     0.198 A 
ATOM     98  C   UNL A   1      45.049  26.630  36.340  1.00  0.00     0.198 A 
ATOM     99  F   UNL A   1      42.790  26.561  35.691  1.00  0.00    -0.203 F 
ATOM    100  F   UNL A   1      47.687  28.959  35.470  1.00  0.00    -0.200 F 
ATOM    101  C   UNL A   1      46.297  27.234  36.288  1.00  0.00     0.200 A 
ATOM    102  F   UNL A   1      44.874  25.518  37.068  1.00  0.00    -0.200 F 
ATOM    103  F   UNL A   1      47.331  26.695  36.951  1.00  0.00    -0.200 F 
ENDBRANCH  70  93
ENDBRANCH  44  45
ENDBRANCH  36  39
ENDBRANCH  34  35
ENDBRANCH  33  34
ENDBRANCH   1  33
TORSDOF 15
ENDMDL
