MODEL 1
REMARK VINA RESULT:     -10.7      0.000      0.000
REMARK SMILES CC[C@H](CC#N)[NH2+]Cc1cc(C(=O)NCCCNC(=O)c2ccc(-c3c4nc(c(-c5c(F)c(F)c(F)c(F)c5F)c5ccc([nH]5)c(-c5c(F)c(F)c(F)c(F)c5F)c5nc(c(-c6c(F)c(F)c(F)c(F)c6F)c6ccc3[nH]6)C=C5)C=C4)cc2)cs1
REMARK SMILES IDX 12 1 13 2 14 3 11 5 9 6 10 7 85 8 84 9 8 10 7 11 3 14 2 15
REMARK SMILES IDX 1 16 4 17 5 18 6 19 15 20 16 21 17 22 18 23 19 24 20 26
REMARK SMILES IDX 21 27 22 28 83 29 23 30 82 31 24 32 25 33 26 34 76 35 27 36
REMARK SMILES IDX 81 37 75 38 77 39 28 40 80 41 74 42 73 43 29 45 61 46 41 47
REMARK SMILES IDX 60 48 42 49 45 50 59 51 78 52 43 53 44 54 58 56 79 57 46 58
REMARK SMILES IDX 30 59 31 60 39 61 32 62 33 63 37 64 40 65 34 66 35 67 38 68
REMARK SMILES IDX 36 69 62 70 63 71 71 72 64 73 65 74 69 75 72 76 66 77 67 78
REMARK SMILES IDX 70 79 68 80 47 81 48 82 56 83 49 84 50 85 54 86 57 87 51 88
REMARK SMILES IDX 52 89 55 90 53 91
REMARK H PARENT 14 4 7 12 7 13 18 25 77 44 45 55
REMARK Flexibility Score: inf
ROOT
ATOM      1  C   UNL A   1      33.770  29.436  26.399  1.00  0.00     0.252 C 
ATOM      2  O   UNL A   1      34.880  29.252  26.903  1.00  0.00    -0.269 OA
ATOM      3  N   UNL A   1      32.938  30.297  27.077  1.00  0.00    -0.352 N 
ATOM      4  H   UNL A   1      33.366  30.708  27.862  1.00  0.00     0.163 HD
ENDROOT
BRANCH   1   5
ATOM      5  C   UNL A   1      33.350  28.694  25.203  1.00  0.00     0.051 A 
ATOM      6  C   UNL A   1      32.219  28.157  23.220  1.00  0.00     0.059 A 
ATOM      7  C   UNL A   1      32.889  29.146  23.921  1.00  0.00     0.035 A 
ATOM      8  S   UNL A   1      32.633  26.613  23.823  1.00  0.00    -0.142 S 
ATOM      9  C   UNL A   1      33.391  27.306  25.193  1.00  0.00     0.079 A 
BRANCH   6  10
ATOM     10  C   UNL A   1      31.228  28.332  22.101  1.00  0.00     0.308 C 
BRANCH  10  11
ATOM     11  N   UNL A   1      30.845  29.744  21.851  1.00  0.00    -0.339 N 
ATOM     12  H   UNL A   1      31.542  30.340  22.294  1.00  0.00     0.346 HD
ATOM     13  H   UNL A   1      30.800  29.843  20.836  1.00  0.00     0.346 HD
BRANCH  11  14
ATOM     14  C   UNL A   1      29.514  30.145  22.355  1.00  0.00     0.196 C 
BRANCH  14  15
ATOM     15  C   UNL A   1      28.805  28.916  22.993  1.00  0.00     0.063 C 
ATOM     16  C   UNL A   1      27.289  28.870  23.060  1.00  0.00     0.010 C 
ENDBRANCH  14  15
BRANCH  14  17
ATOM     17  C   UNL A   1      28.636  30.814  21.278  1.00  0.00     0.184 C 
BRANCH  17  18
ATOM     18  C   UNL A   1      28.281  32.206  21.577  1.00  0.00     0.068 C 
ATOM     19  N   UNL A   1      28.059  33.332  21.765  1.00  0.00    -0.198 NA
ENDBRANCH  17  18
ENDBRANCH  14  17
ENDBRANCH  11  14
ENDBRANCH  10  11
ENDBRANCH   6  10
ENDBRANCH   1   5
BRANCH   3  20
ATOM     20  C   UNL A   1      31.566  30.731  26.885  1.00  0.00     0.118 C 
BRANCH  20  21
ATOM     21  C   UNL A   1      31.413  32.249  26.873  1.00  0.00     0.042 C 
BRANCH  21  22
ATOM     22  C   UNL A   1      32.717  33.022  26.943  1.00  0.00     0.118 C 
BRANCH  22  23
ATOM     23  N   UNL A   1      32.582  34.278  27.663  1.00  0.00    -0.352 N 
ATOM     24  C   UNL A   1      33.179  34.726  28.813  1.00  0.00     0.251 C 
ATOM     25  H   UNL A   1      31.954  34.916  27.255  1.00  0.00     0.163 HD
ATOM     26  O   UNL A   1      32.744  35.741  29.351  1.00  0.00    -0.269 OA
BRANCH  24  27
ATOM     27  C   UNL A   1      34.324  34.010  29.421  1.00  0.00     0.039 A 
ATOM     28  C   UNL A   1      35.619  34.429  29.100  1.00  0.00     0.014 A 
ATOM     29  C   UNL A   1      34.145  32.899  30.248  1.00  0.00     0.014 A 
ATOM     30  C   UNL A   1      36.721  33.759  29.634  1.00  0.00     0.010 A 
ATOM     31  C   UNL A   1      35.239  32.305  30.870  1.00  0.00     0.010 A 
ATOM     32  C   UNL A   1      36.541  32.709  30.548  1.00  0.00    -0.014 A 
BRANCH  32  33
ATOM     33  C   UNL A   1      37.705  31.998  31.138  1.00  0.00     0.031 A 
ATOM     34  C   UNL A   1      38.178  32.343  32.526  1.00  0.00     0.074 A 
ATOM     35  C   UNL A   1      38.352  31.064  30.415  1.00  0.00     0.049 A 
ATOM     36  N   UNL A   1      39.195  31.863  33.197  1.00  0.00    -0.248 NA
ATOM     37  C   UNL A   1      37.427  33.385  33.245  1.00  0.00     0.031 C 
ATOM     38  C   UNL A   1      38.017  30.673  29.045  1.00  0.00     0.029 A 
ATOM     39  N   UNL A   1      39.429  30.273  30.731  1.00  0.00    -0.354 N 
ATOM     40  C   UNL A   1      39.200  32.541  34.411  1.00  0.00     0.074 A 
ATOM     41  C   UNL A   1      38.140  33.521  34.353  1.00  0.00     0.031 C 
ATOM     42  C   UNL A   1      38.850  29.698  28.649  1.00  0.00     0.029 A 
ATOM     43  C   UNL A   1      39.808  29.430  29.716  1.00  0.00     0.049 A 
ATOM     44  H   UNL A   1      39.887  30.308  31.602  1.00  0.00     0.167 HD
ATOM     45  C   UNL A   1      39.991  32.338  35.491  1.00  0.00     0.037 A 
ATOM     46  C   UNL A   1      40.825  28.549  29.648  1.00  0.00     0.037 A 
ATOM     47  C   UNL A   1      41.045  31.358  35.545  1.00  0.00     0.049 A 
ATOM     48  C   UNL A   1      41.718  28.375  30.848  1.00  0.00     0.074 A 
ATOM     49  C   UNL A   1      41.893  31.059  36.597  1.00  0.00     0.029 A 
ATOM     50  N   UNL A   1      41.398  30.521  34.497  1.00  0.00    -0.354 N 
ATOM     51  N   UNL A   1      41.677  28.982  32.010  1.00  0.00    -0.248 NA
ATOM     52  C   UNL A   1      42.792  27.380  30.731  1.00  0.00     0.031 C 
ATOM     53  C   UNL A   1      42.798  30.085  36.165  1.00  0.00     0.029 A 
ATOM     54  C   UNL A   1      42.465  29.718  34.871  1.00  0.00     0.049 A 
ATOM     55  H   UNL A   1      40.956  30.499  33.617  1.00  0.00     0.167 HD
ATOM     56  C   UNL A   1      42.690  28.416  32.773  1.00  0.00     0.074 A 
ATOM     57  C   UNL A   1      43.316  27.405  31.948  1.00  0.00     0.031 C 
ATOM     58  C   UNL A   1      43.069  28.707  34.043  1.00  0.00     0.037 A 
BRANCH  45  59
ATOM     59  C   UNL A   1      39.742  33.189  36.706  1.00  0.00     0.064 A 
ATOM     60  C   UNL A   1      38.800  32.822  37.680  1.00  0.00     0.173 A 
ATOM     61  C   UNL A   1      40.477  34.365  36.919  1.00  0.00     0.173 A 
ATOM     62  F   UNL A   1      38.060  31.714  37.522  1.00  0.00    -0.203 F 
ATOM     63  C   UNL A   1      38.579  33.616  38.803  1.00  0.00     0.198 A 
ATOM     64  C   UNL A   1      40.283  35.136  38.063  1.00  0.00     0.198 A 
ATOM     65  F   UNL A   1      41.395  34.763  36.026  1.00  0.00    -0.203 F 
ATOM     66  F   UNL A   1      37.633  33.275  39.687  1.00  0.00    -0.200 F 
ATOM     67  C   UNL A   1      39.328  34.767  38.998  1.00  0.00     0.200 A 
ATOM     68  F   UNL A   1      41.019  36.238  38.259  1.00  0.00    -0.200 F 
ATOM     69  F   UNL A   1      39.123  35.525  40.085  1.00  0.00    -0.200 F 
ENDBRANCH  45  59
BRANCH  46  70
ATOM     70  C   UNL A   1      41.056  27.765  28.404  1.00  0.00     0.064 A 
ATOM     71  C   UNL A   1      40.479  26.500  28.220  1.00  0.00     0.173 A 
ATOM     72  C   UNL A   1      41.889  28.252  27.385  1.00  0.00     0.173 A 
ATOM     73  F   UNL A   1      39.686  25.982  29.170  1.00  0.00    -0.203 F 
ATOM     74  C   UNL A   1      40.760  25.736  27.089  1.00  0.00     0.198 A 
ATOM     75  C   UNL A   1      42.137  27.505  26.235  1.00  0.00     0.198 A 
ATOM     76  F   UNL A   1      42.459  29.461  27.502  1.00  0.00    -0.203 F 
ATOM     77  F   UNL A   1      40.254  24.501  26.976  1.00  0.00    -0.200 F 
ATOM     78  C   UNL A   1      41.586  26.241  26.096  1.00  0.00     0.200 A 
ATOM     79  F   UNL A   1      42.918  28.006  25.270  1.00  0.00    -0.200 F 
ATOM     80  F   UNL A   1      41.860  25.504  25.011  1.00  0.00    -0.200 F 
ENDBRANCH  46  70
BRANCH  58  81
ATOM     81  C   UNL A   1      44.172  27.876  34.640  1.00  0.00     0.064 A 
ATOM     82  C   UNL A   1      43.922  26.661  35.293  1.00  0.00     0.173 A 
ATOM     83  C   UNL A   1      45.507  28.300  34.537  1.00  0.00     0.173 A 
ATOM     84  F   UNL A   1      42.664  26.213  35.429  1.00  0.00    -0.203 F 
ATOM     85  C   UNL A   1      44.959  25.926  35.862  1.00  0.00     0.198 A 
ATOM     86  C   UNL A   1      46.545  27.541  35.068  1.00  0.00     0.198 A 
ATOM     87  F   UNL A   1      45.807  29.449  33.912  1.00  0.00    -0.203 F 
ATOM     88  F   UNL A   1      44.687  24.806  36.545  1.00  0.00    -0.200 F 
ATOM     89  C   UNL A   1      46.270  26.362  35.743  1.00  0.00     0.200 A 
ATOM     90  F   UNL A   1      47.812  27.954  34.931  1.00  0.00    -0.200 F 
ATOM     91  F   UNL A   1      47.267  25.651  36.286  1.00  0.00    -0.200 F 
ENDBRANCH  58  81
ENDBRANCH  32  33
ENDBRANCH  24  27
ENDBRANCH  22  23
ENDBRANCH  21  22
ENDBRANCH  20  21
ENDBRANCH   3  20
TORSDOF 16
ENDMDL
MODEL 2
REMARK VINA RESULT:     -10.5      6.439     11.728
REMARK SMILES CC[C@H](CC#N)[NH2+]Cc1cc(C(=O)NCCCNC(=O)c2ccc(-c3c4nc(c(-c5c(F)c(F)c(F)c(F)c5F)c5ccc([nH]5)c(-c5c(F)c(F)c(F)c(F)c5F)c5nc(c(-c6c(F)c(F)c(F)c(F)c6F)c6ccc3[nH]6)C=C5)C=C4)cc2)cs1
REMARK SMILES IDX 12 1 13 2 14 3 11 5 9 6 10 7 85 8 84 9 8 10 7 11 3 14 2 15
REMARK SMILES IDX 1 16 4 17 5 18 6 19 15 20 16 21 17 22 18 23 19 24 20 26
REMARK SMILES IDX 21 27 22 28 83 29 23 30 82 31 24 32 25 33 26 34 76 35 27 36
REMARK SMILES IDX 81 37 75 38 77 39 28 40 80 41 74 42 73 43 29 45 61 46 41 47
REMARK SMILES IDX 60 48 42 49 45 50 59 51 78 52 43 53 44 54 58 56 79 57 46 58
REMARK SMILES IDX 30 59 31 60 39 61 32 62 33 63 37 64 40 65 34 66 35 67 38 68
REMARK SMILES IDX 36 69 62 70 63 71 71 72 64 73 65 74 69 75 72 76 66 77 67 78
REMARK SMILES IDX 70 79 68 80 47 81 48 82 56 83 49 84 50 85 54 86 57 87 51 88
REMARK SMILES IDX 52 89 55 90 53 91
REMARK H PARENT 14 4 7 12 7 13 18 25 77 44 45 55
REMARK Flexibility Score: inf
ROOT
ATOM      1  C   UNL A   1      37.095  22.911  25.740  1.00  0.00     0.252 C 
ATOM      2  O   UNL A   1      37.645  23.930  26.165  1.00  0.00    -0.269 OA
ATOM      3  N   UNL A   1      37.907  22.022  25.076  1.00  0.00    -0.352 N 
ATOM      4  H   UNL A   1      38.854  22.292  25.074  1.00  0.00     0.163 HD
ENDROOT
BRANCH   1   5
ATOM      5  C   UNL A   1      35.643  22.729  25.864  1.00  0.00     0.051 A 
ATOM      6  C   UNL A   1      33.530  21.713  25.800  1.00  0.00     0.059 A 
ATOM      7  C   UNL A   1      34.857  21.569  26.173  1.00  0.00     0.035 A 
ATOM      8  S   UNL A   1      33.135  23.366  25.625  1.00  0.00    -0.142 S 
ATOM      9  C   UNL A   1      34.787  23.810  25.697  1.00  0.00     0.079 A 
BRANCH   6  10
ATOM     10  C   UNL A   1      32.525  20.625  25.533  1.00  0.00     0.308 C 
BRANCH  10  11
ATOM     11  N   UNL A   1      32.904  19.305  26.094  1.00  0.00    -0.339 N 
ATOM     12  H   UNL A   1      33.764  19.426  26.627  1.00  0.00     0.346 HD
ATOM     13  H   UNL A   1      32.108  19.003  26.656  1.00  0.00     0.346 HD
BRANCH  11  14
ATOM     14  C   UNL A   1      33.130  18.230  25.103  1.00  0.00     0.196 C 
BRANCH  14  15
ATOM     15  C   UNL A   1      32.152  18.408  23.908  1.00  0.00     0.063 C 
ATOM     16  C   UNL A   1      32.614  18.080  22.498  1.00  0.00     0.010 C 
ENDBRANCH  14  15
BRANCH  14  17
ATOM     17  C   UNL A   1      33.036  16.816  25.713  1.00  0.00     0.184 C 
BRANCH  17  18
ATOM     18  C   UNL A   1      34.166  15.944  25.376  1.00  0.00     0.068 C 
ATOM     19  N   UNL A   1      35.013  15.189  25.120  1.00  0.00    -0.198 NA
ENDBRANCH  17  18
ENDBRANCH  14  17
ENDBRANCH  11  14
ENDBRANCH  10  11
ENDBRANCH   6  10
ENDBRANCH   1   5
BRANCH   3  20
ATOM     20  C   UNL A   1      37.672  20.772  24.375  1.00  0.00     0.118 C 
BRANCH  20  21
ATOM     21  C   UNL A   1      38.403  19.588  25.001  1.00  0.00     0.042 C 
BRANCH  21  22
ATOM     22  C   UNL A   1      39.319  19.942  26.158  1.00  0.00     0.118 C 
BRANCH  22  23
ATOM     23  N   UNL A   1      40.570  19.201  26.124  1.00  0.00    -0.352 N 
ATOM     24  C   UNL A   1      41.872  19.631  26.121  1.00  0.00     0.251 C 
ATOM     25  H   UNL A   1      40.464  18.223  26.099  1.00  0.00     0.163 HD
ATOM     26  O   UNL A   1      42.762  18.823  25.871  1.00  0.00    -0.269 OA
BRANCH  24  27
ATOM     27  C   UNL A   1      42.222  21.042  26.403  1.00  0.00     0.039 A 
ATOM     28  C   UNL A   1      42.452  21.420  27.729  1.00  0.00     0.014 A 
ATOM     29  C   UNL A   1      42.265  22.007  25.394  1.00  0.00     0.014 A 
ATOM     30  C   UNL A   1      42.758  22.748  28.033  1.00  0.00     0.010 A 
ATOM     31  C   UNL A   1      42.682  23.304  25.682  1.00  0.00     0.010 A 
ATOM     32  C   UNL A   1      42.905  23.697  27.008  1.00  0.00    -0.014 A 
BRANCH  32  33
ATOM     33  C   UNL A   1      43.248  25.109  27.315  1.00  0.00     0.031 A 
ATOM     34  C   UNL A   1      44.631  25.632  27.028  1.00  0.00     0.074 A 
ATOM     35  C   UNL A   1      42.323  25.913  27.877  1.00  0.00     0.049 A 
ATOM     36  N   UNL A   1      45.132  26.820  27.259  1.00  0.00    -0.248 NA
ATOM     37  C   UNL A   1      45.588  24.688  26.427  1.00  0.00     0.031 C 
ATOM     38  C   UNL A   1      40.964  25.511  28.243  1.00  0.00     0.029 A 
ATOM     39  N   UNL A   1      42.388  27.234  28.242  1.00  0.00    -0.354 N 
ATOM     40  C   UNL A   1      46.452  26.763  26.829  1.00  0.00     0.074 A 
ATOM     41  C   UNL A   1      46.700  25.405  26.402  1.00  0.00     0.031 C 
ATOM     42  C   UNL A   1      40.314  26.569  28.751  1.00  0.00     0.029 A 
ATOM     43  C   UNL A   1      41.224  27.709  28.794  1.00  0.00     0.049 A 
ATOM     44  H   UNL A   1      43.192  27.789  28.119  1.00  0.00     0.167 HD
ATOM     45  C   UNL A   1      47.364  27.761  26.761  1.00  0.00     0.037 A 
ATOM     46  C   UNL A   1      40.928  28.925  29.293  1.00  0.00     0.037 A 
ATOM     47  C   UNL A   1      47.112  29.114  27.187  1.00  0.00     0.049 A 
ATOM     48  C   UNL A   1      41.976  30.006  29.246  1.00  0.00     0.074 A 
ATOM     49  C   UNL A   1      47.962  30.205  27.143  1.00  0.00     0.029 A 
ATOM     50  N   UNL A   1      45.919  29.557  27.740  1.00  0.00    -0.354 N 
ATOM     51  N   UNL A   1      43.203  29.954  28.785  1.00  0.00    -0.248 NA
ATOM     52  C   UNL A   1      41.591  31.320  29.776  1.00  0.00     0.031 C 
ATOM     53  C   UNL A   1      47.305  31.293  27.726  1.00  0.00     0.029 A 
ATOM     54  C   UNL A   1      46.018  30.902  28.060  1.00  0.00     0.049 A 
ATOM     55  H   UNL A   1      45.121  28.999  27.883  1.00  0.00     0.167 HD
ATOM     56  C   UNL A   1      43.721  31.234  28.933  1.00  0.00     0.074 A 
ATOM     57  C   UNL A   1      42.668  32.044  29.509  1.00  0.00     0.031 C 
ATOM     58  C   UNL A   1      44.957  31.698  28.621  1.00  0.00     0.037 A 
BRANCH  45  59
ATOM     59  C   UNL A   1      48.720  27.429  26.200  1.00  0.00     0.064 A 
ATOM     60  C   UNL A   1      49.787  27.050  27.030  1.00  0.00     0.173 A 
ATOM     61  C   UNL A   1      48.947  27.453  24.815  1.00  0.00     0.173 A 
ATOM     62  F   UNL A   1      49.630  27.021  28.362  1.00  0.00    -0.203 F 
ATOM     63  C   UNL A   1      51.037  26.741  26.499  1.00  0.00     0.198 A 
ATOM     64  C   UNL A   1      50.186  27.105  24.285  1.00  0.00     0.198 A 
ATOM     65  F   UNL A   1      47.963  27.801  23.973  1.00  0.00    -0.203 F 
ATOM     66  F   UNL A   1      52.055  26.441  27.316  1.00  0.00    -0.200 F 
ATOM     67  C   UNL A   1      51.233  26.760  25.126  1.00  0.00     0.200 A 
ATOM     68  F   UNL A   1      50.370  27.105  22.957  1.00  0.00    -0.200 F 
ATOM     69  F   UNL A   1      52.433  26.452  24.616  1.00  0.00    -0.200 F 
ENDBRANCH  45  59
BRANCH  46  70
ATOM     70  C   UNL A   1      39.586  29.187  29.881  1.00  0.00     0.064 A 
ATOM     71  C   UNL A   1      38.536  29.698  29.103  1.00  0.00     0.173 A 
ATOM     72  C   UNL A   1      39.335  28.966  31.243  1.00  0.00     0.173 A 
ATOM     73  F   UNL A   1      38.727  29.941  27.798  1.00  0.00    -0.203 F 
ATOM     74  C   UNL A   1      37.305  30.016  29.674  1.00  0.00     0.198 A 
ATOM     75  C   UNL A   1      38.091  29.246  31.804  1.00  0.00     0.198 A 
ATOM     76  F   UNL A   1      40.300  28.469  32.033  1.00  0.00    -0.203 F 
ATOM     77  F   UNL A   1      36.345  30.571  28.922  1.00  0.00    -0.200 F 
ATOM     78  C   UNL A   1      37.082  29.786  31.023  1.00  0.00     0.200 A 
ATOM     79  F   UNL A   1      37.875  29.001  33.103  1.00  0.00    -0.200 F 
ATOM     80  F   UNL A   1      35.900  30.096  31.572  1.00  0.00    -0.200 F 
ENDBRANCH  46  70
BRANCH  58  81
ATOM     81  C   UNL A   1      45.216  33.165  28.836  1.00  0.00     0.064 A 
ATOM     82  C   UNL A   1      44.919  34.127  27.860  1.00  0.00     0.173 A 
ATOM     83  C   UNL A   1      45.757  33.613  30.052  1.00  0.00     0.173 A 
ATOM     84  F   UNL A   1      44.411  33.753  26.675  1.00  0.00    -0.203 F 
ATOM     85  C   UNL A   1      45.196  35.474  28.074  1.00  0.00     0.198 A 
ATOM     86  C   UNL A   1      45.991  34.965  30.280  1.00  0.00     0.198 A 
ATOM     87  F   UNL A   1      46.049  32.739  31.027  1.00  0.00    -0.203 F 
ATOM     88  F   UNL A   1      44.971  36.365  27.099  1.00  0.00    -0.200 F 
ATOM     89  C   UNL A   1      45.725  35.894  29.286  1.00  0.00     0.200 A 
ATOM     90  F   UNL A   1      46.480  35.369  31.460  1.00  0.00    -0.200 F 
ATOM     91  F   UNL A   1      45.986  37.191  29.492  1.00  0.00    -0.200 F 
ENDBRANCH  58  81
ENDBRANCH  32  33
ENDBRANCH  24  27
ENDBRANCH  22  23
ENDBRANCH  21  22
ENDBRANCH  20  21
ENDBRANCH   3  20
TORSDOF 16
ENDMDL
MODEL 3
REMARK VINA RESULT:     -10.5      0.507      7.526
REMARK SMILES CC[C@H](CC#N)[NH2+]Cc1cc(C(=O)NCCCNC(=O)c2ccc(-c3c4nc(c(-c5c(F)c(F)c(F)c(F)c5F)c5ccc([nH]5)c(-c5c(F)c(F)c(F)c(F)c5F)c5nc(c(-c6c(F)c(F)c(F)c(F)c6F)c6ccc3[nH]6)C=C5)C=C4)cc2)cs1
REMARK SMILES IDX 12 1 13 2 14 3 11 5 9 6 10 7 85 8 84 9 8 10 7 11 3 14 2 15
REMARK SMILES IDX 1 16 4 17 5 18 6 19 15 20 16 21 17 22 18 23 19 24 20 26
REMARK SMILES IDX 21 27 22 28 83 29 23 30 82 31 24 32 25 33 26 34 76 35 27 36
REMARK SMILES IDX 81 37 75 38 77 39 28 40 80 41 74 42 73 43 29 45 61 46 41 47
REMARK SMILES IDX 60 48 42 49 45 50 59 51 78 52 43 53 44 54 58 56 79 57 46 58
REMARK SMILES IDX 30 59 31 60 39 61 32 62 33 63 37 64 40 65 34 66 35 67 38 68
REMARK SMILES IDX 36 69 62 70 63 71 71 72 64 73 65 74 69 75 72 76 66 77 67 78
REMARK SMILES IDX 70 79 68 80 47 81 48 82 56 83 49 84 50 85 54 86 57 87 51 88
REMARK SMILES IDX 52 89 55 90 53 91
REMARK H PARENT 14 4 7 12 7 13 18 25 77 44 45 55
REMARK Flexibility Score: inf
ROOT
ATOM      1  C   UNL A   1      33.683  29.289  26.383  1.00  0.00     0.252 C 
ATOM      2  O   UNL A   1      34.805  29.107  26.859  1.00  0.00    -0.269 OA
ATOM      3  N   UNL A   1      32.898  30.215  27.030  1.00  0.00    -0.352 N 
ATOM      4  H   UNL A   1      33.364  30.665  27.772  1.00  0.00     0.163 HD
ENDROOT
BRANCH   1   5
ATOM      5  C   UNL A   1      33.202  28.482  25.254  1.00  0.00     0.051 A 
ATOM      6  C   UNL A   1      31.970  27.840  23.364  1.00  0.00     0.059 A 
ATOM      7  C   UNL A   1      32.677  28.863  23.973  1.00  0.00     0.035 A 
ATOM      8  S   UNL A   1      32.411  26.330  24.032  1.00  0.00    -0.142 S 
ATOM      9  C   UNL A   1      33.239  27.096  25.320  1.00  0.00     0.079 A 
BRANCH   6  10
ATOM     10  C   UNL A   1      30.924  27.955  22.288  1.00  0.00     0.308 C 
BRANCH  10  11
ATOM     11  N   UNL A   1      30.724  29.338  21.789  1.00  0.00    -0.339 N 
ATOM     12  H   UNL A   1      31.572  29.868  21.985  1.00  0.00     0.346 HD
ATOM     13  H   UNL A   1      30.513  29.247  20.795  1.00  0.00     0.346 HD
BRANCH  11  14
ATOM     14  C   UNL A   1      29.583  30.072  22.379  1.00  0.00     0.196 C 
BRANCH  14  15
ATOM     15  C   UNL A   1      28.720  29.098  23.230  1.00  0.00     0.063 C 
ATOM     16  C   UNL A   1      27.227  28.989  22.970  1.00  0.00     0.010 C 
ENDBRANCH  14  15
BRANCH  14  17
ATOM     17  C   UNL A   1      28.735  30.817  21.327  1.00  0.00     0.184 C 
BRANCH  17  18
ATOM     18  C   UNL A   1      28.404  32.197  21.695  1.00  0.00     0.068 C 
ATOM     19  N   UNL A   1      28.065  33.269  21.996  1.00  0.00    -0.198 NA
ENDBRANCH  17  18
ENDBRANCH  14  17
ENDBRANCH  11  14
ENDBRANCH  10  11
ENDBRANCH   6  10
ENDBRANCH   1   5
BRANCH   3  20
ATOM     20  C   UNL A   1      31.531  30.674  26.856  1.00  0.00     0.118 C 
BRANCH  20  21
ATOM     21  C   UNL A   1      31.412  32.194  26.802  1.00  0.00     0.042 C 
BRANCH  21  22
ATOM     22  C   UNL A   1      32.721  32.944  26.964  1.00  0.00     0.118 C 
BRANCH  22  23
ATOM     23  N   UNL A   1      32.547  34.234  27.611  1.00  0.00    -0.352 N 
ATOM     24  C   UNL A   1      33.134  34.768  28.729  1.00  0.00     0.251 C 
ATOM     25  H   UNL A   1      31.896  34.826  27.170  1.00  0.00     0.163 HD
ATOM     26  O   UNL A   1      32.668  35.798  29.209  1.00  0.00    -0.269 OA
BRANCH  24  27
ATOM     27  C   UNL A   1      34.306  34.127  29.369  1.00  0.00     0.039 A 
ATOM     28  C   UNL A   1      34.083  33.122  30.314  1.00  0.00     0.014 A 
ATOM     29  C   UNL A   1      35.612  34.542  29.100  1.00  0.00     0.014 A 
ATOM     30  C   UNL A   1      35.165  32.515  30.956  1.00  0.00     0.010 A 
ATOM     31  C   UNL A   1      36.692  33.860  29.653  1.00  0.00     0.010 A 
ATOM     32  C   UNL A   1      36.481  32.859  30.610  1.00  0.00    -0.014 A 
BRANCH  32  33
ATOM     33  C   UNL A   1      37.642  32.209  31.271  1.00  0.00     0.031 A 
ATOM     34  C   UNL A   1      38.405  31.121  30.563  1.00  0.00     0.074 A 
ATOM     35  C   UNL A   1      37.991  32.578  32.519  1.00  0.00     0.049 A 
ATOM     36  N   UNL A   1      39.420  30.410  30.987  1.00  0.00    -0.248 NA
ATOM     37  C   UNL A   1      37.953  30.764  29.208  1.00  0.00     0.031 C 
ATOM     38  C   UNL A   1      37.302  33.588  33.325  1.00  0.00     0.029 A 
ATOM     39  N   UNL A   1      39.011  32.146  33.329  1.00  0.00    -0.354 N 
ATOM     40  C   UNL A   1      39.724  29.531  29.955  1.00  0.00     0.074 A 
ATOM     41  C   UNL A   1      38.739  29.739  28.918  1.00  0.00     0.031 C 
ATOM     42  C   UNL A   1      37.936  33.719  34.501  1.00  0.00     0.029 A 
ATOM     43  C   UNL A   1      39.043  32.769  34.553  1.00  0.00     0.049 A 
ATOM     44  H   UNL A   1      39.657  31.454  33.060  1.00  0.00     0.167 HD
ATOM     45  C   UNL A   1      40.754  28.657  29.862  1.00  0.00     0.037 A 
ATOM     46  C   UNL A   1      39.864  32.585  35.604  1.00  0.00     0.037 A 
ATOM     47  C   UNL A   1      41.735  28.454  30.897  1.00  0.00     0.049 A 
ATOM     48  C   UNL A   1      40.974  31.574  35.491  1.00  0.00     0.074 A 
ATOM     49  C   UNL A   1      42.829  27.607  30.896  1.00  0.00     0.029 A 
ATOM     50  N   UNL A   1      41.735  29.106  32.122  1.00  0.00    -0.354 N 
ATOM     51  N   UNL A   1      41.285  30.789  34.487  1.00  0.00    -0.248 NA
ATOM     52  C   UNL A   1      41.859  31.433  36.655  1.00  0.00     0.031 C 
ATOM     53  C   UNL A   1      43.454  27.701  32.142  1.00  0.00     0.029 A 
ATOM     54  C   UNL A   1      42.799  28.664  32.892  1.00  0.00     0.049 A 
ATOM     55  H   UNL A   1      41.077  29.783  32.402  1.00  0.00     0.167 HD
ATOM     56  C   UNL A   1      42.421  30.094  34.882  1.00  0.00     0.074 A 
ATOM     57  C   UNL A   1      42.754  30.564  36.211  1.00  0.00     0.031 C 
ATOM     58  C   UNL A   1      43.125  29.151  34.208  1.00  0.00     0.037 A 
BRANCH  45  59
ATOM     59  C   UNL A   1      40.877  27.857  28.593  1.00  0.00     0.064 A 
ATOM     60  C   UNL A   1      41.667  28.298  27.520  1.00  0.00     0.173 A 
ATOM     61  C   UNL A   1      40.228  26.620  28.461  1.00  0.00     0.173 A 
ATOM     62  F   UNL A   1      42.300  29.478  27.587  1.00  0.00    -0.203 F 
ATOM     63  C   UNL A   1      41.776  27.548  26.351  1.00  0.00     0.198 A 
ATOM     64  C   UNL A   1      40.371  25.854  27.307  1.00  0.00     0.198 A 
ATOM     65  F   UNL A   1      39.464  26.146  29.456  1.00  0.00    -0.203 F 
ATOM     66  F   UNL A   1      42.488  28.019  25.319  1.00  0.00    -0.200 F 
ATOM     67  C   UNL A   1      41.136  26.323  26.250  1.00  0.00     0.200 A 
ATOM     68  F   UNL A   1      39.766  24.662  27.217  1.00  0.00    -0.200 F 
ATOM     69  F   UNL A   1      41.250  25.596  25.129  1.00  0.00    -0.200 F 
ENDBRANCH  45  59
BRANCH  46  70
ATOM     70  C   UNL A   1      39.669  33.369  36.854  1.00  0.00     0.064 A 
ATOM     71  C   UNL A   1      38.761  32.957  37.840  1.00  0.00     0.173 A 
ATOM     72  C   UNL A   1      40.363  34.569  37.073  1.00  0.00     0.173 A 
ATOM     73  F   UNL A   1      38.061  31.825  37.674  1.00  0.00    -0.203 F 
ATOM     74  C   UNL A   1      38.524  33.734  38.972  1.00  0.00     0.198 A 
ATOM     75  C   UNL A   1      40.156  35.324  38.224  1.00  0.00     0.198 A 
ATOM     76  F   UNL A   1      41.252  35.006  36.168  1.00  0.00    -0.203 F 
ATOM     77  F   UNL A   1      37.596  33.353  39.861  1.00  0.00    -0.200 F 
ATOM     78  C   UNL A   1      39.224  34.915  39.165  1.00  0.00     0.200 A 
ATOM     79  F   UNL A   1      40.851  36.453  38.416  1.00  0.00    -0.200 F 
ATOM     80  F   UNL A   1      38.992  35.665  40.251  1.00  0.00    -0.200 F 
ENDBRANCH  46  70
BRANCH  58  81
ATOM     81  C   UNL A   1      44.364  28.612  34.870  1.00  0.00     0.064 A 
ATOM     82  C   UNL A   1      44.347  27.445  35.648  1.00  0.00     0.173 A 
ATOM     83  C   UNL A   1      45.594  29.268  34.703  1.00  0.00     0.173 A 
ATOM     84  F   UNL A   1      43.197  26.783  35.849  1.00  0.00    -0.203 F 
ATOM     85  C   UNL A   1      45.502  26.983  36.273  1.00  0.00     0.198 A 
ATOM     86  C   UNL A   1      46.756  28.779  35.293  1.00  0.00     0.198 A 
ATOM     87  F   UNL A   1      45.673  30.382  33.959  1.00  0.00    -0.203 F 
ATOM     88  F   UNL A   1      45.445  25.909  37.071  1.00  0.00    -0.200 F 
ATOM     89  C   UNL A   1      46.707  27.646  36.089  1.00  0.00     0.200 A 
ATOM     90  F   UNL A   1      47.922  29.408  35.094  1.00  0.00    -0.200 F 
ATOM     91  F   UNL A   1      47.819  27.197  36.687  1.00  0.00    -0.200 F 
ENDBRANCH  58  81
ENDBRANCH  32  33
ENDBRANCH  24  27
ENDBRANCH  22  23
ENDBRANCH  21  22
ENDBRANCH  20  21
ENDBRANCH   3  20
TORSDOF 16
ENDMDL
