MODEL 1
REMARK VINA RESULT:     -12.1      0.000      0.000
REMARK SMILES CC(C)(C)N(CC(=O)NCCCNC(=O)c1ccc(-c2c3nc(c(-c4c(F)c(F)c(F)c(F)c4F)c4ccc([nH]4)c(-c4c(F)c(F)c(F)c(F)c4F)c4nc(c(-c5c(F)c(F)c(F)c(F)c5F)c5ccc2[nH]5)C=C4)C=C3)cc1)C(=O)Nc1ccc([N+](=O)[O-])cc1
REMARK SMILES IDX 10 1 9 2 7 3 8 4 6 6 5 7 2 8 1 9 3 10 4 11 79 12 80 13 81 14
REMARK SMILES IDX 82 16 83 17 90 18 84 19 89 20 85 21 86 22 87 23 88 24 11 25
REMARK SMILES IDX 12 26 13 27 14 28 15 30 16 31 17 32 78 33 18 34 77 35 19 36
REMARK SMILES IDX 20 37 21 38 71 39 22 40 76 41 70 42 72 43 23 44 75 45 69 46
REMARK SMILES IDX 68 47 24 49 56 50 36 51 55 52 37 53 40 54 54 55 73 56 38 57
REMARK SMILES IDX 39 58 53 60 74 61 41 62 25 63 26 64 34 65 27 66 28 67 32 68
REMARK SMILES IDX 35 69 29 70 30 71 33 72 31 73 57 74 58 75 66 76 59 77 60 78
REMARK SMILES IDX 64 79 67 80 61 81 62 82 65 83 63 84 42 85 43 86 51 87 44 88
REMARK SMILES IDX 45 89 49 90 52 91 46 92 47 93 50 94 48 95
REMARK H PARENT 9 5 81 15 13 29 72 48 40 59
REMARK Flexibility Score: inf
ROOT
ATOM      1  C   UNL A   1      32.047  26.771  26.213  1.00  0.00     0.117 C 
ENDROOT
BRANCH   1   2
ATOM      2  N   UNL A   1      31.285  25.671  26.757  1.00  0.00    -0.354 N 
ATOM      3  C   UNL A   1      31.139  24.388  26.341  1.00  0.00     0.239 C 
ATOM      4  O   UNL A   1      30.740  23.598  27.207  1.00  0.00    -0.273 OA
ATOM      5  H   UNL A   1      30.784  25.890  27.576  1.00  0.00     0.163 HD
BRANCH   3   6
ATOM      6  C   UNL A   1      31.590  23.854  24.967  1.00  0.00     0.221 C 
BRANCH   6   7
ATOM      7  N   UNL A   1      32.954  23.320  24.765  1.00  0.00    -0.310 N 
BRANCH   7   8
ATOM      8  C   UNL A   1      33.709  23.716  23.495  1.00  0.00     0.037 C 
ATOM      9  C   UNL A   1      35.213  23.317  23.480  1.00  0.00     0.034 C 
ATOM     10  C   UNL A   1      33.676  25.237  23.209  1.00  0.00     0.034 C 
ATOM     11  C   UNL A   1      33.089  22.973  22.282  1.00  0.00     0.034 C 
ENDBRANCH   7   8
BRANCH   7  12
ATOM     12  C   UNL A   1      33.740  22.811  25.809  1.00  0.00     0.322 C 
ATOM     13  O   UNL A   1      34.279  23.546  26.642  1.00  0.00    -0.248 OA
ATOM     14  N   UNL A   1      33.677  21.500  26.177  1.00  0.00    -0.308 N 
ATOM     15  H   UNL A   1      33.639  21.391  27.154  1.00  0.00     0.171 HD
BRANCH  14  16
ATOM     16  C   UNL A   1      33.655  20.276  25.512  1.00  0.00     0.043 A 
ATOM     17  C   UNL A   1      34.856  19.812  24.960  1.00  0.00     0.033 A 
ATOM     18  C   UNL A   1      32.486  19.545  25.331  1.00  0.00     0.033 A 
ATOM     19  C   UNL A   1      34.922  18.541  24.382  1.00  0.00     0.088 A 
ATOM     20  C   UNL A   1      32.535  18.273  24.750  1.00  0.00     0.088 A 
ATOM     21  C   UNL A   1      33.762  17.758  24.316  1.00  0.00     0.269 A 
BRANCH  21  22
ATOM     22  N   UNL A   1      33.842  16.383  23.814  1.00  0.00     0.062 N 
ATOM     23  O   UNL A   1      34.265  16.216  22.662  1.00  0.00    -0.258 OA
ATOM     24  O   UNL A   1      33.490  15.469  24.574  1.00  0.00    -0.258 OA
ENDBRANCH  21  22
ENDBRANCH  14  16
ENDBRANCH   7  12
ENDBRANCH   6   7
ENDBRANCH   3   6
ENDBRANCH   1   2
BRANCH   1  25
ATOM     25  C   UNL A   1      32.254  27.921  27.187  1.00  0.00     0.042 C 
BRANCH  25  26
ATOM     26  C   UNL A   1      33.646  28.538  27.142  1.00  0.00     0.118 C 
BRANCH  26  27
ATOM     27  N   UNL A   1      33.661  29.941  27.537  1.00  0.00    -0.352 N 
ATOM     28  C   UNL A   1      34.578  30.689  28.222  1.00  0.00     0.251 C 
ATOM     29  H   UNL A   1      32.861  30.443  27.258  1.00  0.00     0.163 HD
ATOM     30  O   UNL A   1      34.243  31.803  28.636  1.00  0.00    -0.269 OA
BRANCH  28  31
ATOM     31  C   UNL A   1      35.949  30.206  28.489  1.00  0.00     0.039 A 
ATOM     32  C   UNL A   1      36.244  29.687  29.756  1.00  0.00     0.014 A 
ATOM     33  C   UNL A   1      36.973  30.347  27.550  1.00  0.00     0.014 A 
ATOM     34  C   UNL A   1      37.544  29.278  30.063  1.00  0.00     0.010 A 
ATOM     35  C   UNL A   1      38.248  29.857  27.824  1.00  0.00     0.010 A 
ATOM     36  C   UNL A   1      38.554  29.342  29.091  1.00  0.00    -0.014 A 
BRANCH  36  37
ATOM     37  C   UNL A   1      39.949  28.931  29.398  1.00  0.00     0.031 A 
ATOM     38  C   UNL A   1      40.836  29.837  30.209  1.00  0.00     0.074 A 
ATOM     39  C   UNL A   1      40.434  27.778  28.900  1.00  0.00     0.049 A 
ATOM     40  N   UNL A   1      42.103  29.707  30.508  1.00  0.00    -0.248 NA
ATOM     41  C   UNL A   1      40.224  31.072  30.725  1.00  0.00     0.031 C 
ATOM     42  C   UNL A   1      39.689  26.839  28.061  1.00  0.00     0.029 A 
ATOM     43  N   UNL A   1      41.674  27.205  29.023  1.00  0.00    -0.354 N 
ATOM     44  C   UNL A   1      42.445  30.853  31.215  1.00  0.00     0.074 A 
ATOM     45  C   UNL A   1      41.266  31.690  31.261  1.00  0.00     0.031 C 
ATOM     46  C   UNL A   1      40.480  25.794  27.763  1.00  0.00     0.029 A 
ATOM     47  C   UNL A   1      41.794  26.007  28.363  1.00  0.00     0.049 A 
ATOM     48  H   UNL A   1      42.409  27.614  29.535  1.00  0.00     0.167 HD
ATOM     49  C   UNL A   1      43.627  31.170  31.795  1.00  0.00     0.037 A 
ATOM     50  C   UNL A   1      42.846  25.176  28.256  1.00  0.00     0.037 A 
ATOM     51  C   UNL A   1      44.782  30.313  31.795  1.00  0.00     0.049 A 
ATOM     52  C   UNL A   1      44.136  25.530  28.944  1.00  0.00     0.074 A 
ATOM     53  C   UNL A   1      46.006  30.509  32.412  1.00  0.00     0.029 A 
ATOM     54  N   UNL A   1      44.850  29.087  31.151  1.00  0.00    -0.354 N 
ATOM     55  N   UNL A   1      44.430  26.591  29.655  1.00  0.00    -0.248 NA
ATOM     56  C   UNL A   1      45.239  24.566  28.821  1.00  0.00     0.031 C 
ATOM     57  C   UNL A   1      46.823  29.412  32.119  1.00  0.00     0.029 A 
ATOM     58  C   UNL A   1      46.097  28.518  31.349  1.00  0.00     0.049 A 
ATOM     59  H   UNL A   1      44.120  28.681  30.630  1.00  0.00     0.167 HD
ATOM     60  C   UNL A   1      45.738  26.414  30.081  1.00  0.00     0.074 A 
ATOM     61  C   UNL A   1      46.177  25.135  29.564  1.00  0.00     0.031 C 
ATOM     62  C   UNL A   1      46.509  27.239  30.831  1.00  0.00     0.037 A 
BRANCH  49  63
ATOM     63  C   UNL A   1      43.725  32.498  32.489  1.00  0.00     0.064 A 
ATOM     64  C   UNL A   1      43.400  32.642  33.847  1.00  0.00     0.173 A 
ATOM     65  C   UNL A   1      44.171  33.633  31.797  1.00  0.00     0.173 A 
ATOM     66  F   UNL A   1      42.956  31.590  34.550  1.00  0.00    -0.203 F 
ATOM     67  C   UNL A   1      43.489  33.880  34.477  1.00  0.00     0.198 A 
ATOM     68  C   UNL A   1      44.286  34.864  32.439  1.00  0.00     0.198 A 
ATOM     69  F   UNL A   1      44.499  33.549  30.500  1.00  0.00    -0.203 F 
ATOM     70  F   UNL A   1      43.125  34.004  35.761  1.00  0.00    -0.200 F 
ATOM     71  C   UNL A   1      43.937  34.988  33.775  1.00  0.00     0.200 A 
ATOM     72  F   UNL A   1      44.730  35.932  31.761  1.00  0.00    -0.200 F 
ATOM     73  F   UNL A   1      44.026  36.179  34.384  1.00  0.00    -0.200 F 
ENDBRANCH  49  63
BRANCH  50  74
ATOM     74  C   UNL A   1      42.714  23.907  27.496  1.00  0.00     0.064 A 
ATOM     75  C   UNL A   1      43.055  23.847  26.137  1.00  0.00     0.173 A 
ATOM     76  C   UNL A   1      42.250  22.733  28.105  1.00  0.00     0.173 A 
ATOM     77  F   UNL A   1      43.485  24.950  25.507  1.00  0.00    -0.203 F 
ATOM     78  C   UNL A   1      42.919  22.666  25.413  1.00  0.00     0.198 A 
ATOM     79  C   UNL A   1      42.138  21.545  27.385  1.00  0.00     0.198 A 
ATOM     80  F   UNL A   1      41.917  22.737  29.404  1.00  0.00    -0.203 F 
ATOM     81  F   UNL A   1      43.213  22.647  24.105  1.00  0.00    -0.200 F 
ATOM     82  C   UNL A   1      42.466  21.514  26.038  1.00  0.00     0.200 A 
ATOM     83  F   UNL A   1      41.710  20.431  27.995  1.00  0.00    -0.200 F 
ATOM     84  F   UNL A   1      42.338  20.377  25.341  1.00  0.00    -0.200 F 
ENDBRANCH  50  74
BRANCH  62  85
ATOM     85  C   UNL A   1      47.895  26.769  31.157  1.00  0.00     0.064 A 
ATOM     86  C   UNL A   1      48.149  25.952  32.267  1.00  0.00     0.173 A 
ATOM     87  C   UNL A   1      48.974  27.113  30.329  1.00  0.00     0.173 A 
ATOM     88  F   UNL A   1      47.151  25.611  33.097  1.00  0.00    -0.203 F 
ATOM     89  C   UNL A   1      49.439  25.514  32.551  1.00  0.00     0.198 A 
ATOM     90  C   UNL A   1      50.259  26.653  30.601  1.00  0.00     0.198 A 
ATOM     91  F   UNL A   1      48.780  27.888  29.252  1.00  0.00    -0.203 F 
ATOM     92  F   UNL A   1      49.667  24.768  33.641  1.00  0.00    -0.200 F 
ATOM     93  C   UNL A   1      50.491  25.859  31.715  1.00  0.00     0.200 A 
ATOM     94  F   UNL A   1      51.272  26.979  29.789  1.00  0.00    -0.200 F 
ATOM     95  F   UNL A   1      51.732  25.433  31.988  1.00  0.00    -0.200 F 
ENDBRANCH  62  85
ENDBRANCH  36  37
ENDBRANCH  28  31
ENDBRANCH  26  27
ENDBRANCH  25  26
ENDBRANCH   1  25
TORSDOF 15
ENDMDL
MODEL 2
REMARK VINA RESULT:     -12.0      4.526      9.779
REMARK SMILES CC(C)(C)N(CC(=O)NCCCNC(=O)c1ccc(-c2c3nc(c(-c4c(F)c(F)c(F)c(F)c4F)c4ccc([nH]4)c(-c4c(F)c(F)c(F)c(F)c4F)c4nc(c(-c5c(F)c(F)c(F)c(F)c5F)c5ccc2[nH]5)C=C4)C=C3)cc1)C(=O)Nc1ccc([N+](=O)[O-])cc1
REMARK SMILES IDX 10 1 9 2 7 3 8 4 6 6 5 7 2 8 1 9 3 10 4 11 79 12 80 13 81 14
REMARK SMILES IDX 82 16 83 17 90 18 84 19 89 20 85 21 86 22 87 23 88 24 11 25
REMARK SMILES IDX 12 26 13 27 14 28 15 30 16 31 17 32 78 33 18 34 77 35 19 36
REMARK SMILES IDX 20 37 21 38 71 39 22 40 76 41 70 42 72 43 23 44 75 45 69 46
REMARK SMILES IDX 68 47 24 49 56 50 36 51 55 52 37 53 40 54 54 55 73 56 38 57
REMARK SMILES IDX 39 58 53 60 74 61 41 62 25 63 26 64 34 65 27 66 28 67 32 68
REMARK SMILES IDX 35 69 29 70 30 71 33 72 31 73 57 74 58 75 66 76 59 77 60 78
REMARK SMILES IDX 64 79 67 80 61 81 62 82 65 83 63 84 42 85 43 86 51 87 44 88
REMARK SMILES IDX 45 89 49 90 52 91 46 92 47 93 50 94 48 95
REMARK H PARENT 9 5 81 15 13 29 72 48 40 59
REMARK Flexibility Score: inf
ROOT
ATOM      1  C   UNL A   1      31.188  30.626  25.761  1.00  0.00     0.117 C 
ENDROOT
BRANCH   1   2
ATOM      2  N   UNL A   1      32.166  29.823  26.457  1.00  0.00    -0.354 N 
ATOM      3  C   UNL A   1      32.416  28.490  26.432  1.00  0.00     0.239 C 
ATOM      4  O   UNL A   1      33.539  28.159  26.832  1.00  0.00    -0.273 OA
ATOM      5  H   UNL A   1      32.759  30.334  27.055  1.00  0.00     0.163 HD
BRANCH   3   6
ATOM      6  C   UNL A   1      31.487  27.435  25.797  1.00  0.00     0.221 C 
BRANCH   6   7
ATOM      7  N   UNL A   1      31.379  27.297  24.330  1.00  0.00    -0.310 N 
BRANCH   7   8
ATOM      8  C   UNL A   1      32.667  27.288  23.504  1.00  0.00     0.037 C 
ATOM      9  C   UNL A   1      33.789  26.361  24.056  1.00  0.00     0.034 C 
ATOM     10  C   UNL A   1      33.313  28.688  23.358  1.00  0.00     0.034 C 
ATOM     11  C   UNL A   1      32.359  26.738  22.086  1.00  0.00     0.034 C 
ENDBRANCH   7   8
BRANCH   7  12
ATOM     12  C   UNL A   1      30.240  26.791  23.688  1.00  0.00     0.322 C 
ATOM     13  O   UNL A   1      30.038  25.578  23.571  1.00  0.00    -0.248 OA
ATOM     14  N   UNL A   1      29.139  27.565  23.470  1.00  0.00    -0.308 N 
ATOM     15  H   UNL A   1      28.305  27.093  23.695  1.00  0.00     0.171 HD
BRANCH  14  16
ATOM     16  C   UNL A   1      28.902  28.858  23.008  1.00  0.00     0.043 A 
ATOM     17  C   UNL A   1      27.699  29.472  23.379  1.00  0.00     0.033 A 
ATOM     18  C   UNL A   1      29.780  29.519  22.157  1.00  0.00     0.033 A 
ATOM     19  C   UNL A   1      27.456  30.807  23.042  1.00  0.00     0.088 A 
ATOM     20  C   UNL A   1      29.548  30.854  21.808  1.00  0.00     0.088 A 
ATOM     21  C   UNL A   1      28.406  31.506  22.288  1.00  0.00     0.269 A 
BRANCH  21  22
ATOM     22  N   UNL A   1      28.215  32.936  22.023  1.00  0.00     0.062 N 
ATOM     23  O   UNL A   1      28.656  33.738  22.858  1.00  0.00    -0.258 OA
ATOM     24  O   UNL A   1      27.633  33.256  20.977  1.00  0.00    -0.258 OA
ENDBRANCH  21  22
ENDBRANCH  14  16
ENDBRANCH   7  12
ENDBRANCH   6   7
ENDBRANCH   3   6
ENDBRANCH   1   2
BRANCH   1  25
ATOM     25  C   UNL A   1      31.153  32.081  26.204  1.00  0.00     0.042 C 
BRANCH  25  26
ATOM     26  C   UNL A   1      32.322  32.496  27.088  1.00  0.00     0.118 C 
BRANCH  26  27
ATOM     27  N   UNL A   1      32.294  33.909  27.444  1.00  0.00    -0.352 N 
ATOM     28  C   UNL A   1      32.962  34.626  28.397  1.00  0.00     0.251 C 
ATOM     29  H   UNL A   1      31.678  34.447  26.894  1.00  0.00     0.163 HD
ATOM     30  O   UNL A   1      32.580  35.773  28.651  1.00  0.00    -0.269 OA
BRANCH  28  31
ATOM     31  C   UNL A   1      34.116  34.073  29.136  1.00  0.00     0.039 A 
ATOM     32  C   UNL A   1      35.398  34.550  28.833  1.00  0.00     0.014 A 
ATOM     33  C   UNL A   1      33.972  33.024  30.046  1.00  0.00     0.014 A 
ATOM     34  C   UNL A   1      36.518  34.006  29.467  1.00  0.00     0.010 A 
ATOM     35  C   UNL A   1      35.078  32.544  30.744  1.00  0.00     0.010 A 
ATOM     36  C   UNL A   1      36.365  33.011  30.444  1.00  0.00    -0.014 A 
BRANCH  36  37
ATOM     37  C   UNL A   1      37.540  32.403  31.119  1.00  0.00     0.031 A 
ATOM     38  C   UNL A   1      38.313  31.307  30.436  1.00  0.00     0.074 A 
ATOM     39  C   UNL A   1      37.876  32.793  32.363  1.00  0.00     0.049 A 
ATOM     40  N   UNL A   1      39.308  30.586  30.889  1.00  0.00    -0.248 NA
ATOM     41  C   UNL A   1      37.888  30.948  29.073  1.00  0.00     0.031 C 
ATOM     42  C   UNL A   1      37.178  33.811  33.148  1.00  0.00     0.029 A 
ATOM     43  N   UNL A   1      38.888  32.373  33.188  1.00  0.00    -0.354 N 
ATOM     44  C   UNL A   1      39.603  29.674  29.883  1.00  0.00     0.074 A 
ATOM     45  C   UNL A   1      38.653  29.899  28.816  1.00  0.00     0.031 C 
ATOM     46  C   UNL A   1      37.795  33.953  34.332  1.00  0.00     0.029 A 
ATOM     47  C   UNL A   1      38.911  33.014  34.401  1.00  0.00     0.049 A 
ATOM     48  H   UNL A   1      39.536  31.675  32.934  1.00  0.00     0.167 HD
ATOM     49  C   UNL A   1      40.590  28.748  29.842  1.00  0.00     0.037 A 
ATOM     50  C   UNL A   1      39.741  32.861  35.449  1.00  0.00     0.037 A 
ATOM     51  C   UNL A   1      41.567  28.564  30.882  1.00  0.00     0.049 A 
ATOM     52  C   UNL A   1      40.857  31.856  35.363  1.00  0.00     0.074 A 
ATOM     53  C   UNL A   1      42.650  27.702  30.909  1.00  0.00     0.029 A 
ATOM     54  N   UNL A   1      41.583  29.264  32.079  1.00  0.00    -0.354 N 
ATOM     55  N   UNL A   1      41.158  31.037  34.385  1.00  0.00    -0.248 NA
ATOM     56  C   UNL A   1      41.753  31.759  36.524  1.00  0.00     0.031 C 
ATOM     57  C   UNL A   1      43.306  27.862  32.134  1.00  0.00     0.029 A 
ATOM     58  C   UNL A   1      42.652  28.849  32.855  1.00  0.00     0.049 A 
ATOM     59  H   UNL A   1      40.930  29.954  32.338  1.00  0.00     0.167 HD
ATOM     60  C   UNL A   1      42.287  30.345  34.801  1.00  0.00     0.074 A 
ATOM     61  C   UNL A   1      42.628  30.853  36.114  1.00  0.00     0.031 C 
ATOM     62  C   UNL A   1      42.977  29.374  34.156  1.00  0.00     0.037 A 
BRANCH  49  63
ATOM     63  C   UNL A   1      40.670  27.872  28.626  1.00  0.00     0.064 A 
ATOM     64  C   UNL A   1      39.988  26.648  28.557  1.00  0.00     0.173 A 
ATOM     65  C   UNL A   1      41.417  28.272  27.508  1.00  0.00     0.173 A 
ATOM     66  F   UNL A   1      39.271  26.215  29.605  1.00  0.00    -0.203 F 
ATOM     67  C   UNL A   1      40.075  25.842  27.426  1.00  0.00     0.198 A 
ATOM     68  C   UNL A   1      41.478  27.475  26.366  1.00  0.00     0.198 A 
ATOM     69  F   UNL A   1      42.083  29.435  27.519  1.00  0.00    -0.203 F 
ATOM     70  F   UNL A   1      39.456  24.653  27.403  1.00  0.00    -0.200 F 
ATOM     71  C   UNL A   1      40.815  26.258  26.330  1.00  0.00     0.200 A 
ATOM     72  F   UNL A   1      42.185  27.884  25.303  1.00  0.00    -0.200 F 
ATOM     73  F   UNL A   1      40.895  25.482  25.240  1.00  0.00    -0.200 F 
ENDBRANCH  49  63
BRANCH  50  74
ATOM     74  C   UNL A   1      39.573  33.708  36.657  1.00  0.00     0.064 A 
ATOM     75  C   UNL A   1      38.818  33.254  37.749  1.00  0.00     0.173 A 
ATOM     76  C   UNL A   1      40.159  34.977  36.751  1.00  0.00     0.173 A 
ATOM     77  F   UNL A   1      38.222  32.054  37.697  1.00  0.00    -0.203 F 
ATOM     78  C   UNL A   1      38.642  34.047  38.880  1.00  0.00     0.198 A 
ATOM     79  C   UNL A   1      40.002  35.760  37.893  1.00  0.00     0.198 A 
ATOM     80  F   UNL A   1      40.895  35.453  35.735  1.00  0.00    -0.203 F 
ATOM     81  F   UNL A   1      37.882  33.607  39.892  1.00  0.00    -0.200 F 
ATOM     82  C   UNL A   1      39.238  35.297  38.953  1.00  0.00     0.200 A 
ATOM     83  F   UNL A   1      40.588  36.963  37.965  1.00  0.00    -0.200 F 
ATOM     84  F   UNL A   1      39.070  36.058  40.043  1.00  0.00    -0.200 F 
ENDBRANCH  50  74
BRANCH  62  85
ATOM     85  C   UNL A   1      44.183  28.817  34.850  1.00  0.00     0.064 A 
ATOM     86  C   UNL A   1      45.448  29.404  34.704  1.00  0.00     0.173 A 
ATOM     87  C   UNL A   1      44.065  27.706  35.698  1.00  0.00     0.173 A 
ATOM     88  F   UNL A   1      45.614  30.458  33.890  1.00  0.00    -0.203 F 
ATOM     89  C   UNL A   1      46.557  28.883  35.363  1.00  0.00     0.198 A 
ATOM     90  C   UNL A   1      45.171  27.203  36.376  1.00  0.00     0.198 A 
ATOM     91  F   UNL A   1      42.874  27.114  35.875  1.00  0.00    -0.203 F 
ATOM     92  F   UNL A   1      47.765  29.433  35.177  1.00  0.00    -0.200 F 
ATOM     93  C   UNL A   1      46.417  27.788  36.203  1.00  0.00     0.200 A 
ATOM     94  F   UNL A   1      45.033  26.151  37.194  1.00  0.00    -0.200 F 
ATOM     95  F   UNL A   1      47.486  27.290  36.841  1.00  0.00    -0.200 F 
ENDBRANCH  62  85
ENDBRANCH  36  37
ENDBRANCH  28  31
ENDBRANCH  26  27
ENDBRANCH  25  26
ENDBRANCH   1  25
TORSDOF 15
ENDMDL
MODEL 3
REMARK VINA RESULT:     -12.0      3.249      7.988
REMARK SMILES CC(C)(C)N(CC(=O)NCCCNC(=O)c1ccc(-c2c3nc(c(-c4c(F)c(F)c(F)c(F)c4F)c4ccc([nH]4)c(-c4c(F)c(F)c(F)c(F)c4F)c4nc(c(-c5c(F)c(F)c(F)c(F)c5F)c5ccc2[nH]5)C=C4)C=C3)cc1)C(=O)Nc1ccc([N+](=O)[O-])cc1
REMARK SMILES IDX 10 1 9 2 7 3 8 4 6 6 5 7 2 8 1 9 3 10 4 11 79 12 80 13 81 14
REMARK SMILES IDX 82 16 83 17 90 18 84 19 89 20 85 21 86 22 87 23 88 24 11 25
REMARK SMILES IDX 12 26 13 27 14 28 15 30 16 31 17 32 78 33 18 34 77 35 19 36
REMARK SMILES IDX 20 37 21 38 71 39 22 40 76 41 70 42 72 43 23 44 75 45 69 46
REMARK SMILES IDX 68 47 24 49 56 50 36 51 55 52 37 53 40 54 54 55 73 56 38 57
REMARK SMILES IDX 39 58 53 60 74 61 41 62 25 63 26 64 34 65 27 66 28 67 32 68
REMARK SMILES IDX 35 69 29 70 30 71 33 72 31 73 57 74 58 75 66 76 59 77 60 78
REMARK SMILES IDX 64 79 67 80 61 81 62 82 65 83 63 84 42 85 43 86 51 87 44 88
REMARK SMILES IDX 45 89 49 90 52 91 46 92 47 93 50 94 48 95
REMARK H PARENT 9 5 81 15 13 29 72 48 40 59
REMARK Flexibility Score: inf
ROOT
ATOM      1  C   UNL A   1      32.751  28.642  22.729  1.00  0.00     0.117 C 
ENDROOT
BRANCH   1   2
ATOM      2  N   UNL A   1      33.279  27.532  21.972  1.00  0.00    -0.354 N 
ATOM      3  C   UNL A   1      32.875  26.241  21.871  1.00  0.00     0.239 C 
ATOM      4  O   UNL A   1      33.287  25.639  20.871  1.00  0.00    -0.273 OA
ATOM      5  H   UNL A   1      34.073  27.751  21.431  1.00  0.00     0.163 HD
BRANCH   3   6
ATOM      6  C   UNL A   1      31.840  25.571  22.797  1.00  0.00     0.221 C 
BRANCH   6   7
ATOM      7  N   UNL A   1      32.249  24.556  23.790  1.00  0.00    -0.310 N 
BRANCH   7   8
ATOM      8  C   UNL A   1      32.328  24.969  25.261  1.00  0.00     0.037 C 
ATOM      9  C   UNL A   1      32.064  23.820  26.277  1.00  0.00     0.034 C 
ATOM     10  C   UNL A   1      31.336  26.097  25.637  1.00  0.00     0.034 C 
ATOM     11  C   UNL A   1      33.767  25.455  25.577  1.00  0.00     0.034 C 
ENDBRANCH   7   8
BRANCH   7  12
ATOM     12  C   UNL A   1      32.190  23.177  23.546  1.00  0.00     0.322 C 
ATOM     13  O   UNL A   1      31.149  22.619  23.183  1.00  0.00    -0.248 OA
ATOM     14  N   UNL A   1      33.317  22.435  23.355  1.00  0.00    -0.308 N 
ATOM     15  H   UNL A   1      33.228  21.816  22.595  1.00  0.00     0.171 HD
BRANCH  14  16
ATOM     16  C   UNL A   1      34.564  22.337  23.968  1.00  0.00     0.043 A 
ATOM     17  C   UNL A   1      35.658  22.922  23.317  1.00  0.00     0.033 A 
ATOM     18  C   UNL A   1      34.761  21.638  25.154  1.00  0.00     0.033 A 
ATOM     19  C   UNL A   1      36.911  22.956  23.936  1.00  0.00     0.088 A 
ATOM     20  C   UNL A   1      36.011  21.660  25.783  1.00  0.00     0.088 A 
ATOM     21  C   UNL A   1      37.071  22.356  25.191  1.00  0.00     0.269 A 
BRANCH  21  22
ATOM     22  N   UNL A   1      38.349  22.481  25.899  1.00  0.00     0.062 N 
ATOM     23  O   UNL A   1      39.138  21.528  25.830  1.00  0.00    -0.258 OA
ATOM     24  O   UNL A   1      38.567  23.534  26.515  1.00  0.00    -0.258 OA
ENDBRANCH  21  22
ENDBRANCH  14  16
ENDBRANCH   7  12
ENDBRANCH   6   7
ENDBRANCH   3   6
ENDBRANCH   1   2
BRANCH   1  25
ATOM     25  C   UNL A   1      33.724  29.212  23.752  1.00  0.00     0.042 C 
BRANCH  25  26
ATOM     26  C   UNL A   1      33.241  29.124  25.194  1.00  0.00     0.118 C 
BRANCH  26  27
ATOM     27  N   UNL A   1      32.783  30.402  25.721  1.00  0.00    -0.352 N 
ATOM     28  C   UNL A   1      33.192  31.151  26.789  1.00  0.00     0.251 C 
ATOM     29  H   UNL A   1      32.039  30.801  25.212  1.00  0.00     0.163 HD
ATOM     30  O   UNL A   1      32.478  32.087  27.164  1.00  0.00    -0.269 OA
BRANCH  28  31
ATOM     31  C   UNL A   1      34.451  30.874  27.511  1.00  0.00     0.039 A 
ATOM     32  C   UNL A   1      34.655  29.591  28.035  1.00  0.00     0.014 A 
ATOM     33  C   UNL A   1      35.387  31.877  27.769  1.00  0.00     0.014 A 
ATOM     34  C   UNL A   1      35.806  29.309  28.776  1.00  0.00     0.010 A 
ATOM     35  C   UNL A   1      36.576  31.574  28.429  1.00  0.00     0.010 A 
ATOM     36  C   UNL A   1      36.786  30.295  28.962  1.00  0.00    -0.014 A 
BRANCH  36  37
ATOM     37  C   UNL A   1      38.010  30.028  29.762  1.00  0.00     0.031 A 
ATOM     38  C   UNL A   1      39.086  29.132  29.209  1.00  0.00     0.074 A 
ATOM     39  C   UNL A   1      38.127  30.540  31.001  1.00  0.00     0.049 A 
ATOM     40  N   UNL A   1      40.182  28.702  29.780  1.00  0.00    -0.248 NA
ATOM     41  C   UNL A   1      38.885  28.624  27.842  1.00  0.00     0.031 C 
ATOM     42  C   UNL A   1      37.133  31.382  31.667  1.00  0.00     0.029 A 
ATOM     43  N   UNL A   1      39.133  30.418  31.926  1.00  0.00    -0.354 N 
ATOM     44  C   UNL A   1      40.781  27.851  28.859  1.00  0.00     0.074 A 
ATOM     45  C   UNL A   1      39.904  27.788  27.709  1.00  0.00     0.031 C 
ATOM     46  C   UNL A   1      37.588  31.721  32.884  1.00  0.00     0.029 A 
ATOM     47  C   UNL A   1      38.890  31.095  33.095  1.00  0.00     0.049 A 
ATOM     48  H   UNL A   1      39.952  29.895  31.766  1.00  0.00     0.167 HD
ATOM     49  C   UNL A   1      41.964  27.201  28.950  1.00  0.00     0.037 A 
ATOM     50  C   UNL A   1      39.634  31.196  34.212  1.00  0.00     0.037 A 
ATOM     51  C   UNL A   1      42.860  27.308  30.072  1.00  0.00     0.049 A 
ATOM     52  C   UNL A   1      40.966  30.498  34.273  1.00  0.00     0.074 A 
ATOM     53  C   UNL A   1      44.114  26.745  30.234  1.00  0.00     0.029 A 
ATOM     54  N   UNL A   1      42.596  28.038  31.221  1.00  0.00    -0.354 N 
ATOM     55  N   UNL A   1      41.545  29.741  33.374  1.00  0.00    -0.248 NA
ATOM     56  C   UNL A   1      41.750  30.676  35.503  1.00  0.00     0.031 C 
ATOM     57  C   UNL A   1      44.598  27.114  31.494  1.00  0.00     0.029 A 
ATOM     58  C   UNL A   1      43.661  27.935  32.100  1.00  0.00     0.049 A 
ATOM     59  H   UNL A   1      41.774  28.553  31.386  1.00  0.00     0.167 HD
ATOM     60  C   UNL A   1      42.766  29.371  33.916  1.00  0.00     0.074 A 
ATOM     61  C   UNL A   1      42.854  30.000  35.218  1.00  0.00     0.031 C 
ATOM     62  C   UNL A   1      43.729  28.577  33.387  1.00  0.00     0.037 A 
BRANCH  49  63
ATOM     63  C   UNL A   1      42.365  26.323  27.800  1.00  0.00     0.064 A 
ATOM     64  C   UNL A   1      43.267  26.764  26.819  1.00  0.00     0.173 A 
ATOM     65  C   UNL A   1      41.860  25.019  27.689  1.00  0.00     0.173 A 
ATOM     66  F   UNL A   1      43.767  28.008  26.873  1.00  0.00    -0.203 F 
ATOM     67  C   UNL A   1      43.625  25.944  25.754  1.00  0.00     0.198 A 
ATOM     68  C   UNL A   1      42.244  24.191  26.637  1.00  0.00     0.198 A 
ATOM     69  F   UNL A   1      41.000  24.546  28.602  1.00  0.00    -0.203 F 
ATOM     70  F   UNL A   1      44.448  26.405  24.802  1.00  0.00    -0.200 F 
ATOM     71  C   UNL A   1      43.118  24.656  25.666  1.00  0.00     0.200 A 
ATOM     72  F   UNL A   1      41.761  22.943  26.559  1.00  0.00    -0.200 F 
ATOM     73  F   UNL A   1      43.467  23.865  24.641  1.00  0.00    -0.200 F 
ENDBRANCH  49  63
BRANCH  50  74
ATOM     74  C   UNL A   1      39.156  32.022  35.349  1.00  0.00     0.064 A 
ATOM     75  C   UNL A   1      39.454  33.392  35.414  1.00  0.00     0.173 A 
ATOM     76  C   UNL A   1      38.394  31.470  36.387  1.00  0.00     0.173 A 
ATOM     77  F   UNL A   1      40.196  33.960  34.452  1.00  0.00    -0.203 F 
ATOM     78  C   UNL A   1      39.023  34.171  36.483  1.00  0.00     0.198 A 
ATOM     79  C   UNL A   1      37.943  32.256  37.446  1.00  0.00     0.198 A 
ATOM     80  F   UNL A   1      38.079  30.166  36.367  1.00  0.00    -0.203 F 
ATOM     81  F   UNL A   1      39.356  35.468  36.542  1.00  0.00    -0.200 F 
ATOM     82  C   UNL A   1      38.263  33.604  37.496  1.00  0.00     0.200 A 
ATOM     83  F   UNL A   1      37.200  31.708  38.417  1.00  0.00    -0.200 F 
ATOM     84  F   UNL A   1      37.847  34.356  38.524  1.00  0.00    -0.200 F 
ENDBRANCH  50  74
BRANCH  62  85
ATOM     85  C   UNL A   1      44.967  28.368  34.205  1.00  0.00     0.064 A 
ATOM     86  C   UNL A   1      45.072  27.306  35.116  1.00  0.00     0.173 A 
ATOM     87  C   UNL A   1      46.073  29.217  34.052  1.00  0.00     0.173 A 
ATOM     88  F   UNL A   1      44.036  26.478  35.309  1.00  0.00    -0.203 F 
ATOM     89  C   UNL A   1      46.233  27.118  35.861  1.00  0.00     0.198 A 
ATOM     90  C   UNL A   1      47.240  29.011  34.779  1.00  0.00     0.198 A 
ATOM     91  F   UNL A   1      46.022  30.243  33.188  1.00  0.00    -0.203 F 
ATOM     92  F   UNL A   1      46.297  26.123  36.757  1.00  0.00    -0.200 F 
ATOM     93  C   UNL A   1      47.317  27.966  35.688  1.00  0.00     0.200 A 
ATOM     94  F   UNL A   1      48.290  29.824  34.605  1.00  0.00    -0.200 F 
ATOM     95  F   UNL A   1      48.435  27.779  36.403  1.00  0.00    -0.200 F 
ENDBRANCH  62  85
ENDBRANCH  36  37
ENDBRANCH  28  31
ENDBRANCH  26  27
ENDBRANCH  25  26
ENDBRANCH   1  25
TORSDOF 15
ENDMDL
