MODEL 1
REMARK VINA RESULT:     -13.6      0.000      0.000
REMARK SMILES Cc1ccc(NC(=O)C[C@H]2C(=O)NCCN2C(=O)CCC(=O)NCCCNC(=O)c2ccc(-c3c4nc(c(-c5c(F)c(F)c(F)c(F)c5F)c5ccc([nH]5)c(-c5c(F)c(F)c(F)c(F)c5F)c5nc(c(-c6c(F)c(F)c(F)c(F)c6F)c6ccc3[nH]6)C=C5)C=C4)cc2)c(C)c1
REMARK SMILES IDX 21 1 22 2 23 3 20 5 19 6 17 7 18 8 16 9 10 10 11 11 12 12
REMARK SMILES IDX 13 13 15 14 14 15 9 17 7 18 6 19 8 21 5 22 1 23 2 24 3 25
REMARK SMILES IDX 95 26 4 27 93 28 94 29 24 30 25 31 26 32 27 33 28 34 29 36
REMARK SMILES IDX 30 37 31 38 92 39 32 40 91 41 33 42 34 43 35 44 85 45 36 46
REMARK SMILES IDX 90 47 84 48 86 49 37 50 89 51 83 52 82 53 38 55 70 56 50 57
REMARK SMILES IDX 69 58 51 59 54 60 68 61 87 62 52 63 53 64 67 66 88 67 55 68
REMARK SMILES IDX 39 69 40 70 48 71 41 72 42 73 46 74 49 75 43 76 44 77 47 78
REMARK SMILES IDX 45 79 71 80 72 81 80 82 73 83 74 84 78 85 81 86 75 87 76 88
REMARK SMILES IDX 79 89 77 90 56 91 57 92 65 93 58 94 59 95 63 96 66 97 60 98
REMARK SMILES IDX 61 99 64 100 62 101
REMARK H PARENT 23 4 13 16 6 20 27 35 86 54 54 65
REMARK Flexibility Score: inf
ROOT
ATOM      1  C   UNL A   1      35.369  22.920  26.276  1.00  0.00     0.220 C 
ATOM      2  O   UNL A   1      34.795  23.321  27.292  1.00  0.00    -0.275 OA
ATOM      3  N   UNL A   1      35.671  21.595  26.176  1.00  0.00    -0.356 N 
ATOM      4  H   UNL A   1      35.417  21.106  26.991  1.00  0.00     0.163 HD
ENDROOT
BRANCH   1   5
ATOM      5  C   UNL A   1      35.825  23.890  25.251  1.00  0.00     0.110 C 
BRANCH   5   6
ATOM      6  C   UNL A   1      34.603  24.415  24.538  1.00  0.00     0.110 C 
BRANCH   6   7
ATOM      7  C   UNL A   1      34.213  23.436  23.484  1.00  0.00     0.223 C 
ATOM      8  O   UNL A   1      34.924  23.406  22.467  1.00  0.00    -0.275 OA
BRANCH   7   9
ATOM      9  N   UNL A   1      33.053  22.648  23.584  1.00  0.00    -0.328 N 
ATOM     10  C   UNL A   1      32.459  21.914  24.821  1.00  0.00     0.183 C 
ATOM     11  C   UNL A   1      32.233  20.417  24.441  1.00  0.00     0.243 C 
ATOM     12  O   UNL A   1      32.112  19.532  25.285  1.00  0.00    -0.273 OA
ATOM     13  N   UNL A   1      32.094  20.064  23.129  1.00  0.00    -0.353 N 
ATOM     14  C   UNL A   1      32.597  22.325  22.223  1.00  0.00     0.141 C 
ATOM     15  C   UNL A   1      32.027  20.952  22.001  1.00  0.00     0.137 C 
ATOM     16  H   UNL A   1      32.033  19.100  22.935  1.00  0.00     0.163 HD
BRANCH  10  17
ATOM     17  C   UNL A   1      31.308  22.360  26.027  1.00  0.00     0.135 C 
BRANCH  17  18
ATOM     18  C   UNL A   1      30.340  23.537  26.723  1.00  0.00     0.227 C 
ATOM     19  N   UNL A   1      30.168  24.919  26.711  1.00  0.00    -0.326 N 
ATOM     20  H   UNL A   1      29.859  25.208  27.599  1.00  0.00     0.169 HD
ATOM     21  O   UNL A   1      29.582  23.078  27.614  1.00  0.00    -0.275 OA
BRANCH  19  22
ATOM     22  C   UNL A   1      30.283  26.076  25.859  1.00  0.00     0.044 A 
ATOM     23  C   UNL A   1      31.727  28.160  22.445  1.00  0.00     0.044 C 
ATOM     24  C   UNL A   1      30.975  27.743  23.683  1.00  0.00    -0.051 A 
ATOM     25  C   UNL A   1      29.860  26.907  23.597  1.00  0.00     0.005 A 
ATOM     26  C   UNL A   1      31.514  27.969  24.953  1.00  0.00     0.009 A 
ATOM     27  C   UNL A   1      29.474  26.132  24.709  1.00  0.00     0.026 A 
ATOM     28  C   UNL A   1      31.146  27.162  26.061  1.00  0.00    -0.027 A 
ATOM     29  C   UNL A   1      31.661  27.543  27.416  1.00  0.00     0.046 C 
ENDBRANCH  19  22
ENDBRANCH  17  18
ENDBRANCH  10  17
ENDBRANCH   7   9
ENDBRANCH   6   7
ENDBRANCH   5   6
ENDBRANCH   1   5
BRANCH   3  30
ATOM     30  C   UNL A   1      36.278  20.695  25.173  1.00  0.00     0.117 C 
BRANCH  30  31
ATOM     31  C   UNL A   1      37.852  20.479  24.967  1.00  0.00     0.042 C 
BRANCH  31  32
ATOM     32  C   UNL A   1      39.053  20.522  25.955  1.00  0.00     0.118 C 
BRANCH  32  33
ATOM     33  N   UNL A   1      40.040  19.441  25.819  1.00  0.00    -0.352 N 
ATOM     34  C   UNL A   1      41.407  19.429  26.061  1.00  0.00     0.251 C 
ATOM     35  H   UNL A   1      39.670  18.585  25.506  1.00  0.00     0.163 HD
ATOM     36  O   UNL A   1      42.065  18.431  25.877  1.00  0.00    -0.269 OA
BRANCH  34  37
ATOM     37  C   UNL A   1      42.087  20.671  26.495  1.00  0.00     0.039 A 
ATOM     38  C   UNL A   1      42.573  21.546  25.524  1.00  0.00     0.014 A 
ATOM     39  C   UNL A   1      42.252  20.969  27.844  1.00  0.00     0.014 A 
ATOM     40  C   UNL A   1      43.096  22.787  25.905  1.00  0.00     0.010 A 
ATOM     41  C   UNL A   1      42.717  22.236  28.221  1.00  0.00     0.010 A 
ATOM     42  C   UNL A   1      43.106  23.177  27.254  1.00  0.00    -0.014 A 
BRANCH  42  43
ATOM     43  C   UNL A   1      43.461  24.574  27.643  1.00  0.00     0.031 A 
ATOM     44  C   UNL A   1      44.890  25.043  27.667  1.00  0.00     0.074 A 
ATOM     45  C   UNL A   1      42.488  25.426  28.030  1.00  0.00     0.049 A 
ATOM     46  N   UNL A   1      45.368  26.229  27.959  1.00  0.00    -0.248 NA
ATOM     47  C   UNL A   1      45.922  24.045  27.353  1.00  0.00     0.031 C 
ATOM     48  C   UNL A   1      41.065  25.097  28.128  1.00  0.00     0.029 A 
ATOM     49  N   UNL A   1      42.545  26.748  28.405  1.00  0.00    -0.354 N 
ATOM     50  C   UNL A   1      46.749  26.116  27.871  1.00  0.00     0.074 A 
ATOM     51  C   UNL A   1      47.035  24.731  27.565  1.00  0.00     0.031 C 
ATOM     52  C   UNL A   1      40.379  26.199  28.477  1.00  0.00     0.029 A 
ATOM     53  C   UNL A   1      41.313  27.305  28.660  1.00  0.00     0.049 A 
ATOM     54  H   UNL A   1      43.387  27.250  28.484  1.00  0.00     0.167 HD
ATOM     55  C   UNL A   1      47.693  27.080  28.001  1.00  0.00     0.037 A 
ATOM     56  C   UNL A   1      40.968  28.567  28.987  1.00  0.00     0.037 A 
ATOM     57  C   UNL A   1      47.419  28.467  28.275  1.00  0.00     0.049 A 
ATOM     58  C   UNL A   1      42.034  29.619  29.125  1.00  0.00     0.074 A 
ATOM     59  C   UNL A   1      48.308  29.527  28.343  1.00  0.00     0.029 A 
ATOM     60  N   UNL A   1      46.160  28.987  28.532  1.00  0.00    -0.354 N 
ATOM     61  N   UNL A   1      43.327  29.517  28.942  1.00  0.00    -0.248 NA
ATOM     62  C   UNL A   1      41.587  30.967  29.509  1.00  0.00     0.031 C 
ATOM     63  C   UNL A   1      47.592  30.680  28.684  1.00  0.00     0.029 A 
ATOM     64  C   UNL A   1      46.251  30.348  28.786  1.00  0.00     0.049 A 
ATOM     65  H   UNL A   1      45.323  28.468  28.534  1.00  0.00     0.167 HD
ATOM     66  C   UNL A   1      43.844  30.788  29.158  1.00  0.00     0.074 A 
ATOM     67  C   UNL A   1      42.723  31.648  29.477  1.00  0.00     0.031 C 
ATOM     68  C   UNL A   1      45.133  31.201  29.096  1.00  0.00     0.037 A 
BRANCH  55  69
ATOM     69  C   UNL A   1      49.127  26.661  27.836  1.00  0.00     0.064 A 
ATOM     70  C   UNL A   1      49.699  26.485  26.565  1.00  0.00     0.173 A 
ATOM     71  C   UNL A   1      49.941  26.444  28.957  1.00  0.00     0.173 A 
ATOM     72  F   UNL A   1      48.961  26.673  25.461  1.00  0.00    -0.203 F 
ATOM     73  C   UNL A   1      51.019  26.066  26.426  1.00  0.00     0.198 A 
ATOM     74  C   UNL A   1      51.271  26.055  28.813  1.00  0.00     0.198 A 
ATOM     75  F   UNL A   1      49.448  26.608  30.194  1.00  0.00    -0.203 F 
ATOM     76  F   UNL A   1      51.523  25.845  25.204  1.00  0.00    -0.200 F 
ATOM     77  C   UNL A   1      51.804  25.855  27.548  1.00  0.00     0.200 A 
ATOM     78  F   UNL A   1      52.034  25.865  29.898  1.00  0.00    -0.200 F 
ATOM     79  F   UNL A   1      53.074  25.447  27.411  1.00  0.00    -0.200 F 
ENDBRANCH  55  69
BRANCH  56  80
ATOM     80  C   UNL A   1      39.534  28.925  29.146  1.00  0.00     0.064 A 
ATOM     81  C   UNL A   1      38.779  29.346  28.042  1.00  0.00     0.173 A 
ATOM     82  C   UNL A   1      38.892  28.860  30.389  1.00  0.00     0.173 A 
ATOM     83  F   UNL A   1      39.358  29.446  26.836  1.00  0.00    -0.203 F 
ATOM     84  C   UNL A   1      37.439  29.701  28.178  1.00  0.00     0.198 A 
ATOM     85  C   UNL A   1      37.545  29.191  30.521  1.00  0.00     0.198 A 
ATOM     86  F   UNL A   1      39.570  28.461  31.476  1.00  0.00    -0.203 F 
ATOM     87  F   UNL A   1      36.752  30.135  27.112  1.00  0.00    -0.200 F 
ATOM     88  C   UNL A   1      36.821  29.617  29.416  1.00  0.00     0.200 A 
ATOM     89  F   UNL A   1      36.946  29.098  31.716  1.00  0.00    -0.200 F 
ATOM     90  F   UNL A   1      35.531  29.951  29.547  1.00  0.00    -0.200 F 
ENDBRANCH  56  80
BRANCH  68  91
ATOM     91  C   UNL A   1      45.405  32.657  29.344  1.00  0.00     0.064 A 
ATOM     92  C   UNL A   1      45.350  33.603  28.310  1.00  0.00     0.173 A 
ATOM     93  C   UNL A   1      45.689  33.116  30.639  1.00  0.00     0.173 A 
ATOM     94  F   UNL A   1      45.099  33.214  27.051  1.00  0.00    -0.203 F 
ATOM     95  C   UNL A   1      45.589  34.952  28.560  1.00  0.00     0.198 A 
ATOM     96  C   UNL A   1      45.902  34.469  30.890  1.00  0.00     0.198 A 
ATOM     97  F   UNL A   1      45.751  32.253  31.665  1.00  0.00    -0.203 F 
ATOM     98  F   UNL A   1      45.574  35.833  27.550  1.00  0.00    -0.200 F 
ATOM     99  C   UNL A   1      45.858  35.385  29.850  1.00  0.00     0.200 A 
ATOM    100  F   UNL A   1      46.151  34.886  32.140  1.00  0.00    -0.200 F 
ATOM    101  F   UNL A   1      46.082  36.684  30.091  1.00  0.00    -0.200 F 
ENDBRANCH  68  91
ENDBRANCH  42  43
ENDBRANCH  34  37
ENDBRANCH  32  33
ENDBRANCH  31  32
ENDBRANCH  30  31
ENDBRANCH   3  30
TORSDOF 16
ENDMDL
MODEL 2
REMARK VINA RESULT:     -13.6      0.885      7.079
REMARK SMILES Cc1ccc(NC(=O)C[C@H]2C(=O)NCCN2C(=O)CCC(=O)NCCCNC(=O)c2ccc(-c3c4nc(c(-c5c(F)c(F)c(F)c(F)c5F)c5ccc([nH]5)c(-c5c(F)c(F)c(F)c(F)c5F)c5nc(c(-c6c(F)c(F)c(F)c(F)c6F)c6ccc3[nH]6)C=C5)C=C4)cc2)c(C)c1
REMARK SMILES IDX 21 1 22 2 23 3 20 5 19 6 17 7 18 8 16 9 10 10 11 11 12 12
REMARK SMILES IDX 13 13 15 14 14 15 9 17 7 18 6 19 8 21 5 22 1 23 2 24 3 25
REMARK SMILES IDX 95 26 4 27 93 28 94 29 24 30 25 31 26 32 27 33 28 34 29 36
REMARK SMILES IDX 30 37 31 38 92 39 32 40 91 41 33 42 34 43 35 44 85 45 36 46
REMARK SMILES IDX 90 47 84 48 86 49 37 50 89 51 83 52 82 53 38 55 70 56 50 57
REMARK SMILES IDX 69 58 51 59 54 60 68 61 87 62 52 63 53 64 67 66 88 67 55 68
REMARK SMILES IDX 39 69 40 70 48 71 41 72 42 73 46 74 49 75 43 76 44 77 47 78
REMARK SMILES IDX 45 79 71 80 72 81 80 82 73 83 74 84 78 85 81 86 75 87 76 88
REMARK SMILES IDX 79 89 77 90 56 91 57 92 65 93 58 94 59 95 63 96 66 97 60 98
REMARK SMILES IDX 61 99 64 100 62 101
REMARK H PARENT 23 4 13 16 6 20 27 35 86 54 54 65
REMARK Flexibility Score: inf
ROOT
ATOM      1  C   UNL A   1      35.447  22.873  26.210  1.00  0.00     0.220 C 
ATOM      2  O   UNL A   1      34.884  23.253  27.239  1.00  0.00    -0.275 OA
ATOM      3  N   UNL A   1      35.742  21.549  26.078  1.00  0.00    -0.356 N 
ATOM      4  H   UNL A   1      35.491  21.043  26.883  1.00  0.00     0.163 HD
ENDROOT
BRANCH   1   5
ATOM      5  C   UNL A   1      35.901  23.863  25.203  1.00  0.00     0.110 C 
BRANCH   5   6
ATOM      6  C   UNL A   1      34.675  24.421  24.521  1.00  0.00     0.110 C 
BRANCH   6   7
ATOM      7  C   UNL A   1      34.252  23.467  23.456  1.00  0.00     0.223 C 
ATOM      8  O   UNL A   1      34.931  23.463  22.417  1.00  0.00    -0.275 OA
BRANCH   7   9
ATOM      9  N   UNL A   1      33.094  22.677  23.573  1.00  0.00    -0.328 N 
ATOM     10  C   UNL A   1      32.491  21.985  24.829  1.00  0.00     0.183 C 
ATOM     11  C   UNL A   1      32.276  20.475  24.501  1.00  0.00     0.243 C 
ATOM     12  O   UNL A   1      32.151  19.620  25.375  1.00  0.00    -0.273 OA
ATOM     13  N   UNL A   1      32.153  20.074  23.201  1.00  0.00    -0.353 N 
ATOM     14  C   UNL A   1      32.655  22.303  22.220  1.00  0.00     0.141 C 
ATOM     15  C   UNL A   1      32.094  20.920  22.041  1.00  0.00     0.137 C 
ATOM     16  H   UNL A   1      32.098  19.104  23.042  1.00  0.00     0.163 HD
BRANCH  10  17
ATOM     17  C   UNL A   1      31.325  22.469  26.006  1.00  0.00     0.135 C 
BRANCH  17  18
ATOM     18  C   UNL A   1      30.416  23.687  26.712  1.00  0.00     0.227 C 
ATOM     19  N   UNL A   1      30.315  25.076  26.711  1.00  0.00    -0.326 N 
ATOM     20  H   UNL A   1      30.020  25.373  27.603  1.00  0.00     0.169 HD
ATOM     21  O   UNL A   1      29.636  23.259  27.598  1.00  0.00    -0.275 OA
BRANCH  19  22
ATOM     22  C   UNL A   1      30.489  26.234  25.870  1.00  0.00     0.044 A 
ATOM     23  C   UNL A   1      32.374  28.420  22.748  1.00  0.00     0.044 C 
ATOM     24  C   UNL A   1      31.437  27.943  23.828  1.00  0.00    -0.051 A 
ATOM     25  C   UNL A   1      30.440  27.008  23.550  1.00  0.00     0.005 A 
ATOM     26  C   UNL A   1      31.698  28.226  25.173  1.00  0.00     0.009 A 
ATOM     27  C   UNL A   1      29.916  26.208  24.586  1.00  0.00     0.026 A 
ATOM     28  C   UNL A   1      31.196  27.395  26.208  1.00  0.00    -0.027 A 
ATOM     29  C   UNL A   1      31.403  27.831  27.627  1.00  0.00     0.046 C 
ENDBRANCH  19  22
ENDBRANCH  17  18
ENDBRANCH  10  17
ENDBRANCH   7   9
ENDBRANCH   6   7
ENDBRANCH   5   6
ENDBRANCH   1   5
BRANCH   3  30
ATOM     30  C   UNL A   1      36.337  20.668  25.049  1.00  0.00     0.117 C 
BRANCH  30  31
ATOM     31  C   UNL A   1      37.897  20.329  24.923  1.00  0.00     0.042 C 
BRANCH  31  32
ATOM     32  C   UNL A   1      39.073  20.414  25.938  1.00  0.00     0.118 C 
BRANCH  32  33
ATOM     33  N   UNL A   1      40.032  19.301  25.908  1.00  0.00    -0.352 N 
ATOM     34  C   UNL A   1      41.403  19.283  26.126  1.00  0.00     0.251 C 
ATOM     35  H   UNL A   1      39.638  18.425  25.699  1.00  0.00     0.163 HD
ATOM     36  O   UNL A   1      42.036  18.255  26.046  1.00  0.00    -0.269 OA
BRANCH  34  37
ATOM     37  C   UNL A   1      42.119  20.549  26.406  1.00  0.00     0.039 A 
ATOM     38  C   UNL A   1      42.700  21.242  25.344  1.00  0.00     0.014 A 
ATOM     39  C   UNL A   1      42.225  21.047  27.701  1.00  0.00     0.014 A 
ATOM     40  C   UNL A   1      43.262  22.505  25.562  1.00  0.00     0.010 A 
ATOM     41  C   UNL A   1      42.731  22.337  27.907  1.00  0.00     0.010 A 
ATOM     42  C   UNL A   1      43.218  23.099  26.834  1.00  0.00    -0.014 A 
BRANCH  42  43
ATOM     43  C   UNL A   1      43.619  24.525  27.026  1.00  0.00     0.031 A 
ATOM     44  C   UNL A   1      42.638  25.557  27.512  1.00  0.00     0.074 A 
ATOM     45  C   UNL A   1      44.873  24.914  26.710  1.00  0.00     0.049 A 
ATOM     46  N   UNL A   1      42.829  26.832  27.753  1.00  0.00    -0.248 NA
ATOM     47  C   UNL A   1      41.256  25.110  27.728  1.00  0.00     0.031 C 
ATOM     48  C   UNL A   1      45.914  24.045  26.159  1.00  0.00     0.029 A 
ATOM     49  N   UNL A   1      45.490  26.138  26.815  1.00  0.00    -0.354 N 
ATOM     50  C   UNL A   1      41.595  27.336  28.139  1.00  0.00     0.074 A 
ATOM     51  C   UNL A   1      40.649  26.246  28.035  1.00  0.00     0.031 C 
ATOM     52  C   UNL A   1      47.053  24.746  26.032  1.00  0.00     0.029 A 
ATOM     53  C   UNL A   1      46.818  26.122  26.459  1.00  0.00     0.049 A 
ATOM     54  H   UNL A   1      45.025  26.952  27.117  1.00  0.00     0.167 HD
ATOM     55  C   UNL A   1      41.279  28.582  28.571  1.00  0.00     0.037 A 
ATOM     56  C   UNL A   1      47.749  27.096  26.488  1.00  0.00     0.037 A 
ATOM     57  C   UNL A   1      42.217  29.666  28.707  1.00  0.00     0.049 A 
ATOM     58  C   UNL A   1      47.376  28.470  26.972  1.00  0.00     0.074 A 
ATOM     59  C   UNL A   1      42.002  30.937  29.213  1.00  0.00     0.029 A 
ATOM     60  N   UNL A   1      43.551  29.609  28.330  1.00  0.00    -0.354 N 
ATOM     61  N   UNL A   1      46.227  28.904  27.426  1.00  0.00    -0.248 NA
ATOM     62  C   UNL A   1      48.436  29.489  26.952  1.00  0.00     0.031 C 
ATOM     63  C   UNL A   1      43.194  31.662  29.101  1.00  0.00     0.029 A 
ATOM     64  C   UNL A   1      44.164  30.830  28.566  1.00  0.00     0.049 A 
ATOM     65  H   UNL A   1      43.997  28.817  27.950  1.00  0.00     0.167 HD
ATOM     66  C   UNL A   1      46.431  30.233  27.773  1.00  0.00     0.074 A 
ATOM     67  C   UNL A   1      47.819  30.533  27.486  1.00  0.00     0.031 C 
ATOM     68  C   UNL A   1      45.546  31.122  28.286  1.00  0.00     0.037 A 
BRANCH  55  69
ATOM     69  C   UNL A   1      39.844  28.836  28.940  1.00  0.00     0.064 A 
ATOM     70  C   UNL A   1      38.918  29.315  28.000  1.00  0.00     0.173 A 
ATOM     71  C   UNL A   1      39.388  28.587  30.243  1.00  0.00     0.173 A 
ATOM     72  F   UNL A   1      39.306  29.576  26.743  1.00  0.00    -0.203 F 
ATOM     73  C   UNL A   1      37.600  29.577  28.363  1.00  0.00     0.198 A 
ATOM     74  C   UNL A   1      38.060  28.820  30.594  1.00  0.00     0.198 A 
ATOM     75  F   UNL A   1      40.229  28.119  31.177  1.00  0.00    -0.203 F 
ATOM     76  F   UNL A   1      36.751  30.093  27.463  1.00  0.00    -0.200 F 
ATOM     77  C   UNL A   1      37.172  29.326  29.657  1.00  0.00     0.200 A 
ATOM     78  F   UNL A   1      37.643  28.563  31.841  1.00  0.00    -0.200 F 
ATOM     79  F   UNL A   1      35.903  29.582  30.004  1.00  0.00    -0.200 F 
ENDBRANCH  55  69
BRANCH  56  80
ATOM     80  C   UNL A   1      49.153  26.791  26.105  1.00  0.00     0.064 A 
ATOM     81  C   UNL A   1      49.590  26.986  24.787  1.00  0.00     0.173 A 
ATOM     82  C   UNL A   1      50.079  26.299  27.034  1.00  0.00     0.173 A 
ATOM     83  F   UNL A   1      48.732  27.434  23.858  1.00  0.00    -0.203 F 
ATOM     84  C   UNL A   1      50.898  26.690  24.409  1.00  0.00     0.198 A 
ATOM     85  C   UNL A   1      51.394  26.025  26.662  1.00  0.00     0.198 A 
ATOM     86  F   UNL A   1      49.711  26.096  28.308  1.00  0.00    -0.203 F 
ATOM     87  F   UNL A   1      51.278  26.853  23.135  1.00  0.00    -0.200 F 
ATOM     88  C   UNL A   1      51.801  26.216  25.349  1.00  0.00     0.200 A 
ATOM     89  F   UNL A   1      52.268  25.578  27.573  1.00  0.00    -0.200 F 
ATOM     90  F   UNL A   1      53.060  25.937  24.988  1.00  0.00    -0.200 F 
ENDBRANCH  56  80
BRANCH  68  91
ATOM     91  C   UNL A   1      46.054  32.499  28.604  1.00  0.00     0.064 A 
ATOM     92  C   UNL A   1      46.603  32.810  29.857  1.00  0.00     0.173 A 
ATOM     93  C   UNL A   1      46.024  33.509  27.631  1.00  0.00     0.173 A 
ATOM     94  F   UNL A   1      46.639  31.884  30.826  1.00  0.00    -0.203 F 
ATOM     95  C   UNL A   1      47.085  34.088  30.130  1.00  0.00     0.198 A 
ATOM     96  C   UNL A   1      46.530  34.779  27.899  1.00  0.00     0.198 A 
ATOM     97  F   UNL A   1      45.512  33.263  26.415  1.00  0.00    -0.203 F 
ATOM     98  F   UNL A   1      47.566  34.375  31.348  1.00  0.00    -0.200 F 
ATOM     99  C   UNL A   1      47.054  35.068  29.149  1.00  0.00     0.200 A 
ATOM    100  F   UNL A   1      46.509  35.722  26.946  1.00  0.00    -0.200 F 
ATOM    101  F   UNL A   1      47.523  36.296  29.412  1.00  0.00    -0.200 F 
ENDBRANCH  68  91
ENDBRANCH  42  43
ENDBRANCH  34  37
ENDBRANCH  32  33
ENDBRANCH  31  32
ENDBRANCH  30  31
ENDBRANCH   3  30
TORSDOF 16
ENDMDL
MODEL 3
REMARK VINA RESULT:     -13.4      1.266      2.930
REMARK SMILES Cc1ccc(NC(=O)C[C@H]2C(=O)NCCN2C(=O)CCC(=O)NCCCNC(=O)c2ccc(-c3c4nc(c(-c5c(F)c(F)c(F)c(F)c5F)c5ccc([nH]5)c(-c5c(F)c(F)c(F)c(F)c5F)c5nc(c(-c6c(F)c(F)c(F)c(F)c6F)c6ccc3[nH]6)C=C5)C=C4)cc2)c(C)c1
REMARK SMILES IDX 21 1 22 2 23 3 20 5 19 6 17 7 18 8 16 9 10 10 11 11 12 12
REMARK SMILES IDX 13 13 15 14 14 15 9 17 7 18 6 19 8 21 5 22 1 23 2 24 3 25
REMARK SMILES IDX 95 26 4 27 93 28 94 29 24 30 25 31 26 32 27 33 28 34 29 36
REMARK SMILES IDX 30 37 31 38 92 39 32 40 91 41 33 42 34 43 35 44 85 45 36 46
REMARK SMILES IDX 90 47 84 48 86 49 37 50 89 51 83 52 82 53 38 55 70 56 50 57
REMARK SMILES IDX 69 58 51 59 54 60 68 61 87 62 52 63 53 64 67 66 88 67 55 68
REMARK SMILES IDX 39 69 40 70 48 71 41 72 42 73 46 74 49 75 43 76 44 77 47 78
REMARK SMILES IDX 45 79 71 80 72 81 80 82 73 83 74 84 78 85 81 86 75 87 76 88
REMARK SMILES IDX 79 89 77 90 56 91 57 92 65 93 58 94 59 95 63 96 66 97 60 98
REMARK SMILES IDX 61 99 64 100 62 101
REMARK H PARENT 23 4 13 16 6 20 27 35 86 54 54 65
REMARK Flexibility Score: inf
ROOT
ATOM      1  C   UNL A   1      34.410  18.607  24.623  1.00  0.00     0.220 C 
ATOM      2  O   UNL A   1      34.100  17.414  24.664  1.00  0.00    -0.275 OA
ATOM      3  N   UNL A   1      35.679  18.965  24.967  1.00  0.00    -0.356 N 
ATOM      4  H   UNL A   1      36.204  18.187  25.261  1.00  0.00     0.163 HD
ENDROOT
BRANCH   1   5
ATOM      5  C   UNL A   1      33.380  19.631  24.324  1.00  0.00     0.110 C 
BRANCH   5   6
ATOM      6  C   UNL A   1      32.899  20.198  25.638  1.00  0.00     0.110 C 
BRANCH   6   7
ATOM      7  C   UNL A   1      32.294  21.536  25.382  1.00  0.00     0.223 C 
ATOM      8  O   UNL A   1      31.056  21.601  25.432  1.00  0.00    -0.275 OA
BRANCH   7   9
ATOM      9  N   UNL A   1      33.067  22.651  25.012  1.00  0.00    -0.328 N 
ATOM     10  C   UNL A   1      33.519  23.116  23.597  1.00  0.00     0.183 C 
ATOM     11  C   UNL A   1      35.068  23.307  23.616  1.00  0.00     0.243 C 
ATOM     12  O   UNL A   1      35.743  23.324  22.588  1.00  0.00    -0.273 OA
ATOM     13  N   UNL A   1      35.709  23.531  24.800  1.00  0.00    -0.353 N 
ATOM     14  C   UNL A   1      33.698  23.196  26.224  1.00  0.00     0.141 C 
ATOM     15  C   UNL A   1      35.100  23.723  26.087  1.00  0.00     0.137 C 
ATOM     16  H   UNL A   1      36.693  23.566  24.769  1.00  0.00     0.163 HD
BRANCH  10  17
ATOM     17  C   UNL A   1      32.841  24.187  22.427  1.00  0.00     0.135 C 
BRANCH  17  18
ATOM     18  C   UNL A   1      32.859  25.680  21.664  1.00  0.00     0.227 C 
ATOM     19  N   UNL A   1      32.559  27.013  21.929  1.00  0.00    -0.326 N 
ATOM     20  H   UNL A   1      32.239  27.437  21.100  1.00  0.00     0.169 HD
ATOM     21  O   UNL A   1      33.128  25.597  20.441  1.00  0.00    -0.275 OA
BRANCH  19  22
ATOM     22  C   UNL A   1      32.551  27.994  22.986  1.00  0.00     0.044 A 
ATOM     23  C   UNL A   1      32.267  29.204  27.053  1.00  0.00     0.044 C 
ATOM     24  C   UNL A   1      32.489  29.156  25.562  1.00  0.00    -0.051 A 
ATOM     25  C   UNL A   1      33.694  28.695  25.031  1.00  0.00     0.005 A 
ATOM     26  C   UNL A   1      31.419  29.326  24.678  1.00  0.00     0.009 A 
ATOM     27  C   UNL A   1      33.737  28.185  23.718  1.00  0.00     0.026 A 
ATOM     28  C   UNL A   1      31.455  28.779  23.369  1.00  0.00    -0.027 A 
ATOM     29  C   UNL A   1      30.333  29.112  22.432  1.00  0.00     0.046 C 
ENDBRANCH  19  22
ENDBRANCH  17  18
ENDBRANCH  10  17
ENDBRANCH   7   9
ENDBRANCH   6   7
ENDBRANCH   5   6
ENDBRANCH   1   5
BRANCH   3  30
ATOM     30  C   UNL A   1      36.479  20.207  25.016  1.00  0.00     0.117 C 
BRANCH  30  31
ATOM     31  C   UNL A   1      38.071  20.279  24.855  1.00  0.00     0.042 C 
BRANCH  31  32
ATOM     32  C   UNL A   1      39.228  20.333  25.893  1.00  0.00     0.118 C 
BRANCH  32  33
ATOM     33  N   UNL A   1      40.226  19.258  25.804  1.00  0.00    -0.352 N 
ATOM     34  C   UNL A   1      41.584  19.257  26.095  1.00  0.00     0.251 C 
ATOM     35  H   UNL A   1      39.874  18.397  25.484  1.00  0.00     0.163 HD
ATOM     36  O   UNL A   1      42.255  18.262  25.944  1.00  0.00    -0.269 OA
BRANCH  34  37
ATOM     37  C   UNL A   1      42.238  20.508  26.544  1.00  0.00     0.039 A 
ATOM     38  C   UNL A   1      42.881  21.306  25.598  1.00  0.00     0.014 A 
ATOM     39  C   UNL A   1      42.228  20.887  27.882  1.00  0.00     0.014 A 
ATOM     40  C   UNL A   1      43.389  22.556  25.972  1.00  0.00     0.010 A 
ATOM     41  C   UNL A   1      42.678  22.164  28.242  1.00  0.00     0.010 A 
ATOM     42  C   UNL A   1      43.227  23.031  27.284  1.00  0.00    -0.014 A 
BRANCH  42  43
ATOM     43  C   UNL A   1      43.571  24.442  27.633  1.00  0.00     0.031 A 
ATOM     44  C   UNL A   1      44.996  24.925  27.631  1.00  0.00     0.074 A 
ATOM     45  C   UNL A   1      42.594  25.294  28.009  1.00  0.00     0.049 A 
ATOM     46  N   UNL A   1      45.465  26.123  27.887  1.00  0.00    -0.248 NA
ATOM     47  C   UNL A   1      46.034  23.929  27.332  1.00  0.00     0.031 C 
ATOM     48  C   UNL A   1      41.175  24.953  28.130  1.00  0.00     0.029 A 
ATOM     49  N   UNL A   1      42.641  26.625  28.349  1.00  0.00    -0.354 N 
ATOM     50  C   UNL A   1      46.845  26.021  27.788  1.00  0.00     0.074 A 
ATOM     51  C   UNL A   1      47.142  24.631  27.514  1.00  0.00     0.031 C 
ATOM     52  C   UNL A   1      40.482  26.056  28.457  1.00  0.00     0.029 A 
ATOM     53  C   UNL A   1      41.406  27.177  28.603  1.00  0.00     0.049 A 
ATOM     54  H   UNL A   1      43.479  27.137  28.406  1.00  0.00     0.167 HD
ATOM     55  C   UNL A   1      47.782  26.997  27.883  1.00  0.00     0.037 A 
ATOM     56  C   UNL A   1      41.052  28.442  28.901  1.00  0.00     0.037 A 
ATOM     57  C   UNL A   1      47.496  28.388  28.124  1.00  0.00     0.049 A 
ATOM     58  C   UNL A   1      42.108  29.509  29.000  1.00  0.00     0.074 A 
ATOM     59  C   UNL A   1      48.374  29.458  28.155  1.00  0.00     0.029 A 
ATOM     60  N   UNL A   1      46.234  28.903  28.381  1.00  0.00    -0.354 N 
ATOM     61  N   UNL A   1      43.400  29.415  28.807  1.00  0.00    -0.248 NA
ATOM     62  C   UNL A   1      41.652  30.861  29.355  1.00  0.00     0.031 C 
ATOM     63  C   UNL A   1      47.651  30.612  28.475  1.00  0.00     0.029 A 
ATOM     64  C   UNL A   1      46.314  30.270  28.599  1.00  0.00     0.049 A 
ATOM     65  H   UNL A   1      45.403  28.375  28.405  1.00  0.00     0.167 HD
ATOM     66  C   UNL A   1      43.907  30.695  28.985  1.00  0.00     0.074 A 
ATOM     67  C   UNL A   1      42.780  31.552  29.293  1.00  0.00     0.031 C 
ATOM     68  C   UNL A   1      45.191  31.120  28.898  1.00  0.00     0.037 A 
BRANCH  55  69
ATOM     69  C   UNL A   1      49.218  26.588  27.713  1.00  0.00     0.064 A 
ATOM     70  C   UNL A   1      50.055  26.373  28.819  1.00  0.00     0.173 A 
ATOM     71  C   UNL A   1      49.760  26.397  26.434  1.00  0.00     0.173 A 
ATOM     72  F   UNL A   1      49.588  26.550  30.064  1.00  0.00    -0.203 F 
ATOM     73  C   UNL A   1      51.393  26.026  28.649  1.00  0.00     0.198 A 
ATOM     74  C   UNL A   1      51.089  26.018  26.267  1.00  0.00     0.198 A 
ATOM     75  F   UNL A   1      49.000  26.578  25.343  1.00  0.00    -0.203 F 
ATOM     76  F   UNL A   1      52.188  25.887  29.719  1.00  0.00    -0.200 F 
ATOM     77  C   UNL A   1      51.907  25.845  27.374  1.00  0.00     0.200 A 
ATOM     78  F   UNL A   1      51.583  25.828  25.036  1.00  0.00    -0.200 F 
ATOM     79  F   UNL A   1      53.196  25.513  27.213  1.00  0.00    -0.200 F 
ENDBRANCH  55  69
BRANCH  56  80
ATOM     80  C   UNL A   1      39.616  28.791  29.065  1.00  0.00     0.064 A 
ATOM     81  C   UNL A   1      38.862  29.236  27.970  1.00  0.00     0.173 A 
ATOM     82  C   UNL A   1      38.972  28.691  30.305  1.00  0.00     0.173 A 
ATOM     83  F   UNL A   1      39.443  29.369  26.769  1.00  0.00    -0.203 F 
ATOM     84  C   UNL A   1      37.520  29.581  28.112  1.00  0.00     0.198 A 
ATOM     85  C   UNL A   1      37.623  29.013  30.442  1.00  0.00     0.198 A 
ATOM     86  F   UNL A   1      39.649  28.268  31.383  1.00  0.00    -0.203 F 
ATOM     87  F   UNL A   1      36.833  30.039  27.057  1.00  0.00    -0.200 F 
ATOM     88  C   UNL A   1      36.899  29.464  29.347  1.00  0.00     0.200 A 
ATOM     89  F   UNL A   1      37.022  28.887  31.633  1.00  0.00    -0.200 F 
ATOM     90  F   UNL A   1      35.607  29.789  29.482  1.00  0.00    -0.200 F 
ENDBRANCH  56  80
BRANCH  68  91
ATOM     91  C   UNL A   1      45.451  32.584  29.106  1.00  0.00     0.064 A 
ATOM     92  C   UNL A   1      45.799  33.098  30.365  1.00  0.00     0.173 A 
ATOM     93  C   UNL A   1      45.387  33.478  28.027  1.00  0.00     0.173 A 
ATOM     94  F   UNL A   1      45.857  32.288  31.432  1.00  0.00    -0.203 F 
ATOM     95  C   UNL A   1      46.053  34.456  30.538  1.00  0.00     0.198 A 
ATOM     96  C   UNL A   1      45.667  34.831  28.199  1.00  0.00     0.198 A 
ATOM     97  F   UNL A   1      45.062  33.038  26.802  1.00  0.00    -0.203 F 
ATOM     98  F   UNL A   1      46.342  34.932  31.757  1.00  0.00    -0.200 F 
ATOM     99  C   UNL A   1      45.994  35.320  29.454  1.00  0.00     0.200 A 
ATOM    100  F   UNL A   1      45.620  35.663  27.148  1.00  0.00    -0.200 F 
ATOM    101  F   UNL A   1      46.244  36.626  29.622  1.00  0.00    -0.200 F 
ENDBRANCH  68  91
ENDBRANCH  42  43
ENDBRANCH  34  37
ENDBRANCH  32  33
ENDBRANCH  31  32
ENDBRANCH  30  31
ENDBRANCH   3  30
TORSDOF 16
ENDMDL
