MODEL 1
REMARK VINA RESULT:     -13.0      0.000      0.000
REMARK SMILES O=C(NCCCNC(=O)[C@@H]1CCn2c(C(=O)c3ccccc3)ccc21)c1ccc(-c2c3nc(c(-c4c(F)c(F)c(F)c(F)c4F)c4ccc([nH]4)c(-c4c(F)c(F)c(F)c(F)c4F)c4nc(c(-c5c(F)c(F)c(F)c(F)c5F)c5ccc2[nH]5)C=C4)C=C3)cc1
REMARK SMILES IDX 5 1 4 2 3 3 1 4 2 5 26 7 27 8 88 9 28 10 87 11 29 12 30 13
REMARK SMILES IDX 31 14 81 15 32 16 86 17 80 18 82 19 33 20 85 21 79 22 78 23
REMARK SMILES IDX 34 25 66 26 46 27 65 28 47 29 50 30 64 31 83 32 48 33 49 34
REMARK SMILES IDX 63 36 84 37 51 38 35 39 36 40 44 41 37 42 38 43 42 44 45 45
REMARK SMILES IDX 39 46 40 47 43 48 41 49 67 50 68 51 76 52 69 53 70 54 74 55
REMARK SMILES IDX 77 56 71 57 72 58 75 59 73 60 52 61 53 62 61 63 54 64 55 65
REMARK SMILES IDX 59 66 62 67 56 68 57 69 60 70 58 71 6 72 7 73 8 74 9 76
REMARK SMILES IDX 10 77 11 78 25 79 12 80 13 81 24 82 14 83 23 84 15 85 16 86
REMARK SMILES IDX 17 87 18 88 22 89 19 90 21 91 20 92
REMARK H PARENT 3 6 82 24 50 35 7 75
REMARK Flexibility Score: inf
ROOT
ATOM      1  C   UNL A   1      31.360  31.797  26.501  1.00  0.00     0.042 C 
ENDROOT
BRANCH   1   2
ATOM      2  C   UNL A   1      32.660  32.497  26.876  1.00  0.00     0.118 C 
BRANCH   2   3
ATOM      3  N   UNL A   1      32.444  33.828  27.426  1.00  0.00    -0.352 N 
ATOM      4  O   UNL A   1      32.619  35.520  28.899  1.00  0.00    -0.269 OA
ATOM      5  C   UNL A   1      33.067  34.459  28.474  1.00  0.00     0.251 C 
ATOM      6  H   UNL A   1      31.743  34.355  26.979  1.00  0.00     0.163 HD
BRANCH   5   7
ATOM      7  C   UNL A   1      34.266  33.864  29.103  1.00  0.00     0.039 A 
ATOM      8  C   UNL A   1      34.153  32.782  29.977  1.00  0.00     0.014 A 
ATOM      9  C   UNL A   1      35.530  34.372  28.784  1.00  0.00     0.014 A 
ATOM     10  C   UNL A   1      35.278  32.306  30.640  1.00  0.00     0.010 A 
ATOM     11  C   UNL A   1      36.674  33.827  29.378  1.00  0.00     0.010 A 
ATOM     12  C   UNL A   1      36.554  32.805  30.330  1.00  0.00    -0.014 A 
BRANCH  12  13
ATOM     13  C   UNL A   1      37.740  32.169  30.959  1.00  0.00     0.031 A 
ATOM     14  C   UNL A   1      38.176  32.521  32.351  1.00  0.00     0.074 A 
ATOM     15  C   UNL A   1      38.395  31.220  30.261  1.00  0.00     0.049 A 
ATOM     16  N   UNL A   1      39.152  32.010  33.063  1.00  0.00    -0.248 NA
ATOM     17  C   UNL A   1      37.430  33.585  33.040  1.00  0.00     0.031 C 
ATOM     18  C   UNL A   1      38.075  30.814  28.890  1.00  0.00     0.029 A 
ATOM     19  N   UNL A   1      39.442  30.406  30.611  1.00  0.00    -0.354 N 
ATOM     20  C   UNL A   1      39.141  32.690  34.272  1.00  0.00     0.074 A 
ATOM     21  C   UNL A   1      38.083  33.675  34.192  1.00  0.00     0.031 C 
ATOM     22  C   UNL A   1      38.868  29.794  28.535  1.00  0.00     0.029 A 
ATOM     23  C   UNL A   1      39.792  29.513  29.626  1.00  0.00     0.049 A 
ATOM     24  H   UNL A   1      39.898  30.455  31.481  1.00  0.00     0.167 HD
ATOM     25  C   UNL A   1      39.938  32.501  35.352  1.00  0.00     0.037 A 
ATOM     26  C   UNL A   1      40.761  28.579  29.599  1.00  0.00     0.037 A 
ATOM     27  C   UNL A   1      40.985  31.514  35.427  1.00  0.00     0.049 A 
ATOM     28  C   UNL A   1      41.633  28.405  30.808  1.00  0.00     0.074 A 
ATOM     29  C   UNL A   1      41.833  31.231  36.485  1.00  0.00     0.029 A 
ATOM     30  N   UNL A   1      41.331  30.647  34.400  1.00  0.00    -0.354 N 
ATOM     31  N   UNL A   1      41.589  29.033  31.957  1.00  0.00    -0.248 NA
ATOM     32  C   UNL A   1      42.693  27.393  30.715  1.00  0.00     0.031 C 
ATOM     33  C   UNL A   1      42.717  30.223  36.085  1.00  0.00     0.029 A 
ATOM     34  C   UNL A   1      42.391  29.843  34.794  1.00  0.00     0.049 A 
ATOM     35  H   UNL A   1      40.889  30.607  33.521  1.00  0.00     0.167 HD
ATOM     36  C   UNL A   1      42.605  28.489  32.727  1.00  0.00     0.074 A 
ATOM     37  C   UNL A   1      43.226  27.453  31.926  1.00  0.00     0.031 C 
ATOM     38  C   UNL A   1      42.999  28.823  33.980  1.00  0.00     0.037 A 
BRANCH  25  39
ATOM     39  C   UNL A   1      39.716  33.377  36.551  1.00  0.00     0.064 A 
ATOM     40  C   UNL A   1      40.345  34.625  36.673  1.00  0.00     0.173 A 
ATOM     41  C   UNL A   1      38.807  33.000  37.551  1.00  0.00     0.173 A 
ATOM     42  F   UNL A   1      41.231  35.029  35.750  1.00  0.00    -0.203 F 
ATOM     43  C   UNL A   1      40.080  35.458  37.759  1.00  0.00     0.198 A 
ATOM     44  C   UNL A   1      38.527  33.845  38.622  1.00  0.00     0.198 A 
ATOM     45  F   UNL A   1      38.175  31.818  37.479  1.00  0.00    -0.203 F 
ATOM     46  F   UNL A   1      40.714  36.632  37.870  1.00  0.00    -0.200 F 
ATOM     47  C   UNL A   1      39.165  35.071  38.726  1.00  0.00     0.200 A 
ATOM     48  F   UNL A   1      37.632  33.475  39.550  1.00  0.00    -0.200 F 
ATOM     49  F   UNL A   1      38.900  35.880  39.762  1.00  0.00    -0.200 F 
ENDBRANCH  25  39
BRANCH  26  50
ATOM     50  C   UNL A   1      40.959  27.751  28.382  1.00  0.00     0.064 A 
ATOM     51  C   UNL A   1      40.311  26.518  28.229  1.00  0.00     0.173 A 
ATOM     52  C   UNL A   1      41.808  28.175  27.348  1.00  0.00     0.173 A 
ATOM     53  F   UNL A   1      39.504  26.061  29.199  1.00  0.00    -0.203 F 
ATOM     54  C   UNL A   1      40.524  25.729  27.102  1.00  0.00     0.198 A 
ATOM     55  C   UNL A   1      41.992  27.401  26.205  1.00  0.00     0.198 A 
ATOM     56  F   UNL A   1      42.446  29.350  27.442  1.00  0.00    -0.203 F 
ATOM     57  F   UNL A   1      39.933  24.530  27.005  1.00  0.00    -0.200 F 
ATOM     58  C   UNL A   1      41.358  26.174  26.088  1.00  0.00     0.200 A 
ATOM     59  F   UNL A   1      42.786  27.844  25.220  1.00  0.00    -0.200 F 
ATOM     60  F   UNL A   1      41.560  25.416  25.001  1.00  0.00    -0.200 F 
ENDBRANCH  26  50
BRANCH  38  61
ATOM     61  C   UNL A   1      44.145  28.045  34.557  1.00  0.00     0.064 A 
ATOM     62  C   UNL A   1      43.936  26.855  35.270  1.00  0.00     0.173 A 
ATOM     63  C   UNL A   1      45.464  28.493  34.395  1.00  0.00     0.173 A 
ATOM     64  F   UNL A   1      42.691  26.395  35.467  1.00  0.00    -0.203 F 
ATOM     65  C   UNL A   1      45.005  26.161  35.831  1.00  0.00     0.198 A 
ATOM     66  C   UNL A   1      46.532  27.780  34.931  1.00  0.00     0.198 A 
ATOM     67  F   UNL A   1      45.716  29.623  33.717  1.00  0.00    -0.203 F 
ATOM     68  F   UNL A   1      44.777  25.059  36.559  1.00  0.00    -0.200 F 
ATOM     69  C   UNL A   1      46.301  26.622  35.658  1.00  0.00     0.200 A 
ATOM     70  F   UNL A   1      47.785  28.220  34.753  1.00  0.00    -0.200 F 
ATOM     71  F   UNL A   1      47.329  25.954  36.200  1.00  0.00    -0.200 F 
ENDBRANCH  38  61
ENDBRANCH  12  13
ENDBRANCH   5   7
ENDBRANCH   2   3
ENDBRANCH   1   2
BRANCH   1  72
ATOM     72  C   UNL A   1      31.542  30.343  26.083  1.00  0.00     0.117 C 
BRANCH  72  73
ATOM     73  N   UNL A   1      31.028  30.097  24.750  1.00  0.00    -0.355 N 
ATOM     74  C   UNL A   1      31.195  29.008  23.937  1.00  0.00     0.229 C 
ATOM     75  H   UNL A   1      30.475  30.820  24.373  1.00  0.00     0.163 HD
ATOM     76  O   UNL A   1      30.708  29.071  22.808  1.00  0.00    -0.274 OA
BRANCH  74  77
ATOM     77  C   UNL A   1      31.971  27.812  24.477  1.00  0.00     0.127 C 
ATOM     78  C   UNL A   1      33.453  27.839  24.029  1.00  0.00     0.042 C 
ATOM     79  C   UNL A   1      31.519  26.505  23.929  1.00  0.00     0.031 A 
ATOM     80  C   UNL A   1      33.849  26.378  23.779  1.00  0.00     0.124 C 
ATOM     81  N   UNL A   1      32.576  25.718  23.565  1.00  0.00    -0.341 N 
ATOM     82  C   UNL A   1      30.363  25.823  23.666  1.00  0.00     0.025 A 
ATOM     83  C   UNL A   1      32.166  24.513  23.079  1.00  0.00     0.090 A 
ATOM     84  C   UNL A   1      30.770  24.573  23.126  1.00  0.00     0.032 A 
BRANCH  83  85
ATOM     85  C   UNL A   1      32.947  23.399  22.564  1.00  0.00     0.209 C 
ATOM     86  O   UNL A   1      33.449  23.392  21.441  1.00  0.00    -0.287 OA
BRANCH  85  87
ATOM     87  C   UNL A   1      33.202  22.208  23.398  1.00  0.00     0.024 A 
ATOM     88  C   UNL A   1      32.304  21.138  23.325  1.00  0.00     0.012 A 
ATOM     89  C   UNL A   1      34.294  22.158  24.270  1.00  0.00     0.012 A 
ATOM     90  C   UNL A   1      32.529  19.993  24.089  1.00  0.00     0.001 A 
ATOM     91  C   UNL A   1      34.521  21.005  25.026  1.00  0.00     0.001 A 
ATOM     92  C   UNL A   1      33.642  19.924  24.929  1.00  0.00     0.000 A 
ENDBRANCH  85  87
ENDBRANCH  83  85
ENDBRANCH  74  77
ENDBRANCH  72  73
ENDBRANCH   1  72
TORSDOF 12
ENDMDL
MODEL 2
REMARK VINA RESULT:     -13.0      0.772      1.934
REMARK SMILES O=C(NCCCNC(=O)[C@@H]1CCn2c(C(=O)c3ccccc3)ccc21)c1ccc(-c2c3nc(c(-c4c(F)c(F)c(F)c(F)c4F)c4ccc([nH]4)c(-c4c(F)c(F)c(F)c(F)c4F)c4nc(c(-c5c(F)c(F)c(F)c(F)c5F)c5ccc2[nH]5)C=C4)C=C3)cc1
REMARK SMILES IDX 5 1 4 2 3 3 1 4 2 5 26 7 27 8 88 9 28 10 87 11 29 12 30 13
REMARK SMILES IDX 31 14 81 15 32 16 86 17 80 18 82 19 33 20 85 21 79 22 78 23
REMARK SMILES IDX 34 25 66 26 46 27 65 28 47 29 50 30 64 31 83 32 48 33 49 34
REMARK SMILES IDX 63 36 84 37 51 38 35 39 36 40 44 41 37 42 38 43 42 44 45 45
REMARK SMILES IDX 39 46 40 47 43 48 41 49 67 50 68 51 76 52 69 53 70 54 74 55
REMARK SMILES IDX 77 56 71 57 72 58 75 59 73 60 52 61 53 62 61 63 54 64 55 65
REMARK SMILES IDX 59 66 62 67 56 68 57 69 60 70 58 71 6 72 7 73 8 74 9 76
REMARK SMILES IDX 10 77 11 78 25 79 12 80 13 81 24 82 14 83 23 84 15 85 16 86
REMARK SMILES IDX 17 87 18 88 22 89 19 90 21 91 20 92
REMARK H PARENT 3 6 82 24 50 35 7 75
REMARK Flexibility Score: inf
ROOT
ATOM      1  C   UNL A   1      31.258  31.829  26.326  1.00  0.00     0.042 C 
ENDROOT
BRANCH   1   2
ATOM      2  C   UNL A   1      32.542  32.437  26.876  1.00  0.00     0.118 C 
BRANCH   2   3
ATOM      3  N   UNL A   1      32.354  33.793  27.372  1.00  0.00    -0.352 N 
ATOM      4  O   UNL A   1      32.579  35.543  28.769  1.00  0.00    -0.269 OA
ATOM      5  C   UNL A   1      33.005  34.458  28.382  1.00  0.00     0.251 C 
ATOM      6  H   UNL A   1      31.654  34.311  26.915  1.00  0.00     0.163 HD
BRANCH   5   7
ATOM      7  C   UNL A   1      34.205  33.872  29.016  1.00  0.00     0.039 A 
ATOM      8  C   UNL A   1      34.093  32.815  29.920  1.00  0.00     0.014 A 
ATOM      9  C   UNL A   1      35.470  34.363  28.672  1.00  0.00     0.014 A 
ATOM     10  C   UNL A   1      35.221  32.349  30.585  1.00  0.00     0.010 A 
ATOM     11  C   UNL A   1      36.615  33.826  29.270  1.00  0.00     0.010 A 
ATOM     12  C   UNL A   1      36.497  32.830  30.251  1.00  0.00    -0.014 A 
BRANCH  12  13
ATOM     13  C   UNL A   1      37.685  32.203  30.885  1.00  0.00     0.031 A 
ATOM     14  C   UNL A   1      38.130  32.582  32.268  1.00  0.00     0.074 A 
ATOM     15  C   UNL A   1      38.334  31.239  30.203  1.00  0.00     0.049 A 
ATOM     16  N   UNL A   1      39.108  32.082  32.984  1.00  0.00    -0.248 NA
ATOM     17  C   UNL A   1      37.391  33.662  32.939  1.00  0.00     0.031 C 
ATOM     18  C   UNL A   1      38.004  30.806  28.842  1.00  0.00     0.029 A 
ATOM     19  N   UNL A   1      39.380  30.428  30.563  1.00  0.00    -0.354 N 
ATOM     20  C   UNL A   1      39.107  32.787  34.179  1.00  0.00     0.074 A 
ATOM     21  C   UNL A   1      38.050  33.773  34.085  1.00  0.00     0.031 C 
ATOM     22  C   UNL A   1      38.792  29.777  28.503  1.00  0.00     0.029 A 
ATOM     23  C   UNL A   1      39.722  29.515  29.595  1.00  0.00     0.049 A 
ATOM     24  H   UNL A   1      39.841  30.494  31.430  1.00  0.00     0.167 HD
ATOM     25  C   UNL A   1      39.908  32.617  35.258  1.00  0.00     0.037 A 
ATOM     26  C   UNL A   1      40.687  28.578  29.581  1.00  0.00     0.037 A 
ATOM     27  C   UNL A   1      40.953  31.628  35.347  1.00  0.00     0.049 A 
ATOM     28  C   UNL A   1      41.566  28.425  30.789  1.00  0.00     0.074 A 
ATOM     29  C   UNL A   1      41.806  31.365  36.407  1.00  0.00     0.029 A 
ATOM     30  N   UNL A   1      41.290  30.739  34.337  1.00  0.00    -0.354 N 
ATOM     31  N   UNL A   1      41.530  29.076  31.925  1.00  0.00    -0.248 NA
ATOM     32  C   UNL A   1      42.621  27.408  30.711  1.00  0.00     0.031 C 
ATOM     33  C   UNL A   1      42.685  30.346  36.022  1.00  0.00     0.029 A 
ATOM     34  C   UNL A   1      42.350  29.940  34.741  1.00  0.00     0.049 A 
ATOM     35  H   UNL A   1      40.844  30.684  33.461  1.00  0.00     0.167 HD
ATOM     36  C   UNL A   1      42.549  28.544  32.700  1.00  0.00     0.074 A 
ATOM     37  C   UNL A   1      43.162  27.491  31.917  1.00  0.00     0.031 C 
ATOM     38  C   UNL A   1      42.950  28.902  33.944  1.00  0.00     0.037 A 
BRANCH  25  39
ATOM     39  C   UNL A   1      39.696  33.518  36.441  1.00  0.00     0.064 A 
ATOM     40  C   UNL A   1      40.297  34.784  36.515  1.00  0.00     0.173 A 
ATOM     41  C   UNL A   1      38.823  33.144  37.474  1.00  0.00     0.173 A 
ATOM     42  F   UNL A   1      41.148  35.185  35.560  1.00  0.00    -0.203 F 
ATOM     43  C   UNL A   1      40.039  35.637  37.587  1.00  0.00     0.198 A 
ATOM     44  C   UNL A   1      38.549  34.009  38.531  1.00  0.00     0.198 A 
ATOM     45  F   UNL A   1      38.219  31.946  37.448  1.00  0.00    -0.203 F 
ATOM     46  F   UNL A   1      40.646  36.829  37.652  1.00  0.00    -0.200 F 
ATOM     47  C   UNL A   1      39.159  35.253  38.587  1.00  0.00     0.200 A 
ATOM     48  F   UNL A   1      37.689  33.641  39.491  1.00  0.00    -0.200 F 
ATOM     49  F   UNL A   1      38.901  36.082  39.609  1.00  0.00    -0.200 F 
ENDBRANCH  25  39
BRANCH  26  50
ATOM     50  C   UNL A   1      40.875  27.724  28.380  1.00  0.00     0.064 A 
ATOM     51  C   UNL A   1      41.698  28.132  27.322  1.00  0.00     0.173 A 
ATOM     52  C   UNL A   1      40.228  26.484  28.264  1.00  0.00     0.173 A 
ATOM     53  F   UNL A   1      42.324  29.317  27.378  1.00  0.00    -0.203 F 
ATOM     54  C   UNL A   1      41.848  27.345  26.183  1.00  0.00     0.198 A 
ATOM     55  C   UNL A   1      40.406  25.682  27.139  1.00  0.00     0.198 A 
ATOM     56  F   UNL A   1      39.435  26.046  29.251  1.00  0.00    -0.203 F 
ATOM     57  F   UNL A   1      42.599  27.782  25.163  1.00  0.00    -0.200 F 
ATOM     58  C   UNL A   1      41.207  26.118  26.095  1.00  0.00     0.200 A 
ATOM     59  F   UNL A   1      39.799  24.490  27.068  1.00  0.00    -0.200 F 
ATOM     60  F   UNL A   1      41.354  25.358  25.001  1.00  0.00    -0.200 F 
ENDBRANCH  26  50
BRANCH  38  61
ATOM     61  C   UNL A   1      44.097  28.133  34.531  1.00  0.00     0.064 A 
ATOM     62  C   UNL A   1      45.423  28.568  34.379  1.00  0.00     0.173 A 
ATOM     63  C   UNL A   1      43.870  26.952  35.252  1.00  0.00     0.173 A 
ATOM     64  F   UNL A   1      45.693  29.682  33.682  1.00  0.00    -0.203 F 
ATOM     65  C   UNL A   1      46.482  27.828  34.898  1.00  0.00     0.198 A 
ATOM     66  C   UNL A   1      44.929  26.231  35.795  1.00  0.00     0.198 A 
ATOM     67  F   UNL A   1      42.620  26.497  35.428  1.00  0.00    -0.203 F 
ATOM     68  F   UNL A   1      47.743  28.229  34.690  1.00  0.00    -0.200 F 
ATOM     69  C   UNL A   1      46.233  26.663  35.609  1.00  0.00     0.200 A 
ATOM     70  F   UNL A   1      44.687  25.112  36.491  1.00  0.00    -0.200 F 
ATOM     71  F   UNL A   1      47.253  25.950  36.105  1.00  0.00    -0.200 F 
ENDBRANCH  38  61
ENDBRANCH  12  13
ENDBRANCH   5   7
ENDBRANCH   2   3
ENDBRANCH   1   2
BRANCH   1  72
ATOM     72  C   UNL A   1      31.442  30.438  25.729  1.00  0.00     0.117 C 
BRANCH  72  73
ATOM     73  N   UNL A   1      31.682  29.440  26.753  1.00  0.00    -0.355 N 
ATOM     74  C   UNL A   1      31.527  28.081  26.701  1.00  0.00     0.229 C 
ATOM     75  H   UNL A   1      32.005  29.792  27.615  1.00  0.00     0.163 HD
ATOM     76  O   UNL A   1      31.733  27.452  27.739  1.00  0.00    -0.274 OA
BRANCH  74  77
ATOM     77  C   UNL A   1      31.107  27.449  25.378  1.00  0.00     0.127 C 
ATOM     78  C   UNL A   1      30.320  26.134  25.594  1.00  0.00     0.042 C 
ATOM     79  C   UNL A   1      32.248  26.980  24.546  1.00  0.00     0.031 A 
ATOM     80  C   UNL A   1      30.742  25.193  24.458  1.00  0.00     0.124 C 
ATOM     81  N   UNL A   1      32.017  25.736  24.031  1.00  0.00    -0.341 N 
ATOM     82  C   UNL A   1      33.478  27.402  24.123  1.00  0.00     0.025 A 
ATOM     83  C   UNL A   1      33.053  25.310  23.254  1.00  0.00     0.090 A 
ATOM     84  C   UNL A   1      33.986  26.349  23.315  1.00  0.00     0.032 A 
BRANCH  83  85
ATOM     85  C   UNL A   1      33.231  24.054  22.542  1.00  0.00     0.209 C 
ATOM     86  O   UNL A   1      33.278  23.979  21.315  1.00  0.00    -0.287 OA
BRANCH  85  87
ATOM     87  C   UNL A   1      33.398  22.786  23.279  1.00  0.00     0.024 A 
ATOM     88  C   UNL A   1      32.392  21.819  23.179  1.00  0.00     0.012 A 
ATOM     89  C   UNL A   1      34.516  22.564  24.090  1.00  0.00     0.012 A 
ATOM     90  C   UNL A   1      32.530  20.605  23.851  1.00  0.00     0.001 A 
ATOM     91  C   UNL A   1      34.654  21.342  24.752  1.00  0.00     0.001 A 
ATOM     92  C   UNL A   1      33.666  20.364  24.627  1.00  0.00     0.000 A 
ENDBRANCH  85  87
ENDBRANCH  83  85
ENDBRANCH  74  77
ENDBRANCH  72  73
ENDBRANCH   1  72
TORSDOF 12
ENDMDL
MODEL 3
REMARK VINA RESULT:     -12.9      0.156      1.689
REMARK SMILES O=C(NCCCNC(=O)[C@@H]1CCn2c(C(=O)c3ccccc3)ccc21)c1ccc(-c2c3nc(c(-c4c(F)c(F)c(F)c(F)c4F)c4ccc([nH]4)c(-c4c(F)c(F)c(F)c(F)c4F)c4nc(c(-c5c(F)c(F)c(F)c(F)c5F)c5ccc2[nH]5)C=C4)C=C3)cc1
REMARK SMILES IDX 5 1 4 2 3 3 1 4 2 5 26 7 27 8 88 9 28 10 87 11 29 12 30 13
REMARK SMILES IDX 31 14 81 15 32 16 86 17 80 18 82 19 33 20 85 21 79 22 78 23
REMARK SMILES IDX 34 25 66 26 46 27 65 28 47 29 50 30 64 31 83 32 48 33 49 34
REMARK SMILES IDX 63 36 84 37 51 38 35 39 36 40 44 41 37 42 38 43 42 44 45 45
REMARK SMILES IDX 39 46 40 47 43 48 41 49 67 50 68 51 76 52 69 53 70 54 74 55
REMARK SMILES IDX 77 56 71 57 72 58 75 59 73 60 52 61 53 62 61 63 54 64 55 65
REMARK SMILES IDX 59 66 62 67 56 68 57 69 60 70 58 71 6 72 7 73 8 74 9 76
REMARK SMILES IDX 10 77 11 78 25 79 12 80 13 81 24 82 14 83 23 84 15 85 16 86
REMARK SMILES IDX 17 87 18 88 22 89 19 90 21 91 20 92
REMARK H PARENT 3 6 82 24 50 35 7 75
REMARK Flexibility Score: inf
ROOT
ATOM      1  C   UNL A   1      31.237  31.808  26.470  1.00  0.00     0.042 C 
ENDROOT
BRANCH   1   2
ATOM      2  C   UNL A   1      32.539  32.487  26.876  1.00  0.00     0.118 C 
BRANCH   2   3
ATOM      3  N   UNL A   1      32.334  33.829  27.400  1.00  0.00    -0.352 N 
ATOM      4  O   UNL A   1      32.527  35.550  28.839  1.00  0.00    -0.269 OA
ATOM      5  C   UNL A   1      32.966  34.478  28.432  1.00  0.00     0.251 C 
ATOM      6  H   UNL A   1      31.636  34.352  26.945  1.00  0.00     0.163 HD
BRANCH   5   7
ATOM      7  C   UNL A   1      34.164  33.887  29.069  1.00  0.00     0.039 A 
ATOM      8  C   UNL A   1      34.047  32.814  29.954  1.00  0.00     0.014 A 
ATOM      9  C   UNL A   1      35.429  34.389  28.745  1.00  0.00     0.014 A 
ATOM     10  C   UNL A   1      35.171  32.343  30.623  1.00  0.00     0.010 A 
ATOM     11  C   UNL A   1      36.571  33.848  29.346  1.00  0.00     0.010 A 
ATOM     12  C   UNL A   1      36.448  32.836  30.309  1.00  0.00    -0.014 A 
BRANCH  12  13
ATOM     13  C   UNL A   1      37.633  32.204  30.945  1.00  0.00     0.031 A 
ATOM     14  C   UNL A   1      38.056  32.555  32.341  1.00  0.00     0.074 A 
ATOM     15  C   UNL A   1      38.298  31.261  30.250  1.00  0.00     0.049 A 
ATOM     16  N   UNL A   1      39.029  32.047  33.059  1.00  0.00    -0.248 NA
ATOM     17  C   UNL A   1      37.300  33.614  33.027  1.00  0.00     0.031 C 
ATOM     18  C   UNL A   1      37.990  30.856  28.875  1.00  0.00     0.029 A 
ATOM     19  N   UNL A   1      39.346  30.451  30.605  1.00  0.00    -0.354 N 
ATOM     20  C   UNL A   1      39.006  32.725  34.269  1.00  0.00     0.074 A 
ATOM     21  C   UNL A   1      37.944  33.705  34.184  1.00  0.00     0.031 C 
ATOM     22  C   UNL A   1      38.791  29.841  28.524  1.00  0.00     0.029 A 
ATOM     23  C   UNL A   1      39.708  29.562  29.622  1.00  0.00     0.049 A 
ATOM     24  H   UNL A   1      39.796  30.500  31.480  1.00  0.00     0.167 HD
ATOM     25  C   UNL A   1      39.795  32.537  35.355  1.00  0.00     0.037 A 
ATOM     26  C   UNL A   1      40.681  28.633  29.600  1.00  0.00     0.037 A 
ATOM     27  C   UNL A   1      40.848  31.555  35.436  1.00  0.00     0.049 A 
ATOM     28  C   UNL A   1      41.546  28.460  30.815  1.00  0.00     0.074 A 
ATOM     29  C   UNL A   1      41.688  31.275  36.500  1.00  0.00     0.029 A 
ATOM     30  N   UNL A   1      41.205  30.692  34.410  1.00  0.00    -0.354 N 
ATOM     31  N   UNL A   1      41.489  29.085  31.965  1.00  0.00    -0.248 NA
ATOM     32  C   UNL A   1      42.611  27.454  30.728  1.00  0.00     0.031 C 
ATOM     33  C   UNL A   1      42.580  30.272  36.104  1.00  0.00     0.029 A 
ATOM     34  C   UNL A   1      42.266  29.893  34.810  1.00  0.00     0.049 A 
ATOM     35  H   UNL A   1      40.770  30.652  33.528  1.00  0.00     0.167 HD
ATOM     36  C   UNL A   1      42.503  28.545  32.742  1.00  0.00     0.074 A 
ATOM     37  C   UNL A   1      43.135  27.514  31.943  1.00  0.00     0.031 C 
ATOM     38  C   UNL A   1      42.885  28.877  33.998  1.00  0.00     0.037 A 
BRANCH  25  39
ATOM     39  C   UNL A   1      39.561  33.410  36.555  1.00  0.00     0.064 A 
ATOM     40  C   UNL A   1      38.688  33.024  37.583  1.00  0.00     0.173 A 
ATOM     41  C   UNL A   1      40.273  34.608  36.714  1.00  0.00     0.173 A 
ATOM     42  F   UNL A   1      37.976  31.893  37.475  1.00  0.00    -0.203 F 
ATOM     43  C   UNL A   1      38.530  33.811  38.722  1.00  0.00     0.198 A 
ATOM     44  C   UNL A   1      40.131  35.380  37.865  1.00  0.00     0.198 A 
ATOM     45  F   UNL A   1      41.124  35.021  35.762  1.00  0.00    -0.203 F 
ATOM     46  F   UNL A   1      37.670  33.437  39.678  1.00  0.00    -0.200 F 
ATOM     47  C   UNL A   1      39.258  34.983  38.865  1.00  0.00     0.200 A 
ATOM     48  F   UNL A   1      40.845  36.506  38.007  1.00  0.00    -0.200 F 
ATOM     49  F   UNL A   1      39.116  35.730  39.969  1.00  0.00    -0.200 F 
ENDBRANCH  25  39
BRANCH  26  50
ATOM     50  C   UNL A   1      40.893  27.808  28.382  1.00  0.00     0.064 A 
ATOM     51  C   UNL A   1      40.262  26.567  28.228  1.00  0.00     0.173 A 
ATOM     52  C   UNL A   1      41.738  28.244  27.350  1.00  0.00     0.173 A 
ATOM     53  F   UNL A   1      39.459  26.099  29.195  1.00  0.00    -0.203 F 
ATOM     54  C   UNL A   1      40.487  25.782  27.099  1.00  0.00     0.198 A 
ATOM     55  C   UNL A   1      41.935  27.474  26.207  1.00  0.00     0.198 A 
ATOM     56  F   UNL A   1      42.361  29.428  27.447  1.00  0.00    -0.203 F 
ATOM     57  F   UNL A   1      39.913  24.576  27.000  1.00  0.00    -0.200 F 
ATOM     58  C   UNL A   1      41.318  26.239  26.087  1.00  0.00     0.200 A 
ATOM     59  F   UNL A   1      42.725  27.928  25.225  1.00  0.00    -0.200 F 
ATOM     60  F   UNL A   1      41.532  25.485  25.000  1.00  0.00    -0.200 F 
ENDBRANCH  26  50
BRANCH  38  61
ATOM     61  C   UNL A   1      44.031  28.104  34.582  1.00  0.00     0.064 A 
ATOM     62  C   UNL A   1      45.354  28.555  34.462  1.00  0.00     0.173 A 
ATOM     63  C   UNL A   1      43.804  26.904  35.271  1.00  0.00     0.173 A 
ATOM     64  F   UNL A   1      45.624  29.689  33.797  1.00  0.00    -0.203 F 
ATOM     65  C   UNL A   1      46.413  27.812  34.978  1.00  0.00     0.198 A 
ATOM     66  C   UNL A   1      44.862  26.179  35.811  1.00  0.00     0.198 A 
ATOM     67  F   UNL A   1      42.556  26.433  35.417  1.00  0.00    -0.203 F 
ATOM     68  F   UNL A   1      47.672  28.231  34.799  1.00  0.00    -0.200 F 
ATOM     69  C   UNL A   1      46.165  26.628  35.655  1.00  0.00     0.200 A 
ATOM     70  F   UNL A   1      44.621  25.041  36.476  1.00  0.00    -0.200 F 
ATOM     71  F   UNL A   1      47.184  25.912  36.149  1.00  0.00    -0.200 F 
ENDBRANCH  38  61
ENDBRANCH  12  13
ENDBRANCH   5   7
ENDBRANCH   2   3
ENDBRANCH   1   2
BRANCH   1  72
ATOM     72  C   UNL A   1      31.401  30.344  26.081  1.00  0.00     0.117 C 
BRANCH  72  73
ATOM     73  N   UNL A   1      31.023  30.107  24.701  1.00  0.00    -0.355 N 
ATOM     74  C   UNL A   1      31.286  29.031  23.897  1.00  0.00     0.229 C 
ATOM     75  H   UNL A   1      30.499  30.826  24.280  1.00  0.00     0.163 HD
ATOM     76  O   UNL A   1      30.911  29.100  22.726  1.00  0.00    -0.274 OA
BRANCH  74  77
ATOM     77  C   UNL A   1      32.024  27.839  24.498  1.00  0.00     0.127 C 
ATOM     78  C   UNL A   1      33.530  27.854  24.136  1.00  0.00     0.042 C 
ATOM     79  C   UNL A   1      31.598  26.526  23.942  1.00  0.00     0.031 A 
ATOM     80  C   UNL A   1      33.933  26.388  23.930  1.00  0.00     0.124 C 
ATOM     81  N   UNL A   1      32.671  25.730  23.652  1.00  0.00    -0.341 N 
ATOM     82  C   UNL A   1      30.457  25.845  23.623  1.00  0.00     0.025 A 
ATOM     83  C   UNL A   1      32.285  24.520  23.159  1.00  0.00     0.090 A 
ATOM     84  C   UNL A   1      30.889  24.586  23.125  1.00  0.00     0.032 A 
BRANCH  83  85
ATOM     85  C   UNL A   1      33.089  23.396  22.706  1.00  0.00     0.209 C 
ATOM     86  O   UNL A   1      33.651  23.369  21.612  1.00  0.00    -0.287 OA
BRANCH  85  87
ATOM     87  C   UNL A   1      33.296  22.219  23.573  1.00  0.00     0.024 A 
ATOM     88  C   UNL A   1      34.519  22.090  24.240  1.00  0.00     0.012 A 
ATOM     89  C   UNL A   1      32.311  21.234  23.701  1.00  0.00     0.012 A 
ATOM     90  C   UNL A   1      34.736  20.997  25.079  1.00  0.00     0.001 A 
ATOM     91  C   UNL A   1      32.530  20.148  24.550  1.00  0.00     0.001 A 
ATOM     92  C   UNL A   1      33.738  20.034  25.242  1.00  0.00     0.000 A 
ENDBRANCH  85  87
ENDBRANCH  83  85
ENDBRANCH  74  77
ENDBRANCH  72  73
ENDBRANCH   1  72
TORSDOF 12
ENDMDL
