MODEL 1
REMARK VINA RESULT:     -12.4      0.000      0.000
REMARK SMILES O=C(NCCCNC(=O)[C@@H](CO)N1C(=O)c2c(Cl)c(Cl)c(Cl)c(Cl)c2C1=O)c1ccc(-c2c3nc(c(-c4c(F)c(F)c(F)c(F)c4F)c4ccc([nH]4)c(-c4c(F)c(F)c(F)c(F)c4F)c4nc(c(-c5c(F)c(F)c(F)c(F)c5F)c5ccc2[nH]5)C=C4)C=C3)cc1
REMARK SMILES IDX 5 1 4 2 3 3 1 4 2 5 28 7 29 8 90 9 30 10 89 11 31 12 32 13
REMARK SMILES IDX 33 14 83 15 34 16 88 17 82 18 84 19 35 20 87 21 81 22 80 23
REMARK SMILES IDX 36 25 68 26 48 27 67 28 49 29 52 30 66 31 85 32 50 33 51 34
REMARK SMILES IDX 65 36 86 37 53 38 37 39 38 40 46 41 39 42 40 43 44 44 47 45
REMARK SMILES IDX 41 46 42 47 45 48 43 49 69 50 70 51 78 52 71 53 72 54 76 55
REMARK SMILES IDX 79 56 73 57 74 58 77 59 75 60 54 61 55 62 63 63 56 64 57 65
REMARK SMILES IDX 61 66 64 67 58 68 59 69 62 70 60 71 6 72 7 73 8 74 9 76
REMARK SMILES IDX 10 77 11 78 12 79 13 81 14 82 26 83 15 84 16 85 25 86 27 87
REMARK SMILES IDX 17 88 23 89 18 90 19 91 21 92 24 93 20 94 22 95
REMARK H PARENT 3 6 84 24 52 35 7 75 12 80
REMARK Flexibility Score: inf
ROOT
ATOM      1  C   UNL A   1      33.116  28.859  23.777  1.00  0.00     0.042 C 
ENDROOT
BRANCH   1   2
ATOM      2  C   UNL A   1      33.522  29.128  25.214  1.00  0.00     0.118 C 
BRANCH   2   3
ATOM      3  N   UNL A   1      32.927  30.346  25.746  1.00  0.00    -0.352 N 
ATOM      4  O   UNL A   1      32.522  31.973  27.251  1.00  0.00    -0.269 OA
ATOM      5  C   UNL A   1      33.270  31.086  26.854  1.00  0.00     0.251 C 
ATOM      6  H   UNL A   1      32.161  30.694  25.235  1.00  0.00     0.163 HD
BRANCH   5   7
ATOM      7  C   UNL A   1      34.529  30.805  27.580  1.00  0.00     0.039 A 
ATOM      8  C   UNL A   1      34.775  29.543  28.120  1.00  0.00     0.014 A 
ATOM      9  C   UNL A   1      35.495  31.810  27.703  1.00  0.00     0.014 A 
ATOM     10  C   UNL A   1      35.885  29.338  28.928  1.00  0.00     0.010 A 
ATOM     11  C   UNL A   1      36.675  31.564  28.415  1.00  0.00     0.010 A 
ATOM     12  C   UNL A   1      36.867  30.333  29.059  1.00  0.00    -0.014 A 
BRANCH  12  13
ATOM     13  C   UNL A   1      38.110  30.011  29.808  1.00  0.00     0.031 A 
ATOM     14  C   UNL A   1      38.356  30.535  31.194  1.00  0.00     0.074 A 
ATOM     15  C   UNL A   1      38.999  29.177  29.232  1.00  0.00     0.049 A 
ATOM     16  N   UNL A   1      39.366  30.299  31.994  1.00  0.00    -0.248 NA
ATOM     17  C   UNL A   1      37.349  31.447  31.755  1.00  0.00     0.031 C 
ATOM     18  C   UNL A   1      38.879  28.625  27.879  1.00  0.00     0.029 A 
ATOM     19  N   UNL A   1      40.158  28.623  29.711  1.00  0.00    -0.354 N 
ATOM     20  C   UNL A   1      39.123  31.038  33.145  1.00  0.00     0.074 A 
ATOM     21  C   UNL A   1      37.886  31.757  32.928  1.00  0.00     0.031 C 
ATOM     22  C   UNL A   1      39.883  27.764  27.661  1.00  0.00     0.029 A 
ATOM     23  C   UNL A   1      40.758  27.758  28.827  1.00  0.00     0.049 A 
ATOM     24  H   UNL A   1      40.526  28.825  30.602  1.00  0.00     0.167 HD
ATOM     25  C   UNL A   1      39.860  31.098  34.281  1.00  0.00     0.037 A 
ATOM     26  C   UNL A   1      41.894  27.047  28.933  1.00  0.00     0.037 A 
ATOM     27  C   UNL A   1      41.090  30.373  34.493  1.00  0.00     0.049 A 
ATOM     28  C   UNL A   1      42.691  27.140  30.202  1.00  0.00     0.074 A 
ATOM     29  C   UNL A   1      41.908  30.367  35.610  1.00  0.00     0.029 A 
ATOM     30  N   UNL A   1      41.675  29.522  33.566  1.00  0.00    -0.354 N 
ATOM     31  N   UNL A   1      42.437  27.829  31.287  1.00  0.00    -0.248 NA
ATOM     32  C   UNL A   1      43.931  26.358  30.260  1.00  0.00     0.031 C 
ATOM     33  C   UNL A   1      43.007  29.542  35.346  1.00  0.00     0.029 A 
ATOM     34  C   UNL A   1      42.849  28.995  34.082  1.00  0.00     0.049 A 
ATOM     35  H   UNL A   1      41.311  29.322  32.674  1.00  0.00     0.167 HD
ATOM     36  C   UNL A   1      43.481  27.561  32.159  1.00  0.00     0.074 A 
ATOM     37  C   UNL A   1      44.352  26.616  31.489  1.00  0.00     0.031 C 
ATOM     38  C   UNL A   1      43.705  28.059  33.400  1.00  0.00     0.037 A 
BRANCH  25  39
ATOM     39  C   UNL A   1      39.365  31.982  35.390  1.00  0.00     0.064 A 
ATOM     40  C   UNL A   1      38.542  31.485  36.411  1.00  0.00     0.173 A 
ATOM     41  C   UNL A   1      39.766  33.325  35.466  1.00  0.00     0.173 A 
ATOM     42  F   UNL A   1      38.122  30.211  36.379  1.00  0.00    -0.203 F 
ATOM     43  C   UNL A   1      38.124  32.303  37.458  1.00  0.00     0.198 A 
ATOM     44  C   UNL A   1      39.368  34.133  36.528  1.00  0.00     0.198 A 
ATOM     45  F   UNL A   1      40.559  33.849  34.520  1.00  0.00    -0.203 F 
ATOM     46  F   UNL A   1      37.309  31.815  38.404  1.00  0.00    -0.200 F 
ATOM     47  C   UNL A   1      38.544  33.624  37.521  1.00  0.00     0.200 A 
ATOM     48  F   UNL A   1      39.786  35.405  36.594  1.00  0.00    -0.200 F 
ATOM     49  F   UNL A   1      38.152  34.407  38.535  1.00  0.00    -0.200 F 
ENDBRANCH  25  39
BRANCH  26  50
ATOM     50  C   UNL A   1      42.346  26.201  27.799  1.00  0.00     0.064 A 
ATOM     51  C   UNL A   1      41.793  24.935  27.571  1.00  0.00     0.173 A 
ATOM     52  C   UNL A   1      43.338  26.650  26.913  1.00  0.00     0.173 A 
ATOM     53  F   UNL A   1      40.854  24.454  28.400  1.00  0.00    -0.203 F 
ATOM     54  C   UNL A   1      42.231  24.139  26.513  1.00  0.00     0.198 A 
ATOM     55  C   UNL A   1      43.749  25.869  25.836  1.00  0.00     0.198 A 
ATOM     56  F   UNL A   1      43.893  27.859  27.082  1.00  0.00    -0.203 F 
ATOM     57  F   UNL A   1      41.721  22.912  26.346  1.00  0.00    -0.200 F 
ATOM     58  C   UNL A   1      43.204  24.610  25.643  1.00  0.00     0.200 A 
ATOM     59  F   UNL A   1      44.674  26.337  24.987  1.00  0.00    -0.200 F 
ATOM     60  F   UNL A   1      43.618  23.848  24.622  1.00  0.00    -0.200 F 
ENDBRANCH  26  50
BRANCH  38  61
ATOM     61  C   UNL A   1      44.932  27.573  34.111  1.00  0.00     0.064 A 
ATOM     62  C   UNL A   1      46.158  28.246  34.002  1.00  0.00     0.173 A 
ATOM     63  C   UNL A   1      44.881  26.423  34.912  1.00  0.00     0.173 A 
ATOM     64  F   UNL A   1      46.261  29.340  33.233  1.00  0.00    -0.203 F 
ATOM     65  C   UNL A   1      47.297  27.767  34.644  1.00  0.00     0.198 A 
ATOM     66  C   UNL A   1      46.015  25.962  35.575  1.00  0.00     0.198 A 
ATOM     67  F   UNL A   1      43.732  25.745  35.051  1.00  0.00    -0.203 F 
ATOM     68  F   UNL A   1      48.470  28.393  34.478  1.00  0.00    -0.200 F 
ATOM     69  C   UNL A   1      47.223  26.628  35.432  1.00  0.00     0.200 A 
ATOM     70  F   UNL A   1      45.941  24.868  36.346  1.00  0.00    -0.200 F 
ATOM     71  F   UNL A   1      48.322  26.165  36.047  1.00  0.00    -0.200 F 
ENDBRANCH  38  61
ENDBRANCH  12  13
ENDBRANCH   5   7
ENDBRANCH   2   3
ENDBRANCH   1   2
BRANCH   1  72
ATOM     72  C   UNL A   1      31.620  28.655  23.595  1.00  0.00     0.117 C 
BRANCH  72  73
ATOM     73  N   UNL A   1      31.308  27.390  22.949  1.00  0.00    -0.354 N 
ATOM     74  C   UNL A   1      31.476  26.098  23.358  1.00  0.00     0.245 C 
ATOM     75  H   UNL A   1      30.905  27.481  22.056  1.00  0.00     0.163 HD
ATOM     76  O   UNL A   1      31.414  25.232  22.477  1.00  0.00    -0.273 OA
BRANCH  74  77
ATOM     77  C   UNL A   1      31.892  25.709  24.792  1.00  0.00     0.208 C 
BRANCH  77  78
ATOM     78  C   UNL A   1      30.627  25.775  25.662  1.00  0.00     0.191 C 
BRANCH  78  79
ATOM     79  O   UNL A   1      29.445  25.503  24.913  1.00  0.00    -0.394 OA
ATOM     80  H   UNL A   1      29.687  25.232  24.014  1.00  0.00     0.210 HD
ENDBRANCH  78  79
ENDBRANCH  77  78
BRANCH  77  81
ATOM     81  N   UNL A   1      32.684  24.478  24.824  1.00  0.00    -0.259 N 
ATOM     82  C   UNL A   1      32.230  23.191  24.833  1.00  0.00     0.264 C 
ATOM     83  C   UNL A   1      34.027  24.519  25.079  1.00  0.00     0.264 C 
ATOM     84  O   UNL A   1      31.090  22.780  24.886  1.00  0.00    -0.268 OA
ATOM     85  C   UNL A   1      33.416  22.323  24.857  1.00  0.00     0.075 A 
ATOM     86  C   UNL A   1      34.522  23.145  25.019  1.00  0.00     0.075 A 
ATOM     87  O   UNL A   1      34.707  25.497  25.320  1.00  0.00    -0.268 OA
ATOM     88  C   UNL A   1      33.544  20.950  24.735  1.00  0.00     0.074 A 
ATOM     89  C   UNL A   1      35.811  22.642  25.068  1.00  0.00     0.074 A 
ATOM     90  Cl  UNL A   1      32.153  19.956  24.494  1.00  0.00    -0.082 Cl
ATOM     91  C   UNL A   1      34.843  20.405  24.784  1.00  0.00     0.080 A 
ATOM     92  C   UNL A   1      35.974  21.249  24.951  1.00  0.00     0.080 A 
ATOM     93  Cl  UNL A   1      37.163  23.704  25.236  1.00  0.00    -0.082 Cl
ATOM     94  Cl  UNL A   1      35.062  18.684  24.627  1.00  0.00    -0.081 Cl
ATOM     95  Cl  UNL A   1      37.574  20.563  25.002  1.00  0.00    -0.081 Cl
ENDBRANCH  77  81
ENDBRANCH  74  77
ENDBRANCH  72  73
ENDBRANCH   1  72
TORSDOF 13
ENDMDL
MODEL 2
REMARK VINA RESULT:     -12.3      0.236      1.597
REMARK SMILES O=C(NCCCNC(=O)[C@@H](CO)N1C(=O)c2c(Cl)c(Cl)c(Cl)c(Cl)c2C1=O)c1ccc(-c2c3nc(c(-c4c(F)c(F)c(F)c(F)c4F)c4ccc([nH]4)c(-c4c(F)c(F)c(F)c(F)c4F)c4nc(c(-c5c(F)c(F)c(F)c(F)c5F)c5ccc2[nH]5)C=C4)C=C3)cc1
REMARK SMILES IDX 5 1 4 2 3 3 1 4 2 5 28 7 29 8 90 9 30 10 89 11 31 12 32 13
REMARK SMILES IDX 33 14 83 15 34 16 88 17 82 18 84 19 35 20 87 21 81 22 80 23
REMARK SMILES IDX 36 25 68 26 48 27 67 28 49 29 52 30 66 31 85 32 50 33 51 34
REMARK SMILES IDX 65 36 86 37 53 38 37 39 38 40 46 41 39 42 40 43 44 44 47 45
REMARK SMILES IDX 41 46 42 47 45 48 43 49 69 50 70 51 78 52 71 53 72 54 76 55
REMARK SMILES IDX 79 56 73 57 74 58 77 59 75 60 54 61 55 62 63 63 56 64 57 65
REMARK SMILES IDX 61 66 64 67 58 68 59 69 62 70 60 71 6 72 7 73 8 74 9 76
REMARK SMILES IDX 10 77 11 78 12 79 13 81 14 82 26 83 15 84 16 85 25 86 27 87
REMARK SMILES IDX 17 88 23 89 18 90 19 91 21 92 24 93 20 94 22 95
REMARK H PARENT 3 6 84 24 52 35 7 75 12 80
REMARK Flexibility Score: inf
ROOT
ATOM      1  C   UNL A   1      33.255  28.713  23.880  1.00  0.00     0.042 C 
ENDROOT
BRANCH   1   2
ATOM      2  C   UNL A   1      33.541  28.982  25.346  1.00  0.00     0.118 C 
BRANCH   2   3
ATOM      3  N   UNL A   1      32.969  30.239  25.808  1.00  0.00    -0.352 N 
ATOM      4  O   UNL A   1      32.590  31.953  27.220  1.00  0.00    -0.269 OA
ATOM      5  C   UNL A   1      33.322  31.030  26.876  1.00  0.00     0.251 C 
ATOM      6  H   UNL A   1      32.213  30.574  25.273  1.00  0.00     0.163 HD
BRANCH   5   7
ATOM      7  C   UNL A   1      34.571  30.762  27.625  1.00  0.00     0.039 A 
ATOM      8  C   UNL A   1      34.799  29.516  28.208  1.00  0.00     0.014 A 
ATOM      9  C   UNL A   1      35.543  31.762  27.726  1.00  0.00     0.014 A 
ATOM     10  C   UNL A   1      35.899  29.327  29.034  1.00  0.00     0.010 A 
ATOM     11  C   UNL A   1      36.714  31.529  28.459  1.00  0.00     0.010 A 
ATOM     12  C   UNL A   1      36.888  30.319  29.144  1.00  0.00    -0.014 A 
BRANCH  12  13
ATOM     13  C   UNL A   1      38.120  30.010  29.916  1.00  0.00     0.031 A 
ATOM     14  C   UNL A   1      38.319  30.509  31.319  1.00  0.00     0.074 A 
ATOM     15  C   UNL A   1      39.044  29.211  29.345  1.00  0.00     0.049 A 
ATOM     16  N   UNL A   1      39.315  30.280  32.139  1.00  0.00    -0.248 NA
ATOM     17  C   UNL A   1      37.277  31.384  31.874  1.00  0.00     0.031 C 
ATOM     18  C   UNL A   1      38.970  28.686  27.978  1.00  0.00     0.029 A 
ATOM     19  N   UNL A   1      40.204  28.675  29.841  1.00  0.00    -0.354 N 
ATOM     20  C   UNL A   1      39.026  30.987  33.299  1.00  0.00     0.074 A 
ATOM     21  C   UNL A   1      37.776  31.681  33.067  1.00  0.00     0.031 C 
ATOM     22  C   UNL A   1      40.000  27.855  27.767  1.00  0.00     0.029 A 
ATOM     23  C   UNL A   1      40.846  27.844  28.954  1.00  0.00     0.049 A 
ATOM     24  H   UNL A   1      40.545  28.866  30.745  1.00  0.00     0.167 HD
ATOM     25  C   UNL A   1      39.733  31.040  34.454  1.00  0.00     0.037 A 
ATOM     26  C   UNL A   1      41.997  27.160  29.073  1.00  0.00     0.037 A 
ATOM     27  C   UNL A   1      40.975  30.341  34.681  1.00  0.00     0.049 A 
ATOM     28  C   UNL A   1      42.760  27.244  30.363  1.00  0.00     0.074 A 
ATOM     29  C   UNL A   1      41.765  30.331  35.817  1.00  0.00     0.029 A 
ATOM     30  N   UNL A   1      41.603  29.525  33.751  1.00  0.00    -0.354 N 
ATOM     31  N   UNL A   1      42.463  27.902  31.456  1.00  0.00    -0.248 NA
ATOM     32  C   UNL A   1      44.018  26.490  30.435  1.00  0.00     0.031 C 
ATOM     33  C   UNL A   1      42.890  29.538  35.563  1.00  0.00     0.029 A 
ATOM     34  C   UNL A   1      42.777  29.015  34.285  1.00  0.00     0.049 A 
ATOM     35  H   UNL A   1      41.267  29.336  32.846  1.00  0.00     0.167 HD
ATOM     36  C   UNL A   1      43.492  27.640  32.348  1.00  0.00     0.074 A 
ATOM     37  C   UNL A   1      44.402  26.732  31.680  1.00  0.00     0.031 C 
ATOM     38  C   UNL A   1      43.673  28.116  33.604  1.00  0.00     0.037 A 
BRANCH  25  39
ATOM     39  C   UNL A   1      39.189  31.888  35.569  1.00  0.00     0.064 A 
ATOM     40  C   UNL A   1      38.335  31.354  36.544  1.00  0.00     0.173 A 
ATOM     41  C   UNL A   1      39.574  33.231  35.698  1.00  0.00     0.173 A 
ATOM     42  F   UNL A   1      37.928  30.078  36.461  1.00  0.00    -0.203 F 
ATOM     43  C   UNL A   1      37.871  32.138  37.598  1.00  0.00     0.198 A 
ATOM     44  C   UNL A   1      39.130  34.005  36.768  1.00  0.00     0.198 A 
ATOM     45  F   UNL A   1      40.396  33.789  34.798  1.00  0.00    -0.203 F 
ATOM     46  F   UNL A   1      37.026  31.615  38.500  1.00  0.00    -0.200 F 
ATOM     47  C   UNL A   1      38.275  33.460  37.715  1.00  0.00     0.200 A 
ATOM     48  F   UNL A   1      39.533  35.277  36.886  1.00  0.00    -0.200 F 
ATOM     49  F   UNL A   1      37.839  34.209  38.736  1.00  0.00    -0.200 F 
ENDBRANCH  25  39
BRANCH  26  50
ATOM     50  C   UNL A   1      42.497  26.350  27.932  1.00  0.00     0.064 A 
ATOM     51  C   UNL A   1      43.384  26.889  26.991  1.00  0.00     0.173 A 
ATOM     52  C   UNL A   1      42.102  25.013  27.766  1.00  0.00     0.173 A 
ATOM     53  F   UNL A   1      43.778  28.167  27.097  1.00  0.00    -0.203 F 
ATOM     54  C   UNL A   1      43.840  26.129  25.915  1.00  0.00     0.198 A 
ATOM     55  C   UNL A   1      42.586  24.245  26.711  1.00  0.00     0.198 A 
ATOM     56  F   UNL A   1      41.262  24.447  28.645  1.00  0.00    -0.203 F 
ATOM     57  F   UNL A   1      44.649  26.683  25.003  1.00  0.00    -0.200 F 
ATOM     58  C   UNL A   1      43.445  24.806  25.781  1.00  0.00     0.200 A 
ATOM     59  F   UNL A   1      42.219  22.961  26.598  1.00  0.00    -0.200 F 
ATOM     60  F   UNL A   1      43.890  24.074  24.750  1.00  0.00    -0.200 F 
ENDBRANCH  26  50
BRANCH  38  61
ATOM     61  C   UNL A   1      44.894  27.644  34.335  1.00  0.00     0.064 A 
ATOM     62  C   UNL A   1      44.880  26.475  35.109  1.00  0.00     0.173 A 
ATOM     63  C   UNL A   1      46.093  28.367  34.256  1.00  0.00     0.173 A 
ATOM     64  F   UNL A   1      43.751  25.759  35.229  1.00  0.00    -0.203 F 
ATOM     65  C   UNL A   1      46.013  26.064  35.805  1.00  0.00     0.198 A 
ATOM     66  C   UNL A   1      47.233  27.939  34.931  1.00  0.00     0.198 A 
ATOM     67  F   UNL A   1      46.160  29.491  33.526  1.00  0.00    -0.203 F 
ATOM     68  F   UNL A   1      45.959  24.976  36.586  1.00  0.00    -0.200 F 
ATOM     69  C   UNL A   1      47.189  26.794  35.713  1.00  0.00     0.200 A 
ATOM     70  F   UNL A   1      48.371  28.638  34.833  1.00  0.00    -0.200 F 
ATOM     71  F   UNL A   1      48.278  26.399  36.387  1.00  0.00    -0.200 F 
ENDBRANCH  38  61
ENDBRANCH  12  13
ENDBRANCH   5   7
ENDBRANCH   2   3
ENDBRANCH   1   2
BRANCH   1  72
ATOM     72  C   UNL A   1      31.771  28.651  23.551  1.00  0.00     0.117 C 
BRANCH  72  73
ATOM     73  N   UNL A   1      31.397  27.400  22.912  1.00  0.00    -0.354 N 
ATOM     74  C   UNL A   1      31.498  26.104  23.330  1.00  0.00     0.245 C 
ATOM     75  H   UNL A   1      31.003  27.505  22.017  1.00  0.00     0.163 HD
ATOM     76  O   UNL A   1      31.395  25.236  22.455  1.00  0.00    -0.273 OA
BRANCH  74  77
ATOM     77  C   UNL A   1      31.888  25.705  24.768  1.00  0.00     0.208 C 
BRANCH  77  78
ATOM     78  C   UNL A   1      30.609  25.762  25.617  1.00  0.00     0.191 C 
BRANCH  78  79
ATOM     79  O   UNL A   1      29.434  25.580  24.829  1.00  0.00    -0.394 OA
ATOM     80  H   UNL A   1      29.001  26.437  24.691  1.00  0.00     0.210 HD
ENDBRANCH  78  79
ENDBRANCH  77  78
BRANCH  77  81
ATOM     81  N   UNL A   1      32.681  24.473  24.805  1.00  0.00    -0.259 N 
ATOM     82  C   UNL A   1      32.228  23.186  24.816  1.00  0.00     0.264 C 
ATOM     83  C   UNL A   1      34.024  24.516  25.062  1.00  0.00     0.264 C 
ATOM     84  O   UNL A   1      31.088  22.775  24.868  1.00  0.00    -0.268 OA
ATOM     85  C   UNL A   1      33.414  22.320  24.844  1.00  0.00     0.075 A 
ATOM     86  C   UNL A   1      34.519  23.141  25.006  1.00  0.00     0.075 A 
ATOM     87  O   UNL A   1      34.703  25.495  25.303  1.00  0.00    -0.268 OA
ATOM     88  C   UNL A   1      33.543  20.946  24.726  1.00  0.00     0.074 A 
ATOM     89  C   UNL A   1      35.809  22.640  25.059  1.00  0.00     0.074 A 
ATOM     90  Cl  UNL A   1      32.153  19.950  24.484  1.00  0.00    -0.082 Cl
ATOM     91  C   UNL A   1      34.842  20.402  24.779  1.00  0.00     0.080 A 
ATOM     92  C   UNL A   1      35.973  21.247  24.946  1.00  0.00     0.080 A 
ATOM     93  Cl  UNL A   1      37.160  23.703  25.227  1.00  0.00    -0.082 Cl
ATOM     94  Cl  UNL A   1      35.062  18.680  24.626  1.00  0.00    -0.081 Cl
ATOM     95  Cl  UNL A   1      37.573  20.562  25.001  1.00  0.00    -0.081 Cl
ENDBRANCH  77  81
ENDBRANCH  74  77
ENDBRANCH  72  73
ENDBRANCH   1  72
TORSDOF 13
ENDMDL
MODEL 3
REMARK VINA RESULT:     -12.0      4.450      9.510
REMARK SMILES O=C(NCCCNC(=O)[C@@H](CO)N1C(=O)c2c(Cl)c(Cl)c(Cl)c(Cl)c2C1=O)c1ccc(-c2c3nc(c(-c4c(F)c(F)c(F)c(F)c4F)c4ccc([nH]4)c(-c4c(F)c(F)c(F)c(F)c4F)c4nc(c(-c5c(F)c(F)c(F)c(F)c5F)c5ccc2[nH]5)C=C4)C=C3)cc1
REMARK SMILES IDX 5 1 4 2 3 3 1 4 2 5 28 7 29 8 90 9 30 10 89 11 31 12 32 13
REMARK SMILES IDX 33 14 83 15 34 16 88 17 82 18 84 19 35 20 87 21 81 22 80 23
REMARK SMILES IDX 36 25 68 26 48 27 67 28 49 29 52 30 66 31 85 32 50 33 51 34
REMARK SMILES IDX 65 36 86 37 53 38 37 39 38 40 46 41 39 42 40 43 44 44 47 45
REMARK SMILES IDX 41 46 42 47 45 48 43 49 69 50 70 51 78 52 71 53 72 54 76 55
REMARK SMILES IDX 79 56 73 57 74 58 77 59 75 60 54 61 55 62 63 63 56 64 57 65
REMARK SMILES IDX 61 66 64 67 58 68 59 69 62 70 60 71 6 72 7 73 8 74 9 76
REMARK SMILES IDX 10 77 11 78 12 79 13 81 14 82 26 83 15 84 16 85 25 86 27 87
REMARK SMILES IDX 17 88 23 89 18 90 19 91 21 92 24 93 20 94 22 95
REMARK H PARENT 3 6 84 24 52 35 7 75 12 80
REMARK Flexibility Score: inf
ROOT
ATOM      1  C   UNL A   1      34.766  22.316  26.468  1.00  0.00     0.042 C 
ENDROOT
BRANCH   1   2
ATOM      2  C   UNL A   1      36.173  22.772  26.126  1.00  0.00     0.118 C 
BRANCH   2   3
ATOM      3  N   UNL A   1      37.109  21.662  26.006  1.00  0.00    -0.352 N 
ATOM      4  O   UNL A   1      39.104  20.648  25.752  1.00  0.00    -0.269 OA
ATOM      5  C   UNL A   1      38.482  21.655  26.075  1.00  0.00     0.251 C 
ATOM      6  H   UNL A   1      36.695  20.783  25.852  1.00  0.00     0.163 HD
BRANCH   5   7
ATOM      7  C   UNL A   1      39.216  22.861  26.520  1.00  0.00     0.039 A 
ATOM      8  C   UNL A   1      38.943  24.109  25.959  1.00  0.00     0.014 A 
ATOM      9  C   UNL A   1      40.174  22.752  27.533  1.00  0.00     0.014 A 
ATOM     10  C   UNL A   1      39.742  25.200  26.274  1.00  0.00     0.010 A 
ATOM     11  C   UNL A   1      40.895  23.881  27.939  1.00  0.00     0.010 A 
ATOM     12  C   UNL A   1      40.706  25.111  27.292  1.00  0.00    -0.014 A 
BRANCH  12  13
ATOM     13  C   UNL A   1      41.427  26.345  27.697  1.00  0.00     0.031 A 
ATOM     14  C   UNL A   1      42.844  26.608  27.274  1.00  0.00     0.074 A 
ATOM     15  C   UNL A   1      40.753  27.267  28.415  1.00  0.00     0.049 A 
ATOM     16  N   UNL A   1      43.589  27.661  27.504  1.00  0.00    -0.248 NA
ATOM     17  C   UNL A   1      43.520  25.555  26.503  1.00  0.00     0.031 C 
ATOM     18  C   UNL A   1      39.380  27.110  28.905  1.00  0.00     0.029 A 
ATOM     19  N   UNL A   1      41.110  28.523  28.833  1.00  0.00    -0.354 N 
ATOM     20  C   UNL A   1      44.819  27.396  26.917  1.00  0.00     0.074 A 
ATOM     21  C   UNL A   1      44.734  26.068  26.347  1.00  0.00     0.031 C 
ATOM     22  C   UNL A   1      38.990  28.247  29.497  1.00  0.00     0.029 A 
ATOM     23  C   UNL A   1      40.105  29.186  29.495  1.00  0.00     0.049 A 
ATOM     24  H   UNL A   1      42.000  28.913  28.674  1.00  0.00     0.167 HD
ATOM     25  C   UNL A   1      45.912  28.195  26.850  1.00  0.00     0.037 A 
ATOM     26  C   UNL A   1      40.084  30.408  30.055  1.00  0.00     0.037 A 
ATOM     27  C   UNL A   1      45.988  29.520  27.415  1.00  0.00     0.049 A 
ATOM     28  C   UNL A   1      41.313  31.265  29.969  1.00  0.00     0.074 A 
ATOM     29  C   UNL A   1      47.051  30.407  27.398  1.00  0.00     0.029 A 
ATOM     30  N   UNL A   1      44.955  30.149  28.096  1.00  0.00    -0.354 N 
ATOM     31  N   UNL A   1      42.461  31.006  29.395  1.00  0.00    -0.248 NA
ATOM     32  C   UNL A   1      41.243  32.584  30.610  1.00  0.00     0.031 C 
ATOM     33  C   UNL A   1      46.675  31.558  28.100  1.00  0.00     0.029 A 
ATOM     34  C   UNL A   1      45.360  31.408  28.513  1.00  0.00     0.049 A 
ATOM     35  H   UNL A   1      44.067  29.759  28.259  1.00  0.00     0.167 HD
ATOM     36  C   UNL A   1      43.249  32.129  29.598  1.00  0.00     0.074 A 
ATOM     37  C   UNL A   1      42.434  33.086  30.318  1.00  0.00     0.031 C 
ATOM     38  C   UNL A   1      44.537  32.345  29.232  1.00  0.00     0.037 A 
BRANCH  25  39
ATOM     39  C   UNL A   1      47.126  27.660  26.145  1.00  0.00     0.064 A 
ATOM     40  C   UNL A   1      47.273  27.770  24.755  1.00  0.00     0.173 A 
ATOM     41  C   UNL A   1      48.180  27.087  26.873  1.00  0.00     0.173 A 
ATOM     42  F   UNL A   1      46.290  28.300  24.011  1.00  0.00    -0.203 F 
ATOM     43  C   UNL A   1      48.423  27.310  24.116  1.00  0.00     0.198 A 
ATOM     44  C   UNL A   1      49.339  26.652  26.235  1.00  0.00     0.198 A 
ATOM     45  F   UNL A   1      48.094  26.964  28.205  1.00  0.00    -0.203 F 
ATOM     46  F   UNL A   1      48.526  27.394  22.782  1.00  0.00    -0.200 F 
ATOM     47  C   UNL A   1      49.458  26.759  24.857  1.00  0.00     0.200 A 
ATOM     48  F   UNL A   1      50.344  26.132  26.953  1.00  0.00    -0.200 F 
ATOM     49  F   UNL A   1      50.569  26.328  24.243  1.00  0.00    -0.200 F 
ENDBRANCH  25  39
BRANCH  26  50
ATOM     50  C   UNL A   1      38.861  30.880  30.755  1.00  0.00     0.064 A 
ATOM     51  C   UNL A   1      37.835  31.537  30.063  1.00  0.00     0.173 A 
ATOM     52  C   UNL A   1      38.693  30.675  32.133  1.00  0.00     0.173 A 
ATOM     53  F   UNL A   1      37.957  31.772  28.748  1.00  0.00    -0.203 F 
ATOM     54  C   UNL A   1      36.697  31.991  30.727  1.00  0.00     0.198 A 
ATOM     55  C   UNL A   1      37.539  31.097  32.788  1.00  0.00     0.198 A 
ATOM     56  F   UNL A   1      39.642  30.043  32.839  1.00  0.00    -0.203 F 
ATOM     57  F   UNL A   1      35.753  32.658  30.052  1.00  0.00    -0.200 F 
ATOM     58  C   UNL A   1      36.547  31.764  32.088  1.00  0.00     0.200 A 
ATOM     59  F   UNL A   1      37.390  30.857  34.098  1.00  0.00    -0.200 F 
ATOM     60  F   UNL A   1      35.449  32.193  32.724  1.00  0.00    -0.200 F 
ENDBRANCH  26  50
BRANCH  38  61
ATOM     61  C   UNL A   1      45.126  33.675  29.592  1.00  0.00     0.064 A 
ATOM     62  C   UNL A   1      45.010  34.785  28.742  1.00  0.00     0.173 A 
ATOM     63  C   UNL A   1      45.811  33.845  30.805  1.00  0.00     0.173 A 
ATOM     64  F   UNL A   1      44.379  34.668  27.563  1.00  0.00    -0.203 F 
ATOM     65  C   UNL A   1      45.587  36.006  29.075  1.00  0.00     0.198 A 
ATOM     66  C   UNL A   1      46.363  35.075  31.149  1.00  0.00     0.198 A 
ATOM     67  F   UNL A   1      45.946  32.816  31.655  1.00  0.00    -0.203 F 
ATOM     68  F   UNL A   1      45.515  37.035  28.220  1.00  0.00    -0.200 F 
ATOM     69  C   UNL A   1      46.260  36.151  30.280  1.00  0.00     0.200 A 
ATOM     70  F   UNL A   1      47.003  35.218  32.317  1.00  0.00    -0.200 F 
ATOM     71  F   UNL A   1      46.818  37.328  30.599  1.00  0.00    -0.200 F 
ENDBRANCH  38  61
ENDBRANCH  12  13
ENDBRANCH   5   7
ENDBRANCH   2   3
ENDBRANCH   1   2
BRANCH   1  72
ATOM     72  C   UNL A   1      34.108  21.495  25.370  1.00  0.00     0.117 C 
BRANCH  72  73
ATOM     73  N   UNL A   1      32.742  21.918  25.106  1.00  0.00    -0.354 N 
ATOM     74  C   UNL A   1      32.239  23.047  24.527  1.00  0.00     0.245 C 
ATOM     75  H   UNL A   1      32.057  21.275  25.399  1.00  0.00     0.163 HD
ATOM     76  O   UNL A   1      31.039  23.275  24.723  1.00  0.00    -0.273 OA
BRANCH  74  77
ATOM     77  C   UNL A   1      33.114  24.094  23.808  1.00  0.00     0.208 C 
BRANCH  77  78
ATOM     78  C   UNL A   1      33.271  23.630  22.352  1.00  0.00     0.191 C 
BRANCH  78  79
ATOM     79  O   UNL A   1      32.422  22.525  22.046  1.00  0.00    -0.394 OA
ATOM     80  H   UNL A   1      32.926  21.856  21.558  1.00  0.00     0.210 HD
ENDBRANCH  78  79
ENDBRANCH  77  78
BRANCH  77  81
ATOM     81  N   UNL A   1      32.649  25.462  24.046  1.00  0.00    -0.259 N 
ATOM     82  C   UNL A   1      31.803  26.205  23.274  1.00  0.00     0.264 C 
ATOM     83  C   UNL A   1      33.227  26.237  25.014  1.00  0.00     0.264 C 
ATOM     84  O   UNL A   1      31.308  25.934  22.200  1.00  0.00    -0.268 OA
ATOM     85  C   UNL A   1      31.642  27.501  23.947  1.00  0.00     0.075 A 
ATOM     86  C   UNL A   1      32.529  27.522  25.013  1.00  0.00     0.075 A 
ATOM     87  O   UNL A   1      34.152  25.944  25.745  1.00  0.00    -0.268 OA
ATOM     88  C   UNL A   1      30.800  28.568  23.683  1.00  0.00     0.074 A 
ATOM     89  C   UNL A   1      32.624  28.605  25.871  1.00  0.00     0.074 A 
ATOM     90  Cl  UNL A   1      29.678  28.497  22.373  1.00  0.00    -0.082 Cl
ATOM     91  C   UNL A   1      30.873  29.688  24.536  1.00  0.00     0.080 A 
ATOM     92  C   UNL A   1      31.784  29.707  25.626  1.00  0.00     0.080 A 
ATOM     93  Cl  UNL A   1      33.717  28.576  27.207  1.00  0.00    -0.082 Cl
ATOM     94  Cl  UNL A   1      29.829  31.054  24.253  1.00  0.00    -0.081 Cl
ATOM     95  Cl  UNL A   1      31.857  31.094  26.676  1.00  0.00    -0.081 Cl
ENDBRANCH  77  81
ENDBRANCH  74  77
ENDBRANCH  72  73
ENDBRANCH   1  72
TORSDOF 13
ENDMDL
