MODEL 1
REMARK VINA RESULT:     -12.4      0.000      0.000
REMARK SMILES Cc1cc(C)c2c(O[C@@H](C)C(=O)NCCCNC(=O)c3ccc(-c4c5nc(c(-c6c(F)c(F)c(F)c(F)c6F)c6ccc([nH]6)c(-c6c(F)c(F)c(F)c(F)c6F)c6nc(c(-c7c(F)c(F)c(F)c(F)c7F)c7ccc4[nH]7)C=C6)C=C5)cc3)nsc2n1
REMARK SMILES IDX 15 1 14 2 13 3 11 4 12 5 9 7 10 8 8 9 7 10 1 11 2 12 3 13
REMARK SMILES IDX 86 14 4 15 85 16 5 17 6 18 84 19 83 20 16 21 17 22 18 23
REMARK SMILES IDX 19 25 20 26 21 27 82 28 22 29 81 30 23 31 24 32 25 33 75 34
REMARK SMILES IDX 26 35 80 36 74 37 76 38 27 39 79 40 73 41 72 42 28 44 60 45
REMARK SMILES IDX 40 46 59 47 41 48 44 49 58 50 77 51 42 52 43 53 57 55 78 56
REMARK SMILES IDX 45 57 29 58 30 59 38 60 31 61 32 62 36 63 39 64 33 65 34 66
REMARK SMILES IDX 37 67 35 68 61 69 62 70 70 71 63 72 64 73 68 74 71 75 65 76
REMARK SMILES IDX 66 77 69 78 67 79 46 80 47 81 55 82 48 83 49 84 53 85 56 86
REMARK SMILES IDX 50 87 51 88 54 89 52 90
REMARK H PARENT 13 6 17 24 76 43 44 54
REMARK Flexibility Score: inf
ROOT
ATOM      1  C   UNL A   1      40.762  20.632  26.064  1.00  0.00     0.042 C 
ENDROOT
BRANCH   1   2
ATOM      2  C   UNL A   1      39.888  21.550  26.909  1.00  0.00     0.118 C 
BRANCH   2   3
ATOM      3  N   UNL A   1      39.444  22.767  26.264  1.00  0.00    -0.353 N 
ATOM      4  C   UNL A   1      38.175  23.106  25.891  1.00  0.00     0.260 C 
ATOM      5  O   UNL A   1      37.833  24.274  26.106  1.00  0.00    -0.271 OA
ATOM      6  H   UNL A   1      40.143  23.433  26.071  1.00  0.00     0.163 HD
BRANCH   4   7
ATOM      7  C   UNL A   1      37.249  22.152  25.081  1.00  0.00     0.260 C 
ATOM      8  C   UNL A   1      37.001  22.538  23.621  1.00  0.00     0.064 C 
BRANCH   7   9
ATOM      9  O   UNL A   1      36.280  21.332  25.652  1.00  0.00    -0.463 OA
BRANCH   9  10
ATOM     10  C   UNL A   1      34.978  21.267  25.305  1.00  0.00     0.235 A 
ATOM     11  C   UNL A   1      29.846  22.976  26.902  1.00  0.00     0.067 C 
ATOM     12  C   UNL A   1      31.195  22.719  26.298  1.00  0.00     0.039 A 
ATOM     13  C   UNL A   1      32.127  23.739  26.197  1.00  0.00     0.027 A 
ATOM     14  N   UNL A   1      31.442  21.469  25.893  1.00  0.00    -0.240 NA
ATOM     15  C   UNL A   1      33.458  23.480  25.787  1.00  0.00    -0.034 A 
ATOM     16  C   UNL A   1      32.703  21.240  25.492  1.00  0.00     0.147 A 
ATOM     17  C   UNL A   1      34.353  24.691  25.723  1.00  0.00     0.045 C 
ATOM     18  C   UNL A   1      33.799  22.119  25.490  1.00  0.00     0.078 A 
ATOM     19  S   UNL A   1      33.151  19.702  24.932  1.00  0.00    -0.012 S 
ATOM     20  N   UNL A   1      34.757  20.018  24.892  1.00  0.00    -0.153 NA
ENDBRANCH   9  10
ENDBRANCH   7   9
ENDBRANCH   4   7
ENDBRANCH   2   3
ENDBRANCH   1   2
BRANCH   1  21
ATOM     21  C   UNL A   1      42.149  20.449  26.677  1.00  0.00     0.118 C 
BRANCH  21  22
ATOM     22  N   UNL A   1      43.111  19.734  25.831  1.00  0.00    -0.352 N 
ATOM     23  C   UNL A   1      44.047  20.286  24.963  1.00  0.00     0.251 C 
ATOM     24  H   UNL A   1      43.091  18.752  25.883  1.00  0.00     0.163 HD
ATOM     25  O   UNL A   1      44.615  19.644  24.104  1.00  0.00    -0.269 OA
BRANCH  23  26
ATOM     26  C   UNL A   1      44.325  21.722  25.109  1.00  0.00     0.039 A 
ATOM     27  C   UNL A   1      43.463  22.661  24.539  1.00  0.00     0.014 A 
ATOM     28  C   UNL A   1      45.290  22.079  26.042  1.00  0.00     0.014 A 
ATOM     29  C   UNL A   1      43.468  23.957  25.045  1.00  0.00     0.010 A 
ATOM     30  C   UNL A   1      45.186  23.317  26.634  1.00  0.00     0.010 A 
ATOM     31  C   UNL A   1      44.280  24.266  26.148  1.00  0.00    -0.014 A 
BRANCH  31  32
ATOM     32  C   UNL A   1      44.062  25.513  26.891  1.00  0.00     0.031 A 
ATOM     33  C   UNL A   1      45.013  26.639  26.620  1.00  0.00     0.074 A 
ATOM     34  C   UNL A   1      42.954  25.766  27.618  1.00  0.00     0.049 A 
ATOM     35  N   UNL A   1      45.797  27.232  27.464  1.00  0.00    -0.248 NA
ATOM     36  C   UNL A   1      45.147  27.138  25.243  1.00  0.00     0.031 C 
ATOM     37  C   UNL A   1      41.758  24.935  27.791  1.00  0.00     0.029 A 
ATOM     38  N   UNL A   1      42.625  26.908  28.286  1.00  0.00    -0.354 N 
ATOM     39  C   UNL A   1      46.422  28.272  26.773  1.00  0.00     0.074 A 
ATOM     40  C   UNL A   1      46.071  28.094  25.387  1.00  0.00     0.031 C 
ATOM     41  C   UNL A   1      40.758  25.681  28.306  1.00  0.00     0.029 A 
ATOM     42  C   UNL A   1      41.299  26.972  28.681  1.00  0.00     0.049 A 
ATOM     43  H   UNL A   1      43.274  27.625  28.470  1.00  0.00     0.167 HD
ATOM     44  C   UNL A   1      47.035  29.299  27.431  1.00  0.00     0.037 A 
ATOM     45  C   UNL A   1      40.675  28.006  29.288  1.00  0.00     0.037 A 
ATOM     46  C   UNL A   1      47.294  28.950  28.806  1.00  0.00     0.049 A 
ATOM     47  C   UNL A   1      41.726  28.822  29.941  1.00  0.00     0.074 A 
ATOM     48  C   UNL A   1      48.021  27.958  29.437  1.00  0.00     0.029 A 
ATOM     49  N   UNL A   1      46.482  29.479  29.778  1.00  0.00    -0.354 N 
ATOM     50  N   UNL A   1      42.434  28.417  30.960  1.00  0.00    -0.248 NA
ATOM     51  C   UNL A   1      42.274  29.951  29.207  1.00  0.00     0.031 C 
ATOM     52  C   UNL A   1      47.242  27.606  30.578  1.00  0.00     0.029 A 
ATOM     53  C   UNL A   1      46.125  28.444  30.601  1.00  0.00     0.049 A 
ATOM     54  H   UNL A   1      46.207  30.420  29.865  1.00  0.00     0.167 HD
ATOM     55  C   UNL A   1      43.696  28.941  30.737  1.00  0.00     0.074 A 
ATOM     56  C   UNL A   1      43.508  29.971  29.721  1.00  0.00     0.031 C 
ATOM     57  C   UNL A   1      44.815  28.302  31.191  1.00  0.00     0.037 A 
BRANCH  44  58
ATOM     58  C   UNL A   1      47.126  30.732  26.950  1.00  0.00     0.064 A 
ATOM     59  C   UNL A   1      48.369  31.404  27.008  1.00  0.00     0.173 A 
ATOM     60  C   UNL A   1      46.008  31.560  26.728  1.00  0.00     0.173 A 
ATOM     61  F   UNL A   1      49.507  30.725  27.221  1.00  0.00    -0.203 F 
ATOM     62  C   UNL A   1      48.466  32.797  26.948  1.00  0.00     0.198 A 
ATOM     63  C   UNL A   1      46.115  32.948  26.614  1.00  0.00     0.198 A 
ATOM     64  F   UNL A   1      44.759  31.081  26.722  1.00  0.00    -0.203 F 
ATOM     65  F   UNL A   1      49.651  33.392  27.148  1.00  0.00    -0.200 F 
ATOM     66  C   UNL A   1      47.337  33.570  26.761  1.00  0.00     0.200 A 
ATOM     67  F   UNL A   1      45.005  33.681  26.446  1.00  0.00    -0.200 F 
ATOM     68  F   UNL A   1      47.415  34.907  26.771  1.00  0.00    -0.200 F 
ENDBRANCH  44  58
BRANCH  45  69
ATOM     69  C   UNL A   1      39.258  28.414  29.198  1.00  0.00     0.064 A 
ATOM     70  C   UNL A   1      38.448  28.469  30.341  1.00  0.00     0.173 A 
ATOM     71  C   UNL A   1      38.738  29.008  28.030  1.00  0.00     0.173 A 
ATOM     72  F   UNL A   1      38.883  27.957  31.503  1.00  0.00    -0.203 F 
ATOM     73  C   UNL A   1      37.206  29.110  30.328  1.00  0.00     0.198 A 
ATOM     74  C   UNL A   1      37.493  29.637  28.015  1.00  0.00     0.198 A 
ATOM     75  F   UNL A   1      39.464  29.068  26.904  1.00  0.00    -0.203 F 
ATOM     76  F   UNL A   1      36.492  29.202  31.458  1.00  0.00    -0.200 F 
ATOM     77  C   UNL A   1      36.735  29.704  29.169  1.00  0.00     0.200 A 
ATOM     78  F   UNL A   1      37.062  30.231  26.894  1.00  0.00    -0.200 F 
ATOM     79  F   UNL A   1      35.574  30.373  29.173  1.00  0.00    -0.200 F 
ENDBRANCH  45  69
BRANCH  57  80
ATOM     80  C   UNL A   1      44.646  27.179  32.175  1.00  0.00     0.064 A 
ATOM     81  C   UNL A   1      44.494  25.831  31.809  1.00  0.00     0.173 A 
ATOM     82  C   UNL A   1      44.825  27.458  33.537  1.00  0.00     0.173 A 
ATOM     83  F   UNL A   1      44.416  25.467  30.524  1.00  0.00    -0.203 F 
ATOM     84  C   UNL A   1      44.488  24.816  32.765  1.00  0.00     0.198 A 
ATOM     85  C   UNL A   1      44.856  26.440  34.486  1.00  0.00     0.198 A 
ATOM     86  F   UNL A   1      45.031  28.721  33.943  1.00  0.00    -0.203 F 
ATOM     87  F   UNL A   1      44.338  23.538  32.386  1.00  0.00    -0.200 F 
ATOM     88  C   UNL A   1      44.680  25.120  34.101  1.00  0.00     0.200 A 
ATOM     89  F   UNL A   1      45.093  26.735  35.772  1.00  0.00    -0.200 F 
ATOM     90  F   UNL A   1      44.726  24.141  35.015  1.00  0.00    -0.200 F 
ENDBRANCH  57  80
ENDBRANCH  31  32
ENDBRANCH  23  26
ENDBRANCH  21  22
ENDBRANCH   1  21
TORSDOF 12
ENDMDL
MODEL 2
REMARK VINA RESULT:     -12.2      3.647      6.410
REMARK SMILES Cc1cc(C)c2c(O[C@@H](C)C(=O)NCCCNC(=O)c3ccc(-c4c5nc(c(-c6c(F)c(F)c(F)c(F)c6F)c6ccc([nH]6)c(-c6c(F)c(F)c(F)c(F)c6F)c6nc(c(-c7c(F)c(F)c(F)c(F)c7F)c7ccc4[nH]7)C=C6)C=C5)cc3)nsc2n1
REMARK SMILES IDX 15 1 14 2 13 3 11 4 12 5 9 7 10 8 8 9 7 10 1 11 2 12 3 13
REMARK SMILES IDX 86 14 4 15 85 16 5 17 6 18 84 19 83 20 16 21 17 22 18 23
REMARK SMILES IDX 19 25 20 26 21 27 82 28 22 29 81 30 23 31 24 32 25 33 75 34
REMARK SMILES IDX 26 35 80 36 74 37 76 38 27 39 79 40 73 41 72 42 28 44 60 45
REMARK SMILES IDX 40 46 59 47 41 48 44 49 58 50 77 51 42 52 43 53 57 55 78 56
REMARK SMILES IDX 45 57 29 58 30 59 38 60 31 61 32 62 36 63 39 64 33 65 34 66
REMARK SMILES IDX 37 67 35 68 61 69 62 70 70 71 63 72 64 73 68 74 71 75 65 76
REMARK SMILES IDX 66 77 69 78 67 79 46 80 47 81 55 82 48 83 49 84 53 85 56 86
REMARK SMILES IDX 50 87 51 88 54 89 52 90
REMARK H PARENT 13 6 17 24 76 43 44 54
REMARK Flexibility Score: inf
ROOT
ATOM      1  C   UNL A   1      40.836  20.162  26.490  1.00  0.00     0.042 C 
ENDROOT
BRANCH   1   2
ATOM      2  C   UNL A   1      42.295  19.730  26.460  1.00  0.00     0.118 C 
BRANCH   2   3
ATOM      3  N   UNL A   1      42.978  19.900  25.195  1.00  0.00    -0.353 N 
ATOM      4  C   UNL A   1      44.142  20.571  24.952  1.00  0.00     0.260 C 
ATOM      5  O   UNL A   1      44.934  20.031  24.172  1.00  0.00    -0.271 OA
ATOM      6  H   UNL A   1      42.550  19.481  24.414  1.00  0.00     0.163 HD
BRANCH   4   7
ATOM      7  C   UNL A   1      44.411  22.014  25.472  1.00  0.00     0.260 C 
ATOM      8  C   UNL A   1      43.452  23.097  24.971  1.00  0.00     0.064 C 
BRANCH   7   9
ATOM      9  O   UNL A   1      45.653  22.472  25.899  1.00  0.00    -0.463 OA
BRANCH   9  10
ATOM     10  C   UNL A   1      45.893  23.267  26.962  1.00  0.00     0.235 A 
ATOM     11  C   UNL A   1      43.370  26.859  30.504  1.00  0.00     0.067 C 
ATOM     12  C   UNL A   1      44.022  25.729  29.763  1.00  0.00     0.039 A 
ATOM     13  C   UNL A   1      43.389  24.502  29.654  1.00  0.00     0.027 A 
ATOM     14  N   UNL A   1      45.213  25.982  29.212  1.00  0.00    -0.240 NA
ATOM     15  C   UNL A   1      43.908  23.479  28.820  1.00  0.00    -0.034 A 
ATOM     16  C   UNL A   1      45.701  24.999  28.437  1.00  0.00     0.147 A 
ATOM     17  C   UNL A   1      43.110  22.201  28.807  1.00  0.00     0.045 C 
ATOM     18  C   UNL A   1      45.107  23.774  28.092  1.00  0.00     0.078 A 
ATOM     19  S   UNL A   1      47.215  25.178  27.691  1.00  0.00    -0.012 S 
ATOM     20  N   UNL A   1      47.073  23.851  26.741  1.00  0.00    -0.153 NA
ENDBRANCH   9  10
ENDBRANCH   7   9
ENDBRANCH   4   7
ENDBRANCH   2   3
ENDBRANCH   1   2
BRANCH   1  21
ATOM     21  C   UNL A   1      40.695  21.683  26.489  1.00  0.00     0.118 C 
BRANCH  21  22
ATOM     22  N   UNL A   1      39.422  22.188  25.962  1.00  0.00    -0.352 N 
ATOM     23  C   UNL A   1      38.824  23.415  26.227  1.00  0.00     0.251 C 
ATOM     24  H   UNL A   1      38.935  21.588  25.352  1.00  0.00     0.163 HD
ATOM     25  O   UNL A   1      37.660  23.653  25.979  1.00  0.00    -0.269 OA
BRANCH  23  26
ATOM     26  C   UNL A   1      39.666  24.445  26.852  1.00  0.00     0.039 A 
ATOM     27  C   UNL A   1      40.330  25.381  26.056  1.00  0.00     0.014 A 
ATOM     28  C   UNL A   1      39.543  24.602  28.226  1.00  0.00     0.014 A 
ATOM     29  C   UNL A   1      40.731  26.579  26.638  1.00  0.00     0.010 A 
ATOM     30  C   UNL A   1      39.810  25.842  28.759  1.00  0.00     0.010 A 
ATOM     31  C   UNL A   1      40.403  26.841  27.979  1.00  0.00    -0.014 A 
BRANCH  31  32
ATOM     32  C   UNL A   1      40.525  28.204  28.509  1.00  0.00     0.031 A 
ATOM     33  C   UNL A   1      41.666  29.031  27.996  1.00  0.00     0.074 A 
ATOM     34  C   UNL A   1      39.570  28.810  29.243  1.00  0.00     0.049 A 
ATOM     35  N   UNL A   1      42.633  29.554  28.680  1.00  0.00    -0.248 NA
ATOM     36  C   UNL A   1      41.775  29.269  26.549  1.00  0.00     0.031 C 
ATOM     37  C   UNL A   1      38.245  28.306  29.623  1.00  0.00     0.029 A 
ATOM     38  N   UNL A   1      39.556  30.085  29.723  1.00  0.00    -0.354 N 
ATOM     39  C   UNL A   1      43.398  30.308  27.788  1.00  0.00     0.074 A 
ATOM     40  C   UNL A   1      42.890  30.002  26.474  1.00  0.00     0.031 C 
ATOM     41  C   UNL A   1      37.480  29.329  30.058  1.00  0.00     0.029 A 
ATOM     42  C   UNL A   1      38.316  30.506  30.176  1.00  0.00     0.049 A 
ATOM     43  H   UNL A   1      40.357  30.657  29.746  1.00  0.00     0.167 HD
ATOM     44  C   UNL A   1      44.275  31.258  28.225  1.00  0.00     0.037 A 
ATOM     45  C   UNL A   1      37.987  31.736  30.632  1.00  0.00     0.037 A 
ATOM     46  C   UNL A   1      44.580  31.076  29.622  1.00  0.00     0.049 A 
ATOM     47  C   UNL A   1      39.243  32.385  31.075  1.00  0.00     0.074 A 
ATOM     48  C   UNL A   1      45.134  30.055  30.371  1.00  0.00     0.029 A 
ATOM     49  N   UNL A   1      43.994  31.918  30.534  1.00  0.00    -0.354 N 
ATOM     50  N   UNL A   1      39.939  31.992  32.107  1.00  0.00    -0.248 NA
ATOM     51  C   UNL A   1      39.949  33.234  30.130  1.00  0.00     0.031 C 
ATOM     52  C   UNL A   1      44.407  30.068  31.598  1.00  0.00     0.029 A 
ATOM     53  C   UNL A   1      43.502  31.129  31.541  1.00  0.00     0.049 A 
ATOM     54  H   UNL A   1      43.935  32.899  30.475  1.00  0.00     0.167 HD
ATOM     55  C   UNL A   1      41.259  32.177  31.727  1.00  0.00     0.074 A 
ATOM     56  C   UNL A   1      41.200  33.054  30.562  1.00  0.00     0.031 C 
ATOM     57  C   UNL A   1      42.252  31.380  32.219  1.00  0.00     0.037 A 
BRANCH  44  58
ATOM     58  C   UNL A   1      44.624  32.542  27.502  1.00  0.00     0.064 A 
ATOM     59  C   UNL A   1      45.839  32.623  26.783  1.00  0.00     0.173 A 
ATOM     60  C   UNL A   1      43.983  33.775  27.733  1.00  0.00     0.173 A 
ATOM     61  F   UNL A   1      46.548  31.517  26.506  1.00  0.00    -0.203 F 
ATOM     62  C   UNL A   1      46.409  33.846  26.416  1.00  0.00     0.198 A 
ATOM     63  C   UNL A   1      44.528  34.992  27.317  1.00  0.00     0.198 A 
ATOM     64  F   UNL A   1      42.865  33.869  28.462  1.00  0.00    -0.203 F 
ATOM     65  F   UNL A   1      47.628  33.874  25.860  1.00  0.00    -0.200 F 
ATOM     66  C   UNL A   1      45.756  35.032  26.693  1.00  0.00     0.200 A 
ATOM     67  F   UNL A   1      43.885  36.133  27.607  1.00  0.00    -0.200 F 
ATOM     68  F   UNL A   1      46.328  36.208  26.405  1.00  0.00    -0.200 F 
ENDBRANCH  44  58
BRANCH  45  69
ATOM     69  C   UNL A   1      36.687  32.434  30.554  1.00  0.00     0.064 A 
ATOM     70  C   UNL A   1      35.830  32.492  31.663  1.00  0.00     0.173 A 
ATOM     71  C   UNL A   1      36.372  33.281  29.471  1.00  0.00     0.173 A 
ATOM     72  F   UNL A   1      36.078  31.744  32.748  1.00  0.00    -0.203 F 
ATOM     73  C   UNL A   1      34.743  33.370  31.702  1.00  0.00     0.198 A 
ATOM     74  C   UNL A   1      35.279  34.147  29.507  1.00  0.00     0.198 A 
ATOM     75  F   UNL A   1      37.168  33.349  28.394  1.00  0.00    -0.203 F 
ATOM     76  F   UNL A   1      33.988  33.446  32.807  1.00  0.00    -0.200 F 
ATOM     77  C   UNL A   1      34.475  34.204  30.630  1.00  0.00     0.200 A 
ATOM     78  F   UNL A   1      35.049  34.969  28.473  1.00  0.00    -0.200 F 
ATOM     79  F   UNL A   1      33.471  35.090  30.693  1.00  0.00    -0.200 F 
ENDBRANCH  45  69
BRANCH  57  80
ATOM     80  C   UNL A   1      41.940  30.489  33.389  1.00  0.00     0.064 A 
ATOM     81  C   UNL A   1      41.484  29.165  33.267  1.00  0.00     0.173 A 
ATOM     82  C   UNL A   1      42.287  30.933  34.672  1.00  0.00     0.173 A 
ATOM     83  F   UNL A   1      41.225  28.630  32.069  1.00  0.00    -0.203 F 
ATOM     84  C   UNL A   1      41.350  28.339  34.382  1.00  0.00     0.198 A 
ATOM     85  C   UNL A   1      42.188  30.095  35.780  1.00  0.00     0.198 A 
ATOM     86  F   UNL A   1      42.782  32.169  34.844  1.00  0.00    -0.203 F 
ATOM     87  F   UNL A   1      40.909  27.080  34.237  1.00  0.00    -0.200 F 
ATOM     88  C   UNL A   1      41.712  28.801  35.636  1.00  0.00     0.200 A 
ATOM     89  F   UNL A   1      42.589  30.530  36.982  1.00  0.00    -0.200 F 
ATOM     90  F   UNL A   1      41.633  27.991  36.701  1.00  0.00    -0.200 F 
ENDBRANCH  57  80
ENDBRANCH  31  32
ENDBRANCH  23  26
ENDBRANCH  21  22
ENDBRANCH   1  21
TORSDOF 12
ENDMDL
MODEL 3
REMARK VINA RESULT:     -12.1      2.804      4.002
REMARK SMILES Cc1cc(C)c2c(O[C@@H](C)C(=O)NCCCNC(=O)c3ccc(-c4c5nc(c(-c6c(F)c(F)c(F)c(F)c6F)c6ccc([nH]6)c(-c6c(F)c(F)c(F)c(F)c6F)c6nc(c(-c7c(F)c(F)c(F)c(F)c7F)c7ccc4[nH]7)C=C6)C=C5)cc3)nsc2n1
REMARK SMILES IDX 15 1 14 2 13 3 11 4 12 5 9 7 10 8 8 9 7 10 1 11 2 12 3 13
REMARK SMILES IDX 86 14 4 15 85 16 5 17 6 18 84 19 83 20 16 21 17 22 18 23
REMARK SMILES IDX 19 25 20 26 21 27 82 28 22 29 81 30 23 31 24 32 25 33 75 34
REMARK SMILES IDX 26 35 80 36 74 37 76 38 27 39 79 40 73 41 72 42 28 44 60 45
REMARK SMILES IDX 40 46 59 47 41 48 44 49 58 50 77 51 42 52 43 53 57 55 78 56
REMARK SMILES IDX 45 57 29 58 30 59 38 60 31 61 32 62 36 63 39 64 33 65 34 66
REMARK SMILES IDX 37 67 35 68 61 69 62 70 70 71 63 72 64 73 68 74 71 75 65 76
REMARK SMILES IDX 66 77 69 78 67 79 46 80 47 81 55 82 48 83 49 84 53 85 56 86
REMARK SMILES IDX 50 87 51 88 54 89 52 90
REMARK H PARENT 13 6 17 24 76 43 44 54
REMARK Flexibility Score: inf
ROOT
ATOM      1  C   UNL A   1      38.955  21.047  25.662  1.00  0.00     0.042 C 
ENDROOT
BRANCH   1   2
ATOM      2  C   UNL A   1      37.941  22.163  25.446  1.00  0.00     0.118 C 
BRANCH   2   3
ATOM      3  N   UNL A   1      37.352  22.233  24.126  1.00  0.00    -0.353 N 
ATOM      4  C   UNL A   1      36.075  22.581  23.793  1.00  0.00     0.260 C 
ATOM      5  O   UNL A   1      35.945  23.310  22.802  1.00  0.00    -0.271 OA
ATOM      6  H   UNL A   1      37.946  22.002  23.375  1.00  0.00     0.163 HD
BRANCH   4   7
ATOM      7  C   UNL A   1      34.823  21.973  24.491  1.00  0.00     0.260 C 
ATOM      8  C   UNL A   1      35.062  20.699  25.305  1.00  0.00     0.064 C 
BRANCH   7   9
ATOM      9  O   UNL A   1      33.515  22.163  24.055  1.00  0.00    -0.463 OA
BRANCH   9  10
ATOM     10  C   UNL A   1      32.578  22.936  24.643  1.00  0.00     0.235 A 
ATOM     11  C   UNL A   1      31.895  27.837  27.349  1.00  0.00     0.067 C 
ATOM     12  C   UNL A   1      31.977  26.663  26.419  1.00  0.00     0.039 A 
ATOM     13  C   UNL A   1      32.632  26.772  25.204  1.00  0.00     0.027 A 
ATOM     14  N   UNL A   1      31.408  25.527  26.836  1.00  0.00    -0.240 NA
ATOM     15  C   UNL A   1      32.865  25.636  24.389  1.00  0.00    -0.034 A 
ATOM     16  C   UNL A   1      31.623  24.461  26.047  1.00  0.00     0.147 A 
ATOM     17  C   UNL A   1      33.587  25.915  23.096  1.00  0.00     0.045 C 
ATOM     18  C   UNL A   1      32.401  24.372  24.881  1.00  0.00     0.078 A 
ATOM     19  S   UNL A   1      30.942  22.958  26.446  1.00  0.00    -0.012 S 
ATOM     20  N   UNL A   1      31.777  22.111  25.320  1.00  0.00    -0.153 NA
ENDBRANCH   9  10
ENDBRANCH   7   9
ENDBRANCH   4   7
ENDBRANCH   2   3
ENDBRANCH   1   2
BRANCH   1  21
ATOM     21  C   UNL A   1      40.092  21.486  26.582  1.00  0.00     0.118 C 
BRANCH  21  22
ATOM     22  N   UNL A   1      41.323  21.892  25.895  1.00  0.00    -0.352 N 
ATOM     23  C   UNL A   1      41.903  23.156  25.876  1.00  0.00     0.251 C 
ATOM     24  H   UNL A   1      41.793  21.190  25.391  1.00  0.00     0.163 HD
ATOM     25  O   UNL A   1      42.758  23.482  25.077  1.00  0.00    -0.269 OA
BRANCH  23  26
ATOM     26  C   UNL A   1      41.422  24.125  26.871  1.00  0.00     0.039 A 
ATOM     27  C   UNL A   1      42.131  24.316  28.058  1.00  0.00     0.014 A 
ATOM     28  C   UNL A   1      40.427  25.002  26.458  1.00  0.00     0.014 A 
ATOM     29  C   UNL A   1      41.946  25.505  28.756  1.00  0.00     0.010 A 
ATOM     30  C   UNL A   1      40.358  26.232  27.071  1.00  0.00     0.010 A 
ATOM     31  C   UNL A   1      41.111  26.499  28.220  1.00  0.00    -0.014 A 
BRANCH  31  32
ATOM     32  C   UNL A   1      41.156  27.863  28.761  1.00  0.00     0.031 A 
ATOM     33  C   UNL A   1      42.298  28.730  28.323  1.00  0.00     0.074 A 
ATOM     34  C   UNL A   1      40.138  28.433  29.438  1.00  0.00     0.049 A 
ATOM     35  N   UNL A   1      43.204  29.279  29.067  1.00  0.00    -0.248 NA
ATOM     36  C   UNL A   1      42.488  28.979  26.886  1.00  0.00     0.031 C 
ATOM     37  C   UNL A   1      38.810  27.885  29.734  1.00  0.00     0.029 A 
ATOM     38  N   UNL A   1      40.053  29.705  29.921  1.00  0.00    -0.354 N 
ATOM     39  C   UNL A   1      43.997  30.063  28.226  1.00  0.00     0.074 A 
ATOM     40  C   UNL A   1      43.581  29.748  26.883  1.00  0.00     0.031 C 
ATOM     41  C   UNL A   1      37.987  28.879  30.126  1.00  0.00     0.029 A 
ATOM     42  C   UNL A   1      38.775  30.082  30.299  1.00  0.00     0.049 A 
ATOM     43  H   UNL A   1      40.832  30.302  29.995  1.00  0.00     0.167 HD
ATOM     44  C   UNL A   1      44.814  31.038  28.720  1.00  0.00     0.037 A 
ATOM     45  C   UNL A   1      38.378  31.298  30.738  1.00  0.00     0.037 A 
ATOM     46  C   UNL A   1      45.039  30.859  30.132  1.00  0.00     0.049 A 
ATOM     47  C   UNL A   1      39.583  31.985  31.260  1.00  0.00     0.074 A 
ATOM     48  C   UNL A   1      45.579  29.852  30.910  1.00  0.00     0.029 A 
ATOM     49  N   UNL A   1      44.371  31.676  31.009  1.00  0.00    -0.354 N 
ATOM     50  N   UNL A   1      40.228  31.609  32.331  1.00  0.00    -0.248 NA
ATOM     51  C   UNL A   1      40.317  32.862  30.363  1.00  0.00     0.031 C 
ATOM     52  C   UNL A   1      44.779  29.834  32.090  1.00  0.00     0.029 A 
ATOM     53  C   UNL A   1      43.845  30.865  31.981  1.00  0.00     0.049 A 
ATOM     54  H   UNL A   1      44.284  32.654  30.951  1.00  0.00     0.167 HD
ATOM     55  C   UNL A   1      41.561  31.839  32.034  1.00  0.00     0.074 A 
ATOM     56  C   UNL A   1      41.545  32.720  30.871  1.00  0.00     0.031 C 
ATOM     57  C   UNL A   1      42.548  31.071  32.583  1.00  0.00     0.037 A 
BRANCH  44  58
ATOM     58  C   UNL A   1      45.165  32.337  28.024  1.00  0.00     0.064 A 
ATOM     59  C   UNL A   1      44.135  33.254  27.711  1.00  0.00     0.173 A 
ATOM     60  C   UNL A   1      46.397  32.581  27.386  1.00  0.00     0.173 A 
ATOM     61  F   UNL A   1      42.913  33.124  28.250  1.00  0.00    -0.203 F 
ATOM     62  C   UNL A   1      44.302  34.267  26.762  1.00  0.00     0.198 A 
ATOM     63  C   UNL A   1      46.577  33.628  26.479  1.00  0.00     0.198 A 
ATOM     64  F   UNL A   1      47.444  31.760  27.524  1.00  0.00    -0.203 F 
ATOM     65  F   UNL A   1      43.254  35.020  26.399  1.00  0.00    -0.200 F 
ATOM     66  C   UNL A   1      45.522  34.447  26.139  1.00  0.00     0.200 A 
ATOM     67  F   UNL A   1      47.764  33.778  25.875  1.00  0.00    -0.200 F 
ATOM     68  F   UNL A   1      45.668  35.371  25.180  1.00  0.00    -0.200 F 
ENDBRANCH  44  58
BRANCH  45  69
ATOM     69  C   UNL A   1      37.063  31.954  30.583  1.00  0.00     0.064 A 
ATOM     70  C   UNL A   1      36.102  31.897  31.603  1.00  0.00     0.173 A 
ATOM     71  C   UNL A   1      36.818  32.869  29.540  1.00  0.00     0.173 A 
ATOM     72  F   UNL A   1      36.277  31.077  32.651  1.00  0.00    -0.203 F 
ATOM     73  C   UNL A   1      34.980  32.731  31.599  1.00  0.00     0.198 A 
ATOM     74  C   UNL A   1      35.691  33.692  29.530  1.00  0.00     0.198 A 
ATOM     75  F   UNL A   1      37.710  33.047  28.554  1.00  0.00    -0.203 F 
ATOM     76  F   UNL A   1      34.121  32.696  32.626  1.00  0.00    -0.200 F 
ATOM     77  C   UNL A   1      34.781  33.635  30.569  1.00  0.00     0.200 A 
ATOM     78  F   UNL A   1      35.526  34.581  28.541  1.00  0.00    -0.200 F 
ATOM     79  F   UNL A   1      33.740  34.477  30.598  1.00  0.00    -0.200 F 
ENDBRANCH  45  69
BRANCH  57  80
ATOM     80  C   UNL A   1      42.194  30.164  33.728  1.00  0.00     0.064 A 
ATOM     81  C   UNL A   1      41.775  28.832  33.573  1.00  0.00     0.173 A 
ATOM     82  C   UNL A   1      42.462  30.605  35.031  1.00  0.00     0.173 A 
ATOM     83  F   UNL A   1      41.592  28.301  32.359  1.00  0.00    -0.203 F 
ATOM     84  C   UNL A   1      41.601  27.993  34.673  1.00  0.00     0.198 A 
ATOM     85  C   UNL A   1      42.323  29.756  36.125  1.00  0.00     0.198 A 
ATOM     86  F   UNL A   1      42.919  31.850  35.238  1.00  0.00    -0.203 F 
ATOM     87  F   UNL A   1      41.197  26.727  34.495  1.00  0.00    -0.200 F 
ATOM     88  C   UNL A   1      41.885  28.453  35.947  1.00  0.00     0.200 A 
ATOM     89  F   UNL A   1      42.650  30.189  37.351  1.00  0.00    -0.200 F 
ATOM     90  F   UNL A   1      41.768  27.632  37.001  1.00  0.00    -0.200 F 
ENDBRANCH  57  80
ENDBRANCH  31  32
ENDBRANCH  23  26
ENDBRANCH  21  22
ENDBRANCH   1  21
TORSDOF 12
ENDMDL
