MODEL 1
REMARK VINA RESULT:     -11.8      0.000      0.000
REMARK SMILES CC(C)C[C@H](NS(=O)(=O)N1C[C@@H](C)C[C@H](C)C1)C(=O)NCCCNC(=O)c1ccc(-c2c3nc(c(-c4c(F)c(F)c(F)c(F)c4F)c4ccc([nH]4)c(-c4c(F)c(F)c(F)c(F)c4F)c4nc(c(-c5c(F)c(F)c(F)c(F)c5F)c5ccc2[nH]5)C=C4)C=C3)cc1
REMARK SMILES IDX 21 1 20 2 18 3 19 4 5 6 4 7 2 8 1 9 3 10 6 11 7 13 8 14 9 15
REMARK SMILES IDX 10 16 11 17 17 18 12 19 15 20 13 21 14 22 16 23 22 24 23 25
REMARK SMILES IDX 24 26 25 27 26 29 27 30 28 31 89 32 29 33 88 34 30 35 31 36
REMARK SMILES IDX 32 37 82 38 33 39 87 40 81 41 83 42 34 43 86 44 80 45 79 46
REMARK SMILES IDX 35 48 67 49 47 50 66 51 48 52 51 53 65 54 84 55 49 56 50 57
REMARK SMILES IDX 64 59 85 60 52 61 36 62 37 63 45 64 38 65 39 66 43 67 46 68
REMARK SMILES IDX 40 69 41 70 44 71 42 72 68 73 69 74 77 75 70 76 71 77 75 78
REMARK SMILES IDX 78 79 72 80 73 81 76 82 74 83 53 84 54 85 62 86 55 87 56 88
REMARK SMILES IDX 60 89 63 90 57 91 58 92 61 93 59 94
REMARK H PARENT 20 5 6 12 24 28 83 47 51 58
REMARK Flexibility Score: inf
ROOT
ATOM      1  C   UNL A   1      32.138  30.551  26.213  1.00  0.00     0.117 C 
ENDROOT
BRANCH   1   2
ATOM      2  N   UNL A   1      31.606  29.530  27.107  1.00  0.00    -0.355 N 
ATOM      3  C   UNL A   1      31.619  28.162  26.957  1.00  0.00     0.238 C 
ATOM      4  O   UNL A   1      31.396  27.476  27.959  1.00  0.00    -0.273 OA
ATOM      5  H   UNL A   1      31.181  29.863  27.930  1.00  0.00     0.163 HD
BRANCH   3   6
ATOM      6  C   UNL A   1      31.850  27.509  25.574  1.00  0.00     0.160 C 
BRANCH   6   7
ATOM      7  C   UNL A   1      30.773  27.831  24.512  1.00  0.00     0.033 C 
BRANCH   7   8
ATOM      8  C   UNL A   1      31.173  28.189  23.061  1.00  0.00    -0.015 C 
ATOM      9  C   UNL A   1      30.226  29.207  22.411  1.00  0.00     0.007 C 
ATOM     10  C   UNL A   1      32.593  28.766  22.997  1.00  0.00     0.007 C 
ENDBRANCH   7   8
ENDBRANCH   6   7
BRANCH   6  11
ATOM     11  N   UNL A   1      32.099  26.088  25.865  1.00  0.00    -0.190 NA
ATOM     12  H   UNL A   1      31.287  25.783  26.403  1.00  0.00     0.143 HD
BRANCH  11  13
ATOM     13  S   UNL A   1      32.358  24.887  24.775  1.00  0.00     0.280 S 
ATOM     14  O   UNL A   1      31.021  24.407  24.506  1.00  0.00    -0.195 OA
ATOM     15  O   UNL A   1      33.221  25.378  23.736  1.00  0.00    -0.195 OA
BRANCH  13  16
ATOM     16  N   UNL A   1      33.163  23.751  25.721  1.00  0.00    -0.188 NA
ATOM     17  C   UNL A   1      32.790  22.318  25.577  1.00  0.00     0.106 C 
ATOM     18  C   UNL A   1      34.624  23.924  25.916  1.00  0.00     0.106 C 
ATOM     19  C   UNL A   1      33.530  21.626  24.417  1.00  0.00     0.001 C 
ATOM     20  C   UNL A   1      35.386  23.369  24.704  1.00  0.00     0.001 C 
ATOM     21  C   UNL A   1      32.965  21.979  23.040  1.00  0.00     0.009 C 
ATOM     22  C   UNL A   1      35.043  21.887  24.481  1.00  0.00     0.009 C 
ATOM     23  C   UNL A   1      36.895  23.552  24.862  1.00  0.00     0.009 C 
ENDBRANCH  13  16
ENDBRANCH  11  13
ENDBRANCH   6  11
ENDBRANCH   3   6
ENDBRANCH   1   2
BRANCH   1  24
ATOM     24  C   UNL A   1      31.751  31.967  26.577  1.00  0.00     0.042 C 
BRANCH  24  25
ATOM     25  C   UNL A   1      32.819  32.691  27.372  1.00  0.00     0.118 C 
BRANCH  25  26
ATOM     26  N   UNL A   1      32.488  34.085  27.662  1.00  0.00    -0.352 N 
ATOM     27  C   UNL A   1      33.008  34.945  28.601  1.00  0.00     0.251 C 
ATOM     28  H   UNL A   1      31.783  34.470  27.093  1.00  0.00     0.163 HD
ATOM     29  O   UNL A   1      32.495  36.044  28.783  1.00  0.00    -0.269 OA
BRANCH  27  30
ATOM     30  C   UNL A   1      34.163  34.524  29.418  1.00  0.00     0.039 A 
ATOM     31  C   UNL A   1      33.946  33.984  30.686  1.00  0.00     0.014 A 
ATOM     32  C   UNL A   1      35.457  34.614  28.906  1.00  0.00     0.014 A 
ATOM     33  C   UNL A   1      35.021  33.443  31.394  1.00  0.00     0.010 A 
ATOM     34  C   UNL A   1      36.494  33.953  29.543  1.00  0.00     0.010 A 
ATOM     35  C   UNL A   1      36.293  33.370  30.802  1.00  0.00    -0.014 A 
BRANCH  35  36
ATOM     36  C   UNL A   1      37.434  32.706  31.481  1.00  0.00     0.031 A 
ATOM     37  C   UNL A   1      38.124  31.544  30.820  1.00  0.00     0.074 A 
ATOM     38  C   UNL A   1      37.798  33.098  32.719  1.00  0.00     0.049 A 
ATOM     39  N   UNL A   1      39.084  30.780  31.278  1.00  0.00    -0.248 NA
ATOM     40  C   UNL A   1      37.647  31.161  29.481  1.00  0.00     0.031 C 
ATOM     41  C   UNL A   1      37.165  34.170  33.489  1.00  0.00     0.029 A 
ATOM     42  N   UNL A   1      38.786  32.633  33.549  1.00  0.00    -0.354 N 
ATOM     43  C   UNL A   1      39.308  29.827  30.294  1.00  0.00     0.074 A 
ATOM     44  C   UNL A   1      38.336  30.055  29.250  1.00  0.00     0.031 C 
ATOM     45  C   UNL A   1      37.803  34.306  34.662  1.00  0.00     0.029 A 
ATOM     46  C   UNL A   1      38.858  33.301  34.749  1.00  0.00     0.049 A 
ATOM     47  H   UNL A   1      39.387  31.892  33.309  1.00  0.00     0.167 HD
ATOM     48  C   UNL A   1      40.262  28.867  30.248  1.00  0.00     0.037 A 
ATOM     49  C   UNL A   1      39.677  33.117  35.801  1.00  0.00     0.037 A 
ATOM     50  C   UNL A   1      41.244  28.663  31.277  1.00  0.00     0.049 A 
ATOM     51  C   UNL A   1      40.722  32.035  35.730  1.00  0.00     0.074 A 
ATOM     52  C   UNL A   1      42.292  27.761  31.303  1.00  0.00     0.029 A 
ATOM     53  N   UNL A   1      41.295  29.370  32.471  1.00  0.00    -0.354 N 
ATOM     54  N   UNL A   1      40.976  31.190  34.759  1.00  0.00    -0.248 NA
ATOM     55  C   UNL A   1      41.599  31.885  36.899  1.00  0.00     0.031 C 
ATOM     56  C   UNL A   1      42.939  27.879  32.536  1.00  0.00     0.029 A 
ATOM     57  C   UNL A   1      42.340  28.902  33.252  1.00  0.00     0.049 A 
ATOM     58  H   UNL A   1      40.680  30.095  32.724  1.00  0.00     0.167 HD
ATOM     59  C   UNL A   1      42.059  30.434  35.185  1.00  0.00     0.074 A 
ATOM     60  C   UNL A   1      42.426  30.931  36.495  1.00  0.00     0.031 C 
ATOM     61  C   UNL A   1      42.695  29.418  34.551  1.00  0.00     0.037 A 
BRANCH  48  62
ATOM     62  C   UNL A   1      40.290  27.972  29.041  1.00  0.00     0.064 A 
ATOM     63  C   UNL A   1      39.571  26.766  28.997  1.00  0.00     0.173 A 
ATOM     64  C   UNL A   1      41.023  28.337  27.901  1.00  0.00     0.173 A 
ATOM     65  F   UNL A   1      38.865  26.362  30.064  1.00  0.00    -0.203 F 
ATOM     66  C   UNL A   1      39.613  25.945  27.873  1.00  0.00     0.198 A 
ATOM     67  C   UNL A   1      41.031  27.532  26.766  1.00  0.00     0.198 A 
ATOM     68  F   UNL A   1      41.725  29.480  27.886  1.00  0.00    -0.203 F 
ATOM     69  F   UNL A   1      38.969  24.770  27.880  1.00  0.00    -0.200 F 
ATOM     70  C   UNL A   1      40.336  26.333  26.756  1.00  0.00     0.200 A 
ATOM     71  F   UNL A   1      41.718  27.916  25.680  1.00  0.00    -0.200 F 
ATOM     72  F   UNL A   1      40.368  25.546  25.672  1.00  0.00    -0.200 F 
ENDBRANCH  48  62
BRANCH  49  73
ATOM     73  C   UNL A   1      39.561  33.989  37.001  1.00  0.00     0.064 A 
ATOM     74  C   UNL A   1      38.811  33.586  38.115  1.00  0.00     0.173 A 
ATOM     75  C   UNL A   1      40.182  35.246  37.056  1.00  0.00     0.173 A 
ATOM     76  F   UNL A   1      38.181  32.402  38.104  1.00  0.00    -0.203 F 
ATOM     77  C   UNL A   1      38.662  34.417  39.224  1.00  0.00     0.198 A 
ATOM     78  C   UNL A   1      40.062  36.061  38.179  1.00  0.00     0.198 A 
ATOM     79  F   UNL A   1      40.917  35.679  36.021  1.00  0.00    -0.203 F 
ATOM     80  F   UNL A   1      37.893  34.029  40.250  1.00  0.00    -0.200 F 
ATOM     81  C   UNL A   1      39.293  35.651  39.258  1.00  0.00     0.200 A 
ATOM     82  F   UNL A   1      40.687  37.246  38.215  1.00  0.00    -0.200 F 
ATOM     83  F   UNL A   1      39.151  36.449  40.325  1.00  0.00    -0.200 F 
ENDBRANCH  49  73
BRANCH  61  84
ATOM     84  C   UNL A   1      43.880  28.805  35.241  1.00  0.00     0.064 A 
ATOM     85  C   UNL A   1      43.748  27.715  36.114  1.00  0.00     0.173 A 
ATOM     86  C   UNL A   1      45.173  29.294  34.994  1.00  0.00     0.173 A 
ATOM     87  F   UNL A   1      42.534  27.217  36.394  1.00  0.00    -0.203 F 
ATOM     88  C   UNL A   1      44.861  27.157  36.736  1.00  0.00     0.198 A 
ATOM     89  C   UNL A   1      46.288  28.709  35.587  1.00  0.00     0.198 A 
ATOM     90  F   UNL A   1      45.357  30.329  34.160  1.00  0.00    -0.203 F 
ATOM     91  F   UNL A   1      44.705  26.152  37.609  1.00  0.00    -0.200 F 
ATOM     92  C   UNL A   1      46.130  27.648  36.465  1.00  0.00     0.200 A 
ATOM     93  F   UNL A   1      47.513  29.173  35.309  1.00  0.00    -0.200 F 
ATOM     94  F   UNL A   1      47.201  27.103  37.058  1.00  0.00    -0.200 F 
ENDBRANCH  61  84
ENDBRANCH  35  36
ENDBRANCH  27  30
ENDBRANCH  25  26
ENDBRANCH  24  25
ENDBRANCH   1  24
TORSDOF 15
ENDMDL
MODEL 2
REMARK VINA RESULT:     -11.8      0.496      1.676
REMARK SMILES CC(C)C[C@H](NS(=O)(=O)N1C[C@@H](C)C[C@H](C)C1)C(=O)NCCCNC(=O)c1ccc(-c2c3nc(c(-c4c(F)c(F)c(F)c(F)c4F)c4ccc([nH]4)c(-c4c(F)c(F)c(F)c(F)c4F)c4nc(c(-c5c(F)c(F)c(F)c(F)c5F)c5ccc2[nH]5)C=C4)C=C3)cc1
REMARK SMILES IDX 21 1 20 2 18 3 19 4 5 6 4 7 2 8 1 9 3 10 6 11 7 13 8 14 9 15
REMARK SMILES IDX 10 16 11 17 17 18 12 19 15 20 13 21 14 22 16 23 22 24 23 25
REMARK SMILES IDX 24 26 25 27 26 29 27 30 28 31 89 32 29 33 88 34 30 35 31 36
REMARK SMILES IDX 32 37 82 38 33 39 87 40 81 41 83 42 34 43 86 44 80 45 79 46
REMARK SMILES IDX 35 48 67 49 47 50 66 51 48 52 51 53 65 54 84 55 49 56 50 57
REMARK SMILES IDX 64 59 85 60 52 61 36 62 37 63 45 64 38 65 39 66 43 67 46 68
REMARK SMILES IDX 40 69 41 70 44 71 42 72 68 73 69 74 77 75 70 76 71 77 75 78
REMARK SMILES IDX 78 79 72 80 73 81 76 82 74 83 53 84 54 85 62 86 55 87 56 88
REMARK SMILES IDX 60 89 63 90 57 91 58 92 61 93 59 94
REMARK H PARENT 20 5 6 12 24 28 83 47 51 58
REMARK Flexibility Score: inf
ROOT
ATOM      1  C   UNL A   1      32.234  30.572  26.432  1.00  0.00     0.117 C 
ENDROOT
BRANCH   1   2
ATOM      2  N   UNL A   1      31.645  29.511  27.241  1.00  0.00    -0.355 N 
ATOM      3  C   UNL A   1      31.701  28.150  27.050  1.00  0.00     0.238 C 
ATOM      4  O   UNL A   1      31.403  27.427  28.005  1.00  0.00    -0.273 OA
ATOM      5  H   UNL A   1      31.141  29.809  28.032  1.00  0.00     0.163 HD
BRANCH   3   6
ATOM      6  C   UNL A   1      32.069  27.548  25.673  1.00  0.00     0.160 C 
BRANCH   6   7
ATOM      7  C   UNL A   1      30.885  27.390  24.691  1.00  0.00     0.033 C 
BRANCH   7   8
ATOM      8  C   UNL A   1      30.809  28.237  23.399  1.00  0.00    -0.015 C 
ATOM      9  C   UNL A   1      29.987  29.523  23.571  1.00  0.00     0.007 C 
ATOM     10  C   UNL A   1      32.206  28.640  22.908  1.00  0.00     0.007 C 
ENDBRANCH   7   8
ENDBRANCH   6   7
BRANCH   6  11
ATOM     11  N   UNL A   1      32.844  26.337  25.986  1.00  0.00    -0.190 NA
ATOM     12  H   UNL A   1      32.903  26.318  27.005  1.00  0.00     0.143 HD
BRANCH  11  13
ATOM     13  S   UNL A   1      32.482  24.793  25.557  1.00  0.00     0.280 S 
ATOM     14  O   UNL A   1      31.331  24.495  26.380  1.00  0.00    -0.195 OA
ATOM     15  O   UNL A   1      32.444  24.704  24.123  1.00  0.00    -0.195 OA
BRANCH  13  16
ATOM     16  N   UNL A   1      33.813  23.961  26.163  1.00  0.00    -0.188 NA
ATOM     17  C   UNL A   1      33.589  22.635  26.800  1.00  0.00     0.106 C 
ATOM     18  C   UNL A   1      35.066  23.986  25.367  1.00  0.00     0.106 C 
ATOM     19  C   UNL A   1      33.549  21.485  25.777  1.00  0.00     0.001 C 
ATOM     20  C   UNL A   1      34.997  22.941  24.244  1.00  0.00     0.001 C 
ATOM     21  C   UNL A   1      32.233  21.408  25.002  1.00  0.00     0.009 C 
ATOM     22  C   UNL A   1      34.754  21.538  24.824  1.00  0.00     0.009 C 
ATOM     23  C   UNL A   1      36.263  22.955  23.389  1.00  0.00     0.009 C 
ENDBRANCH  13  16
ENDBRANCH  11  13
ENDBRANCH   6  11
ENDBRANCH   3   6
ENDBRANCH   1   2
BRANCH   1  24
ATOM     24  C   UNL A   1      31.822  31.969  26.834  1.00  0.00     0.042 C 
BRANCH  24  25
ATOM     25  C   UNL A   1      32.990  32.832  27.272  1.00  0.00     0.118 C 
BRANCH  25  26
ATOM     26  N   UNL A   1      32.608  34.197  27.630  1.00  0.00    -0.352 N 
ATOM     27  C   UNL A   1      33.070  35.015  28.634  1.00  0.00     0.251 C 
ATOM     28  H   UNL A   1      31.910  34.593  27.060  1.00  0.00     0.163 HD
ATOM     29  O   UNL A   1      32.519  36.086  28.860  1.00  0.00    -0.269 OA
BRANCH  27  30
ATOM     30  C   UNL A   1      34.210  34.580  29.464  1.00  0.00     0.039 A 
ATOM     31  C   UNL A   1      33.972  34.039  30.728  1.00  0.00     0.014 A 
ATOM     32  C   UNL A   1      35.512  34.658  28.969  1.00  0.00     0.014 A 
ATOM     33  C   UNL A   1      35.032  33.485  31.449  1.00  0.00     0.010 A 
ATOM     34  C   UNL A   1      36.533  33.984  29.619  1.00  0.00     0.010 A 
ATOM     35  C   UNL A   1      36.310  33.401  30.873  1.00  0.00    -0.014 A 
BRANCH  35  36
ATOM     36  C   UNL A   1      37.436  32.723  31.565  1.00  0.00     0.031 A 
ATOM     37  C   UNL A   1      38.128  31.562  30.906  1.00  0.00     0.074 A 
ATOM     38  C   UNL A   1      37.782  33.103  32.811  1.00  0.00     0.049 A 
ATOM     39  N   UNL A   1      39.075  30.788  31.373  1.00  0.00    -0.248 NA
ATOM     40  C   UNL A   1      37.670  31.193  29.557  1.00  0.00     0.031 C 
ATOM     41  C   UNL A   1      37.144  34.174  33.580  1.00  0.00     0.029 A 
ATOM     42  N   UNL A   1      38.753  32.625  33.654  1.00  0.00    -0.354 N 
ATOM     43  C   UNL A   1      39.308  29.840  30.385  1.00  0.00     0.074 A 
ATOM     44  C   UNL A   1      38.354  30.083  29.328  1.00  0.00     0.031 C 
ATOM     45  C   UNL A   1      37.764  34.296  34.764  1.00  0.00     0.029 A 
ATOM     46  C   UNL A   1      38.810  33.283  34.860  1.00  0.00     0.049 A 
ATOM     47  H   UNL A   1      39.353  31.881  33.418  1.00  0.00     0.167 HD
ATOM     48  C   UNL A   1      40.256  28.875  30.347  1.00  0.00     0.037 A 
ATOM     49  C   UNL A   1      39.612  33.085  35.924  1.00  0.00     0.037 A 
ATOM     50  C   UNL A   1      41.221  28.655  31.391  1.00  0.00     0.049 A 
ATOM     51  C   UNL A   1      40.650  31.996  35.861  1.00  0.00     0.074 A 
ATOM     52  C   UNL A   1      42.262  27.746  31.426  1.00  0.00     0.029 A 
ATOM     53  N   UNL A   1      41.256  29.353  32.590  1.00  0.00    -0.354 N 
ATOM     54  N   UNL A   1      40.913  31.157  34.888  1.00  0.00    -0.248 NA
ATOM     55  C   UNL A   1      41.506  31.831  37.043  1.00  0.00     0.031 C 
ATOM     56  C   UNL A   1      42.889  27.849  32.671  1.00  0.00     0.029 A 
ATOM     57  C   UNL A   1      42.285  28.871  33.385  1.00  0.00     0.049 A 
ATOM     58  H   UNL A   1      40.643  30.080  32.840  1.00  0.00     0.167 HD
ATOM     59  C   UNL A   1      41.985  30.390  35.325  1.00  0.00     0.074 A 
ATOM     60  C   UNL A   1      42.333  30.875  36.644  1.00  0.00     0.031 C 
ATOM     61  C   UNL A   1      42.624  29.374  34.693  1.00  0.00     0.037 A 
BRANCH  48  62
ATOM     62  C   UNL A   1      40.298  27.988  29.134  1.00  0.00     0.064 A 
ATOM     63  C   UNL A   1      39.598  26.772  29.082  1.00  0.00     0.173 A 
ATOM     64  C   UNL A   1      41.023  28.373  27.996  1.00  0.00     0.173 A 
ATOM     65  F   UNL A   1      38.899  26.348  30.146  1.00  0.00    -0.203 F 
ATOM     66  C   UNL A   1      39.652  25.959  27.952  1.00  0.00     0.198 A 
ATOM     67  C   UNL A   1      41.044  27.577  26.855  1.00  0.00     0.198 A 
ATOM     68  F   UNL A   1      41.707  29.527  27.988  1.00  0.00    -0.203 F 
ATOM     69  F   UNL A   1      39.027  24.774  27.951  1.00  0.00    -0.200 F 
ATOM     70  C   UNL A   1      40.368  26.367  26.837  1.00  0.00     0.200 A 
ATOM     71  F   UNL A   1      41.723  27.979  25.771  1.00  0.00    -0.200 F 
ATOM     72  F   UNL A   1      40.412  25.588  25.748  1.00  0.00    -0.200 F 
ENDBRANCH  48  62
BRANCH  49  73
ATOM     73  C   UNL A   1      39.482  33.948  37.128  1.00  0.00     0.064 A 
ATOM     74  C   UNL A   1      40.131  35.189  37.200  1.00  0.00     0.173 A 
ATOM     75  C   UNL A   1      38.722  33.548  38.238  1.00  0.00     0.173 A 
ATOM     76  F   UNL A   1      40.886  35.609  36.174  1.00  0.00    -0.203 F 
ATOM     77  C   UNL A   1      40.048  35.982  38.342  1.00  0.00     0.198 A 
ATOM     78  C   UNL A   1      38.611  34.358  39.366  1.00  0.00     0.198 A 
ATOM     79  F   UNL A   1      38.075  32.373  38.221  1.00  0.00    -0.203 F 
ATOM     80  F   UNL A   1      40.726  37.137  38.404  1.00  0.00    -0.200 F 
ATOM     81  C   UNL A   1      39.284  35.569  39.422  1.00  0.00     0.200 A 
ATOM     82  F   UNL A   1      37.857  33.962  40.401  1.00  0.00    -0.200 F 
ATOM     83  F   UNL A   1      39.204  36.333  40.520  1.00  0.00    -0.200 F 
ENDBRANCH  49  73
BRANCH  61  84
ATOM     84  C   UNL A   1      43.793  28.748  35.397  1.00  0.00     0.064 A 
ATOM     85  C   UNL A   1      45.106  29.203  35.204  1.00  0.00     0.173 A 
ATOM     86  C   UNL A   1      43.589  27.701  36.311  1.00  0.00     0.173 A 
ATOM     87  F   UNL A   1      45.356  30.192  34.333  1.00  0.00    -0.203 F 
ATOM     88  C   UNL A   1      46.174  28.613  35.875  1.00  0.00     0.198 A 
ATOM     89  C   UNL A   1      44.654  27.139  37.008  1.00  0.00     0.198 A 
ATOM     90  F   UNL A   1      42.353  27.233  36.540  1.00  0.00    -0.203 F 
ATOM     91  F   UNL A   1      47.425  29.026  35.632  1.00  0.00    -0.200 F 
ATOM     92  C   UNL A   1      45.946  27.588  36.782  1.00  0.00     0.200 A 
ATOM     93  F   UNL A   1      44.430  26.164  37.898  1.00  0.00    -0.200 F 
ATOM     94  F   UNL A   1      46.975  27.029  37.434  1.00  0.00    -0.200 F 
ENDBRANCH  61  84
ENDBRANCH  35  36
ENDBRANCH  27  30
ENDBRANCH  25  26
ENDBRANCH  24  25
ENDBRANCH   1  24
TORSDOF 15
ENDMDL
MODEL 3
REMARK VINA RESULT:     -11.7      4.855      8.564
REMARK SMILES CC(C)C[C@H](NS(=O)(=O)N1C[C@@H](C)C[C@H](C)C1)C(=O)NCCCNC(=O)c1ccc(-c2c3nc(c(-c4c(F)c(F)c(F)c(F)c4F)c4ccc([nH]4)c(-c4c(F)c(F)c(F)c(F)c4F)c4nc(c(-c5c(F)c(F)c(F)c(F)c5F)c5ccc2[nH]5)C=C4)C=C3)cc1
REMARK SMILES IDX 21 1 20 2 18 3 19 4 5 6 4 7 2 8 1 9 3 10 6 11 7 13 8 14 9 15
REMARK SMILES IDX 10 16 11 17 17 18 12 19 15 20 13 21 14 22 16 23 22 24 23 25
REMARK SMILES IDX 24 26 25 27 26 29 27 30 28 31 89 32 29 33 88 34 30 35 31 36
REMARK SMILES IDX 32 37 82 38 33 39 87 40 81 41 83 42 34 43 86 44 80 45 79 46
REMARK SMILES IDX 35 48 67 49 47 50 66 51 48 52 51 53 65 54 84 55 49 56 50 57
REMARK SMILES IDX 64 59 85 60 52 61 36 62 37 63 45 64 38 65 39 66 43 67 46 68
REMARK SMILES IDX 40 69 41 70 44 71 42 72 68 73 69 74 77 75 70 76 71 77 75 78
REMARK SMILES IDX 78 79 72 80 73 81 76 82 74 83 53 84 54 85 62 86 55 87 56 88
REMARK SMILES IDX 60 89 63 90 57 91 58 92 61 93 59 94
REMARK H PARENT 20 5 6 12 24 28 83 47 51 58
REMARK Flexibility Score: inf
ROOT
ATOM      1  C   UNL A   1      34.451  21.521  25.165  1.00  0.00     0.117 C 
ENDROOT
BRANCH   1   2
ATOM      2  N   UNL A   1      33.499  20.955  24.217  1.00  0.00    -0.355 N 
ATOM      3  C   UNL A   1      32.561  21.603  23.446  1.00  0.00     0.238 C 
ATOM      4  O   UNL A   1      32.075  20.981  22.497  1.00  0.00    -0.273 OA
ATOM      5  H   UNL A   1      33.532  19.977  24.114  1.00  0.00     0.163 HD
BRANCH   3   6
ATOM      6  C   UNL A   1      32.093  23.037  23.790  1.00  0.00     0.160 C 
BRANCH   6   7
ATOM      7  C   UNL A   1      30.776  23.119  24.595  1.00  0.00     0.033 C 
BRANCH   7   8
ATOM      8  C   UNL A   1      30.746  23.767  26.000  1.00  0.00    -0.015 C 
ATOM      9  C   UNL A   1      29.938  22.952  27.020  1.00  0.00     0.007 C 
ATOM     10  C   UNL A   1      32.160  23.949  26.565  1.00  0.00     0.007 C 
ENDBRANCH   7   8
ENDBRANCH   6   7
BRANCH   6  11
ATOM     11  N   UNL A   1      32.142  23.765  22.512  1.00  0.00    -0.190 NA
ATOM     12  H   UNL A   1      31.170  23.834  22.210  1.00  0.00     0.143 HD
BRANCH  11  13
ATOM     13  S   UNL A   1      32.773  25.259  22.249  1.00  0.00     0.280 S 
ATOM     14  O   UNL A   1      34.195  25.032  22.378  1.00  0.00    -0.195 OA
ATOM     15  O   UNL A   1      32.189  25.809  21.057  1.00  0.00    -0.195 OA
BRANCH  13  16
ATOM     16  N   UNL A   1      32.230  26.090  23.609  1.00  0.00    -0.188 NA
ATOM     17  C   UNL A   1      33.177  27.000  24.306  1.00  0.00     0.106 C 
ATOM     18  C   UNL A   1      30.854  26.645  23.576  1.00  0.00     0.106 C 
ATOM     19  C   UNL A   1      33.225  28.404  23.676  1.00  0.00     0.001 C 
ATOM     20  C   UNL A   1      30.844  27.984  22.825  1.00  0.00     0.001 C 
ATOM     21  C   UNL A   1      34.028  28.459  22.376  1.00  0.00     0.009 C 
ATOM     22  C   UNL A   1      31.813  28.980  23.483  1.00  0.00     0.009 C 
ATOM     23  C   UNL A   1      29.437  28.574  22.753  1.00  0.00     0.009 C 
ENDBRANCH  13  16
ENDBRANCH  11  13
ENDBRANCH   6  11
ENDBRANCH   3   6
ENDBRANCH   1   2
BRANCH   1  24
ATOM     24  C   UNL A   1      35.844  21.719  24.614  1.00  0.00     0.042 C 
BRANCH  24  25
ATOM     25  C   UNL A   1      36.858  22.094  25.677  1.00  0.00     0.118 C 
BRANCH  25  26
ATOM     26  N   UNL A   1      37.951  21.133  25.809  1.00  0.00    -0.352 N 
ATOM     27  C   UNL A   1      39.252  21.316  26.215  1.00  0.00     0.251 C 
ATOM     28  H   UNL A   1      37.718  20.207  25.570  1.00  0.00     0.163 HD
ATOM     29  O   UNL A   1      40.063  20.401  26.124  1.00  0.00    -0.269 OA
BRANCH  27  30
ATOM     30  C   UNL A   1      39.678  22.633  26.729  1.00  0.00     0.039 A 
ATOM     31  C   UNL A   1      40.709  22.702  27.667  1.00  0.00     0.014 A 
ATOM     32  C   UNL A   1      39.094  23.801  26.241  1.00  0.00     0.014 A 
ATOM     33  C   UNL A   1      41.217  23.949  28.036  1.00  0.00     0.010 A 
ATOM     34  C   UNL A   1      39.691  25.025  26.497  1.00  0.00     0.010 A 
ATOM     35  C   UNL A   1      40.752  25.116  27.409  1.00  0.00    -0.014 A 
BRANCH  35  36
ATOM     36  C   UNL A   1      41.343  26.448  27.697  1.00  0.00     0.031 A 
ATOM     37  C   UNL A   1      42.751  26.751  27.262  1.00  0.00     0.074 A 
ATOM     38  C   UNL A   1      40.644  27.350  28.413  1.00  0.00     0.049 A 
ATOM     39  N   UNL A   1      43.476  27.818  27.485  1.00  0.00    -0.248 NA
ATOM     40  C   UNL A   1      43.455  25.700  26.509  1.00  0.00     0.031 C 
ATOM     41  C   UNL A   1      39.295  27.150  28.946  1.00  0.00     0.029 A 
ATOM     42  N   UNL A   1      40.976  28.617  28.823  1.00  0.00    -0.354 N 
ATOM     43  C   UNL A   1      44.716  27.557  26.916  1.00  0.00     0.074 A 
ATOM     44  C   UNL A   1      44.675  26.205  26.409  1.00  0.00     0.031 C 
ATOM     45  C   UNL A   1      38.899  28.265  29.578  1.00  0.00     0.029 A 
ATOM     46  C   UNL A   1      39.983  29.242  29.540  1.00  0.00     0.049 A 
ATOM     47  H   UNL A   1      41.843  29.038  28.624  1.00  0.00     0.167 HD
ATOM     48  C   UNL A   1      45.782  28.382  26.797  1.00  0.00     0.037 A 
ATOM     49  C   UNL A   1      39.954  30.464  30.107  1.00  0.00     0.037 A 
ATOM     50  C   UNL A   1      45.807  29.736  27.281  1.00  0.00     0.049 A 
ATOM     51  C   UNL A   1      41.159  31.358  29.971  1.00  0.00     0.074 A 
ATOM     52  C   UNL A   1      46.812  30.677  27.158  1.00  0.00     0.029 A 
ATOM     53  N   UNL A   1      44.776  30.339  27.988  1.00  0.00    -0.354 N 
ATOM     54  N   UNL A   1      42.297  31.128  29.361  1.00  0.00    -0.248 NA
ATOM     55  C   UNL A   1      41.071  32.684  30.596  1.00  0.00     0.031 C 
ATOM     56  C   UNL A   1      46.416  31.830  27.844  1.00  0.00     0.029 A 
ATOM     57  C   UNL A   1      45.135  31.633  28.333  1.00  0.00     0.049 A 
ATOM     58  H   UNL A   1      43.917  29.913  28.210  1.00  0.00     0.167 HD
ATOM     59  C   UNL A   1      43.045  32.290  29.501  1.00  0.00     0.074 A 
ATOM     60  C   UNL A   1      42.225  33.228  30.237  1.00  0.00     0.031 C 
ATOM     61  C   UNL A   1      44.299  32.557  29.059  1.00  0.00     0.037 A 
BRANCH  48  62
ATOM     62  C   UNL A   1      47.006  27.842  26.112  1.00  0.00     0.064 A 
ATOM     63  C   UNL A   1      48.098  27.337  26.837  1.00  0.00     0.173 A 
ATOM     64  C   UNL A   1      47.078  27.803  24.712  1.00  0.00     0.173 A 
ATOM     65  F   UNL A   1      48.088  27.362  28.178  1.00  0.00    -0.203 F 
ATOM     66  C   UNL A   1      49.227  26.846  26.186  1.00  0.00     0.198 A 
ATOM     67  C   UNL A   1      48.192  27.277  24.065  1.00  0.00     0.198 A 
ATOM     68  F   UNL A   1      46.063  28.269  23.969  1.00  0.00    -0.203 F 
ATOM     69  F   UNL A   1      50.280  26.427  26.901  1.00  0.00    -0.200 F 
ATOM     70  C   UNL A   1      49.269  26.809  24.801  1.00  0.00     0.200 A 
ATOM     71  F   UNL A   1      48.226  27.227  22.725  1.00  0.00    -0.200 F 
ATOM     72  F   UNL A   1      50.353  26.328  24.177  1.00  0.00    -0.200 F 
ENDBRANCH  48  62
BRANCH  49  73
ATOM     73  C   UNL A   1      38.740  30.922  30.834  1.00  0.00     0.064 A 
ATOM     74  C   UNL A   1      38.643  30.795  32.227  1.00  0.00     0.173 A 
ATOM     75  C   UNL A   1      37.648  31.483  30.155  1.00  0.00     0.173 A 
ATOM     76  F   UNL A   1      39.652  30.247  32.921  1.00  0.00    -0.203 F 
ATOM     77  C   UNL A   1      37.491  31.182  32.908  1.00  0.00     0.198 A 
ATOM     78  C   UNL A   1      36.511  31.903  30.841  1.00  0.00     0.198 A 
ATOM     79  F   UNL A   1      37.690  31.634  28.823  1.00  0.00    -0.203 F 
ATOM     80  F   UNL A   1      37.404  30.996  34.233  1.00  0.00    -0.200 F 
ATOM     81  C   UNL A   1      36.429  31.742  32.216  1.00  0.00     0.200 A 
ATOM     82  F   UNL A   1      35.493  32.458  30.170  1.00  0.00    -0.200 F 
ATOM     83  F   UNL A   1      35.322  32.116  32.872  1.00  0.00    -0.200 F 
ENDBRANCH  49  73
BRANCH  61  84
ATOM     84  C   UNL A   1      44.846  33.931  29.319  1.00  0.00     0.064 A 
ATOM     85  C   UNL A   1      45.601  34.224  30.465  1.00  0.00     0.173 A 
ATOM     86  C   UNL A   1      44.643  34.961  28.386  1.00  0.00     0.173 A 
ATOM     87  F   UNL A   1      45.813  33.280  31.394  1.00  0.00    -0.203 F 
ATOM     88  C   UNL A   1      46.106  35.504  30.681  1.00  0.00     0.198 A 
ATOM     89  C   UNL A   1      45.181  36.228  28.587  1.00  0.00     0.198 A 
ATOM     90  F   UNL A   1      43.936  34.732  27.269  1.00  0.00    -0.203 F 
ATOM     91  F   UNL A   1      46.776  35.775  31.809  1.00  0.00    -0.200 F 
ATOM     92  C   UNL A   1      45.903  36.501  29.739  1.00  0.00     0.200 A 
ATOM     93  F   UNL A   1      45.001  37.184  27.666  1.00  0.00    -0.200 F 
ATOM     94  F   UNL A   1      46.399  37.729  29.945  1.00  0.00    -0.200 F 
ENDBRANCH  61  84
ENDBRANCH  35  36
ENDBRANCH  27  30
ENDBRANCH  25  26
ENDBRANCH  24  25
ENDBRANCH   1  24
TORSDOF 15
ENDMDL
