MODEL 1
REMARK VINA RESULT:     -10.4      0.000      0.000
REMARK SMILES COCc1cccc(O[C@@H](F)C(=O)NCCCNC(=O)c2ccc(-c3c4nc(c(-c5c(F)c(F)c(F)c(F)c5F)c5ccc([nH]5)c(-c5c(F)c(F)c(F)c(F)c5F)c5nc(c(-c6c(F)c(F)c(F)c(F)c6F)c6ccc3[nH]6)C=C5)C=C4)cc2)c1
REMARK SMILES IDX 15 1 14 2 12 3 13 4 10 6 11 7 9 8 8 9 4 10 5 11 84 12 6 13
REMARK SMILES IDX 7 14 3 15 2 16 1 17 16 18 17 19 18 20 19 21 20 23 21 24
REMARK SMILES IDX 22 25 83 26 23 27 82 28 24 29 25 30 26 31 76 32 27 33 81 34
REMARK SMILES IDX 75 35 77 36 28 37 80 38 74 39 73 40 29 42 61 43 41 44 60 45
REMARK SMILES IDX 42 46 45 47 59 48 78 49 43 50 44 51 58 53 79 54 46 55 30 56
REMARK SMILES IDX 31 57 39 58 32 59 33 60 37 61 40 62 34 63 35 64 38 65 36 66
REMARK SMILES IDX 62 67 63 68 71 69 64 70 65 71 69 72 72 73 66 74 67 75 70 76
REMARK SMILES IDX 68 77 47 78 48 79 56 80 49 81 50 82 54 83 57 84 51 85 52 86
REMARK SMILES IDX 55 87 53 88
REMARK H PARENT 14 5 18 22 77 41 45 52
REMARK Flexibility Score: inf
ROOT
ATOM      1  C   UNL A   1      41.862  19.019  27.629  1.00  0.00     0.118 C 
ENDROOT
BRANCH   1   2
ATOM      2  N   UNL A   1      42.278  20.293  28.181  1.00  0.00    -0.350 N 
ATOM      3  C   UNL A   1      42.059  21.560  27.716  1.00  0.00     0.294 C 
ATOM      4  O   UNL A   1      42.617  22.478  28.333  1.00  0.00    -0.267 OA
ATOM      5  H   UNL A   1      42.795  20.237  29.017  1.00  0.00     0.163 HD
BRANCH   3   6
ATOM      6  C   UNL A   1      41.179  21.856  26.477  1.00  0.00     0.440 C 
ATOM      7  F   UNL A   1      41.879  22.228  25.370  1.00  0.00    -0.191 F 
BRANCH   6   8
ATOM      8  O   UNL A   1      40.066  22.709  26.723  1.00  0.00    -0.452 OA
BRANCH   8   9
ATOM      9  C   UNL A   1      38.856  22.591  26.118  1.00  0.00     0.124 A 
ATOM     10  C   UNL A   1      36.644  23.273  25.357  1.00  0.00    -0.019 A 
ATOM     11  C   UNL A   1      36.422  21.990  24.845  1.00  0.00     0.006 A 
ATOM     12  C   UNL A   1      37.886  23.573  25.950  1.00  0.00     0.052 A 
ATOM     13  C   UNL A   1      37.396  21.008  24.979  1.00  0.00     0.004 A 
ATOM     14  C   UNL A   1      38.598  21.307  25.622  1.00  0.00     0.046 A 
BRANCH  10  15
ATOM     15  C   UNL A   1      35.526  24.287  25.384  1.00  0.00     0.195 C 
BRANCH  15  16
ATOM     16  O   UNL A   1      34.265  23.665  25.645  1.00  0.00    -0.380 OA
ATOM     17  C   UNL A   1      33.271  23.975  24.677  1.00  0.00     0.195 C 
ENDBRANCH  15  16
ENDBRANCH  10  15
ENDBRANCH   8   9
ENDBRANCH   6   8
ENDBRANCH   3   6
ENDBRANCH   1   2
BRANCH   1  18
ATOM     18  C   UNL A   1      42.941  18.423  26.731  1.00  0.00     0.042 C 
BRANCH  18  19
ATOM     19  C   UNL A   1      42.849  18.837  25.268  1.00  0.00     0.118 C 
BRANCH  19  20
ATOM     20  N   UNL A   1      44.079  18.611  24.519  1.00  0.00    -0.352 N 
ATOM     21  C   UNL A   1      45.136  19.432  24.199  1.00  0.00     0.251 C 
ATOM     22  H   UNL A   1      44.170  17.694  24.174  1.00  0.00     0.163 HD
ATOM     23  O   UNL A   1      46.029  18.986  23.484  1.00  0.00    -0.269 OA
BRANCH  21  24
ATOM     24  C   UNL A   1      45.224  20.841  24.665  1.00  0.00     0.039 A 
ATOM     25  C   UNL A   1      44.882  21.859  23.760  1.00  0.00     0.014 A 
ATOM     26  C   UNL A   1      45.653  21.190  25.944  1.00  0.00     0.014 A 
ATOM     27  C   UNL A   1      44.896  23.202  24.157  1.00  0.00     0.010 A 
ATOM     28  C   UNL A   1      45.596  22.517  26.366  1.00  0.00     0.010 A 
ATOM     29  C   UNL A   1      45.237  23.538  25.472  1.00  0.00    -0.014 A 
BRANCH  29  30
ATOM     30  C   UNL A   1      45.348  24.953  25.909  1.00  0.00     0.031 A 
ATOM     31  C   UNL A   1      46.688  25.633  25.841  1.00  0.00     0.074 A 
ATOM     32  C   UNL A   1      44.288  25.605  26.421  1.00  0.00     0.049 A 
ATOM     33  N   UNL A   1      47.043  26.822  26.261  1.00  0.00    -0.248 NA
ATOM     34  C   UNL A   1      47.788  24.851  25.255  1.00  0.00     0.031 C 
ATOM     35  C   UNL A   1      42.945  25.051  26.582  1.00  0.00     0.029 A 
ATOM     36  N   UNL A   1      44.185  26.881  26.919  1.00  0.00    -0.354 N 
ATOM     37  C   UNL A   1      48.407  26.913  26.017  1.00  0.00     0.074 A 
ATOM     38  C   UNL A   1      48.827  25.643  25.467  1.00  0.00     0.031 C 
ATOM     39  C   UNL A   1      42.150  25.982  27.136  1.00  0.00     0.029 A 
ATOM     40  C   UNL A   1      42.932  27.192  27.388  1.00  0.00     0.049 A 
ATOM     41  H   UNL A   1      44.939  27.514  26.940  1.00  0.00     0.167 HD
ATOM     42  C   UNL A   1      49.233  27.969  26.206  1.00  0.00     0.037 A 
ATOM     43  C   UNL A   1      42.472  28.323  27.955  1.00  0.00     0.037 A 
ATOM     44  C   UNL A   1      48.810  29.247  26.709  1.00  0.00     0.049 A 
ATOM     45  C   UNL A   1      43.402  29.497  28.127  1.00  0.00     0.074 A 
ATOM     46  C   UNL A   1      49.554  30.403  26.870  1.00  0.00     0.029 A 
ATOM     47  N   UNL A   1      47.520  29.539  27.126  1.00  0.00    -0.354 N 
ATOM     48  N   UNL A   1      44.675  29.597  27.830  1.00  0.00    -0.248 NA
ATOM     49  C   UNL A   1      42.823  30.720  28.701  1.00  0.00     0.031 C 
ATOM     50  C   UNL A   1      48.721  31.385  27.416  1.00  0.00     0.029 A 
ATOM     51  C   UNL A   1      47.449  30.853  27.556  1.00  0.00     0.049 A 
ATOM     52  H   UNL A   1      46.767  28.905  27.117  1.00  0.00     0.167 HD
ATOM     53  C   UNL A   1      45.042  30.897  28.154  1.00  0.00     0.074 A 
ATOM     54  C   UNL A   1      43.854  31.554  28.657  1.00  0.00     0.031 C 
ATOM     55  C   UNL A   1      46.255  31.493  28.045  1.00  0.00     0.037 A 
BRANCH  42  56
ATOM     56  C   UNL A   1      50.681  27.774  25.860  1.00  0.00     0.064 A 
ATOM     57  C   UNL A   1      51.143  27.895  24.541  1.00  0.00     0.173 A 
ATOM     58  C   UNL A   1      51.614  27.455  26.857  1.00  0.00     0.173 A 
ATOM     59  F   UNL A   1      50.287  28.180  23.548  1.00  0.00    -0.203 F 
ATOM     60  C   UNL A   1      52.479  27.661  24.226  1.00  0.00     0.198 A 
ATOM     61  C   UNL A   1      52.955  27.255  26.543  1.00  0.00     0.198 A 
ATOM     62  F   UNL A   1      51.224  27.330  28.135  1.00  0.00    -0.203 F 
ATOM     63  F   UNL A   1      52.885  27.717  22.950  1.00  0.00    -0.200 F 
ATOM     64  C   UNL A   1      53.385  27.346  25.227  1.00  0.00     0.200 A 
ATOM     65  F   UNL A   1      53.832  26.958  27.513  1.00  0.00    -0.200 F 
ATOM     66  F   UNL A   1      54.669  27.118  24.923  1.00  0.00    -0.200 F 
ENDBRANCH  42  56
BRANCH  43  67
ATOM     67  C   UNL A   1      41.050  28.423  28.370  1.00  0.00     0.064 A 
ATOM     68  C   UNL A   1      40.080  28.925  27.490  1.00  0.00     0.173 A 
ATOM     69  C   UNL A   1      40.632  28.038  29.651  1.00  0.00     0.173 A 
ATOM     70  F   UNL A   1      40.436  29.328  26.261  1.00  0.00    -0.203 F 
ATOM     71  C   UNL A   1      38.750  29.059  27.884  1.00  0.00     0.198 A 
ATOM     72  C   UNL A   1      39.297  28.150  30.036  1.00  0.00     0.198 A 
ATOM     73  F   UNL A   1      41.521  27.549  30.529  1.00  0.00    -0.203 F 
ATOM     74  F   UNL A   1      37.853  29.584  27.038  1.00  0.00    -0.200 F 
ATOM     75  C   UNL A   1      38.360  28.668  29.155  1.00  0.00     0.200 A 
ATOM     76  F   UNL A   1      38.921  27.762  31.262  1.00  0.00    -0.200 F 
ATOM     77  F   UNL A   1      37.080  28.797  29.534  1.00  0.00    -0.200 F 
ENDBRANCH  43  67
BRANCH  55  78
ATOM     78  C   UNL A   1      46.348  32.938  28.443  1.00  0.00     0.064 A 
ATOM     79  C   UNL A   1      46.689  33.321  29.749  1.00  0.00     0.173 A 
ATOM     80  C   UNL A   1      46.128  33.950  27.498  1.00  0.00     0.173 A 
ATOM     81  F   UNL A   1      46.895  32.390  30.693  1.00  0.00    -0.203 F 
ATOM     82  C   UNL A   1      46.778  34.665  30.100  1.00  0.00     0.198 A 
ATOM     83  C   UNL A   1      46.245  35.292  27.844  1.00  0.00     0.198 A 
ATOM     84  F   UNL A   1      45.807  33.637  26.233  1.00  0.00    -0.203 F 
ATOM     85  F   UNL A   1      47.058  35.008  31.364  1.00  0.00    -0.200 F 
ATOM     86  C   UNL A   1      46.562  35.650  29.146  1.00  0.00     0.200 A 
ATOM     87  F   UNL A   1      46.049  36.242  26.919  1.00  0.00    -0.200 F 
ATOM     88  F   UNL A   1      46.652  36.943  29.485  1.00  0.00    -0.200 F 
ENDBRANCH  55  78
ENDBRANCH  29  30
ENDBRANCH  21  24
ENDBRANCH  19  20
ENDBRANCH  18  19
ENDBRANCH   1  18
TORSDOF 14
ENDMDL
MODEL 2
REMARK VINA RESULT:     -10.1      3.577      6.652
REMARK SMILES COCc1cccc(O[C@@H](F)C(=O)NCCCNC(=O)c2ccc(-c3c4nc(c(-c5c(F)c(F)c(F)c(F)c5F)c5ccc([nH]5)c(-c5c(F)c(F)c(F)c(F)c5F)c5nc(c(-c6c(F)c(F)c(F)c(F)c6F)c6ccc3[nH]6)C=C5)C=C4)cc2)c1
REMARK SMILES IDX 15 1 14 2 12 3 13 4 10 6 11 7 9 8 8 9 4 10 5 11 84 12 6 13
REMARK SMILES IDX 7 14 3 15 2 16 1 17 16 18 17 19 18 20 19 21 20 23 21 24
REMARK SMILES IDX 22 25 83 26 23 27 82 28 24 29 25 30 26 31 76 32 27 33 81 34
REMARK SMILES IDX 75 35 77 36 28 37 80 38 74 39 73 40 29 42 61 43 41 44 60 45
REMARK SMILES IDX 42 46 45 47 59 48 78 49 43 50 44 51 58 53 79 54 46 55 30 56
REMARK SMILES IDX 31 57 39 58 32 59 33 60 37 61 40 62 34 63 35 64 38 65 36 66
REMARK SMILES IDX 62 67 63 68 71 69 64 70 65 71 69 72 72 73 66 74 67 75 70 76
REMARK SMILES IDX 68 77 47 78 48 79 56 80 49 81 50 82 54 83 57 84 51 85 52 86
REMARK SMILES IDX 55 87 53 88
REMARK H PARENT 14 5 18 22 77 41 45 52
REMARK Flexibility Score: inf
ROOT
ATOM      1  C   UNL A   1      42.959  19.725  26.390  1.00  0.00     0.118 C 
ENDROOT
BRANCH   1   2
ATOM      2  N   UNL A   1      43.571  18.942  25.336  1.00  0.00    -0.350 N 
ATOM      3  C   UNL A   1      44.569  19.280  24.463  1.00  0.00     0.294 C 
ATOM      4  O   UNL A   1      44.838  18.449  23.586  1.00  0.00    -0.267 OA
ATOM      5  H   UNL A   1      43.216  18.030  25.232  1.00  0.00     0.163 HD
BRANCH   3   6
ATOM      6  C   UNL A   1      45.324  20.630  24.538  1.00  0.00     0.440 C 
ATOM      7  F   UNL A   1      45.830  20.920  25.769  1.00  0.00    -0.191 F 
BRANCH   6   8
ATOM      8  O   UNL A   1      44.633  21.735  23.965  1.00  0.00    -0.452 OA
BRANCH   8   9
ATOM      9  C   UNL A   1      44.724  23.015  24.409  1.00  0.00     0.124 A 
ATOM     10  C   UNL A   1      45.799  25.118  25.007  1.00  0.00    -0.019 A 
ATOM     11  C   UNL A   1      44.570  25.625  25.441  1.00  0.00     0.006 A 
ATOM     12  C   UNL A   1      45.853  23.827  24.449  1.00  0.00     0.052 A 
ATOM     13  C   UNL A   1      43.429  24.835  25.379  1.00  0.00     0.004 A 
ATOM     14  C   UNL A   1      43.512  23.536  24.877  1.00  0.00     0.046 A 
BRANCH  10  15
ATOM     15  C   UNL A   1      47.071  25.896  25.244  1.00  0.00     0.195 C 
BRANCH  15  16
ATOM     16  O   UNL A   1      47.313  26.832  24.190  1.00  0.00    -0.380 OA
ATOM     17  C   UNL A   1      48.619  26.737  23.638  1.00  0.00     0.195 C 
ENDBRANCH  15  16
ENDBRANCH  10  15
ENDBRANCH   8   9
ENDBRANCH   6   8
ENDBRANCH   3   6
ENDBRANCH   1   2
BRANCH   1  18
ATOM     18  C   UNL A   1      41.463  19.903  26.153  1.00  0.00     0.042 C 
BRANCH  18  19
ATOM     19  C   UNL A   1      40.926  21.287  26.495  1.00  0.00     0.118 C 
BRANCH  19  20
ATOM     20  N   UNL A   1      39.560  21.514  26.039  1.00  0.00    -0.352 N 
ATOM     21  C   UNL A   1      38.721  22.601  26.122  1.00  0.00     0.251 C 
ATOM     22  H   UNL A   1      39.161  20.738  25.585  1.00  0.00     0.163 HD
ATOM     23  O   UNL A   1      37.574  22.489  25.701  1.00  0.00    -0.269 OA
BRANCH  21  24
ATOM     24  C   UNL A   1      39.144  23.893  26.723  1.00  0.00     0.039 A 
ATOM     25  C   UNL A   1      39.756  24.843  25.888  1.00  0.00     0.014 A 
ATOM     26  C   UNL A   1      38.981  24.188  28.075  1.00  0.00     0.014 A 
ATOM     27  C   UNL A   1      40.129  26.097  26.386  1.00  0.00     0.010 A 
ATOM     28  C   UNL A   1      39.280  25.461  28.557  1.00  0.00     0.010 A 
ATOM     29  C   UNL A   1      39.875  26.422  27.724  1.00  0.00    -0.014 A 
BRANCH  29  30
ATOM     30  C   UNL A   1      40.332  27.706  28.312  1.00  0.00     0.031 A 
ATOM     31  C   UNL A   1      41.782  27.865  28.677  1.00  0.00     0.074 A 
ATOM     32  C   UNL A   1      39.458  28.695  28.580  1.00  0.00     0.049 A 
ATOM     33  N   UNL A   1      42.385  28.851  29.293  1.00  0.00    -0.248 NA
ATOM     34  C   UNL A   1      42.669  26.741  28.336  1.00  0.00     0.031 C 
ATOM     35  C   UNL A   1      38.021  28.654  28.317  1.00  0.00     0.029 A 
ATOM     36  N   UNL A   1      39.658  29.926  29.156  1.00  0.00    -0.354 N 
ATOM     37  C   UNL A   1      43.706  28.451  29.437  1.00  0.00     0.074 A 
ATOM     38  C   UNL A   1      43.807  27.113  28.899  1.00  0.00     0.031 C 
ATOM     39  C   UNL A   1      37.469  29.809  28.724  1.00  0.00     0.029 A 
ATOM     40  C   UNL A   1      38.509  30.663  29.297  1.00  0.00     0.049 A 
ATOM     41  H   UNL A   1      40.543  30.249  29.443  1.00  0.00     0.167 HD
ATOM     42  C   UNL A   1      44.752  29.145  29.946  1.00  0.00     0.037 A 
ATOM     43  C   UNL A   1      38.320  31.886  29.827  1.00  0.00     0.037 A 
ATOM     44  C   UNL A   1      44.665  30.492  30.440  1.00  0.00     0.049 A 
ATOM     45  C   UNL A   1      39.503  32.653  30.360  1.00  0.00     0.074 A 
ATOM     46  C   UNL A   1      45.679  31.308  30.909  1.00  0.00     0.029 A 
ATOM     47  N   UNL A   1      43.491  31.225  30.519  1.00  0.00    -0.354 N 
ATOM     48  N   UNL A   1      40.761  32.293  30.430  1.00  0.00    -0.248 NA
ATOM     49  C   UNL A   1      39.237  34.004  30.874  1.00  0.00     0.031 C 
ATOM     50  C   UNL A   1      45.112  32.525  31.304  1.00  0.00     0.029 A 
ATOM     51  C   UNL A   1      43.751  32.481  31.042  1.00  0.00     0.049 A 
ATOM     52  H   UNL A   1      42.602  30.901  30.244  1.00  0.00     0.167 HD
ATOM     53  C   UNL A   1      41.441  33.379  30.968  1.00  0.00     0.074 A 
ATOM     54  C   UNL A   1      40.457  34.417  31.193  1.00  0.00     0.031 C 
ATOM     55  C   UNL A   1      42.761  33.505  31.250  1.00  0.00     0.037 A 
BRANCH  42  56
ATOM     56  C   UNL A   1      46.080  28.447  29.987  1.00  0.00     0.064 A 
ATOM     57  C   UNL A   1      46.490  27.712  31.109  1.00  0.00     0.173 A 
ATOM     58  C   UNL A   1      46.956  28.521  28.893  1.00  0.00     0.173 A 
ATOM     59  F   UNL A   1      45.696  27.627  32.187  1.00  0.00    -0.203 F 
ATOM     60  C   UNL A   1      47.746  27.112  31.153  1.00  0.00     0.198 A 
ATOM     61  C   UNL A   1      48.198  27.893  28.928  1.00  0.00     0.198 A 
ATOM     62  F   UNL A   1      46.612  29.209  27.795  1.00  0.00    -0.203 F 
ATOM     63  F   UNL A   1      48.142  26.471  32.261  1.00  0.00    -0.200 F 
ATOM     64  C   UNL A   1      48.596  27.199  30.062  1.00  0.00     0.200 A 
ATOM     65  F   UNL A   1      49.016  27.969  27.869  1.00  0.00    -0.200 F 
ATOM     66  F   UNL A   1      49.806  26.624  30.106  1.00  0.00    -0.200 F 
ENDBRANCH  42  56
BRANCH  43  67
ATOM     67  C   UNL A   1      36.962  32.486  29.850  1.00  0.00     0.064 A 
ATOM     68  C   UNL A   1      36.490  33.232  28.760  1.00  0.00     0.173 A 
ATOM     69  C   UNL A   1      36.117  32.345  30.960  1.00  0.00     0.173 A 
ATOM     70  F   UNL A   1      37.271  33.414  27.685  1.00  0.00    -0.203 F 
ATOM     71  C   UNL A   1      35.232  33.832  28.788  1.00  0.00     0.198 A 
ATOM     72  C   UNL A   1      34.850  32.926  30.976  1.00  0.00     0.198 A 
ATOM     73  F   UNL A   1      36.522  31.640  32.026  1.00  0.00    -0.203 F 
ATOM     74  F   UNL A   1      34.824  34.576  27.751  1.00  0.00    -0.200 F 
ATOM     75  C   UNL A   1      34.412  33.675  29.895  1.00  0.00     0.200 A 
ATOM     76  F   UNL A   1      34.056  32.764  32.044  1.00  0.00    -0.200 F 
ATOM     77  F   UNL A   1      33.203  34.252  29.922  1.00  0.00    -0.200 F 
ENDBRANCH  43  67
BRANCH  55  78
ATOM     78  C   UNL A   1      43.223  34.823  31.800  1.00  0.00     0.064 A 
ATOM     79  C   UNL A   1      43.665  35.857  30.962  1.00  0.00     0.173 A 
ATOM     80  C   UNL A   1      43.189  35.066  33.181  1.00  0.00     0.173 A 
ATOM     81  F   UNL A   1      43.730  35.668  29.635  1.00  0.00    -0.203 F 
ATOM     82  C   UNL A   1      44.083  37.075  31.488  1.00  0.00     0.198 A 
ATOM     83  C   UNL A   1      43.581  36.295  33.702  1.00  0.00     0.198 A 
ATOM     84  F   UNL A   1      42.767  34.113  34.026  1.00  0.00    -0.203 F 
ATOM     85  F   UNL A   1      44.548  38.032  30.672  1.00  0.00    -0.200 F 
ATOM     86  C   UNL A   1      44.035  37.297  32.857  1.00  0.00     0.200 A 
ATOM     87  F   UNL A   1      43.522  36.511  35.024  1.00  0.00    -0.200 F 
ATOM     88  F   UNL A   1      44.435  38.472  33.362  1.00  0.00    -0.200 F 
ENDBRANCH  55  78
ENDBRANCH  29  30
ENDBRANCH  21  24
ENDBRANCH  19  20
ENDBRANCH  18  19
ENDBRANCH   1  18
TORSDOF 14
ENDMDL
MODEL 3
REMARK VINA RESULT:     -10.0      4.651      7.322
REMARK SMILES COCc1cccc(O[C@@H](F)C(=O)NCCCNC(=O)c2ccc(-c3c4nc(c(-c5c(F)c(F)c(F)c(F)c5F)c5ccc([nH]5)c(-c5c(F)c(F)c(F)c(F)c5F)c5nc(c(-c6c(F)c(F)c(F)c(F)c6F)c6ccc3[nH]6)C=C5)C=C4)cc2)c1
REMARK SMILES IDX 15 1 14 2 12 3 13 4 10 6 11 7 9 8 8 9 4 10 5 11 84 12 6 13
REMARK SMILES IDX 7 14 3 15 2 16 1 17 16 18 17 19 18 20 19 21 20 23 21 24
REMARK SMILES IDX 22 25 83 26 23 27 82 28 24 29 25 30 26 31 76 32 27 33 81 34
REMARK SMILES IDX 75 35 77 36 28 37 80 38 74 39 73 40 29 42 61 43 41 44 60 45
REMARK SMILES IDX 42 46 45 47 59 48 78 49 43 50 44 51 58 53 79 54 46 55 30 56
REMARK SMILES IDX 31 57 39 58 32 59 33 60 37 61 40 62 34 63 35 64 38 65 36 66
REMARK SMILES IDX 62 67 63 68 71 69 64 70 65 71 69 72 72 73 66 74 67 75 70 76
REMARK SMILES IDX 68 77 47 78 48 79 56 80 49 81 50 82 54 83 57 84 51 85 52 86
REMARK SMILES IDX 55 87 53 88
REMARK H PARENT 14 5 18 22 77 41 45 52
REMARK Flexibility Score: inf
ROOT
ATOM      1  C   UNL A   1      34.392  24.126  25.504  1.00  0.00     0.118 C 
ENDROOT
BRANCH   1   2
ATOM      2  N   UNL A   1      33.363  24.147  26.524  1.00  0.00    -0.350 N 
ATOM      3  C   UNL A   1      32.222  23.400  26.630  1.00  0.00     0.294 C 
ATOM      4  O   UNL A   1      31.456  23.692  27.559  1.00  0.00    -0.267 OA
ATOM      5  H   UNL A   1      33.507  24.797  27.250  1.00  0.00     0.163 HD
BRANCH   3   6
ATOM      6  C   UNL A   1      31.876  22.257  25.645  1.00  0.00     0.440 C 
ATOM      7  F   UNL A   1      30.578  21.849  25.696  1.00  0.00    -0.191 F 
BRANCH   6   8
ATOM      8  O   UNL A   1      32.786  21.162  25.655  1.00  0.00    -0.452 OA
BRANCH   8   9
ATOM      9  C   UNL A   1      32.739  20.113  24.795  1.00  0.00     0.124 A 
ATOM     10  C   UNL A   1      33.011  17.815  24.030  1.00  0.00    -0.019 A 
ATOM     11  C   UNL A   1      32.575  18.187  22.753  1.00  0.00     0.006 A 
ATOM     12  C   UNL A   1      33.043  18.781  25.054  1.00  0.00     0.052 A 
ATOM     13  C   UNL A   1      32.239  19.509  22.488  1.00  0.00     0.004 A 
ATOM     14  C   UNL A   1      32.333  20.463  23.501  1.00  0.00     0.046 A 
BRANCH  10  15
ATOM     15  C   UNL A   1      33.555  16.429  24.276  1.00  0.00     0.195 C 
BRANCH  15  16
ATOM     16  O   UNL A   1      33.334  16.015  25.627  1.00  0.00    -0.380 OA
ATOM     17  C   UNL A   1      32.301  15.049  25.759  1.00  0.00     0.195 C 
ENDBRANCH  15  16
ENDBRANCH  10  15
ENDBRANCH   8   9
ENDBRANCH   6   8
ENDBRANCH   3   6
ENDBRANCH   1   2
BRANCH   1  18
ATOM     18  C   UNL A   1      35.712  23.600  26.057  1.00  0.00     0.042 C 
BRANCH  18  19
ATOM     19  C   UNL A   1      36.910  23.796  25.135  1.00  0.00     0.118 C 
BRANCH  19  20
ATOM     20  N   UNL A   1      38.010  22.878  25.403  1.00  0.00    -0.352 N 
ATOM     21  C   UNL A   1      39.181  23.014  26.112  1.00  0.00     0.251 C 
ATOM     22  H   UNL A   1      37.892  21.990  24.996  1.00  0.00     0.163 HD
ATOM     23  O   UNL A   1      39.974  22.078  26.118  1.00  0.00    -0.269 OA
BRANCH  21  24
ATOM     24  C   UNL A   1      39.531  24.257  26.849  1.00  0.00     0.039 A 
ATOM     25  C   UNL A   1      40.244  25.254  26.162  1.00  0.00     0.014 A 
ATOM     26  C   UNL A   1      39.205  24.461  28.188  1.00  0.00     0.014 A 
ATOM     27  C   UNL A   1      40.557  26.467  26.788  1.00  0.00     0.010 A 
ATOM     28  C   UNL A   1      39.447  25.694  28.790  1.00  0.00     0.010 A 
ATOM     29  C   UNL A   1      40.143  26.702  28.104  1.00  0.00    -0.014 A 
BRANCH  29  30
ATOM     30  C   UNL A   1      40.528  27.938  28.831  1.00  0.00     0.031 A 
ATOM     31  C   UNL A   1      41.921  28.051  29.388  1.00  0.00     0.074 A 
ATOM     32  C   UNL A   1      39.634  28.919  29.053  1.00  0.00     0.049 A 
ATOM     33  N   UNL A   1      42.446  28.985  30.140  1.00  0.00    -0.248 NA
ATOM     34  C   UNL A   1      42.837  26.939  29.086  1.00  0.00     0.031 C 
ATOM     35  C   UNL A   1      38.242  28.917  28.607  1.00  0.00     0.029 A 
ATOM     36  N   UNL A   1      39.766  30.106  29.731  1.00  0.00    -0.354 N 
ATOM     37  C   UNL A   1      43.736  28.557  30.424  1.00  0.00     0.074 A 
ATOM     38  C   UNL A   1      43.896  27.256  29.813  1.00  0.00     0.031 C 
ATOM     39  C   UNL A   1      37.649  30.051  29.018  1.00  0.00     0.029 A 
ATOM     40  C   UNL A   1      38.612  30.849  29.774  1.00  0.00     0.049 A 
ATOM     41  H   UNL A   1      40.609  30.396  30.149  1.00  0.00     0.167 HD
ATOM     42  C   UNL A   1      44.712  29.200  31.107  1.00  0.00     0.037 A 
ATOM     43  C   UNL A   1      38.365  32.037  30.359  1.00  0.00     0.037 A 
ATOM     44  C   UNL A   1      44.571  30.512  31.676  1.00  0.00     0.049 A 
ATOM     45  C   UNL A   1      39.475  32.749  31.088  1.00  0.00     0.074 A 
ATOM     46  C   UNL A   1      45.521  31.281  32.325  1.00  0.00     0.029 A 
ATOM     47  N   UNL A   1      43.401  31.255  31.655  1.00  0.00    -0.354 N 
ATOM     48  N   UNL A   1      40.712  32.367  31.292  1.00  0.00    -0.248 NA
ATOM     49  C   UNL A   1      39.154  34.067  31.654  1.00  0.00     0.031 C 
ATOM     50  C   UNL A   1      44.916  32.477  32.726  1.00  0.00     0.029 A 
ATOM     51  C   UNL A   1      43.600  32.470  32.290  1.00  0.00     0.049 A 
ATOM     52  H   UNL A   1      42.553  30.963  31.248  1.00  0.00     0.167 HD
ATOM     53  C   UNL A   1      41.324  33.405  31.984  1.00  0.00     0.074 A 
ATOM     54  C   UNL A   1      40.325  34.440  32.152  1.00  0.00     0.031 C 
ATOM     55  C   UNL A   1      42.598  33.492  32.440  1.00  0.00     0.037 A 
BRANCH  42  56
ATOM     56  C   UNL A   1      46.020  28.482  31.269  1.00  0.00     0.064 A 
ATOM     57  C   UNL A   1      46.276  27.662  32.378  1.00  0.00     0.173 A 
ATOM     58  C   UNL A   1      47.032  28.621  30.307  1.00  0.00     0.173 A 
ATOM     59  F   UNL A   1      45.348  27.511  33.334  1.00  0.00    -0.203 F 
ATOM     60  C   UNL A   1      47.512  27.042  32.540  1.00  0.00     0.198 A 
ATOM     61  C   UNL A   1      48.255  27.973  30.456  1.00  0.00     0.198 A 
ATOM     62  F   UNL A   1      46.837  29.392  29.226  1.00  0.00    -0.203 F 
ATOM     63  F   UNL A   1      47.757  26.318  33.641  1.00  0.00    -0.200 F 
ATOM     64  C   UNL A   1      48.498  27.195  31.578  1.00  0.00     0.200 A 
ATOM     65  F   UNL A   1      49.205  28.114  29.521  1.00  0.00    -0.200 F 
ATOM     66  F   UNL A   1      49.689  26.600  31.737  1.00  0.00    -0.200 F 
ENDBRANCH  42  56
BRANCH  43  67
ATOM     67  C   UNL A   1      37.018  32.654  30.249  1.00  0.00     0.064 A 
ATOM     68  C   UNL A   1      36.063  32.473  31.259  1.00  0.00     0.173 A 
ATOM     69  C   UNL A   1      36.652  33.416  29.131  1.00  0.00     0.173 A 
ATOM     70  F   UNL A   1      36.360  31.732  32.336  1.00  0.00    -0.203 F 
ATOM     71  C   UNL A   1      34.784  33.015  31.145  1.00  0.00     0.198 A 
ATOM     72  C   UNL A   1      35.380  33.977  29.030  1.00  0.00     0.198 A 
ATOM     73  F   UNL A   1      37.531  33.619  28.139  1.00  0.00    -0.203 F 
ATOM     74  F   UNL A   1      33.876  32.790  32.105  1.00  0.00    -0.200 F 
ATOM     75  C   UNL A   1      34.445  33.770  30.033  1.00  0.00     0.200 A 
ATOM     76  F   UNL A   1      35.058  34.715  27.958  1.00  0.00    -0.200 F 
ATOM     77  F   UNL A   1      33.215  34.291  29.925  1.00  0.00    -0.200 F 
ENDBRANCH  43  67
BRANCH  55  78
ATOM     78  C   UNL A   1      42.993  34.764  33.132  1.00  0.00     0.064 A 
ATOM     79  C   UNL A   1      43.451  35.881  32.417  1.00  0.00     0.173 A 
ATOM     80  C   UNL A   1      42.880  34.878  34.526  1.00  0.00     0.173 A 
ATOM     81  F   UNL A   1      43.591  35.816  31.084  1.00  0.00    -0.203 F 
ATOM     82  C   UNL A   1      43.807  37.055  33.074  1.00  0.00     0.198 A 
ATOM     83  C   UNL A   1      43.210  36.062  35.178  1.00  0.00     0.198 A 
ATOM     84  F   UNL A   1      42.440  33.842  35.256  1.00  0.00    -0.203 F 
ATOM     85  F   UNL A   1      44.288  38.092  32.376  1.00  0.00    -0.200 F 
ATOM     86  C   UNL A   1      43.680  37.147  34.453  1.00  0.00     0.200 A 
ATOM     87  F   UNL A   1      43.075  36.154  36.508  1.00  0.00    -0.200 F 
ATOM     88  F   UNL A   1      44.020  38.280  35.084  1.00  0.00    -0.200 F 
ENDBRANCH  55  78
ENDBRANCH  29  30
ENDBRANCH  21  24
ENDBRANCH  19  20
ENDBRANCH  18  19
ENDBRANCH   1  18
TORSDOF 14
ENDMDL
