MODEL 1
REMARK VINA RESULT:     -13.7      0.000      0.000
REMARK SMILES C[NH+]1CCN(C(=O)c2ccc3c(c2)N(CC(=O)NCCCNC(=O)c2ccc(-c4c5nc(c(-c6c(F)c(F)c(F)c(F)c6F)c6ccc([nH]6)c(-c6c(F)c(F)c(F)c(F)c6F)c6nc(c(-c7c(F)c(F)c(F)c(F)c7F)c7ccc4[nH]7)C=C6)C=C5)cc2)C(=O)CO3)CC1
REMARK SMILES IDX 20 1 19 2 18 3 16 4 17 5 15 7 14 8 8 9 9 10 13 11 10 12
REMARK SMILES IDX 12 13 11 14 91 15 88 16 90 17 89 18 6 19 1 20 2 21 3 22
REMARK SMILES IDX 93 23 4 25 92 26 5 27 7 28 21 29 22 30 23 31 24 33 25 34
REMARK SMILES IDX 26 35 87 36 27 37 86 38 28 39 29 40 30 41 80 42 31 43 85 44
REMARK SMILES IDX 79 45 81 46 32 47 84 48 78 49 77 50 33 52 65 53 45 54 64 55
REMARK SMILES IDX 46 56 49 57 63 58 82 59 47 60 48 61 62 63 83 64 50 65 34 66
REMARK SMILES IDX 35 67 43 68 36 69 37 70 41 71 44 72 38 73 39 74 42 75 40 76
REMARK SMILES IDX 66 77 67 78 75 79 68 80 69 81 73 82 76 83 70 84 71 85 74 86
REMARK SMILES IDX 72 87 51 88 52 89 60 90 53 91 54 92 58 93 61 94 55 95 56 96
REMARK SMILES IDX 59 97 57 98
REMARK H PARENT 18 6 2 24 22 32 81 51 49 62
REMARK Flexibility Score: inf
ROOT
ATOM      1  C   UNL A   1      33.406  28.770  23.342  1.00  0.00     0.042 C 
ENDROOT
BRANCH   1   2
ATOM      2  C   UNL A   1      32.720  27.476  22.912  1.00  0.00     0.117 C 
BRANCH   2   3
ATOM      3  N   UNL A   1      33.656  26.383  22.738  1.00  0.00    -0.354 N 
ATOM      4  C   UNL A   1      33.425  25.041  22.730  1.00  0.00     0.240 C 
ATOM      5  O   UNL A   1      34.377  24.304  22.453  1.00  0.00    -0.273 OA
ATOM      6  H   UNL A   1      34.595  26.650  22.607  1.00  0.00     0.163 HD
BRANCH   4   7
ATOM      7  C   UNL A   1      32.034  24.459  23.001  1.00  0.00     0.225 C 
BRANCH   7   8
ATOM      8  N   UNL A   1      31.690  24.328  24.417  1.00  0.00    -0.296 N 
ATOM      9  C   UNL A   1      33.772  21.436  25.597  1.00  0.00     0.042 A 
ATOM     10  C   UNL A   1      33.590  21.525  26.977  1.00  0.00     0.018 A 
ATOM     11  C   UNL A   1      33.110  22.319  24.729  1.00  0.00     0.044 A 
ATOM     12  C   UNL A   1      32.776  22.527  27.498  1.00  0.00     0.049 A 
ATOM     13  C   UNL A   1      32.305  23.344  25.244  1.00  0.00     0.087 A 
ATOM     14  C   UNL A   1      32.136  23.423  26.638  1.00  0.00     0.143 A 
ATOM     15  O   UNL A   1      31.403  24.402  27.251  1.00  0.00    -0.482 OA
ATOM     16  C   UNL A   1      30.746  25.191  24.960  1.00  0.00     0.265 C 
ATOM     17  C   UNL A   1      30.389  24.924  26.416  1.00  0.00     0.330 C 
ATOM     18  O   UNL A   1      30.174  26.071  24.318  1.00  0.00    -0.270 OA
BRANCH   9  19
ATOM     19  C   UNL A   1      34.628  20.350  25.072  1.00  0.00     0.254 C 
ATOM     20  C   UNL A   1      32.903  15.035  25.376  1.00  0.00     0.332 C 
ATOM     21  N   UNL A   1      33.165  16.333  24.755  1.00  0.00    -0.334 N 
ATOM     22  C   UNL A   1      34.605  16.666  24.839  1.00  0.00     0.283 C 
ATOM     23  C   UNL A   1      32.383  17.389  25.432  1.00  0.00     0.283 C 
ATOM     24  H   UNL A   1      32.887  16.279  23.775  1.00  0.00     0.347 HD
ATOM     25  C   UNL A   1      34.925  18.056  24.251  1.00  0.00     0.181 C 
ATOM     26  C   UNL A   1      32.640  18.774  24.810  1.00  0.00     0.181 C 
ATOM     27  N   UNL A   1      34.070  19.106  24.812  1.00  0.00    -0.327 N 
ATOM     28  O   UNL A   1      35.809  20.625  24.869  1.00  0.00    -0.269 OA
ENDBRANCH   9  19
ENDBRANCH   7   8
ENDBRANCH   4   7
ENDBRANCH   2   3
ENDBRANCH   1   2
BRANCH   1  29
ATOM     29  C   UNL A   1      33.586  28.917  24.853  1.00  0.00     0.118 C 
BRANCH  29  30
ATOM     30  N   UNL A   1      32.894  30.078  25.396  1.00  0.00    -0.352 N 
ATOM     31  C   UNL A   1      33.129  30.811  26.531  1.00  0.00     0.251 C 
ATOM     32  H   UNL A   1      32.130  30.389  24.858  1.00  0.00     0.163 HD
ATOM     33  O   UNL A   1      32.305  31.656  26.880  1.00  0.00    -0.269 OA
BRANCH  31  34
ATOM     34  C   UNL A   1      34.341  30.598  27.350  1.00  0.00     0.039 A 
ATOM     35  C   UNL A   1      34.557  29.333  27.908  1.00  0.00     0.014 A 
ATOM     36  C   UNL A   1      35.233  31.638  27.626  1.00  0.00     0.014 A 
ATOM     37  C   UNL A   1      35.692  29.094  28.686  1.00  0.00     0.010 A 
ATOM     38  C   UNL A   1      36.397  31.384  28.351  1.00  0.00     0.010 A 
ATOM     39  C   UNL A   1      36.640  30.110  28.887  1.00  0.00    -0.014 A 
BRANCH  39  40
ATOM     40  C   UNL A   1      37.891  29.855  29.647  1.00  0.00     0.031 A 
ATOM     41  C   UNL A   1      38.935  28.922  29.102  1.00  0.00     0.074 A 
ATOM     42  C   UNL A   1      38.055  30.413  30.862  1.00  0.00     0.049 A 
ATOM     43  N   UNL A   1      40.046  28.506  29.658  1.00  0.00    -0.248 NA
ATOM     44  C   UNL A   1      38.688  28.363  27.765  1.00  0.00     0.031 C 
ATOM     45  C   UNL A   1      37.097  31.304  31.519  1.00  0.00     0.029 A 
ATOM     46  N   UNL A   1      39.080  30.301  31.769  1.00  0.00    -0.354 N 
ATOM     47  C   UNL A   1      40.618  27.625  28.750  1.00  0.00     0.074 A 
ATOM     48  C   UNL A   1      39.714  27.534  27.624  1.00  0.00     0.031 C 
ATOM     49  C   UNL A   1      37.584  31.666  32.716  1.00  0.00     0.029 A 
ATOM     50  C   UNL A   1      38.868  31.006  32.928  1.00  0.00     0.049 A 
ATOM     51  H   UNL A   1      39.889  29.764  31.604  1.00  0.00     0.167 HD
ATOM     52  C   UNL A   1      41.797  26.964  28.841  1.00  0.00     0.037 A 
ATOM     53  C   UNL A   1      39.621  31.101  34.041  1.00  0.00     0.037 A 
ATOM     54  C   UNL A   1      42.711  27.081  29.947  1.00  0.00     0.049 A 
ATOM     55  C   UNL A   1      40.929  30.362  34.112  1.00  0.00     0.074 A 
ATOM     56  C   UNL A   1      43.959  26.501  30.100  1.00  0.00     0.029 A 
ATOM     57  N   UNL A   1      42.475  27.828  31.092  1.00  0.00    -0.354 N 
ATOM     58  N   UNL A   1      41.486  29.580  33.222  1.00  0.00    -0.248 NA
ATOM     59  C   UNL A   1      41.715  30.525  35.344  1.00  0.00     0.031 C 
ATOM     60  C   UNL A   1      44.462  26.868  31.354  1.00  0.00     0.029 A 
ATOM     61  C   UNL A   1      43.545  27.709  31.963  1.00  0.00     0.049 A 
ATOM     62  H   UNL A   1      41.665  28.363  31.261  1.00  0.00     0.167 HD
ATOM     63  C   UNL A   1      42.696  29.180  33.770  1.00  0.00     0.074 A 
ATOM     64  C   UNL A   1      42.799  29.815  35.066  1.00  0.00     0.031 C 
ATOM     65  C   UNL A   1      43.638  28.356  33.246  1.00  0.00     0.037 A 
BRANCH  52  66
ATOM     66  C   UNL A   1      42.175  26.056  27.707  1.00  0.00     0.064 A 
ATOM     67  C   UNL A   1      43.032  26.480  26.681  1.00  0.00     0.173 A 
ATOM     68  C   UNL A   1      41.714  24.732  27.673  1.00  0.00     0.173 A 
ATOM     69  F   UNL A   1      43.492  27.740  26.663  1.00  0.00    -0.203 F 
ATOM     70  C   UNL A   1      43.392  25.618  25.648  1.00  0.00     0.198 A 
ATOM     71  C   UNL A   1      42.099  23.865  26.653  1.00  0.00     0.198 A 
ATOM     72  F   UNL A   1      40.898  24.274  28.636  1.00  0.00    -0.203 F 
ATOM     73  F   UNL A   1      44.179  26.059  24.655  1.00  0.00    -0.200 F 
ATOM     74  C   UNL A   1      42.932  24.311  25.639  1.00  0.00     0.200 A 
ATOM     75  F   UNL A   1      41.663  22.597  26.653  1.00  0.00    -0.200 F 
ATOM     76  F   UNL A   1      43.288  23.480  24.649  1.00  0.00    -0.200 F 
ENDBRANCH  52  66
BRANCH  53  77
ATOM     77  C   UNL A   1      39.163  31.945  35.174  1.00  0.00     0.064 A 
ATOM     78  C   UNL A   1      38.447  31.387  36.242  1.00  0.00     0.173 A 
ATOM     79  C   UNL A   1      39.425  33.322  35.212  1.00  0.00     0.173 A 
ATOM     80  F   UNL A   1      38.153  30.078  36.239  1.00  0.00    -0.203 F 
ATOM     81  C   UNL A   1      37.994  32.178  37.295  1.00  0.00     0.198 A 
ATOM     82  C   UNL A   1      38.995  34.107  36.278  1.00  0.00     0.198 A 
ATOM     83  F   UNL A   1      40.111  33.903  34.215  1.00  0.00    -0.203 F 
ATOM     84  F   UNL A   1      37.274  31.627  38.282  1.00  0.00    -0.200 F 
ATOM     85  C   UNL A   1      38.273  33.536  37.316  1.00  0.00     0.200 A 
ATOM     86  F   UNL A   1      39.278  35.417  36.301  1.00  0.00    -0.200 F 
ATOM     87  F   UNL A   1      37.839  34.296  38.331  1.00  0.00    -0.200 F 
ENDBRANCH  53  77
BRANCH  65  88
ATOM     88  C   UNL A   1      44.876  28.124  34.059  1.00  0.00     0.064 A 
ATOM     89  C   UNL A   1      44.979  27.046  34.951  1.00  0.00     0.173 A 
ATOM     90  C   UNL A   1      45.989  28.968  33.917  1.00  0.00     0.173 A 
ATOM     91  F   UNL A   1      43.937  26.221  35.135  1.00  0.00    -0.203 F 
ATOM     92  C   UNL A   1      46.141  26.835  35.686  1.00  0.00     0.198 A 
ATOM     93  C   UNL A   1      47.159  28.738  34.633  1.00  0.00     0.198 A 
ATOM     94  F   UNL A   1      45.942  30.009  33.072  1.00  0.00    -0.203 F 
ATOM     95  F   UNL A   1      46.203  25.825  36.565  1.00  0.00    -0.200 F 
ATOM     96  C   UNL A   1      47.232  27.676  35.522  1.00  0.00     0.200 A 
ATOM     97  F   UNL A   1      48.216  29.545  34.465  1.00  0.00    -0.200 F 
ATOM     98  F   UNL A   1      48.353  27.467  36.226  1.00  0.00    -0.200 F 
ENDBRANCH  65  88
ENDBRANCH  39  40
ENDBRANCH  31  34
ENDBRANCH  29  30
ENDBRANCH   1  29
TORSDOF 12
ENDMDL
MODEL 2
REMARK VINA RESULT:     -13.4      3.181      8.940
REMARK SMILES C[NH+]1CCN(C(=O)c2ccc3c(c2)N(CC(=O)NCCCNC(=O)c2ccc(-c4c5nc(c(-c6c(F)c(F)c(F)c(F)c6F)c6ccc([nH]6)c(-c6c(F)c(F)c(F)c(F)c6F)c6nc(c(-c7c(F)c(F)c(F)c(F)c7F)c7ccc4[nH]7)C=C6)C=C5)cc2)C(=O)CO3)CC1
REMARK SMILES IDX 20 1 19 2 18 3 16 4 17 5 15 7 14 8 8 9 9 10 13 11 10 12
REMARK SMILES IDX 12 13 11 14 91 15 88 16 90 17 89 18 6 19 1 20 2 21 3 22
REMARK SMILES IDX 93 23 4 25 92 26 5 27 7 28 21 29 22 30 23 31 24 33 25 34
REMARK SMILES IDX 26 35 87 36 27 37 86 38 28 39 29 40 30 41 80 42 31 43 85 44
REMARK SMILES IDX 79 45 81 46 32 47 84 48 78 49 77 50 33 52 65 53 45 54 64 55
REMARK SMILES IDX 46 56 49 57 63 58 82 59 47 60 48 61 62 63 83 64 50 65 34 66
REMARK SMILES IDX 35 67 43 68 36 69 37 70 41 71 44 72 38 73 39 74 42 75 40 76
REMARK SMILES IDX 66 77 67 78 75 79 68 80 69 81 73 82 76 83 70 84 71 85 74 86
REMARK SMILES IDX 72 87 51 88 52 89 60 90 53 91 54 92 58 93 61 94 55 95 56 96
REMARK SMILES IDX 59 97 57 98
REMARK H PARENT 18 6 2 24 22 32 81 51 49 62
REMARK Flexibility Score: inf
ROOT
ATOM      1  C   UNL A   1      32.133  27.699  27.639  1.00  0.00     0.042 C 
ENDROOT
BRANCH   1   2
ATOM      2  C   UNL A   1      31.319  26.837  26.678  1.00  0.00     0.117 C 
BRANCH   2   3
ATOM      3  N   UNL A   1      31.506  25.418  26.910  1.00  0.00    -0.354 N 
ATOM      4  C   UNL A   1      31.287  24.370  26.069  1.00  0.00     0.240 C 
ATOM      5  O   UNL A   1      31.626  23.249  26.461  1.00  0.00    -0.273 OA
ATOM      6  H   UNL A   1      31.839  25.179  27.805  1.00  0.00     0.163 HD
BRANCH   4   7
ATOM      7  C   UNL A   1      30.693  24.566  24.670  1.00  0.00     0.225 C 
BRANCH   7   8
ATOM      8  N   UNL A   1      31.667  24.910  23.634  1.00  0.00    -0.296 N 
ATOM      9  C   UNL A   1      31.634  28.662  23.559  1.00  0.00     0.042 A 
ATOM     10  C   UNL A   1      32.740  28.920  22.749  1.00  0.00     0.018 A 
ATOM     11  C   UNL A   1      31.229  27.343  23.820  1.00  0.00     0.044 A 
ATOM     12  C   UNL A   1      33.472  27.857  22.230  1.00  0.00     0.049 A 
ATOM     13  C   UNL A   1      31.972  26.266  23.319  1.00  0.00     0.087 A 
ATOM     14  C   UNL A   1      33.087  26.544  22.508  1.00  0.00     0.143 A 
ATOM     15  O   UNL A   1      33.903  25.572  21.996  1.00  0.00    -0.482 OA
ATOM     16  C   UNL A   1      32.308  23.884  22.950  1.00  0.00     0.265 C 
ATOM     17  C   UNL A   1      33.238  24.335  21.832  1.00  0.00     0.330 C 
ATOM     18  O   UNL A   1      32.108  22.689  23.165  1.00  0.00    -0.270 OA
BRANCH   9  19
ATOM     19  C   UNL A   1      30.864  29.812  24.082  1.00  0.00     0.254 C 
ATOM     20  C   UNL A   1      27.640  32.818  20.633  1.00  0.00     0.332 C 
ATOM     21  N   UNL A   1      27.956  31.819  21.653  1.00  0.00    -0.334 N 
ATOM     22  C   UNL A   1      28.620  32.455  22.813  1.00  0.00     0.283 C 
ATOM     23  C   UNL A   1      28.848  30.782  21.093  1.00  0.00     0.283 C 
ATOM     24  H   UNL A   1      27.083  31.388  21.958  1.00  0.00     0.347 HD
ATOM     25  C   UNL A   1      29.030  31.433  23.893  1.00  0.00     0.181 C 
ATOM     26  C   UNL A   1      29.210  29.715  22.142  1.00  0.00     0.181 C 
ATOM     27  N   UNL A   1      29.807  30.321  23.339  1.00  0.00    -0.327 N 
ATOM     28  O   UNL A   1      31.198  30.248  25.181  1.00  0.00    -0.269 OA
ENDBRANCH   9  19
ENDBRANCH   7   8
ENDBRANCH   4   7
ENDBRANCH   2   3
ENDBRANCH   1   2
BRANCH   1  29
ATOM     29  C   UNL A   1      33.387  28.320  27.024  1.00  0.00     0.118 C 
BRANCH  29  30
ATOM     30  N   UNL A   1      33.399  29.774  27.107  1.00  0.00    -0.352 N 
ATOM     31  C   UNL A   1      34.321  30.632  27.649  1.00  0.00     0.251 C 
ATOM     32  H   UNL A   1      32.615  30.214  26.707  1.00  0.00     0.163 HD
ATOM     33  O   UNL A   1      34.038  31.825  27.755  1.00  0.00    -0.269 OA
BRANCH  31  34
ATOM     34  C   UNL A   1      35.637  30.153  28.123  1.00  0.00     0.039 A 
ATOM     35  C   UNL A   1      36.713  30.160  27.228  1.00  0.00     0.014 A 
ATOM     36  C   UNL A   1      35.811  29.642  29.412  1.00  0.00     0.014 A 
ATOM     37  C   UNL A   1      37.972  29.717  27.641  1.00  0.00     0.010 A 
ATOM     38  C   UNL A   1      37.081  29.258  29.844  1.00  0.00     0.010 A 
ATOM     39  C   UNL A   1      38.174  29.292  28.964  1.00  0.00    -0.014 A 
BRANCH  39  40
ATOM     40  C   UNL A   1      39.521  28.890  29.445  1.00  0.00     0.031 A 
ATOM     41  C   UNL A   1      40.289  29.774  30.386  1.00  0.00     0.074 A 
ATOM     42  C   UNL A   1      40.081  27.756  28.978  1.00  0.00     0.049 A 
ATOM     43  N   UNL A   1      41.509  29.636  30.842  1.00  0.00    -0.248 NA
ATOM     44  C   UNL A   1      39.604  30.986  30.859  1.00  0.00     0.031 C 
ATOM     45  C   UNL A   1      39.455  26.833  28.030  1.00  0.00     0.029 A 
ATOM     46  N   UNL A   1      41.310  27.197  29.224  1.00  0.00    -0.354 N 
ATOM     47  C   UNL A   1      41.743  30.751  31.637  1.00  0.00     0.074 A 
ATOM     48  C   UNL A   1      40.556  31.574  31.571  1.00  0.00     0.031 C 
ATOM     49  C   UNL A   1      40.298  25.818  27.785  1.00  0.00     0.029 A 
ATOM     50  C   UNL A   1      41.535  26.035  28.528  1.00  0.00     0.049 A 
ATOM     51  H   UNL A   1      41.968  27.592  29.842  1.00  0.00     0.167 HD
ATOM     52  C   UNL A   1      42.844  31.050  32.369  1.00  0.00     0.037 A 
ATOM     53  C   UNL A   1      42.622  25.241  28.484  1.00  0.00     0.037 A 
ATOM     54  C   UNL A   1      44.012  30.214  32.460  1.00  0.00     0.049 A 
ATOM     55  C   UNL A   1      43.828  25.594  29.311  1.00  0.00     0.074 A 
ATOM     56  C   UNL A   1      45.151  30.401  33.226  1.00  0.00     0.029 A 
ATOM     57  N   UNL A   1      44.193  29.030  31.760  1.00  0.00    -0.354 N 
ATOM     58  N   UNL A   1      44.014  26.619  30.106  1.00  0.00    -0.248 NA
ATOM     59  C   UNL A   1      44.973  24.675  29.239  1.00  0.00     0.031 C 
ATOM     60  C   UNL A   1      46.035  29.350  32.961  1.00  0.00     0.029 A 
ATOM     61  C   UNL A   1      45.431  28.486  32.062  1.00  0.00     0.049 A 
ATOM     62  H   UNL A   1      43.538  28.634  31.140  1.00  0.00     0.167 HD
ATOM     63  C   UNL A   1      45.281  26.456  30.648  1.00  0.00     0.074 A 
ATOM     64  C   UNL A   1      45.814  25.226  30.101  1.00  0.00     0.031 C 
ATOM     65  C   UNL A   1      45.944  27.255  31.518  1.00  0.00     0.037 A 
BRANCH  52  66
ATOM     66  C   UNL A   1      42.838  32.338  33.139  1.00  0.00     0.064 A 
ATOM     67  C   UNL A   1      42.346  32.408  34.450  1.00  0.00     0.173 A 
ATOM     68  C   UNL A   1      43.375  33.506  32.576  1.00  0.00     0.173 A 
ATOM     69  F   UNL A   1      41.814  31.322  35.030  1.00  0.00    -0.203 F 
ATOM     70  C   UNL A   1      42.369  33.605  35.161  1.00  0.00     0.198 A 
ATOM     71  C   UNL A   1      43.420  34.695  33.299  1.00  0.00     0.198 A 
ATOM     72  F   UNL A   1      43.865  33.491  31.327  1.00  0.00    -0.203 F 
ATOM     73  F   UNL A   1      41.854  33.657  36.398  1.00  0.00    -0.200 F 
ATOM     74  C   UNL A   1      42.912  34.745  34.588  1.00  0.00     0.200 A 
ATOM     75  F   UNL A   1      43.957  35.793  32.749  1.00  0.00    -0.200 F 
ATOM     76  F   UNL A   1      42.941  35.894  35.277  1.00  0.00    -0.200 F 
ENDBRANCH  52  66
BRANCH  53  77
ATOM     77  C   UNL A   1      42.613  24.020  27.638  1.00  0.00     0.064 A 
ATOM     78  C   UNL A   1      42.250  22.777  28.175  1.00  0.00     0.173 A 
ATOM     79  C   UNL A   1      42.969  24.068  26.283  1.00  0.00     0.173 A 
ATOM     80  F   UNL A   1      41.923  22.679  29.472  1.00  0.00    -0.203 F 
ATOM     81  C   UNL A   1      42.264  21.625  27.393  1.00  0.00     0.198 A 
ATOM     82  C   UNL A   1      42.956  22.920  25.495  1.00  0.00     0.198 A 
ATOM     83  F   UNL A   1      43.319  25.235  25.721  1.00  0.00    -0.203 F 
ATOM     84  F   UNL A   1      41.955  20.441  27.942  1.00  0.00    -0.200 F 
ATOM     85  C   UNL A   1      42.611  21.698  26.052  1.00  0.00     0.200 A 
ATOM     86  F   UNL A   1      43.279  22.997  24.197  1.00  0.00    -0.200 F 
ATOM     87  F   UNL A   1      42.620  20.589  25.299  1.00  0.00    -0.200 F 
ENDBRANCH  53  77
BRANCH  65  88
ATOM     88  C   UNL A   1      47.304  26.808  31.963  1.00  0.00     0.064 A 
ATOM     89  C   UNL A   1      48.469  27.239  31.310  1.00  0.00     0.173 A 
ATOM     90  C   UNL A   1      47.448  25.969  33.078  1.00  0.00     0.173 A 
ATOM     91  F   UNL A   1      48.384  28.028  30.229  1.00  0.00    -0.203 F 
ATOM     92  C   UNL A   1      49.726  26.828  31.745  1.00  0.00     0.198 A 
ATOM     93  C   UNL A   1      48.707  25.581  33.527  1.00  0.00     0.198 A 
ATOM     94  F   UNL A   1      46.364  25.534  33.740  1.00  0.00    -0.203 F 
ATOM     95  F   UNL A   1      50.823  27.215  31.081  1.00  0.00    -0.200 F 
ATOM     96  C   UNL A   1      49.844  26.005  32.856  1.00  0.00     0.200 A 
ATOM     97  F   UNL A   1      48.820  24.796  34.606  1.00  0.00    -0.200 F 
ATOM     98  F   UNL A   1      51.055  25.616  33.277  1.00  0.00    -0.200 F 
ENDBRANCH  65  88
ENDBRANCH  39  40
ENDBRANCH  31  34
ENDBRANCH  29  30
ENDBRANCH   1  29
TORSDOF 12
ENDMDL
MODEL 3
REMARK VINA RESULT:     -13.3      3.533      6.306
REMARK SMILES C[NH+]1CCN(C(=O)c2ccc3c(c2)N(CC(=O)NCCCNC(=O)c2ccc(-c4c5nc(c(-c6c(F)c(F)c(F)c(F)c6F)c6ccc([nH]6)c(-c6c(F)c(F)c(F)c(F)c6F)c6nc(c(-c7c(F)c(F)c(F)c(F)c7F)c7ccc4[nH]7)C=C6)C=C5)cc2)C(=O)CO3)CC1
REMARK SMILES IDX 20 1 19 2 18 3 16 4 17 5 15 7 14 8 8 9 9 10 13 11 10 12
REMARK SMILES IDX 12 13 11 14 91 15 88 16 90 17 89 18 6 19 1 20 2 21 3 22
REMARK SMILES IDX 93 23 4 25 92 26 5 27 7 28 21 29 22 30 23 31 24 33 25 34
REMARK SMILES IDX 26 35 87 36 27 37 86 38 28 39 29 40 30 41 80 42 31 43 85 44
REMARK SMILES IDX 79 45 81 46 32 47 84 48 78 49 77 50 33 52 65 53 45 54 64 55
REMARK SMILES IDX 46 56 49 57 63 58 82 59 47 60 48 61 62 63 83 64 50 65 34 66
REMARK SMILES IDX 35 67 43 68 36 69 37 70 41 71 44 72 38 73 39 74 42 75 40 76
REMARK SMILES IDX 66 77 67 78 75 79 68 80 69 81 73 82 76 83 70 84 71 85 74 86
REMARK SMILES IDX 72 87 51 88 52 89 60 90 53 91 54 92 58 93 61 94 55 95 56 96
REMARK SMILES IDX 59 97 57 98
REMARK H PARENT 18 6 2 24 22 32 81 51 49 62
REMARK Flexibility Score: inf
ROOT
ATOM      1  C   UNL A   1      35.876  24.096  24.678  1.00  0.00     0.042 C 
ENDROOT
BRANCH   1   2
ATOM      2  C   UNL A   1      34.603  24.937  24.658  1.00  0.00     0.117 C 
BRANCH   2   3
ATOM      3  N   UNL A   1      34.312  25.474  23.344  1.00  0.00    -0.354 N 
ATOM      4  C   UNL A   1      33.287  25.180  22.497  1.00  0.00     0.240 C 
ATOM      5  O   UNL A   1      33.191  25.854  21.468  1.00  0.00    -0.273 OA
ATOM      6  H   UNL A   1      34.949  26.149  23.015  1.00  0.00     0.163 HD
BRANCH   4   7
ATOM      7  C   UNL A   1      32.257  24.092  22.823  1.00  0.00     0.225 C 
BRANCH   7   8
ATOM      8  N   UNL A   1      31.874  24.015  24.233  1.00  0.00    -0.296 N 
ATOM      9  C   UNL A   1      33.804  21.075  25.544  1.00  0.00     0.042 A 
ATOM     10  C   UNL A   1      33.591  21.210  26.916  1.00  0.00     0.018 A 
ATOM     11  C   UNL A   1      33.201  21.960  24.636  1.00  0.00     0.044 A 
ATOM     12  C   UNL A   1      32.808  22.258  27.388  1.00  0.00     0.049 A 
ATOM     13  C   UNL A   1      32.427  23.030  25.102  1.00  0.00     0.087 A 
ATOM     14  C   UNL A   1      32.226  23.155  26.489  1.00  0.00     0.143 A 
ATOM     15  O   UNL A   1      31.520  24.180  27.056  1.00  0.00    -0.482 OA
ATOM     16  C   UNL A   1      30.953  24.931  24.728  1.00  0.00     0.265 C 
ATOM     17  C   UNL A   1      30.549  24.720  26.180  1.00  0.00     0.330 C 
ATOM     18  O   UNL A   1      30.434  25.816  24.048  1.00  0.00    -0.270 OA
BRANCH   9  19
ATOM     19  C   UNL A   1      34.626  19.941  25.070  1.00  0.00     0.254 C 
ATOM     20  C   UNL A   1      32.649  14.716  25.415  1.00  0.00     0.332 C 
ATOM     21  N   UNL A   1      32.992  15.988  24.779  1.00  0.00    -0.334 N 
ATOM     22  C   UNL A   1      34.442  16.257  24.907  1.00  0.00     0.283 C 
ATOM     23  C   UNL A   1      32.237  17.092  25.408  1.00  0.00     0.283 C 
ATOM     24  H   UNL A   1      32.747  15.926  23.791  1.00  0.00     0.347 HD
ATOM     25  C   UNL A   1      34.846  17.618  24.305  1.00  0.00     0.181 C 
ATOM     26  C   UNL A   1      32.579  18.451  24.768  1.00  0.00     0.181 C 
ATOM     27  N   UNL A   1      34.022  18.717  24.815  1.00  0.00    -0.327 N 
ATOM     28  O   UNL A   1      35.825  20.158  24.904  1.00  0.00    -0.269 OA
ENDBRANCH   9  19
ENDBRANCH   7   8
ENDBRANCH   4   7
ENDBRANCH   2   3
ENDBRANCH   1   2
BRANCH   1  29
ATOM     29  C   UNL A   1      36.301  23.625  26.068  1.00  0.00     0.118 C 
BRANCH  29  30
ATOM     30  N   UNL A   1      37.411  22.682  26.033  1.00  0.00    -0.352 N 
ATOM     31  C   UNL A   1      38.742  22.855  26.311  1.00  0.00     0.251 C 
ATOM     32  H   UNL A   1      37.163  21.767  25.766  1.00  0.00     0.163 HD
ATOM     33  O   UNL A   1      39.532  21.948  26.049  1.00  0.00    -0.269 OA
BRANCH  31  34
ATOM     34  C   UNL A   1      39.251  24.112  26.902  1.00  0.00     0.039 A 
ATOM     35  C   UNL A   1      39.950  25.002  26.080  1.00  0.00     0.014 A 
ATOM     36  C   UNL A   1      39.101  24.395  28.262  1.00  0.00     0.014 A 
ATOM     37  C   UNL A   1      40.443  26.200  26.604  1.00  0.00     0.010 A 
ATOM     38  C   UNL A   1      39.538  25.619  28.771  1.00  0.00     0.010 A 
ATOM     39  C   UNL A   1      40.213  26.534  27.948  1.00  0.00    -0.014 A 
BRANCH  39  40
ATOM     40  C   UNL A   1      40.661  27.836  28.504  1.00  0.00     0.031 A 
ATOM     41  C   UNL A   1      42.098  28.044  28.891  1.00  0.00     0.074 A 
ATOM     42  C   UNL A   1      39.757  28.810  28.725  1.00  0.00     0.049 A 
ATOM     43  N   UNL A   1      42.658  29.075  29.474  1.00  0.00    -0.248 NA
ATOM     44  C   UNL A   1      43.025  26.938  28.609  1.00  0.00     0.031 C 
ATOM     45  C   UNL A   1      38.326  28.717  28.430  1.00  0.00     0.029 A 
ATOM     46  N   UNL A   1      39.904  30.064  29.263  1.00  0.00    -0.354 N 
ATOM     47  C   UNL A   1      43.994  28.734  29.644  1.00  0.00     0.074 A 
ATOM     48  C   UNL A   1      44.153  27.387  29.140  1.00  0.00     0.031 C 
ATOM     49  C   UNL A   1      37.730  29.868  28.780  1.00  0.00     0.029 A 
ATOM     50  C   UNL A   1      38.727  30.765  29.356  1.00  0.00     0.049 A 
ATOM     51  H   UNL A   1      40.772  30.427  29.556  1.00  0.00     0.167 HD
ATOM     52  C   UNL A   1      44.998  29.484  30.160  1.00  0.00     0.037 A 
ATOM     53  C   UNL A   1      38.477  31.989  29.859  1.00  0.00     0.037 A 
ATOM     54  C   UNL A   1      44.845  30.835  30.631  1.00  0.00     0.049 A 
ATOM     55  C   UNL A   1      39.612  32.802  30.420  1.00  0.00     0.074 A 
ATOM     56  C   UNL A   1      45.816  31.698  31.110  1.00  0.00     0.029 A 
ATOM     57  N   UNL A   1      43.640  31.522  30.683  1.00  0.00    -0.354 N 
ATOM     58  N   UNL A   1      40.881  32.492  30.519  1.00  0.00    -0.248 NA
ATOM     59  C   UNL A   1      39.279  34.139  30.932  1.00  0.00     0.031 C 
ATOM     60  C   UNL A   1      45.193  32.893  31.487  1.00  0.00     0.029 A 
ATOM     61  C   UNL A   1      43.841  32.790  31.204  1.00  0.00     0.049 A 
ATOM     62  H   UNL A   1      42.771  31.161  30.393  1.00  0.00     0.167 HD
ATOM     63  C   UNL A   1      41.502  33.599  31.078  1.00  0.00     0.074 A 
ATOM     64  C   UNL A   1      40.472  34.596  31.285  1.00  0.00     0.031 C 
ATOM     65  C   UNL A   1      42.808  33.774  31.394  1.00  0.00     0.037 A 
BRANCH  52  66
ATOM     66  C   UNL A   1      46.361  28.861  30.236  1.00  0.00     0.064 A 
ATOM     67  C   UNL A   1      46.785  28.158  31.374  1.00  0.00     0.173 A 
ATOM     68  C   UNL A   1      47.235  28.924  29.141  1.00  0.00     0.173 A 
ATOM     69  F   UNL A   1      45.990  28.077  32.452  1.00  0.00    -0.203 F 
ATOM     70  C   UNL A   1      48.043  27.564  31.422  1.00  0.00     0.198 A 
ATOM     71  C   UNL A   1      48.482  28.305  29.182  1.00  0.00     0.198 A 
ATOM     72  F   UNL A   1      46.875  29.577  28.025  1.00  0.00    -0.203 F 
ATOM     73  F   UNL A   1      48.443  26.935  32.537  1.00  0.00    -0.200 F 
ATOM     74  C   UNL A   1      48.887  27.632  30.324  1.00  0.00     0.200 A 
ATOM     75  F   UNL A   1      49.292  28.361  28.115  1.00  0.00    -0.200 F 
ATOM     76  F   UNL A   1      50.095  27.052  30.369  1.00  0.00    -0.200 F 
ENDBRANCH  52  66
BRANCH  53  77
ATOM     77  C   UNL A   1      37.094  32.529  29.840  1.00  0.00     0.064 A 
ATOM     78  C   UNL A   1      36.621  33.254  28.737  1.00  0.00     0.173 A 
ATOM     79  C   UNL A   1      36.220  32.338  30.920  1.00  0.00     0.173 A 
ATOM     80  F   UNL A   1      37.428  33.481  27.690  1.00  0.00    -0.203 F 
ATOM     81  C   UNL A   1      35.333  33.784  28.724  1.00  0.00     0.198 A 
ATOM     82  C   UNL A   1      34.923  32.845  30.894  1.00  0.00     0.198 A 
ATOM     83  F   UNL A   1      36.624  31.647  31.997  1.00  0.00    -0.203 F 
ATOM     84  F   UNL A   1      34.921  34.510  27.676  1.00  0.00    -0.200 F 
ATOM     85  C   UNL A   1      34.483  33.575  29.799  1.00  0.00     0.200 A 
ATOM     86  F   UNL A   1      34.101  32.630  31.930  1.00  0.00    -0.200 F 
ATOM     87  F   UNL A   1      33.243  34.082  29.785  1.00  0.00    -0.200 F 
ENDBRANCH  53  77
BRANCH  65  88
ATOM     88  C   UNL A   1      43.205  35.104  31.963  1.00  0.00     0.064 A 
ATOM     89  C   UNL A   1      43.661  36.148  31.144  1.00  0.00     0.173 A 
ATOM     90  C   UNL A   1      43.091  35.351  33.340  1.00  0.00     0.173 A 
ATOM     91  F   UNL A   1      43.804  35.956  29.824  1.00  0.00    -0.203 F 
ATOM     92  C   UNL A   1      44.010  37.381  31.686  1.00  0.00     0.198 A 
ATOM     93  C   UNL A   1      43.414  36.594  33.875  1.00  0.00     0.198 A 
ATOM     94  F   UNL A   1      42.654  34.386  34.164  1.00  0.00    -0.203 F 
ATOM     95  F   UNL A   1      44.485  38.350  30.892  1.00  0.00    -0.200 F 
ATOM     96  C   UNL A   1      43.880  37.605  33.049  1.00  0.00     0.200 A 
ATOM     97  F   UNL A   1      43.278  36.812  35.190  1.00  0.00    -0.200 F 
ATOM     98  F   UNL A   1      44.211  38.796  33.568  1.00  0.00    -0.200 F 
ENDBRANCH  65  88
ENDBRANCH  39  40
ENDBRANCH  31  34
ENDBRANCH  29  30
ENDBRANCH   1  29
TORSDOF 12
ENDMDL
