MODEL 1
REMARK VINA RESULT:     -13.0      0.000      0.000
REMARK SMILES Cc1cc([C@H](C)NC(=O)N2CC[C@H](C(=O)NCCCNC(=O)c3ccc(-c4c5nc(c(-c6c(F)c(F)c(F)c(F)c6F)c6ccc([nH]6)c(-c6c(F)c(F)c(F)c(F)c6F)c6nc(c(-c7c(F)c(F)c(F)c(F)c7F)c7ccc4[nH]7)C=C6)C=C5)cc3)[C@@H]2C)c(C)s1
REMARK SMILES IDX 17 1 16 2 14 3 15 4 13 6 10 7 11 8 86 9 12 10 87 11 8 12
REMARK SMILES IDX 7 13 9 15 5 16 6 17 4 18 1 19 2 20 3 21 90 22 88 23 89 24
REMARK SMILES IDX 18 25 19 26 20 27 21 28 22 30 23 31 24 32 85 33 25 34 84 35
REMARK SMILES IDX 26 36 27 37 28 38 78 39 29 40 83 41 77 42 79 43 30 44 82 45
REMARK SMILES IDX 76 46 75 47 31 49 63 50 43 51 62 52 44 53 47 54 61 55 80 56
REMARK SMILES IDX 45 57 46 58 60 60 81 61 48 62 32 63 33 64 41 65 34 66 35 67
REMARK SMILES IDX 39 68 42 69 36 70 37 71 40 72 38 73 64 74 65 75 73 76 66 77
REMARK SMILES IDX 67 78 71 79 74 80 68 81 69 82 72 83 70 84 49 85 50 86 58 87
REMARK SMILES IDX 51 88 52 89 56 90 59 91 53 92 54 93 57 94 55 95
REMARK H PARENT 16 5 7 14 20 29 79 48 47 59
REMARK Flexibility Score: inf
ROOT
ATOM      1  C   UNL A   1      36.793  20.764  24.997  1.00  0.00     0.117 C 
ENDROOT
BRANCH   1   2
ATOM      2  N   UNL A   1      35.606  19.939  25.141  1.00  0.00    -0.356 N 
ATOM      3  C   UNL A   1      34.302  20.209  24.846  1.00  0.00     0.225 C 
ATOM      4  O   UNL A   1      33.540  19.250  24.716  1.00  0.00    -0.275 OA
ATOM      5  H   UNL A   1      35.769  19.042  25.510  1.00  0.00     0.163 HD
BRANCH   3   6
ATOM      6  C   UNL A   1      33.819  21.644  24.724  1.00  0.00     0.102 C 
ATOM      7  N   UNL A   1      32.053  22.740  25.920  1.00  0.00    -0.321 N 
ATOM      8  C   UNL A   1      31.422  21.960  24.875  1.00  0.00     0.122 C 
ATOM      9  C   UNL A   1      33.443  22.311  26.072  1.00  0.00     0.096 C 
ATOM     10  C   UNL A   1      32.541  21.729  23.875  1.00  0.00     0.037 C 
ATOM     11  C   UNL A   1      33.611  21.443  27.322  1.00  0.00     0.032 C 
BRANCH   7  12
ATOM     12  C   UNL A   1      31.287  23.426  26.822  1.00  0.00     0.318 C 
ATOM     13  N   UNL A   1      31.343  24.784  26.855  1.00  0.00    -0.331 N 
ATOM     14  H   UNL A   1      31.495  25.203  27.733  1.00  0.00     0.165 HD
ATOM     15  O   UNL A   1      30.546  22.858  27.624  1.00  0.00    -0.249 OA
BRANCH  13  16
ATOM     16  C   UNL A   1      31.199  25.674  25.713  1.00  0.00     0.112 C 
ATOM     17  C   UNL A   1      29.713  25.962  25.459  1.00  0.00     0.036 C 
BRANCH  16  18
ATOM     18  C   UNL A   1      32.031  26.924  25.969  1.00  0.00    -0.012 A 
ATOM     19  C   UNL A   1      32.267  30.620  26.870  1.00  0.00     0.056 C 
ATOM     20  C   UNL A   1      32.446  29.186  26.511  1.00  0.00     0.002 A 
ATOM     21  C   UNL A   1      31.498  28.191  26.414  1.00  0.00     0.021 A 
ATOM     22  S   UNL A   1      33.999  28.601  26.151  1.00  0.00    -0.146 S 
ATOM     23  C   UNL A   1      33.409  27.035  25.789  1.00  0.00     0.007 A 
ATOM     24  C   UNL A   1      34.408  26.020  25.351  1.00  0.00     0.057 C 
ENDBRANCH  16  18
ENDBRANCH  13  16
ENDBRANCH   7  12
ENDBRANCH   3   6
ENDBRANCH   1   2
BRANCH   1  25
ATOM     25  C   UNL A   1      38.076  19.971  24.775  1.00  0.00     0.042 C 
BRANCH  25  26
ATOM     26  C   UNL A   1      39.187  20.209  25.798  1.00  0.00     0.118 C 
BRANCH  26  27
ATOM     27  N   UNL A   1      40.210  19.172  25.817  1.00  0.00    -0.352 N 
ATOM     28  C   UNL A   1      41.561  19.252  26.058  1.00  0.00     0.251 C 
ATOM     29  H   UNL A   1      39.879  18.265  25.626  1.00  0.00     0.163 HD
ATOM     30  O   UNL A   1      42.255  18.243  25.949  1.00  0.00    -0.269 OA
BRANCH  28  31
ATOM     31  C   UNL A   1      42.202  20.540  26.406  1.00  0.00     0.039 A 
ATOM     32  C   UNL A   1      42.721  21.330  25.373  1.00  0.00     0.014 A 
ATOM     33  C   UNL A   1      42.309  20.971  27.730  1.00  0.00     0.014 A 
ATOM     34  C   UNL A   1      43.259  22.589  25.658  1.00  0.00     0.010 A 
ATOM     35  C   UNL A   1      42.784  22.254  28.005  1.00  0.00     0.010 A 
ATOM     36  C   UNL A   1      43.251  23.081  26.971  1.00  0.00    -0.014 A 
BRANCH  36  37
ATOM     37  C   UNL A   1      43.702  24.461  27.295  1.00  0.00     0.031 A 
ATOM     38  C   UNL A   1      42.715  25.479  27.791  1.00  0.00     0.074 A 
ATOM     39  C   UNL A   1      44.974  24.826  27.044  1.00  0.00     0.049 A 
ATOM     40  N   UNL A   1      42.868  26.768  27.963  1.00  0.00    -0.248 NA
ATOM     41  C   UNL A   1      41.368  24.986  28.111  1.00  0.00     0.031 C 
ATOM     42  C   UNL A   1      46.026  23.943  26.538  1.00  0.00     0.029 A 
ATOM     43  N   UNL A   1      45.595  26.047  27.157  1.00  0.00    -0.354 N 
ATOM     44  C   UNL A   1      41.632  27.243  28.383  1.00  0.00     0.074 A 
ATOM     45  C   UNL A   1      40.731  26.110  28.407  1.00  0.00     0.031 C 
ATOM     46  C   UNL A   1      47.158  24.647  26.388  1.00  0.00     0.029 A 
ATOM     47  C   UNL A   1      46.904  26.041  26.741  1.00  0.00     0.049 A 
ATOM     48  H   UNL A   1      45.143  26.850  27.503  1.00  0.00     0.167 HD
ATOM     49  C   UNL A   1      41.286  28.505  28.730  1.00  0.00     0.037 A 
ATOM     50  C   UNL A   1      47.793  27.047  26.633  1.00  0.00     0.037 A 
ATOM     51  C   UNL A   1      42.192  29.624  28.738  1.00  0.00     0.049 A 
ATOM     52  C   UNL A   1      47.379  28.443  27.011  1.00  0.00     0.074 A 
ATOM     53  C   UNL A   1      41.946  30.929  29.127  1.00  0.00     0.029 A 
ATOM     54  N   UNL A   1      43.518  29.568  28.338  1.00  0.00    -0.354 N 
ATOM     55  N   UNL A   1      46.220  28.871  27.448  1.00  0.00    -0.248 NA
ATOM     56  C   UNL A   1      48.397  29.496  26.883  1.00  0.00     0.031 C 
ATOM     57  C   UNL A   1      43.114  31.673  28.927  1.00  0.00     0.029 A 
ATOM     58  C   UNL A   1      44.100  30.820  28.457  1.00  0.00     0.049 A 
ATOM     59  H   UNL A   1      43.979  28.759  28.018  1.00  0.00     0.167 HD
ATOM     60  C   UNL A   1      46.377  30.231  27.678  1.00  0.00     0.074 A 
ATOM     61  C   UNL A   1      47.746  30.558  27.336  1.00  0.00     0.031 C 
ATOM     62  C   UNL A   1      45.469  31.127  28.134  1.00  0.00     0.037 A 
BRANCH  49  63
ATOM     63  C   UNL A   1      39.860  28.749  29.129  1.00  0.00     0.064 A 
ATOM     64  C   UNL A   1      39.427  28.579  30.453  1.00  0.00     0.173 A 
ATOM     65  C   UNL A   1      38.924  29.196  28.184  1.00  0.00     0.173 A 
ATOM     66  F   UNL A   1      40.282  28.144  31.391  1.00  0.00    -0.203 F 
ATOM     67  C   UNL A   1      38.103  28.822  30.809  1.00  0.00     0.198 A 
ATOM     68  C   UNL A   1      37.608  29.465  28.551  1.00  0.00     0.198 A 
ATOM     69  F   UNL A   1      39.286  29.381  26.907  1.00  0.00    -0.203 F 
ATOM     70  F   UNL A   1      37.703  28.608  32.071  1.00  0.00    -0.200 F 
ATOM     71  C   UNL A   1      37.197  29.271  29.861  1.00  0.00     0.200 A 
ATOM     72  F   UNL A   1      36.736  29.912  27.637  1.00  0.00    -0.200 F 
ATOM     73  F   UNL A   1      35.925  29.510  30.209  1.00  0.00    -0.200 F 
ENDBRANCH  49  63
BRANCH  50  74
ATOM     74  C   UNL A   1      49.171  26.770  26.150  1.00  0.00     0.064 A 
ATOM     75  C   UNL A   1      49.508  26.959  24.802  1.00  0.00     0.173 A 
ATOM     76  C   UNL A   1      50.173  26.311  27.016  1.00  0.00     0.173 A 
ATOM     77  F   UNL A   1      48.578  27.376  23.932  1.00  0.00    -0.203 F 
ATOM     78  C   UNL A   1      50.791  26.681  24.335  1.00  0.00     0.198 A 
ATOM     79  C   UNL A   1      51.463  26.058  26.554  1.00  0.00     0.198 A 
ATOM     80  F   UNL A   1      49.902  26.119  28.315  1.00  0.00    -0.203 F 
ATOM     81  F   UNL A   1      51.076  26.828  23.035  1.00  0.00    -0.200 F 
ATOM     82  C   UNL A   1      51.770  26.236  25.213  1.00  0.00     0.200 A 
ATOM     83  F   UNL A   1      52.409  25.643  27.408  1.00  0.00    -0.200 F 
ATOM     84  F   UNL A   1      53.005  25.973  24.766  1.00  0.00    -0.200 F 
ENDBRANCH  50  74
BRANCH  62  85
ATOM     85  C   UNL A   1      45.931  32.539  28.344  1.00  0.00     0.064 A 
ATOM     86  C   UNL A   1      45.830  33.504  27.332  1.00  0.00     0.173 A 
ATOM     87  C   UNL A   1      46.422  32.943  29.594  1.00  0.00     0.173 A 
ATOM     88  F   UNL A   1      45.383  33.162  26.115  1.00  0.00    -0.203 F 
ATOM     89  C   UNL A   1      46.216  34.823  27.563  1.00  0.00     0.198 A 
ATOM     90  C   UNL A   1      46.781  34.267  29.829  1.00  0.00     0.198 A 
ATOM     91  F   UNL A   1      46.533  32.057  30.596  1.00  0.00    -0.203 F 
ATOM     92  F   UNL A   1      46.142  35.723  26.573  1.00  0.00    -0.200 F 
ATOM     93  C   UNL A   1      46.681  35.205  28.812  1.00  0.00     0.200 A 
ATOM     94  F   UNL A   1      47.220  34.637  31.041  1.00  0.00    -0.200 F 
ATOM     95  F   UNL A   1      47.039  36.477  29.037  1.00  0.00    -0.200 F 
ENDBRANCH  62  85
ENDBRANCH  36  37
ENDBRANCH  28  31
ENDBRANCH  26  27
ENDBRANCH  25  26
ENDBRANCH   1  25
TORSDOF 13
ENDMDL
MODEL 2
REMARK VINA RESULT:     -13.0      5.754     11.392
REMARK SMILES Cc1cc([C@H](C)NC(=O)N2CC[C@H](C(=O)NCCCNC(=O)c3ccc(-c4c5nc(c(-c6c(F)c(F)c(F)c(F)c6F)c6ccc([nH]6)c(-c6c(F)c(F)c(F)c(F)c6F)c6nc(c(-c7c(F)c(F)c(F)c(F)c7F)c7ccc4[nH]7)C=C6)C=C5)cc3)[C@@H]2C)c(C)s1
REMARK SMILES IDX 17 1 16 2 14 3 15 4 13 6 10 7 11 8 86 9 12 10 87 11 8 12
REMARK SMILES IDX 7 13 9 15 5 16 6 17 4 18 1 19 2 20 3 21 90 22 88 23 89 24
REMARK SMILES IDX 18 25 19 26 20 27 21 28 22 30 23 31 24 32 85 33 25 34 84 35
REMARK SMILES IDX 26 36 27 37 28 38 78 39 29 40 83 41 77 42 79 43 30 44 82 45
REMARK SMILES IDX 76 46 75 47 31 49 63 50 43 51 62 52 44 53 47 54 61 55 80 56
REMARK SMILES IDX 45 57 46 58 60 60 81 61 48 62 32 63 33 64 41 65 34 66 35 67
REMARK SMILES IDX 39 68 42 69 36 70 37 71 40 72 38 73 64 74 65 75 73 76 66 77
REMARK SMILES IDX 67 78 71 79 74 80 68 81 69 82 72 83 70 84 49 85 50 86 58 87
REMARK SMILES IDX 51 88 52 89 56 90 59 91 53 92 54 93 57 94 55 95
REMARK H PARENT 16 5 7 14 20 29 79 48 47 59
REMARK Flexibility Score: inf
ROOT
ATOM      1  C   UNL A   1      31.666  30.641  26.127  1.00  0.00     0.117 C 
ENDROOT
BRANCH   1   2
ATOM      2  N   UNL A   1      31.031  30.564  24.823  1.00  0.00    -0.356 N 
ATOM      3  C   UNL A   1      30.567  29.486  24.129  1.00  0.00     0.225 C 
ATOM      4  O   UNL A   1      29.759  29.700  23.225  1.00  0.00    -0.275 OA
ATOM      5  H   UNL A   1      30.917  31.430  24.368  1.00  0.00     0.163 HD
BRANCH   3   6
ATOM      6  C   UNL A   1      31.068  28.088  24.448  1.00  0.00     0.102 C 
ATOM      7  N   UNL A   1      32.305  26.582  23.052  1.00  0.00    -0.321 N 
ATOM      8  C   UNL A   1      30.920  26.484  22.640  1.00  0.00     0.122 C 
ATOM      9  C   UNL A   1      32.478  27.769  23.889  1.00  0.00     0.096 C 
ATOM     10  C   UNL A   1      30.151  27.017  23.835  1.00  0.00     0.037 C 
ATOM     11  C   UNL A   1      33.161  28.893  23.105  1.00  0.00     0.032 C 
BRANCH   7  12
ATOM     12  C   UNL A   1      33.271  25.886  22.380  1.00  0.00     0.318 C 
ATOM     13  N   UNL A   1      33.850  24.805  22.968  1.00  0.00    -0.331 N 
ATOM     14  H   UNL A   1      34.834  24.777  22.980  1.00  0.00     0.165 HD
ATOM     15  O   UNL A   1      33.653  26.206  21.255  1.00  0.00    -0.249 OA
BRANCH  13  16
ATOM     16  C   UNL A   1      33.149  23.686  23.581  1.00  0.00     0.112 C 
ATOM     17  C   UNL A   1      32.519  22.806  22.493  1.00  0.00     0.036 C 
BRANCH  16  18
ATOM     18  C   UNL A   1      34.125  22.942  24.483  1.00  0.00    -0.012 A 
ATOM     19  C   UNL A   1      37.401  21.057  24.977  1.00  0.00     0.056 C 
ATOM     20  C   UNL A   1      36.088  21.756  25.050  1.00  0.00     0.002 A 
ATOM     21  C   UNL A   1      35.420  22.453  24.068  1.00  0.00     0.021 A 
ATOM     22  S   UNL A   1      35.215  21.746  26.507  1.00  0.00    -0.146 S 
ATOM     23  C   UNL A   1      33.905  22.606  25.817  1.00  0.00     0.007 A 
ATOM     24  C   UNL A   1      32.738  22.884  26.701  1.00  0.00     0.057 C 
ENDBRANCH  16  18
ENDBRANCH  13  16
ENDBRANCH   7  12
ENDBRANCH   3   6
ENDBRANCH   1   2
BRANCH   1  25
ATOM     25  C   UNL A   1      31.404  31.947  26.870  1.00  0.00     0.042 C 
BRANCH  25  26
ATOM     26  C   UNL A   1      32.644  32.759  27.240  1.00  0.00     0.118 C 
BRANCH  26  27
ATOM     27  N   UNL A   1      32.361  34.131  27.638  1.00  0.00    -0.352 N 
ATOM     28  C   UNL A   1      32.991  34.949  28.546  1.00  0.00     0.251 C 
ATOM     29  H   UNL A   1      31.590  34.540  27.181  1.00  0.00     0.163 HD
ATOM     30  O   UNL A   1      32.528  36.064  28.777  1.00  0.00    -0.269 OA
BRANCH  28  31
ATOM     31  C   UNL A   1      34.192  34.494  29.280  1.00  0.00     0.039 A 
ATOM     32  C   UNL A   1      34.028  33.940  30.555  1.00  0.00     0.014 A 
ATOM     33  C   UNL A   1      35.473  34.617  28.738  1.00  0.00     0.014 A 
ATOM     34  C   UNL A   1      35.132  33.426  31.244  1.00  0.00     0.010 A 
ATOM     35  C   UNL A   1      36.562  34.043  29.394  1.00  0.00     0.010 A 
ATOM     36  C   UNL A   1      36.401  33.430  30.647  1.00  0.00    -0.014 A 
BRANCH  36  37
ATOM     37  C   UNL A   1      37.574  32.785  31.293  1.00  0.00     0.031 A 
ATOM     38  C   UNL A   1      38.262  31.628  30.624  1.00  0.00     0.074 A 
ATOM     39  C   UNL A   1      37.955  33.169  32.527  1.00  0.00     0.049 A 
ATOM     40  N   UNL A   1      39.182  30.825  31.096  1.00  0.00    -0.248 NA
ATOM     41  C   UNL A   1      37.839  31.319  29.251  1.00  0.00     0.031 C 
ATOM     42  C   UNL A   1      37.356  34.259  33.298  1.00  0.00     0.029 A 
ATOM     43  N   UNL A   1      38.923  32.666  33.363  1.00  0.00    -0.354 N 
ATOM     44  C   UNL A   1      39.427  29.899  30.089  1.00  0.00     0.074 A 
ATOM     45  C   UNL A   1      38.534  30.220  28.995  1.00  0.00     0.031 C 
ATOM     46  C   UNL A   1      37.970  34.346  34.489  1.00  0.00     0.029 A 
ATOM     47  C   UNL A   1      38.973  33.290  34.586  1.00  0.00     0.049 A 
ATOM     48  H   UNL A   1      39.524  31.929  33.110  1.00  0.00     0.167 HD
ATOM     49  C   UNL A   1      40.323  28.884  30.074  1.00  0.00     0.037 A 
ATOM     50  C   UNL A   1      39.724  33.027  35.673  1.00  0.00     0.037 A 
ATOM     51  C   UNL A   1      41.233  28.587  31.150  1.00  0.00     0.049 A 
ATOM     52  C   UNL A   1      40.703  31.885  35.636  1.00  0.00     0.074 A 
ATOM     53  C   UNL A   1      42.215  27.614  31.204  1.00  0.00     0.029 A 
ATOM     54  N   UNL A   1      41.272  29.264  32.359  1.00  0.00    -0.354 N 
ATOM     55  N   UNL A   1      40.956  31.044  34.663  1.00  0.00    -0.248 NA
ATOM     56  C   UNL A   1      41.503  31.655  36.849  1.00  0.00     0.031 C 
ATOM     57  C   UNL A   1      42.824  27.676  32.462  1.00  0.00     0.029 A 
ATOM     58  C   UNL A   1      42.251  28.718  33.173  1.00  0.00     0.049 A 
ATOM     59  H   UNL A   1      40.690  30.020  32.604  1.00  0.00     0.167 HD
ATOM     60  C   UNL A   1      41.962  30.210  35.130  1.00  0.00     0.074 A 
ATOM     61  C   UNL A   1      42.278  30.648  36.474  1.00  0.00     0.031 C 
ATOM     62  C   UNL A   1      42.571  29.177  34.500  1.00  0.00     0.037 A 
BRANCH  49  63
ATOM     63  C   UNL A   1      40.364  28.012  28.854  1.00  0.00     0.064 A 
ATOM     64  C   UNL A   1      41.124  28.359  27.727  1.00  0.00     0.173 A 
ATOM     65  C   UNL A   1      39.667  26.795  28.826  1.00  0.00     0.173 A 
ATOM     66  F   UNL A   1      41.801  29.517  27.700  1.00  0.00    -0.203 F 
ATOM     67  C   UNL A   1      41.162  27.532  26.607  1.00  0.00     0.198 A 
ATOM     68  C   UNL A   1      39.731  25.957  27.716  1.00  0.00     0.198 A 
ATOM     69  F   UNL A   1      38.930  26.412  29.880  1.00  0.00    -0.203 F 
ATOM     70  F   UNL A   1      41.859  27.907  25.525  1.00  0.00    -0.200 F 
ATOM     71  C   UNL A   1      40.472  26.329  26.605  1.00  0.00     0.200 A 
ATOM     72  F   UNL A   1      39.074  24.789  27.720  1.00  0.00    -0.200 F 
ATOM     73  F   UNL A   1      40.516  25.533  25.529  1.00  0.00    -0.200 F 
ENDBRANCH  49  63
BRANCH  50  74
ATOM     74  C   UNL A   1      39.586  33.867  36.891  1.00  0.00     0.064 A 
ATOM     75  C   UNL A   1      38.754  33.467  37.947  1.00  0.00     0.173 A 
ATOM     76  C   UNL A   1      40.274  35.082  37.026  1.00  0.00     0.173 A 
ATOM     77  F   UNL A   1      38.060  32.324  37.854  1.00  0.00    -0.203 F 
ATOM     78  C   UNL A   1      38.602  34.259  39.083  1.00  0.00     0.198 A 
ATOM     79  C   UNL A   1      40.141  35.860  38.173  1.00  0.00     0.198 A 
ATOM     80  F   UNL A   1      41.085  35.507  36.046  1.00  0.00    -0.203 F 
ATOM     81  F   UNL A   1      37.767  33.874  40.058  1.00  0.00    -0.200 F 
ATOM     82  C   UNL A   1      39.299  35.453  39.198  1.00  0.00     0.200 A 
ATOM     83  F   UNL A   1      40.828  37.005  38.287  1.00  0.00    -0.200 F 
ATOM     84  F   UNL A   1      39.156  36.212  40.292  1.00  0.00    -0.200 F 
ENDBRANCH  50  74
BRANCH  62  85
ATOM     85  C   UNL A   1      43.678  28.475  35.229  1.00  0.00     0.064 A 
ATOM     86  C   UNL A   1      43.428  27.386  36.076  1.00  0.00     0.173 A 
ATOM     87  C   UNL A   1      45.012  28.859  35.026  1.00  0.00     0.173 A 
ATOM     88  F   UNL A   1      42.168  26.992  36.315  1.00  0.00    -0.203 F 
ATOM     89  C   UNL A   1      44.475  26.714  36.702  1.00  0.00     0.198 A 
ATOM     90  C   UNL A   1      46.057  28.168  35.633  1.00  0.00     0.198 A 
ATOM     91  F   UNL A   1      45.303  29.892  34.220  1.00  0.00    -0.203 F 
ATOM     92  F   UNL A   1      44.212  25.696  37.533  1.00  0.00    -0.200 F 
ATOM     93  C   UNL A   1      45.787  27.099  36.473  1.00  0.00     0.200 A 
ATOM     94  F   UNL A   1      47.325  28.534  35.400  1.00  0.00    -0.200 F 
ATOM     95  F   UNL A   1      46.794  26.442  37.066  1.00  0.00    -0.200 F 
ENDBRANCH  62  85
ENDBRANCH  36  37
ENDBRANCH  28  31
ENDBRANCH  26  27
ENDBRANCH  25  26
ENDBRANCH   1  25
TORSDOF 13
ENDMDL
MODEL 3
REMARK VINA RESULT:     -12.9      5.752     11.295
REMARK SMILES Cc1cc([C@H](C)NC(=O)N2CC[C@H](C(=O)NCCCNC(=O)c3ccc(-c4c5nc(c(-c6c(F)c(F)c(F)c(F)c6F)c6ccc([nH]6)c(-c6c(F)c(F)c(F)c(F)c6F)c6nc(c(-c7c(F)c(F)c(F)c(F)c7F)c7ccc4[nH]7)C=C6)C=C5)cc3)[C@@H]2C)c(C)s1
REMARK SMILES IDX 17 1 16 2 14 3 15 4 13 6 10 7 11 8 86 9 12 10 87 11 8 12
REMARK SMILES IDX 7 13 9 15 5 16 6 17 4 18 1 19 2 20 3 21 90 22 88 23 89 24
REMARK SMILES IDX 18 25 19 26 20 27 21 28 22 30 23 31 24 32 85 33 25 34 84 35
REMARK SMILES IDX 26 36 27 37 28 38 78 39 29 40 83 41 77 42 79 43 30 44 82 45
REMARK SMILES IDX 76 46 75 47 31 49 63 50 43 51 62 52 44 53 47 54 61 55 80 56
REMARK SMILES IDX 45 57 46 58 60 60 81 61 48 62 32 63 33 64 41 65 34 66 35 67
REMARK SMILES IDX 39 68 42 69 36 70 37 71 40 72 38 73 64 74 65 75 73 76 66 77
REMARK SMILES IDX 67 78 71 79 74 80 68 81 69 82 72 83 70 84 49 85 50 86 58 87
REMARK SMILES IDX 51 88 52 89 56 90 59 91 53 92 54 93 57 94 55 95
REMARK H PARENT 16 5 7 14 20 29 79 48 47 59
REMARK Flexibility Score: inf
ROOT
ATOM      1  C   UNL A   1      31.740  30.558  26.151  1.00  0.00     0.117 C 
ENDROOT
BRANCH   1   2
ATOM      2  N   UNL A   1      31.095  30.456  24.854  1.00  0.00    -0.356 N 
ATOM      3  C   UNL A   1      30.696  29.358  24.150  1.00  0.00     0.225 C 
ATOM      4  O   UNL A   1      29.864  29.528  23.258  1.00  0.00    -0.275 OA
ATOM      5  H   UNL A   1      30.917  31.317  24.412  1.00  0.00     0.163 HD
BRANCH   3   6
ATOM      6  C   UNL A   1      31.295  27.993  24.443  1.00  0.00     0.102 C 
ATOM      7  N   UNL A   1      32.329  26.450  22.927  1.00  0.00    -0.321 N 
ATOM      8  C   UNL A   1      30.899  26.292  22.765  1.00  0.00     0.122 C 
ATOM      9  C   UNL A   1      32.600  27.684  23.665  1.00  0.00     0.096 C 
ATOM     10  C   UNL A   1      30.327  26.866  24.049  1.00  0.00     0.037 C 
ATOM     11  C   UNL A   1      33.097  28.784  22.724  1.00  0.00     0.032 C 
BRANCH   7  12
ATOM     12  C   UNL A   1      33.192  25.747  22.133  1.00  0.00     0.318 C 
ATOM     13  N   UNL A   1      33.829  24.656  22.636  1.00  0.00    -0.331 N 
ATOM     14  H   UNL A   1      34.806  24.617  22.520  1.00  0.00     0.165 HD
ATOM     15  O   UNL A   1      33.428  26.068  20.969  1.00  0.00    -0.249 OA
BRANCH  13  16
ATOM     16  C   UNL A   1      33.201  23.542  23.330  1.00  0.00     0.112 C 
ATOM     17  C   UNL A   1      32.652  22.534  22.311  1.00  0.00     0.036 C 
BRANCH  16  18
ATOM     18  C   UNL A   1      34.213  22.945  24.299  1.00  0.00    -0.012 A 
ATOM     19  C   UNL A   1      37.430  21.007  24.951  1.00  0.00     0.056 C 
ATOM     20  C   UNL A   1      36.161  21.785  24.966  1.00  0.00     0.002 A 
ATOM     21  C   UNL A   1      35.446  22.301  23.907  1.00  0.00     0.021 A 
ATOM     22  S   UNL A   1      35.411  22.135  26.450  1.00  0.00    -0.146 S 
ATOM     23  C   UNL A   1      34.089  22.910  25.686  1.00  0.00     0.007 A 
ATOM     24  C   UNL A   1      33.013  23.439  26.571  1.00  0.00     0.057 C 
ENDBRANCH  16  18
ENDBRANCH  13  16
ENDBRANCH   7  12
ENDBRANCH   3   6
ENDBRANCH   1   2
BRANCH   1  25
ATOM     25  C   UNL A   1      31.457  31.865  26.883  1.00  0.00     0.042 C 
BRANCH  25  26
ATOM     26  C   UNL A   1      32.683  32.706  27.236  1.00  0.00     0.118 C 
BRANCH  26  27
ATOM     27  N   UNL A   1      32.373  34.071  27.637  1.00  0.00    -0.352 N 
ATOM     28  C   UNL A   1      32.982  34.896  28.554  1.00  0.00     0.251 C 
ATOM     29  H   UNL A   1      31.599  34.469  27.176  1.00  0.00     0.163 HD
ATOM     30  O   UNL A   1      32.498  36.002  28.786  1.00  0.00    -0.269 OA
BRANCH  28  31
ATOM     31  C   UNL A   1      34.185  34.458  29.295  1.00  0.00     0.039 A 
ATOM     32  C   UNL A   1      34.015  33.761  30.497  1.00  0.00     0.014 A 
ATOM     33  C   UNL A   1      35.473  34.736  28.832  1.00  0.00     0.014 A 
ATOM     34  C   UNL A   1      35.128  33.262  31.182  1.00  0.00     0.010 A 
ATOM     35  C   UNL A   1      36.577  34.180  29.478  1.00  0.00     0.010 A 
ATOM     36  C   UNL A   1      36.415  33.426  30.651  1.00  0.00    -0.014 A 
BRANCH  36  37
ATOM     37  C   UNL A   1      37.610  32.807  31.285  1.00  0.00     0.031 A 
ATOM     38  C   UNL A   1      38.307  31.656  30.615  1.00  0.00     0.074 A 
ATOM     39  C   UNL A   1      38.004  33.209  32.509  1.00  0.00     0.049 A 
ATOM     40  N   UNL A   1      39.248  30.873  31.079  1.00  0.00    -0.248 NA
ATOM     41  C   UNL A   1      37.867  31.327  29.251  1.00  0.00     0.031 C 
ATOM     42  C   UNL A   1      37.398  34.296  33.279  1.00  0.00     0.029 A 
ATOM     43  N   UNL A   1      38.993  32.730  33.334  1.00  0.00    -0.354 N 
ATOM     44  C   UNL A   1      39.492  29.942  30.076  1.00  0.00     0.074 A 
ATOM     45  C   UNL A   1      38.577  30.238  28.994  1.00  0.00     0.031 C 
ATOM     46  C   UNL A   1      38.029  34.405  34.459  1.00  0.00     0.029 A 
ATOM     47  C   UNL A   1      39.052  33.366  34.550  1.00  0.00     0.049 A 
ATOM     48  H   UNL A   1      39.602  32.001  33.077  1.00  0.00     0.167 HD
ATOM     49  C   UNL A   1      40.406  28.943  30.057  1.00  0.00     0.037 A 
ATOM     50  C   UNL A   1      39.825  33.126  35.627  1.00  0.00     0.037 A 
ATOM     51  C   UNL A   1      41.337  28.671  31.120  1.00  0.00     0.049 A 
ATOM     52  C   UNL A   1      40.823  32.001  35.585  1.00  0.00     0.074 A 
ATOM     53  C   UNL A   1      42.337  27.716  31.167  1.00  0.00     0.029 A 
ATOM     54  N   UNL A   1      41.384  29.359  32.323  1.00  0.00    -0.354 N 
ATOM     55  N   UNL A   1      41.074  31.156  34.615  1.00  0.00    -0.248 NA
ATOM     56  C   UNL A   1      41.645  31.796  36.786  1.00  0.00     0.031 C 
ATOM     57  C   UNL A   1      42.964  27.799  32.415  1.00  0.00     0.029 A 
ATOM     58  C   UNL A   1      42.385  28.838  33.126  1.00  0.00     0.049 A 
ATOM     59  H   UNL A   1      40.793  30.108  32.570  1.00  0.00     0.167 HD
ATOM     60  C   UNL A   1      42.102  30.343  35.073  1.00  0.00     0.074 A 
ATOM     61  C   UNL A   1      42.432  30.798  36.408  1.00  0.00     0.031 C 
ATOM     62  C   UNL A   1      42.718  29.315  34.443  1.00  0.00     0.037 A 
BRANCH  49  63
ATOM     63  C   UNL A   1      40.442  28.060  28.844  1.00  0.00     0.064 A 
ATOM     64  C   UNL A   1      41.209  28.390  27.716  1.00  0.00     0.173 A 
ATOM     65  C   UNL A   1      39.733  26.849  28.824  1.00  0.00     0.173 A 
ATOM     66  F   UNL A   1      41.897  29.542  27.682  1.00  0.00    -0.203 F 
ATOM     67  C   UNL A   1      41.242  27.554  26.604  1.00  0.00     0.198 A 
ATOM     68  C   UNL A   1      39.793  26.002  27.721  1.00  0.00     0.198 A 
ATOM     69  F   UNL A   1      38.990  26.482  29.878  1.00  0.00    -0.203 F 
ATOM     70  F   UNL A   1      41.946  27.913  25.521  1.00  0.00    -0.200 F 
ATOM     71  C   UNL A   1      40.541  26.358  26.610  1.00  0.00     0.200 A 
ATOM     72  F   UNL A   1      39.125  24.840  27.733  1.00  0.00    -0.200 F 
ATOM     73  F   UNL A   1      40.581  25.552  25.540  1.00  0.00    -0.200 F 
ENDBRANCH  49  63
BRANCH  50  74
ATOM     74  C   UNL A   1      39.692  33.975  36.839  1.00  0.00     0.064 A 
ATOM     75  C   UNL A   1      40.381  35.192  36.941  1.00  0.00     0.173 A 
ATOM     76  C   UNL A   1      38.884  33.590  37.919  1.00  0.00     0.173 A 
ATOM     77  F   UNL A   1      41.183  35.591  35.944  1.00  0.00    -0.203 F 
ATOM     78  C   UNL A   1      40.280  35.983  38.083  1.00  0.00     0.198 A 
ATOM     79  C   UNL A   1      38.763  34.394  39.050  1.00  0.00     0.198 A 
ATOM     80  F   UNL A   1      38.201  32.437  37.869  1.00  0.00    -0.203 F 
ATOM     81  F   UNL A   1      40.982  37.120  38.172  1.00  0.00    -0.200 F 
ATOM     82  C   UNL A   1      39.467  35.586  39.135  1.00  0.00     0.200 A 
ATOM     83  F   UNL A   1      37.965  34.015  40.057  1.00  0.00    -0.200 F 
ATOM     84  F   UNL A   1      39.367  36.349  40.232  1.00  0.00    -0.200 F 
ENDBRANCH  50  74
BRANCH  62  85
ATOM     85  C   UNL A   1      43.849  28.638  35.161  1.00  0.00     0.064 A 
ATOM     86  C   UNL A   1      45.176  29.067  35.014  1.00  0.00     0.173 A 
ATOM     87  C   UNL A   1      43.590  27.588  36.054  1.00  0.00     0.173 A 
ATOM     88  F   UNL A   1      45.475  30.056  34.159  1.00  0.00    -0.203 F 
ATOM     89  C   UNL A   1      46.205  28.459  35.730  1.00  0.00     0.198 A 
ATOM     90  C   UNL A   1      44.618  27.001  36.786  1.00  0.00     0.198 A 
ATOM     91  F   UNL A   1      42.336  27.145  36.232  1.00  0.00    -0.203 F 
ATOM     92  F   UNL A   1      47.470  28.863  35.551  1.00  0.00    -0.200 F 
ATOM     93  C   UNL A   1      45.925  27.435  36.621  1.00  0.00     0.200 A 
ATOM     94  F   UNL A   1      44.343  26.019  37.657  1.00  0.00    -0.200 F 
ATOM     95  F   UNL A   1      46.914  26.861  37.319  1.00  0.00    -0.200 F 
ENDBRANCH  62  85
ENDBRANCH  36  37
ENDBRANCH  28  31
ENDBRANCH  26  27
ENDBRANCH  25  26
ENDBRANCH   1  25
TORSDOF 13
ENDMDL
