MODEL 1
REMARK VINA RESULT:     -12.2      0.000      0.000
REMARK SMILES CCC(CC)NC(=O)N[C@@H]1C=C[C@@H](C(=O)NCCCNC(=O)c2ccc(-c3c4nc(c(-c5c(F)c(F)c(F)c(F)c5F)c5ccc([nH]5)c(-c5c(F)c(F)c(F)c(F)c5F)c5nc(c(-c6c(F)c(F)c(F)c(F)c6F)c6ccc3[nH]6)C=C5)C=C4)cc2)C1
REMARK SMILES IDX 17 1 16 2 14 3 15 4 13 6 10 7 11 8 86 9 12 10 9 11 6 12 7 13
REMARK SMILES IDX 8 15 3 17 2 18 1 19 4 20 5 21 18 22 19 23 20 24 21 25 22 27
REMARK SMILES IDX 23 28 24 29 85 30 25 31 84 32 26 33 27 34 28 35 78 36 29 37
REMARK SMILES IDX 83 38 77 39 79 40 30 41 82 42 76 43 75 44 31 46 63 47 43 48
REMARK SMILES IDX 62 49 44 50 47 51 61 52 80 53 45 54 46 55 60 57 81 58 48 59
REMARK SMILES IDX 32 60 33 61 41 62 34 63 35 64 39 65 42 66 36 67 37 68 40 69
REMARK SMILES IDX 38 70 64 71 65 72 73 73 66 74 67 75 71 76 74 77 68 78 69 79
REMARK SMILES IDX 72 80 70 81 49 82 50 83 58 84 51 85 52 86 56 87 59 88 53 89
REMARK SMILES IDX 54 90 57 91 55 92
REMARK H PARENT 16 5 6 14 9 16 20 26 79 45 47 56
REMARK Flexibility Score: inf
ROOT
ATOM      1  C   UNL A   1      37.433  21.553  24.673  1.00  0.00     0.117 C 
ENDROOT
BRANCH   1   2
ATOM      2  N   UNL A   1      36.654  22.010  25.807  1.00  0.00    -0.356 N 
ATOM      3  C   UNL A   1      35.343  22.364  25.815  1.00  0.00     0.227 C 
ATOM      4  O   UNL A   1      34.988  23.263  26.580  1.00  0.00    -0.274 OA
ATOM      5  H   UNL A   1      37.128  22.069  26.668  1.00  0.00     0.163 HD
BRANCH   3   6
ATOM      6  C   UNL A   1      34.337  21.593  24.983  1.00  0.00     0.103 C 
ATOM      7  C   UNL A   1      32.778  19.754  24.784  1.00  0.00     0.107 C 
ATOM      8  C   UNL A   1      32.045  21.027  25.001  1.00  0.00    -0.006 C 
ATOM      9  C   UNL A   1      34.235  20.084  25.153  1.00  0.00     0.047 C 
ATOM     10  C   UNL A   1      32.902  22.050  25.124  1.00  0.00    -0.016 C 
BRANCH   7  11
ATOM     11  N   UNL A   1      32.529  19.165  23.469  1.00  0.00    -0.332 N 
ATOM     12  N   UNL A   1      32.952  16.824  23.129  1.00  0.00    -0.335 N 
ATOM     13  C   UNL A   1      32.530  18.036  22.760  1.00  0.00     0.315 C 
ATOM     14  H   UNL A   1      32.819  16.147  22.426  1.00  0.00     0.165 HD
ATOM     15  O   UNL A   1      32.099  18.135  21.604  1.00  0.00    -0.249 OA
ATOM     16  H   UNL A   1      32.248  19.892  22.867  1.00  0.00     0.165 HD
BRANCH  12  17
ATOM     17  C   UNL A   1      33.558  16.275  24.324  1.00  0.00     0.083 C 
BRANCH  17  18
ATOM     18  C   UNL A   1      34.999  16.761  24.533  1.00  0.00     0.021 C 
ATOM     19  C   UNL A   1      35.830  15.823  25.410  1.00  0.00     0.006 C 
ENDBRANCH  17  18
BRANCH  17  20
ATOM     20  C   UNL A   1      32.634  16.298  25.548  1.00  0.00     0.021 C 
ATOM     21  C   UNL A   1      32.096  14.948  25.977  1.00  0.00     0.006 C 
ENDBRANCH  17  20
ENDBRANCH  12  17
ENDBRANCH   7  11
ENDBRANCH   3   6
ENDBRANCH   1   2
BRANCH   1  22
ATOM     22  C   UNL A   1      38.150  20.271  25.043  1.00  0.00     0.042 C 
BRANCH  22  23
ATOM     23  C   UNL A   1      39.310  20.546  25.982  1.00  0.00     0.118 C 
BRANCH  23  24
ATOM     24  N   UNL A   1      40.168  19.374  26.120  1.00  0.00    -0.352 N 
ATOM     25  C   UNL A   1      41.543  19.330  26.120  1.00  0.00     0.251 C 
ATOM     26  H   UNL A   1      39.708  18.510  26.228  1.00  0.00     0.163 HD
ATOM     27  O   UNL A   1      42.151  18.292  25.931  1.00  0.00    -0.269 OA
BRANCH  25  28
ATOM     28  C   UNL A   1      42.250  20.602  26.344  1.00  0.00     0.039 A 
ATOM     29  C   UNL A   1      42.592  21.411  25.261  1.00  0.00     0.014 A 
ATOM     30  C   UNL A   1      42.455  21.024  27.659  1.00  0.00     0.014 A 
ATOM     31  C   UNL A   1      43.086  22.691  25.508  1.00  0.00     0.010 A 
ATOM     32  C   UNL A   1      42.814  22.337  27.896  1.00  0.00     0.010 A 
ATOM     33  C   UNL A   1      43.161  23.174  26.826  1.00  0.00    -0.014 A 
BRANCH  33  34
ATOM     34  C   UNL A   1      43.655  24.533  27.143  1.00  0.00     0.031 A 
ATOM     35  C   UNL A   1      42.684  25.546  27.685  1.00  0.00     0.074 A 
ATOM     36  C   UNL A   1      44.919  24.882  26.843  1.00  0.00     0.049 A 
ATOM     37  N   UNL A   1      42.843  26.830  27.875  1.00  0.00    -0.248 NA
ATOM     38  C   UNL A   1      41.330  25.058  28.001  1.00  0.00     0.031 C 
ATOM     39  C   UNL A   1      45.927  24.002  26.248  1.00  0.00     0.029 A 
ATOM     40  N   UNL A   1      45.566  26.083  26.978  1.00  0.00    -0.354 N 
ATOM     41  C   UNL A   1      41.603  27.302  28.287  1.00  0.00     0.074 A 
ATOM     42  C   UNL A   1      40.686  26.186  28.251  1.00  0.00     0.031 C 
ATOM     43  C   UNL A   1      47.073  24.685  26.098  1.00  0.00     0.029 A 
ATOM     44  C   UNL A   1      46.868  26.060  26.543  1.00  0.00     0.049 A 
ATOM     45  H   UNL A   1      45.138  26.886  27.353  1.00  0.00     0.167 HD
ATOM     46  C   UNL A   1      41.269  28.548  28.692  1.00  0.00     0.037 A 
ATOM     47  C   UNL A   1      47.786  27.044  26.505  1.00  0.00     0.037 A 
ATOM     48  C   UNL A   1      42.207  29.632  28.784  1.00  0.00     0.049 A 
ATOM     49  C   UNL A   1      47.405  28.411  27.008  1.00  0.00     0.074 A 
ATOM     50  C   UNL A   1      42.003  30.912  29.263  1.00  0.00     0.029 A 
ATOM     51  N   UNL A   1      43.536  29.553  28.395  1.00  0.00    -0.354 N 
ATOM     52  N   UNL A   1      46.250  28.831  27.464  1.00  0.00    -0.248 NA
ATOM     53  C   UNL A   1      48.457  29.436  26.999  1.00  0.00     0.031 C 
ATOM     54  C   UNL A   1      43.201  31.621  29.130  1.00  0.00     0.029 A 
ATOM     55  C   UNL A   1      44.164  30.767  28.613  1.00  0.00     0.049 A 
ATOM     56  H   UNL A   1      43.969  28.752  28.020  1.00  0.00     0.167 HD
ATOM     57  C   UNL A   1      46.441  30.158  27.823  1.00  0.00     0.074 A 
ATOM     58  C   UNL A   1      47.828  30.468  27.543  1.00  0.00     0.031 C 
ATOM     59  C   UNL A   1      45.551  31.041  28.341  1.00  0.00     0.037 A 
BRANCH  46  60
ATOM     60  C   UNL A   1      39.839  28.790  29.078  1.00  0.00     0.064 A 
ATOM     61  C   UNL A   1      38.888  29.240  28.149  1.00  0.00     0.173 A 
ATOM     62  C   UNL A   1      39.410  28.561  30.395  1.00  0.00     0.173 A 
ATOM     63  F   UNL A   1      39.248  29.491  26.882  1.00  0.00    -0.203 F 
ATOM     64  C   UNL A   1      37.572  29.489  28.531  1.00  0.00     0.198 A 
ATOM     65  C   UNL A   1      38.085  28.777  30.765  1.00  0.00     0.198 A 
ATOM     66  F   UNL A   1      40.276  28.130  31.324  1.00  0.00    -0.203 F 
ATOM     67  F   UNL A   1      36.699  29.980  27.640  1.00  0.00    -0.200 F 
ATOM     68  C   UNL A   1      37.170  29.251  29.836  1.00  0.00     0.200 A 
ATOM     69  F   UNL A   1      37.695  28.536  32.024  1.00  0.00    -0.200 F 
ATOM     70  F   UNL A   1      35.903  29.487  30.201  1.00  0.00    -0.200 F 
ENDBRANCH  46  60
BRANCH  47  71
ATOM     71  C   UNL A   1      49.160  26.761  26.013  1.00  0.00     0.064 A 
ATOM     72  C   UNL A   1      50.137  26.244  26.875  1.00  0.00     0.173 A 
ATOM     73  C   UNL A   1      49.521  26.985  24.677  1.00  0.00     0.173 A 
ATOM     74  F   UNL A   1      49.842  26.026  28.165  1.00  0.00    -0.203 F 
ATOM     75  C   UNL A   1      51.429  25.982  26.425  1.00  0.00     0.198 A 
ATOM     76  C   UNL A   1      50.807  26.698  24.223  1.00  0.00     0.198 A 
ATOM     77  F   UNL A   1      48.620  27.468  23.809  1.00  0.00    -0.203 F 
ATOM     78  F   UNL A   1      52.354  25.526  27.282  1.00  0.00    -0.200 F 
ATOM     79  C   UNL A   1      51.762  26.203  25.098  1.00  0.00     0.200 A 
ATOM     80  F   UNL A   1      51.120  26.897  22.935  1.00  0.00    -0.200 F 
ATOM     81  F   UNL A   1      53.003  25.945  24.665  1.00  0.00    -0.200 F 
ENDBRANCH  47  71
BRANCH  59  82
ATOM     82  C   UNL A   1      46.059  32.411  28.678  1.00  0.00     0.064 A 
ATOM     83  C   UNL A   1      46.634  32.696  29.924  1.00  0.00     0.173 A 
ATOM     84  C   UNL A   1      46.022  33.433  27.717  1.00  0.00     0.173 A 
ATOM     85  F   UNL A   1      46.681  31.755  30.878  1.00  0.00    -0.203 F 
ATOM     86  C   UNL A   1      47.136  33.964  30.204  1.00  0.00     0.198 A 
ATOM     87  C   UNL A   1      46.550  34.690  27.990  1.00  0.00     0.198 A 
ATOM     88  F   UNL A   1      45.488  33.205  26.508  1.00  0.00    -0.203 F 
ATOM     89  F   UNL A   1      47.644  34.229  31.415  1.00  0.00    -0.200 F 
ATOM     90  C   UNL A   1      47.100  34.957  29.235  1.00  0.00     0.200 A 
ATOM     91  F   UNL A   1      46.530  35.643  27.049  1.00  0.00    -0.200 F 
ATOM     92  F   UNL A   1      47.595  36.174  29.502  1.00  0.00    -0.200 F 
ENDBRANCH  59  82
ENDBRANCH  33  34
ENDBRANCH  25  28
ENDBRANCH  23  24
ENDBRANCH  22  23
ENDBRANCH   1  22
TORSDOF 14
ENDMDL
MODEL 2
REMARK VINA RESULT:     -12.0      2.238      3.470
REMARK SMILES CCC(CC)NC(=O)N[C@@H]1C=C[C@@H](C(=O)NCCCNC(=O)c2ccc(-c3c4nc(c(-c5c(F)c(F)c(F)c(F)c5F)c5ccc([nH]5)c(-c5c(F)c(F)c(F)c(F)c5F)c5nc(c(-c6c(F)c(F)c(F)c(F)c6F)c6ccc3[nH]6)C=C5)C=C4)cc2)C1
REMARK SMILES IDX 17 1 16 2 14 3 15 4 13 6 10 7 11 8 86 9 12 10 9 11 6 12 7 13
REMARK SMILES IDX 8 15 3 17 2 18 1 19 4 20 5 21 18 22 19 23 20 24 21 25 22 27
REMARK SMILES IDX 23 28 24 29 85 30 25 31 84 32 26 33 27 34 28 35 78 36 29 37
REMARK SMILES IDX 83 38 77 39 79 40 30 41 82 42 76 43 75 44 31 46 63 47 43 48
REMARK SMILES IDX 62 49 44 50 47 51 61 52 80 53 45 54 46 55 60 57 81 58 48 59
REMARK SMILES IDX 32 60 33 61 41 62 34 63 35 64 39 65 42 66 36 67 37 68 40 69
REMARK SMILES IDX 38 70 64 71 65 72 73 73 66 74 67 75 71 76 74 77 68 78 69 79
REMARK SMILES IDX 72 80 70 81 49 82 50 83 58 84 51 85 52 86 56 87 59 88 53 89
REMARK SMILES IDX 54 90 57 91 55 92
REMARK H PARENT 16 5 6 14 9 16 20 26 79 45 47 56
REMARK Flexibility Score: inf
ROOT
ATOM      1  C   UNL A   1      37.174  21.214  25.329  1.00  0.00     0.117 C 
ENDROOT
BRANCH   1   2
ATOM      2  N   UNL A   1      37.346  22.261  24.341  1.00  0.00    -0.356 N 
ATOM      3  C   UNL A   1      36.388  22.815  23.555  1.00  0.00     0.227 C 
ATOM      4  O   UNL A   1      36.704  23.177  22.420  1.00  0.00    -0.274 OA
ATOM      5  H   UNL A   1      38.260  22.610  24.228  1.00  0.00     0.163 HD
BRANCH   3   6
ATOM      6  C   UNL A   1      35.001  23.077  24.109  1.00  0.00     0.103 C 
ATOM      7  C   UNL A   1      33.344  24.648  24.910  1.00  0.00     0.107 C 
ATOM      8  C   UNL A   1      33.017  24.218  23.526  1.00  0.00    -0.006 C 
ATOM      9  C   UNL A   1      34.804  24.203  25.114  1.00  0.00     0.047 C 
ATOM     10  C   UNL A   1      33.937  23.356  23.070  1.00  0.00    -0.016 C 
BRANCH   7  11
ATOM     11  N   UNL A   1      32.358  24.209  25.896  1.00  0.00    -0.332 N 
ATOM     12  N   UNL A   1      30.540  25.669  26.475  1.00  0.00    -0.335 N 
ATOM     13  C   UNL A   1      31.225  24.525  26.523  1.00  0.00     0.315 C 
ATOM     14  H   UNL A   1      29.716  25.640  27.012  1.00  0.00     0.165 HD
ATOM     15  O   UNL A   1      30.764  23.643  27.259  1.00  0.00    -0.249 OA
ATOM     16  H   UNL A   1      32.646  23.328  26.231  1.00  0.00     0.165 HD
BRANCH  12  17
ATOM     17  C   UNL A   1      30.729  26.943  25.812  1.00  0.00     0.083 C 
BRANCH  17  18
ATOM     18  C   UNL A   1      31.984  27.682  26.297  1.00  0.00     0.021 C 
ATOM     19  C   UNL A   1      31.842  28.248  27.711  1.00  0.00     0.006 C 
ENDBRANCH  17  18
BRANCH  17  20
ATOM     20  C   UNL A   1      30.498  26.888  24.297  1.00  0.00     0.021 C 
ATOM     21  C   UNL A   1      29.198  26.239  23.864  1.00  0.00     0.006 C 
ENDBRANCH  17  20
ENDBRANCH  12  17
ENDBRANCH   7  11
ENDBRANCH   3   6
ENDBRANCH   1   2
BRANCH   1  22
ATOM     22  C   UNL A   1      38.247  20.163  25.135  1.00  0.00     0.042 C 
BRANCH  22  23
ATOM     23  C   UNL A   1      39.478  20.481  25.963  1.00  0.00     0.118 C 
BRANCH  23  24
ATOM     24  N   UNL A   1      40.334  19.307  26.110  1.00  0.00    -0.352 N 
ATOM     25  C   UNL A   1      41.709  19.264  26.138  1.00  0.00     0.251 C 
ATOM     26  H   UNL A   1      39.872  18.442  26.201  1.00  0.00     0.163 HD
ATOM     27  O   UNL A   1      42.321  18.228  25.954  1.00  0.00    -0.269 OA
BRANCH  25  28
ATOM     28  C   UNL A   1      42.410  20.534  26.387  1.00  0.00     0.039 A 
ATOM     29  C   UNL A   1      42.847  21.312  25.316  1.00  0.00     0.014 A 
ATOM     30  C   UNL A   1      42.515  20.988  27.704  1.00  0.00     0.014 A 
ATOM     31  C   UNL A   1      43.334  22.593  25.570  1.00  0.00     0.010 A 
ATOM     32  C   UNL A   1      42.869  22.302  27.936  1.00  0.00     0.010 A 
ATOM     33  C   UNL A   1      43.310  23.109  26.877  1.00  0.00    -0.014 A 
BRANCH  33  34
ATOM     34  C   UNL A   1      43.792  24.471  27.199  1.00  0.00     0.031 A 
ATOM     35  C   UNL A   1      42.810  25.478  27.734  1.00  0.00     0.074 A 
ATOM     36  C   UNL A   1      45.057  24.828  26.910  1.00  0.00     0.049 A 
ATOM     37  N   UNL A   1      42.960  26.762  27.926  1.00  0.00    -0.248 NA
ATOM     38  C   UNL A   1      41.457  24.981  28.038  1.00  0.00     0.031 C 
ATOM     39  C   UNL A   1      46.075  23.954  26.324  1.00  0.00     0.029 A 
ATOM     40  N   UNL A   1      45.695  26.033  27.052  1.00  0.00    -0.354 N 
ATOM     41  C   UNL A   1      41.714  27.226  28.328  1.00  0.00     0.074 A 
ATOM     42  C   UNL A   1      40.804  26.105  28.284  1.00  0.00     0.031 C 
ATOM     43  C   UNL A   1      47.218  24.645  26.183  1.00  0.00     0.029 A 
ATOM     44  C   UNL A   1      47.001  26.018  26.628  1.00  0.00     0.049 A 
ATOM     45  H   UNL A   1      45.259  26.833  27.424  1.00  0.00     0.167 HD
ATOM     46  C   UNL A   1      41.368  28.470  28.731  1.00  0.00     0.037 A 
ATOM     47  C   UNL A   1      47.913  27.007  26.599  1.00  0.00     0.037 A 
ATOM     48  C   UNL A   1      42.299  29.559  28.832  1.00  0.00     0.049 A 
ATOM     49  C   UNL A   1      47.520  28.372  27.099  1.00  0.00     0.074 A 
ATOM     50  C   UNL A   1      42.083  30.838  29.310  1.00  0.00     0.029 A 
ATOM     51  N   UNL A   1      43.632  29.489  28.454  1.00  0.00    -0.354 N 
ATOM     52  N   UNL A   1      46.358  28.785  27.545  1.00  0.00    -0.248 NA
ATOM     53  C   UNL A   1      48.565  29.403  27.100  1.00  0.00     0.031 C 
ATOM     54  C   UNL A   1      43.278  31.554  29.188  1.00  0.00     0.029 A 
ATOM     55  C   UNL A   1      44.250  30.706  28.678  1.00  0.00     0.049 A 
ATOM     56  H   UNL A   1      44.073  28.691  28.082  1.00  0.00     0.167 HD
ATOM     57  C   UNL A   1      46.538  30.112  27.907  1.00  0.00     0.074 A 
ATOM     58  C   UNL A   1      47.925  30.431  27.639  1.00  0.00     0.031 C 
ATOM     59  C   UNL A   1      45.638  30.989  28.418  1.00  0.00     0.037 A 
BRANCH  46  60
ATOM     60  C   UNL A   1      39.934  28.703  29.105  1.00  0.00     0.064 A 
ATOM     61  C   UNL A   1      38.994  29.174  28.176  1.00  0.00     0.173 A 
ATOM     62  C   UNL A   1      39.489  28.443  30.411  1.00  0.00     0.173 A 
ATOM     63  F   UNL A   1      39.370  29.455  26.919  1.00  0.00    -0.203 F 
ATOM     64  C   UNL A   1      37.673  29.414  28.547  1.00  0.00     0.198 A 
ATOM     65  C   UNL A   1      38.159  28.651  30.769  1.00  0.00     0.198 A 
ATOM     66  F   UNL A   1      40.343  27.990  31.340  1.00  0.00    -0.203 F 
ATOM     67  F   UNL A   1      36.811  29.925  27.657  1.00  0.00    -0.200 F 
ATOM     68  C   UNL A   1      37.256  29.145  29.841  1.00  0.00     0.200 A 
ATOM     69  F   UNL A   1      37.754  28.380  32.018  1.00  0.00    -0.200 F 
ATOM     70  F   UNL A   1      35.985  29.373  30.196  1.00  0.00    -0.200 F 
ENDBRANCH  46  60
BRANCH  47  71
ATOM     71  C   UNL A   1      49.292  26.733  26.118  1.00  0.00     0.064 A 
ATOM     72  C   UNL A   1      50.249  26.166  26.972  1.00  0.00     0.173 A 
ATOM     73  C   UNL A   1      49.681  27.017  24.800  1.00  0.00     0.173 A 
ATOM     74  F   UNL A   1      49.929  25.891  28.244  1.00  0.00    -0.203 F 
ATOM     75  C   UNL A   1      51.546  25.912  26.533  1.00  0.00     0.198 A 
ATOM     76  C   UNL A   1      50.971  26.737  24.356  1.00  0.00     0.198 A 
ATOM     77  F   UNL A   1      48.800  27.549  23.941  1.00  0.00    -0.203 F 
ATOM     78  F   UNL A   1      52.451  25.407  27.383  1.00  0.00    -0.200 F 
ATOM     79  C   UNL A   1      51.905  26.192  25.224  1.00  0.00     0.200 A 
ATOM     80  F   UNL A   1      51.309  26.993  23.084  1.00  0.00    -0.200 F 
ATOM     81  F   UNL A   1      53.151  25.941  24.801  1.00  0.00    -0.200 F 
ENDBRANCH  47  71
BRANCH  59  82
ATOM     82  C   UNL A   1      46.135  32.362  28.760  1.00  0.00     0.064 A 
ATOM     83  C   UNL A   1      46.682  32.654  30.017  1.00  0.00     0.173 A 
ATOM     84  C   UNL A   1      46.114  33.380  27.795  1.00  0.00     0.173 A 
ATOM     85  F   UNL A   1      46.711  31.717  30.976  1.00  0.00    -0.203 F 
ATOM     86  C   UNL A   1      47.174  33.925  30.303  1.00  0.00     0.198 A 
ATOM     87  C   UNL A   1      46.634  34.640  28.074  1.00  0.00     0.198 A 
ATOM     88  F   UNL A   1      45.608  33.146  26.575  1.00  0.00    -0.203 F 
ATOM     89  F   UNL A   1      47.655  34.196  31.523  1.00  0.00    -0.200 F 
ATOM     90  C   UNL A   1      47.156  34.914  29.329  1.00  0.00     0.200 A 
ATOM     91  F   UNL A   1      46.630  35.589  27.129  1.00  0.00    -0.200 F 
ATOM     92  F   UNL A   1      47.641  36.133  29.602  1.00  0.00    -0.200 F 
ENDBRANCH  59  82
ENDBRANCH  33  34
ENDBRANCH  25  28
ENDBRANCH  23  24
ENDBRANCH  22  23
ENDBRANCH   1  22
TORSDOF 14
ENDMDL
MODEL 3
REMARK VINA RESULT:     -12.0      2.238      3.814
REMARK SMILES CCC(CC)NC(=O)N[C@@H]1C=C[C@@H](C(=O)NCCCNC(=O)c2ccc(-c3c4nc(c(-c5c(F)c(F)c(F)c(F)c5F)c5ccc([nH]5)c(-c5c(F)c(F)c(F)c(F)c5F)c5nc(c(-c6c(F)c(F)c(F)c(F)c6F)c6ccc3[nH]6)C=C5)C=C4)cc2)C1
REMARK SMILES IDX 17 1 16 2 14 3 15 4 13 6 10 7 11 8 86 9 12 10 9 11 6 12 7 13
REMARK SMILES IDX 8 15 3 17 2 18 1 19 4 20 5 21 18 22 19 23 20 24 21 25 22 27
REMARK SMILES IDX 23 28 24 29 85 30 25 31 84 32 26 33 27 34 28 35 78 36 29 37
REMARK SMILES IDX 83 38 77 39 79 40 30 41 82 42 76 43 75 44 31 46 63 47 43 48
REMARK SMILES IDX 62 49 44 50 47 51 61 52 80 53 45 54 46 55 60 57 81 58 48 59
REMARK SMILES IDX 32 60 33 61 41 62 34 63 35 64 39 65 42 66 36 67 37 68 40 69
REMARK SMILES IDX 38 70 64 71 65 72 73 73 66 74 67 75 71 76 74 77 68 78 69 79
REMARK SMILES IDX 72 80 70 81 49 82 50 83 58 84 51 85 52 86 56 87 59 88 53 89
REMARK SMILES IDX 54 90 57 91 55 92
REMARK H PARENT 16 5 6 14 9 16 20 26 79 45 47 56
REMARK Flexibility Score: inf
ROOT
ATOM      1  C   UNL A   1      37.215  21.218  25.384  1.00  0.00     0.117 C 
ENDROOT
BRANCH   1   2
ATOM      2  N   UNL A   1      37.350  22.226  24.352  1.00  0.00    -0.356 N 
ATOM      3  C   UNL A   1      36.369  22.721  23.552  1.00  0.00     0.227 C 
ATOM      4  O   UNL A   1      36.666  23.043  22.400  1.00  0.00    -0.274 OA
ATOM      5  H   UNL A   1      38.253  22.594  24.214  1.00  0.00     0.163 HD
BRANCH   3   6
ATOM      6  C   UNL A   1      34.981  22.969  24.109  1.00  0.00     0.103 C 
ATOM      7  C   UNL A   1      33.314  24.520  24.925  1.00  0.00     0.107 C 
ATOM      8  C   UNL A   1      32.990  24.102  23.538  1.00  0.00    -0.006 C 
ATOM      9  C   UNL A   1      34.777  24.083  25.125  1.00  0.00     0.047 C 
ATOM     10  C   UNL A   1      33.915  23.251  23.073  1.00  0.00    -0.016 C 
BRANCH   7  11
ATOM     11  N   UNL A   1      32.331  24.065  25.907  1.00  0.00    -0.332 N 
ATOM     12  N   UNL A   1      30.531  25.528  26.536  1.00  0.00    -0.335 N 
ATOM     13  C   UNL A   1      31.206  24.375  26.551  1.00  0.00     0.315 C 
ATOM     14  H   UNL A   1      29.710  25.492  27.078  1.00  0.00     0.165 HD
ATOM     15  O   UNL A   1      30.741  23.480  27.267  1.00  0.00    -0.249 OA
ATOM     16  H   UNL A   1      32.613  23.174  26.217  1.00  0.00     0.165 HD
BRANCH  12  17
ATOM     17  C   UNL A   1      30.727  26.816  25.905  1.00  0.00     0.083 C 
BRANCH  17  18
ATOM     18  C   UNL A   1      31.990  27.532  26.403  1.00  0.00     0.021 C 
ATOM     19  C   UNL A   1      31.766  28.320  27.695  1.00  0.00     0.006 C 
ENDBRANCH  17  18
BRANCH  17  20
ATOM     20  C   UNL A   1      30.490  26.801  24.390  1.00  0.00     0.021 C 
ATOM     21  C   UNL A   1      29.131  26.289  23.953  1.00  0.00     0.006 C 
ENDBRANCH  17  20
ENDBRANCH  12  17
ENDBRANCH   7  11
ENDBRANCH   3   6
ENDBRANCH   1   2
BRANCH   1  22
ATOM     22  C   UNL A   1      38.283  20.161  25.193  1.00  0.00     0.042 C 
BRANCH  22  23
ATOM     23  C   UNL A   1      39.513  20.471  26.026  1.00  0.00     0.118 C 
BRANCH  23  24
ATOM     24  N   UNL A   1      40.383  19.304  26.140  1.00  0.00    -0.352 N 
ATOM     25  C   UNL A   1      41.758  19.274  26.135  1.00  0.00     0.251 C 
ATOM     26  H   UNL A   1      39.931  18.434  26.231  1.00  0.00     0.163 HD
ATOM     27  O   UNL A   1      42.376  18.246  25.925  1.00  0.00    -0.269 OA
BRANCH  25  28
ATOM     28  C   UNL A   1      42.453  20.548  26.383  1.00  0.00     0.039 A 
ATOM     29  C   UNL A   1      42.831  21.357  25.313  1.00  0.00     0.014 A 
ATOM     30  C   UNL A   1      42.610  20.973  27.705  1.00  0.00     0.014 A 
ATOM     31  C   UNL A   1      43.313  22.638  25.575  1.00  0.00     0.010 A 
ATOM     32  C   UNL A   1      42.956  22.286  27.952  1.00  0.00     0.010 A 
ATOM     33  C   UNL A   1      43.339  23.123  26.894  1.00  0.00    -0.014 A 
BRANCH  33  34
ATOM     34  C   UNL A   1      43.818  24.484  27.227  1.00  0.00     0.031 A 
ATOM     35  C   UNL A   1      42.820  25.504  27.706  1.00  0.00     0.074 A 
ATOM     36  C   UNL A   1      45.098  24.828  26.995  1.00  0.00     0.049 A 
ATOM     37  N   UNL A   1      42.972  26.789  27.894  1.00  0.00    -0.248 NA
ATOM     38  C   UNL A   1      41.450  25.021  27.950  1.00  0.00     0.031 C 
ATOM     39  C   UNL A   1      46.135  23.941  26.465  1.00  0.00     0.029 A 
ATOM     40  N   UNL A   1      45.739  26.029  27.157  1.00  0.00    -0.354 N 
ATOM     41  C   UNL A   1      41.712  27.266  28.232  1.00  0.00     0.074 A 
ATOM     42  C   UNL A   1      40.796  26.152  28.154  1.00  0.00     0.031 C 
ATOM     43  C   UNL A   1      47.290  24.621  26.373  1.00  0.00     0.029 A 
ATOM     44  C   UNL A   1      47.063  26.000  26.795  1.00  0.00     0.049 A 
ATOM     45  H   UNL A   1      45.292  26.836  27.500  1.00  0.00     0.167 HD
ATOM     46  C   UNL A   1      41.358  28.517  28.607  1.00  0.00     0.037 A 
ATOM     47  C   UNL A   1      47.984  26.981  26.800  1.00  0.00     0.037 A 
ATOM     48  C   UNL A   1      42.292  29.599  28.743  1.00  0.00     0.049 A 
ATOM     49  C   UNL A   1      47.579  28.353  27.270  1.00  0.00     0.074 A 
ATOM     50  C   UNL A   1      42.065  30.883  29.199  1.00  0.00     0.029 A 
ATOM     51  N   UNL A   1      43.641  29.514  28.429  1.00  0.00    -0.354 N 
ATOM     52  N   UNL A   1      46.401  28.780  27.657  1.00  0.00    -0.248 NA
ATOM     53  C   UNL A   1      48.632  29.376  27.311  1.00  0.00     0.031 C 
ATOM     54  C   UNL A   1      43.271  31.589  29.127  1.00  0.00     0.029 A 
ATOM     55  C   UNL A   1      44.258  30.729  28.671  1.00  0.00     0.049 A 
ATOM     56  H   UNL A   1      44.093  28.710  28.086  1.00  0.00     0.167 HD
ATOM     57  C   UNL A   1      46.575  30.109  28.015  1.00  0.00     0.074 A 
ATOM     58  C   UNL A   1      47.976  30.415  27.811  1.00  0.00     0.031 C 
ATOM     59  C   UNL A   1      45.660  30.998  28.475  1.00  0.00     0.037 A 
BRANCH  46  60
ATOM     60  C   UNL A   1      39.910  28.765  28.911  1.00  0.00     0.064 A 
ATOM     61  C   UNL A   1      39.380  28.571  30.196  1.00  0.00     0.173 A 
ATOM     62  C   UNL A   1      39.039  29.211  27.905  1.00  0.00     0.173 A 
ATOM     63  F   UNL A   1      40.165  28.130  31.191  1.00  0.00    -0.203 F 
ATOM     64  C   UNL A   1      38.027  28.777  30.455  1.00  0.00     0.198 A 
ATOM     65  C   UNL A   1      37.694  29.449  28.175  1.00  0.00     0.198 A 
ATOM     66  F   UNL A   1      39.491  29.414  26.659  1.00  0.00    -0.203 F 
ATOM     67  F   UNL A   1      37.534  28.523  31.675  1.00  0.00    -0.200 F 
ATOM     68  C   UNL A   1      37.187  29.222  29.446  1.00  0.00     0.200 A 
ATOM     69  F   UNL A   1      36.885  29.891  27.202  1.00  0.00    -0.200 F 
ATOM     70  F   UNL A   1      35.887  29.423  29.697  1.00  0.00    -0.200 F 
ENDBRANCH  46  60
BRANCH  47  71
ATOM     71  C   UNL A   1      49.382  26.692  26.388  1.00  0.00     0.064 A 
ATOM     72  C   UNL A   1      49.790  26.882  25.060  1.00  0.00     0.173 A 
ATOM     73  C   UNL A   1      50.339  26.235  27.305  1.00  0.00     0.173 A 
ATOM     74  F   UNL A   1      48.907  27.304  24.143  1.00  0.00    -0.203 F 
ATOM     75  C   UNL A   1      51.096  26.607  24.661  1.00  0.00     0.198 A 
ATOM     76  C   UNL A   1      51.652  25.985  26.910  1.00  0.00     0.198 A 
ATOM     77  F   UNL A   1      50.002  26.048  28.589  1.00  0.00    -0.203 F 
ATOM     78  F   UNL A   1      51.448  26.759  23.376  1.00  0.00    -0.200 F 
ATOM     79  C   UNL A   1      52.028  26.164  25.587  1.00  0.00     0.200 A 
ATOM     80  F   UNL A   1      52.554  25.574  27.812  1.00  0.00    -0.200 F 
ATOM     81  F   UNL A   1      53.285  25.906  25.204  1.00  0.00    -0.200 F 
ENDBRANCH  47  71
BRANCH  59  82
ATOM     82  C   UNL A   1      46.151  32.370  28.829  1.00  0.00     0.064 A 
ATOM     83  C   UNL A   1      46.649  32.667  30.105  1.00  0.00     0.173 A 
ATOM     84  C   UNL A   1      46.177  33.382  27.857  1.00  0.00     0.173 A 
ATOM     85  F   UNL A   1      46.633  31.735  31.070  1.00  0.00    -0.203 F 
ATOM     86  C   UNL A   1      47.137  33.936  30.402  1.00  0.00     0.198 A 
ATOM     87  C   UNL A   1      46.693  34.640  28.149  1.00  0.00     0.198 A 
ATOM     88  F   UNL A   1      45.719  33.143  26.619  1.00  0.00    -0.203 F 
ATOM     89  F   UNL A   1      47.570  34.212  31.639  1.00  0.00    -0.200 F 
ATOM     90  C   UNL A   1      47.166  34.918  29.422  1.00  0.00     0.200 A 
ATOM     91  F   UNL A   1      46.734  35.583  27.198  1.00  0.00    -0.200 F 
ATOM     92  F   UNL A   1      47.647  36.136  29.707  1.00  0.00    -0.200 F 
ENDBRANCH  59  82
ENDBRANCH  33  34
ENDBRANCH  25  28
ENDBRANCH  23  24
ENDBRANCH  22  23
ENDBRANCH   1  22
TORSDOF 14
ENDMDL
