MODEL 1
REMARK VINA RESULT:     -13.2      0.000      0.000
REMARK SMILES O=C(C[C@@H]([NH2+]Cc1cccnc1)C(=O)NCCCNC(=O)c1ccc(-c2c3nc(c(-c4c(F)c(F)c(F)c(F)c4F)c4ccc([nH]4)c(-c4c(F)c(F)c(F)c(F)c4F)c4nc(c(-c5c(F)c(F)c(F)c(F)c5F)c5ccc2[nH]5)C=C4)C=C3)cc1)Nc1ccc2ccccc2c1
REMARK SMILES IDX 16 1 15 2 13 3 14 4 4 6 3 7 2 8 1 9 85 10 86 12 87 13 95 14
REMARK SMILES IDX 88 15 94 16 89 17 93 18 90 19 92 20 91 21 5 22 6 25 7 26
REMARK SMILES IDX 8 27 12 28 9 29 11 30 10 31 17 32 18 33 19 34 20 35 21 37
REMARK SMILES IDX 22 38 23 39 84 40 24 41 83 42 25 43 26 44 27 45 77 46 28 47
REMARK SMILES IDX 82 48 76 49 78 50 29 51 81 52 75 53 74 54 30 56 62 57 42 58
REMARK SMILES IDX 61 59 43 60 46 61 60 62 79 63 44 64 45 65 59 67 80 68 47 69
REMARK SMILES IDX 31 70 32 71 40 72 33 73 34 74 38 75 41 76 35 77 36 78 39 79
REMARK SMILES IDX 37 80 63 81 64 82 72 83 65 84 66 85 70 86 73 87 67 88 68 89
REMARK SMILES IDX 71 90 69 91 48 92 49 93 57 94 50 95 51 96 55 97 58 98 52 99
REMARK SMILES IDX 53 100 56 101 54 102
REMARK H PARENT 15 5 85 11 5 23 5 24 19 36 78 55 46 66
REMARK Flexibility Score: inf
ROOT
ATOM      1  C   UNL A   1      31.587  30.796  25.978  1.00  0.00     0.118 C 
ENDROOT
BRANCH   1   2
ATOM      2  N   UNL A   1      31.529  29.810  27.043  1.00  0.00    -0.351 N 
ATOM      3  C   UNL A   1      31.750  28.465  27.013  1.00  0.00     0.278 C 
ATOM      4  O   UNL A   1      31.636  27.848  28.075  1.00  0.00    -0.268 OA
ATOM      5  H   UNL A   1      31.295  30.172  27.929  1.00  0.00     0.163 HD
BRANCH   3   6
ATOM      6  C   UNL A   1      32.170  27.744  25.716  1.00  0.00     0.282 C 
BRANCH   6   7
ATOM      7  C   UNL A   1      33.302  26.737  26.018  1.00  0.00     0.175 C 
BRANCH   7   8
ATOM      8  C   UNL A   1      32.907  25.282  25.848  1.00  0.00     0.230 C 
ATOM      9  O   UNL A   1      32.052  24.757  26.552  1.00  0.00    -0.274 OA
ATOM     10  N   UNL A   1      33.639  24.650  24.852  1.00  0.00    -0.326 N 
ATOM     11  H   UNL A   1      34.115  25.203  24.191  1.00  0.00     0.169 HD
BRANCH  10  12
ATOM     12  C   UNL A   1      33.728  23.253  24.753  1.00  0.00     0.041 A 
ATOM     13  C   UNL A   1      34.797  22.634  25.398  1.00  0.00     0.027 A 
ATOM     14  C   UNL A   1      32.809  22.492  24.036  1.00  0.00     0.034 A 
ATOM     15  C   UNL A   1      34.874  21.247  25.452  1.00  0.00     0.011 A 
ATOM     16  C   UNL A   1      32.971  21.094  23.949  1.00  0.00    -0.016 A 
ATOM     17  C   UNL A   1      33.974  20.465  24.725  1.00  0.00    -0.018 A 
ATOM     18  C   UNL A   1      32.189  20.299  23.095  1.00  0.00     0.009 A 
ATOM     19  C   UNL A   1      34.086  19.069  24.728  1.00  0.00     0.009 A 
ATOM     20  C   UNL A   1      32.374  18.914  23.039  1.00  0.00     0.001 A 
ATOM     21  C   UNL A   1      33.296  18.297  23.880  1.00  0.00     0.001 A 
ENDBRANCH  10  12
ENDBRANCH   7   8
ENDBRANCH   6   7
BRANCH   6  22
ATOM     22  N   UNL A   1      30.994  27.130  25.024  1.00  0.00    -0.332 N 
ATOM     23  H   UNL A   1      30.149  27.591  25.361  1.00  0.00     0.347 HD
ATOM     24  H   UNL A   1      31.018  26.133  25.239  1.00  0.00     0.347 HD
BRANCH  22  25
ATOM     25  C   UNL A   1      31.024  27.242  23.551  1.00  0.00     0.299 C 
BRANCH  25  26
ATOM     26  C   UNL A   1      29.967  28.155  22.994  1.00  0.00     0.024 A 
ATOM     27  C   UNL A   1      28.623  28.012  23.342  1.00  0.00     0.013 A 
ATOM     28  C   UNL A   1      30.287  29.183  22.111  1.00  0.00     0.120 A 
ATOM     29  C   UNL A   1      27.682  28.904  22.834  1.00  0.00     0.021 A 
ATOM     30  N   UNL A   1      29.399  30.068  21.610  1.00  0.00    -0.264 NA
ATOM     31  C   UNL A   1      28.116  29.914  21.992  1.00  0.00     0.111 A 
ENDBRANCH  25  26
ENDBRANCH  22  25
ENDBRANCH   6  22
ENDBRANCH   3   6
ENDBRANCH   1   2
BRANCH   1  32
ATOM     32  C   UNL A   1      31.367  32.205  26.519  1.00  0.00     0.042 C 
BRANCH  32  33
ATOM     33  C   UNL A   1      32.578  32.769  27.251  1.00  0.00     0.118 C 
BRANCH  33  34
ATOM     34  N   UNL A   1      32.398  34.163  27.626  1.00  0.00    -0.352 N 
ATOM     35  C   UNL A   1      33.001  34.896  28.617  1.00  0.00     0.251 C 
ATOM     36  H   UNL A   1      31.740  34.657  27.086  1.00  0.00     0.163 HD
ATOM     37  O   UNL A   1      32.560  36.000  28.911  1.00  0.00    -0.269 OA
BRANCH  35  38
ATOM     38  C   UNL A   1      34.171  34.353  29.341  1.00  0.00     0.039 A 
ATOM     39  C   UNL A   1      33.962  33.684  30.550  1.00  0.00     0.014 A 
ATOM     40  C   UNL A   1      35.468  34.519  28.850  1.00  0.00     0.014 A 
ATOM     41  C   UNL A   1      35.047  33.131  31.233  1.00  0.00     0.010 A 
ATOM     42  C   UNL A   1      36.536  33.891  29.482  1.00  0.00     0.010 A 
ATOM     43  C   UNL A   1      36.338  33.197  30.685  1.00  0.00    -0.014 A 
BRANCH  43  44
ATOM     44  C   UNL A   1      37.493  32.553  31.360  1.00  0.00     0.031 A 
ATOM     45  C   UNL A   1      38.224  31.419  30.693  1.00  0.00     0.074 A 
ATOM     46  C   UNL A   1      37.851  32.953  32.595  1.00  0.00     0.049 A 
ATOM     47  N   UNL A   1      39.223  30.701  31.140  1.00  0.00    -0.248 NA
ATOM     48  C   UNL A   1      37.751  31.023  29.357  1.00  0.00     0.031 C 
ATOM     49  C   UNL A   1      37.198  34.014  33.362  1.00  0.00     0.029 A 
ATOM     50  N   UNL A   1      38.852  32.512  33.424  1.00  0.00    -0.354 N 
ATOM     51  C   UNL A   1      39.491  29.767  30.146  1.00  0.00     0.074 A 
ATOM     52  C   UNL A   1      38.507  29.966  29.105  1.00  0.00     0.031 C 
ATOM     53  C   UNL A   1      37.835  34.167  34.531  1.00  0.00     0.029 A 
ATOM     54  C   UNL A   1      38.913  33.187  34.619  1.00  0.00     0.049 A 
ATOM     55  H   UNL A   1      39.468  31.781  33.185  1.00  0.00     0.167 HD
ATOM     56  C   UNL A   1      40.486  28.849  30.092  1.00  0.00     0.037 A 
ATOM     57  C   UNL A   1      39.744  33.029  35.666  1.00  0.00     0.037 A 
ATOM     58  C   UNL A   1      41.467  28.659  31.129  1.00  0.00     0.049 A 
ATOM     59  C   UNL A   1      40.812  31.971  35.601  1.00  0.00     0.074 A 
ATOM     60  C   UNL A   1      42.538  27.784  31.156  1.00  0.00     0.029 A 
ATOM     61  N   UNL A   1      41.489  29.353  32.331  1.00  0.00    -0.354 N 
ATOM     62  N   UNL A   1      41.100  31.140  34.628  1.00  0.00    -0.248 NA
ATOM     63  C   UNL A   1      41.675  31.834  36.781  1.00  0.00     0.031 C 
ATOM     64  C   UNL A   1      43.174  27.908  32.396  1.00  0.00     0.029 A 
ATOM     65  C   UNL A   1      42.540  28.907  33.117  1.00  0.00     0.049 A 
ATOM     66  H   UNL A   1      40.852  30.060  32.587  1.00  0.00     0.167 HD
ATOM     67  C   UNL A   1      42.196  30.408  35.063  1.00  0.00     0.074 A 
ATOM     68  C   UNL A   1      42.531  30.904  36.382  1.00  0.00     0.031 C 
ATOM     69  C   UNL A   1      42.866  29.416  34.426  1.00  0.00     0.037 A 
BRANCH  56  70
ATOM     70  C   UNL A   1      40.555  27.977  28.868  1.00  0.00     0.064 A 
ATOM     71  C   UNL A   1      41.326  28.334  27.751  1.00  0.00     0.173 A 
ATOM     72  C   UNL A   1      39.850  26.766  28.814  1.00  0.00     0.173 A 
ATOM     73  F   UNL A   1      42.013  29.487  27.745  1.00  0.00    -0.203 F 
ATOM     74  C   UNL A   1      41.355  27.534  26.611  1.00  0.00     0.198 A 
ATOM     75  C   UNL A   1      39.910  25.949  27.687  1.00  0.00     0.198 A 
ATOM     76  F   UNL A   1      39.101  26.369  29.854  1.00  0.00    -0.203 F 
ATOM     77  F   UNL A   1      42.046  27.931  25.534  1.00  0.00    -0.200 F 
ATOM     78  C   UNL A   1      40.652  26.340  26.583  1.00  0.00     0.200 A 
ATOM     79  F   UNL A   1      39.243  24.787  27.666  1.00  0.00    -0.200 F 
ATOM     80  F   UNL A   1      40.681  25.570  25.486  1.00  0.00    -0.200 F 
ENDBRANCH  56  70
BRANCH  57  81
ATOM     81  C   UNL A   1      39.623  33.918  36.852  1.00  0.00     0.064 A 
ATOM     82  C   UNL A   1      38.848  33.536  37.956  1.00  0.00     0.173 A 
ATOM     83  C   UNL A   1      40.269  35.161  36.908  1.00  0.00     0.173 A 
ATOM     84  F   UNL A   1      38.195  32.364  37.942  1.00  0.00    -0.203 F 
ATOM     85  C   UNL A   1      38.705  34.373  39.060  1.00  0.00     0.198 A 
ATOM     86  C   UNL A   1      40.150  35.984  38.026  1.00  0.00     0.198 A 
ATOM     87  F   UNL A   1      41.028  35.571  35.881  1.00  0.00    -0.203 F 
ATOM     88  F   UNL A   1      37.918  34.004  40.080  1.00  0.00    -0.200 F 
ATOM     89  C   UNL A   1      39.361  35.594  39.097  1.00  0.00     0.200 A 
ATOM     90  F   UNL A   1      40.799  37.155  38.065  1.00  0.00    -0.200 F 
ATOM     91  F   UNL A   1      39.226  36.396  40.161  1.00  0.00    -0.200 F 
ENDBRANCH  57  81
BRANCH  69  92
ATOM     92  C   UNL A   1      44.059  28.830  35.129  1.00  0.00     0.064 A 
ATOM     93  C   UNL A   1      43.950  27.711  35.967  1.00  0.00     0.173 A 
ATOM     94  C   UNL A   1      45.335  29.382  34.936  1.00  0.00     0.173 A 
ATOM     95  F   UNL A   1      42.751  27.154  36.198  1.00  0.00    -0.203 F 
ATOM     96  C   UNL A   1      45.068  27.187  36.612  1.00  0.00     0.198 A 
ATOM     97  C   UNL A   1      46.455  28.834  35.553  1.00  0.00     0.198 A 
ATOM     98  F   UNL A   1      45.498  30.449  34.139  1.00  0.00    -0.203 F 
ATOM     99  F   UNL A   1      44.931  26.153  37.454  1.00  0.00    -0.200 F 
ATOM    100  C   UNL A   1      46.320  27.744  36.398  1.00  0.00     0.200 A 
ATOM    101  F   UNL A   1      47.666  29.363  35.332  1.00  0.00    -0.200 F 
ATOM    102  F   UNL A   1      47.396  27.234  37.014  1.00  0.00    -0.200 F 
ENDBRANCH  69  92
ENDBRANCH  43  44
ENDBRANCH  35  38
ENDBRANCH  33  34
ENDBRANCH  32  33
ENDBRANCH   1  32
TORSDOF 16
ENDMDL
MODEL 2
REMARK VINA RESULT:     -13.1      0.735      7.027
REMARK SMILES O=C(C[C@@H]([NH2+]Cc1cccnc1)C(=O)NCCCNC(=O)c1ccc(-c2c3nc(c(-c4c(F)c(F)c(F)c(F)c4F)c4ccc([nH]4)c(-c4c(F)c(F)c(F)c(F)c4F)c4nc(c(-c5c(F)c(F)c(F)c(F)c5F)c5ccc2[nH]5)C=C4)C=C3)cc1)Nc1ccc2ccccc2c1
REMARK SMILES IDX 16 1 15 2 13 3 14 4 4 6 3 7 2 8 1 9 85 10 86 12 87 13 95 14
REMARK SMILES IDX 88 15 94 16 89 17 93 18 90 19 92 20 91 21 5 22 6 25 7 26
REMARK SMILES IDX 8 27 12 28 9 29 11 30 10 31 17 32 18 33 19 34 20 35 21 37
REMARK SMILES IDX 22 38 23 39 84 40 24 41 83 42 25 43 26 44 27 45 77 46 28 47
REMARK SMILES IDX 82 48 76 49 78 50 29 51 81 52 75 53 74 54 30 56 62 57 42 58
REMARK SMILES IDX 61 59 43 60 46 61 60 62 79 63 44 64 45 65 59 67 80 68 47 69
REMARK SMILES IDX 31 70 32 71 40 72 33 73 34 74 38 75 41 76 35 77 36 78 39 79
REMARK SMILES IDX 37 80 63 81 64 82 72 83 65 84 66 85 70 86 73 87 67 88 68 89
REMARK SMILES IDX 71 90 69 91 48 92 49 93 57 94 50 95 51 96 55 97 58 98 52 99
REMARK SMILES IDX 53 100 56 101 54 102
REMARK H PARENT 15 5 85 11 5 23 5 24 19 36 78 55 46 66
REMARK Flexibility Score: inf
ROOT
ATOM      1  C   UNL A   1      31.484  30.685  25.965  1.00  0.00     0.118 C 
ENDROOT
BRANCH   1   2
ATOM      2  N   UNL A   1      31.485  29.749  27.076  1.00  0.00    -0.351 N 
ATOM      3  C   UNL A   1      31.678  28.400  27.092  1.00  0.00     0.278 C 
ATOM      4  O   UNL A   1      31.628  27.833  28.186  1.00  0.00    -0.268 OA
ATOM      5  H   UNL A   1      31.320  30.154  27.958  1.00  0.00     0.163 HD
BRANCH   3   6
ATOM      6  C   UNL A   1      31.992  27.613  25.804  1.00  0.00     0.282 C 
BRANCH   6   7
ATOM      7  C   UNL A   1      33.044  26.520  26.097  1.00  0.00     0.175 C 
BRANCH   7   8
ATOM      8  C   UNL A   1      32.503  25.103  26.059  1.00  0.00     0.230 C 
ATOM      9  O   UNL A   1      31.617  24.729  26.819  1.00  0.00    -0.274 OA
ATOM     10  N   UNL A   1      33.146  24.320  25.112  1.00  0.00    -0.326 N 
ATOM     11  H   UNL A   1      33.659  24.764  24.399  1.00  0.00     0.169 HD
BRANCH  10  12
ATOM     12  C   UNL A   1      33.094  22.917  25.133  1.00  0.00     0.041 A 
ATOM     13  C   UNL A   1      33.579  22.277  26.272  1.00  0.00     0.027 A 
ATOM     14  C   UNL A   1      32.599  22.169  24.068  1.00  0.00     0.034 A 
ATOM     15  C   UNL A   1      33.438  20.901  26.415  1.00  0.00     0.011 A 
ATOM     16  C   UNL A   1      32.603  20.761  24.138  1.00  0.00    -0.016 A 
ATOM     17  C   UNL A   1      32.961  20.130  25.353  1.00  0.00    -0.018 A 
ATOM     18  C   UNL A   1      32.289  19.953  23.032  1.00  0.00     0.009 A 
ATOM     19  C   UNL A   1      32.875  18.737  25.473  1.00  0.00     0.009 A 
ATOM     20  C   UNL A   1      32.298  18.559  23.141  1.00  0.00     0.001 A 
ATOM     21  C   UNL A   1      32.555  17.954  24.368  1.00  0.00     0.001 A 
ENDBRANCH  10  12
ENDBRANCH   7   8
ENDBRANCH   6   7
BRANCH   6  22
ATOM     22  N   UNL A   1      30.745  27.083  25.166  1.00  0.00    -0.332 N 
ATOM     23  H   UNL A   1      29.961  27.659  25.473  1.00  0.00     0.347 HD
ATOM     24  H   UNL A   1      30.662  26.109  25.456  1.00  0.00     0.347 HD
BRANCH  22  25
ATOM     25  C   UNL A   1      30.766  27.082  23.689  1.00  0.00     0.299 C 
BRANCH  25  26
ATOM     26  C   UNL A   1      29.806  28.059  23.071  1.00  0.00     0.024 A 
ATOM     27  C   UNL A   1      28.437  28.008  23.342  1.00  0.00     0.013 A 
ATOM     28  C   UNL A   1      30.243  29.059  22.206  1.00  0.00     0.120 A 
ATOM     29  C   UNL A   1      27.588  28.958  22.780  1.00  0.00     0.021 A 
ATOM     30  N   UNL A   1      29.446  29.999  21.655  1.00  0.00    -0.264 NA
ATOM     31  C   UNL A   1      28.135  29.932  21.963  1.00  0.00     0.111 A 
ENDBRANCH  25  26
ENDBRANCH  22  25
ENDBRANCH   6  22
ENDBRANCH   3   6
ENDBRANCH   1   2
BRANCH   1  32
ATOM     32  C   UNL A   1      31.370  32.124  26.457  1.00  0.00     0.042 C 
BRANCH  32  33
ATOM     33  C   UNL A   1      32.638  32.638  27.125  1.00  0.00     0.118 C 
BRANCH  33  34
ATOM     34  N   UNL A   1      32.504  34.015  27.579  1.00  0.00    -0.352 N 
ATOM     35  C   UNL A   1      33.144  34.674  28.599  1.00  0.00     0.251 C 
ATOM     36  H   UNL A   1      31.854  34.556  27.078  1.00  0.00     0.163 HD
ATOM     37  O   UNL A   1      32.739  35.773  28.960  1.00  0.00    -0.269 OA
BRANCH  35  38
ATOM     38  C   UNL A   1      34.307  34.058  29.273  1.00  0.00     0.039 A 
ATOM     39  C   UNL A   1      34.081  33.071  30.237  1.00  0.00     0.014 A 
ATOM     40  C   UNL A   1      35.612  34.463  28.981  1.00  0.00     0.014 A 
ATOM     41  C   UNL A   1      35.165  32.450  30.860  1.00  0.00     0.010 A 
ATOM     42  C   UNL A   1      36.691  33.782  29.534  1.00  0.00     0.010 A 
ATOM     43  C   UNL A   1      36.480  32.774  30.486  1.00  0.00    -0.014 A 
BRANCH  43  44
ATOM     44  C   UNL A   1      37.644  32.073  31.084  1.00  0.00     0.031 A 
ATOM     45  C   UNL A   1      38.110  32.425  32.471  1.00  0.00     0.074 A 
ATOM     46  C   UNL A   1      38.314  31.157  30.359  1.00  0.00     0.049 A 
ATOM     47  N   UNL A   1      39.131  31.959  33.145  1.00  0.00    -0.248 NA
ATOM     48  C   UNL A   1      37.341  33.457  33.184  1.00  0.00     0.031 C 
ATOM     49  C   UNL A   1      37.984  30.758  28.991  1.00  0.00     0.029 A 
ATOM     50  N   UNL A   1      39.413  30.398  30.671  1.00  0.00    -0.354 N 
ATOM     51  C   UNL A   1      39.130  32.644  34.354  1.00  0.00     0.074 A 
ATOM     52  C   UNL A   1      38.050  33.605  34.292  1.00  0.00     0.031 C 
ATOM     53  C   UNL A   1      38.838  29.802  28.594  1.00  0.00     0.029 A 
ATOM     54  C   UNL A   1      39.804  29.553  29.661  1.00  0.00     0.049 A 
ATOM     55  H   UNL A   1      39.879  30.453  31.537  1.00  0.00     0.167 HD
ATOM     56  C   UNL A   1      39.936  32.468  35.428  1.00  0.00     0.037 A 
ATOM     57  C   UNL A   1      40.826  28.680  29.602  1.00  0.00     0.037 A 
ATOM     58  C   UNL A   1      41.005  31.506  35.486  1.00  0.00     0.049 A 
ATOM     59  C   UNL A   1      41.735  28.536  30.792  1.00  0.00     0.074 A 
ATOM     60  C   UNL A   1      41.856  31.221  36.540  1.00  0.00     0.029 A 
ATOM     61  N   UNL A   1      41.379  30.676  34.437  1.00  0.00    -0.354 N 
ATOM     62  N   UNL A   1      41.683  29.139  31.955  1.00  0.00    -0.248 NA
ATOM     63  C   UNL A   1      42.843  27.581  30.661  1.00  0.00     0.031 C 
ATOM     64  C   UNL A   1      42.779  30.260  36.110  1.00  0.00     0.029 A 
ATOM     65  C   UNL A   1      42.464  29.898  34.811  1.00  0.00     0.049 A 
ATOM     66  H   UNL A   1      40.937  30.645  33.557  1.00  0.00     0.167 HD
ATOM     67  C   UNL A   1      42.727  28.614  32.704  1.00  0.00     0.074 A 
ATOM     68  C   UNL A   1      43.386  27.631  31.869  1.00  0.00     0.031 C 
ATOM     69  C   UNL A   1      43.105  28.917  33.971  1.00  0.00     0.037 A 
BRANCH  56  70
ATOM     70  C   UNL A   1      39.689  33.342  36.627  1.00  0.00     0.064 A 
ATOM     71  C   UNL A   1      40.366  34.559  36.804  1.00  0.00     0.173 A 
ATOM     72  C   UNL A   1      38.758  32.965  37.607  1.00  0.00     0.173 A 
ATOM     73  F   UNL A   1      41.274  34.964  35.903  1.00  0.00    -0.203 F 
ATOM     74  C   UNL A   1      40.152  35.343  37.935  1.00  0.00     0.198 A 
ATOM     75  C   UNL A   1      38.519  33.769  38.718  1.00  0.00     0.198 A 
ATOM     76  F   UNL A   1      38.075  31.816  37.487  1.00  0.00    -0.203 F 
ATOM     77  F   UNL A   1      40.860  36.467  38.112  1.00  0.00    -0.200 F 
ATOM     78  C   UNL A   1      39.225  34.951  38.888  1.00  0.00     0.200 A 
ATOM     79  F   UNL A   1      37.611  33.397  39.631  1.00  0.00    -0.200 F 
ATOM     80  F   UNL A   1      39.019  35.706  39.975  1.00  0.00    -0.200 F 
ENDBRANCH  56  70
BRANCH  57  81
ATOM     81  C   UNL A   1      41.024  27.846  28.386  1.00  0.00     0.064 A 
ATOM     82  C   UNL A   1      40.389  26.602  28.261  1.00  0.00     0.173 A 
ATOM     83  C   UNL A   1      41.848  28.267  27.333  1.00  0.00     0.173 A 
ATOM     84  F   UNL A   1      39.606  26.148  29.251  1.00  0.00    -0.203 F 
ATOM     85  C   UNL A   1      40.590  25.801  27.139  1.00  0.00     0.198 A 
ATOM     86  C   UNL A   1      42.023  27.478  26.197  1.00  0.00     0.198 A 
ATOM     87  F   UNL A   1      42.472  29.452  27.399  1.00  0.00    -0.203 F 
ATOM     88  F   UNL A   1      40.011  24.594  27.069  1.00  0.00    -0.200 F 
ATOM     89  C   UNL A   1      41.401  26.242  26.105  1.00  0.00     0.200 A 
ATOM     90  F   UNL A   1      42.794  27.915  25.193  1.00  0.00    -0.200 F 
ATOM     91  F   UNL A   1      41.591  25.472  25.025  1.00  0.00    -0.200 F 
ENDBRANCH  57  81
BRANCH  69  92
ATOM     92  C   UNL A   1      44.256  28.144  34.549  1.00  0.00     0.064 A 
ATOM     93  C   UNL A   1      44.072  26.919  35.208  1.00  0.00     0.173 A 
ATOM     94  C   UNL A   1      45.569  28.625  34.417  1.00  0.00     0.173 A 
ATOM     95  F   UNL A   1      42.837  26.422  35.376  1.00  0.00    -0.203 F 
ATOM     96  C   UNL A   1      45.153  26.222  35.741  1.00  0.00     0.198 A 
ATOM     97  C   UNL A   1      46.650  27.908  34.919  1.00  0.00     0.198 A 
ATOM     98  F   UNL A   1      45.803  29.787  33.791  1.00  0.00    -0.203 F 
ATOM     99  F   UNL A   1      44.946  25.083  36.417  1.00  0.00    -0.200 F 
ATOM    100  C   UNL A   1      46.442  26.712  35.589  1.00  0.00     0.200 A 
ATOM    101  F   UNL A   1      47.895  28.375  34.756  1.00  0.00    -0.200 F 
ATOM    102  F   UNL A   1      47.481  26.037  36.097  1.00  0.00    -0.200 F 
ENDBRANCH  69  92
ENDBRANCH  43  44
ENDBRANCH  35  38
ENDBRANCH  33  34
ENDBRANCH  32  33
ENDBRANCH   1  32
TORSDOF 16
ENDMDL
MODEL 3
REMARK VINA RESULT:     -13.0      5.371     11.232
REMARK SMILES O=C(C[C@@H]([NH2+]Cc1cccnc1)C(=O)NCCCNC(=O)c1ccc(-c2c3nc(c(-c4c(F)c(F)c(F)c(F)c4F)c4ccc([nH]4)c(-c4c(F)c(F)c(F)c(F)c4F)c4nc(c(-c5c(F)c(F)c(F)c(F)c5F)c5ccc2[nH]5)C=C4)C=C3)cc1)Nc1ccc2ccccc2c1
REMARK SMILES IDX 16 1 15 2 13 3 14 4 4 6 3 7 2 8 1 9 85 10 86 12 87 13 95 14
REMARK SMILES IDX 88 15 94 16 89 17 93 18 90 19 92 20 91 21 5 22 6 25 7 26
REMARK SMILES IDX 8 27 12 28 9 29 11 30 10 31 17 32 18 33 19 34 20 35 21 37
REMARK SMILES IDX 22 38 23 39 84 40 24 41 83 42 25 43 26 44 27 45 77 46 28 47
REMARK SMILES IDX 82 48 76 49 78 50 29 51 81 52 75 53 74 54 30 56 62 57 42 58
REMARK SMILES IDX 61 59 43 60 46 61 60 62 79 63 44 64 45 65 59 67 80 68 47 69
REMARK SMILES IDX 31 70 32 71 40 72 33 73 34 74 38 75 41 76 35 77 36 78 39 79
REMARK SMILES IDX 37 80 63 81 64 82 72 83 65 84 66 85 70 86 73 87 67 88 68 89
REMARK SMILES IDX 71 90 69 91 48 92 49 93 57 94 50 95 51 96 55 97 58 98 52 99
REMARK SMILES IDX 53 100 56 101 54 102
REMARK H PARENT 15 5 85 11 5 23 5 24 19 36 78 55 46 66
REMARK Flexibility Score: inf
ROOT
ATOM      1  C   UNL A   1      36.741  20.504  24.993  1.00  0.00     0.118 C 
ENDROOT
BRANCH   1   2
ATOM      2  N   UNL A   1      36.920  21.562  24.014  1.00  0.00    -0.351 N 
ATOM      3  C   UNL A   1      36.093  22.588  23.664  1.00  0.00     0.278 C 
ATOM      4  O   UNL A   1      36.490  23.362  22.790  1.00  0.00    -0.268 OA
ATOM      5  H   UNL A   1      37.775  21.534  23.527  1.00  0.00     0.163 HD
BRANCH   3   6
ATOM      6  C   UNL A   1      34.735  22.805  24.360  1.00  0.00     0.282 C 
BRANCH   6   7
ATOM      7  C   UNL A   1      34.606  24.276  24.815  1.00  0.00     0.175 C 
BRANCH   7   8
ATOM      8  C   UNL A   1      33.578  25.082  24.043  1.00  0.00     0.230 C 
ATOM      9  O   UNL A   1      33.670  25.259  22.834  1.00  0.00    -0.274 OA
ATOM     10  N   UNL A   1      32.585  25.594  24.866  1.00  0.00    -0.326 N 
ATOM     11  H   UNL A   1      32.462  25.202  25.760  1.00  0.00     0.169 HD
BRANCH  10  12
ATOM     12  C   UNL A   1      31.750  26.652  24.471  1.00  0.00     0.041 A 
ATOM     13  C   UNL A   1      32.289  27.937  24.506  1.00  0.00     0.027 A 
ATOM     14  C   UNL A   1      30.431  26.457  24.071  1.00  0.00     0.034 A 
ATOM     15  C   UNL A   1      31.563  29.013  24.005  1.00  0.00     0.011 A 
ATOM     16  C   UNL A   1      29.635  27.565  23.717  1.00  0.00    -0.016 A 
ATOM     17  C   UNL A   1      30.233  28.843  23.616  1.00  0.00    -0.018 A 
ATOM     18  C   UNL A   1      28.253  27.453  23.483  1.00  0.00     0.009 A 
ATOM     19  C   UNL A   1      29.482  29.937  23.169  1.00  0.00     0.009 A 
ATOM     20  C   UNL A   1      27.496  28.573  23.127  1.00  0.00     0.001 A 
ATOM     21  C   UNL A   1      28.116  29.805  22.936  1.00  0.00     0.001 A 
ENDBRANCH  10  12
ENDBRANCH   7   8
ENDBRANCH   6   7
BRANCH   6  22
ATOM     22  N   UNL A   1      33.598  22.345  23.501  1.00  0.00    -0.332 N 
ATOM     23  H   UNL A   1      33.966  21.693  22.809  1.00  0.00     0.347 HD
ATOM     24  H   UNL A   1      33.191  23.182  23.085  1.00  0.00     0.347 HD
BRANCH  22  25
ATOM     25  C   UNL A   1      32.509  21.670  24.237  1.00  0.00     0.299 C 
BRANCH  25  26
ATOM     26  C   UNL A   1      32.609  20.170  24.221  1.00  0.00     0.024 A 
ATOM     27  C   UNL A   1      32.378  19.436  23.057  1.00  0.00     0.013 A 
ATOM     28  C   UNL A   1      32.941  19.451  25.367  1.00  0.00     0.120 A 
ATOM     29  C   UNL A   1      32.520  18.051  23.076  1.00  0.00     0.021 A 
ATOM     30  N   UNL A   1      33.096  18.111  25.414  1.00  0.00    -0.264 NA
ATOM     31  C   UNL A   1      32.891  17.442  24.262  1.00  0.00     0.111 A 
ENDBRANCH  25  26
ENDBRANCH  22  25
ENDBRANCH   6  22
ENDBRANCH   3   6
ENDBRANCH   1   2
BRANCH   1  32
ATOM     32  C   UNL A   1      37.938  19.559  25.007  1.00  0.00     0.042 C 
BRANCH  32  33
ATOM     33  C   UNL A   1      39.144  20.119  25.750  1.00  0.00     0.118 C 
BRANCH  33  34
ATOM     34  N   UNL A   1      40.189  19.124  25.937  1.00  0.00    -0.352 N 
ATOM     35  C   UNL A   1      41.538  19.286  26.134  1.00  0.00     0.251 C 
ATOM     36  H   UNL A   1      39.882  18.189  25.918  1.00  0.00     0.163 HD
ATOM     37  O   UNL A   1      42.284  18.317  26.059  1.00  0.00    -0.269 OA
BRANCH  35  38
ATOM     38  C   UNL A   1      42.095  20.626  26.420  1.00  0.00     0.039 A 
ATOM     39  C   UNL A   1      42.489  21.434  25.350  1.00  0.00     0.014 A 
ATOM     40  C   UNL A   1      42.254  21.079  27.732  1.00  0.00     0.014 A 
ATOM     41  C   UNL A   1      42.983  22.716  25.594  1.00  0.00     0.010 A 
ATOM     42  C   UNL A   1      42.660  22.388  27.971  1.00  0.00     0.010 A 
ATOM     43  C   UNL A   1      43.038  23.218  26.905  1.00  0.00    -0.014 A 
BRANCH  43  44
ATOM     44  C   UNL A   1      43.492  24.604  27.179  1.00  0.00     0.031 A 
ATOM     45  C   UNL A   1      42.529  25.624  27.724  1.00  0.00     0.074 A 
ATOM     46  C   UNL A   1      44.757  24.960  26.888  1.00  0.00     0.049 A 
ATOM     47  N   UNL A   1      42.723  26.892  27.984  1.00  0.00    -0.248 NA
ATOM     48  C   UNL A   1      41.157  25.161  27.987  1.00  0.00     0.031 C 
ATOM     49  C   UNL A   1      45.774  24.075  26.319  1.00  0.00     0.029 A 
ATOM     50  N   UNL A   1      45.405  26.162  27.027  1.00  0.00    -0.354 N 
ATOM     51  C   UNL A   1      41.501  27.377  28.433  1.00  0.00     0.074 A 
ATOM     52  C   UNL A   1      40.556  26.286  28.344  1.00  0.00     0.031 C 
ATOM     53  C   UNL A   1      46.925  24.752  26.193  1.00  0.00     0.029 A 
ATOM     54  C   UNL A   1      46.718  26.130  26.627  1.00  0.00     0.049 A 
ATOM     55  H   UNL A   1      44.969  26.972  27.379  1.00  0.00     0.167 HD
ATOM     56  C   UNL A   1      41.201  28.611  28.904  1.00  0.00     0.037 A 
ATOM     57  C   UNL A   1      47.647  27.103  26.610  1.00  0.00     0.037 A 
ATOM     58  C   UNL A   1      42.148  29.692  28.996  1.00  0.00     0.049 A 
ATOM     59  C   UNL A   1      47.277  28.478  27.096  1.00  0.00     0.074 A 
ATOM     60  C   UNL A   1      41.956  30.969  29.494  1.00  0.00     0.029 A 
ATOM     61  N   UNL A   1      43.467  29.626  28.568  1.00  0.00    -0.354 N 
ATOM     62  N   UNL A   1      46.137  28.908  27.582  1.00  0.00    -0.248 NA
ATOM     63  C   UNL A   1      48.327  29.502  27.036  1.00  0.00     0.031 C 
ATOM     64  C   UNL A   1      43.142  31.691  29.316  1.00  0.00     0.029 A 
ATOM     65  C   UNL A   1      44.093  30.846  28.768  1.00  0.00     0.049 A 
ATOM     66  H   UNL A   1      43.895  28.828  28.181  1.00  0.00     0.167 HD
ATOM     67  C   UNL A   1      46.344  30.239  27.917  1.00  0.00     0.074 A 
ATOM     68  C   UNL A   1      47.723  30.541  27.593  1.00  0.00     0.031 C 
ATOM     69  C   UNL A   1      45.470  31.131  28.447  1.00  0.00     0.037 A 
BRANCH  56  70
ATOM     70  C   UNL A   1      39.787  28.854  29.352  1.00  0.00     0.064 A 
ATOM     71  C   UNL A   1      38.813  29.363  28.478  1.00  0.00     0.173 A 
ATOM     72  C   UNL A   1      39.394  28.566  30.668  1.00  0.00     0.173 A 
ATOM     73  F   UNL A   1      39.136  29.666  27.211  1.00  0.00    -0.203 F 
ATOM     74  C   UNL A   1      37.515  29.614  28.914  1.00  0.00     0.198 A 
ATOM     75  C   UNL A   1      38.085  28.783  31.091  1.00  0.00     0.198 A 
ATOM     76  F   UNL A   1      40.279  28.071  31.547  1.00  0.00    -0.203 F 
ATOM     77  F   UNL A   1      36.624  30.163  28.078  1.00  0.00    -0.200 F 
ATOM     78  C   UNL A   1      37.150  29.319  30.218  1.00  0.00     0.200 A 
ATOM     79  F   UNL A   1      37.730  28.483  32.348  1.00  0.00    -0.200 F 
ATOM     80  F   UNL A   1      35.900  29.560  30.637  1.00  0.00    -0.200 F 
ENDBRANCH  56  70
BRANCH  57  81
ATOM     81  C   UNL A   1      49.030  26.804  26.150  1.00  0.00     0.064 A 
ATOM     82  C   UNL A   1      49.994  26.323  27.047  1.00  0.00     0.173 A 
ATOM     83  C   UNL A   1      49.418  26.996  24.816  1.00  0.00     0.173 A 
ATOM     84  F   UNL A   1      49.676  26.142  28.338  1.00  0.00    -0.203 F 
ATOM     85  C   UNL A   1      51.299  26.068  26.633  1.00  0.00     0.198 A 
ATOM     86  C   UNL A   1      50.716  26.709  24.397  1.00  0.00     0.198 A 
ATOM     87  F   UNL A   1      48.532  27.447  23.916  1.00  0.00    -0.203 F 
ATOM     88  F   UNL A   1      52.213  25.656  27.523  1.00  0.00    -0.200 F 
ATOM     89  C   UNL A   1      51.658  26.254  25.307  1.00  0.00     0.200 A 
ATOM     90  F   UNL A   1      51.054  26.875  23.111  1.00  0.00    -0.200 F 
ATOM     91  F   UNL A   1      52.912  26.004  24.909  1.00  0.00    -0.200 F 
ENDBRANCH  57  81
BRANCH  69  92
ATOM     92  C   UNL A   1      45.991  32.506  28.754  1.00  0.00     0.064 A 
ATOM     93  C   UNL A   1      46.592  32.815  29.984  1.00  0.00     0.173 A 
ATOM     94  C   UNL A   1      45.913  33.524  27.790  1.00  0.00     0.173 A 
ATOM     95  F   UNL A   1      46.678  31.884  30.946  1.00  0.00    -0.203 F 
ATOM     96  C   UNL A   1      47.063  34.098  30.249  1.00  0.00     0.198 A 
ATOM     97  C   UNL A   1      46.419  34.795  28.045  1.00  0.00     0.198 A 
ATOM     98  F   UNL A   1      45.356  33.281  26.595  1.00  0.00    -0.203 F 
ATOM     99  F   UNL A   1      47.580  34.385  31.452  1.00  0.00    -0.200 F 
ATOM    100  C   UNL A   1      46.985  35.084  29.277  1.00  0.00     0.200 A 
ATOM    101  F   UNL A   1      46.356  35.741  27.098  1.00  0.00    -0.200 F 
ATOM    102  F   UNL A   1      47.445  36.317  29.531  1.00  0.00    -0.200 F 
ENDBRANCH  69  92
ENDBRANCH  43  44
ENDBRANCH  35  38
ENDBRANCH  33  34
ENDBRANCH  32  33
ENDBRANCH   1  32
TORSDOF 16
ENDMDL
