MODEL 1
REMARK VINA RESULT:     -13.1      0.000      0.000
REMARK SMILES O=C(NCCCNC(=O)c1ccc([S@@](=O)[C@H]2CCOC3(CCCC3)C2)cc1)c1ccc(-c2c3nc(c(-c4c(F)c(F)c(F)c(F)c4F)c4ccc([nH]4)c(-c4c(F)c(F)c(F)c(F)c4F)c4nc(c(-c5c(F)c(F)c(F)c(F)c5F)c5ccc2[nH]5)C=C4)C=C3)cc1
REMARK SMILES IDX 5 1 4 2 3 3 1 4 2 5 28 7 29 8 90 9 30 10 89 11 31 12 32 13
REMARK SMILES IDX 33 14 83 15 34 16 88 17 82 18 84 19 35 20 87 21 81 22 80 23
REMARK SMILES IDX 36 25 68 26 48 27 67 28 49 29 52 30 66 31 85 32 50 33 51 34
REMARK SMILES IDX 65 36 86 37 53 38 37 39 38 40 46 41 39 42 40 43 44 44 47 45
REMARK SMILES IDX 41 46 42 47 45 48 43 49 69 50 70 51 78 52 71 53 72 54 76 55
REMARK SMILES IDX 79 56 73 57 74 58 77 59 75 60 54 61 55 62 63 63 56 64 57 65
REMARK SMILES IDX 61 66 64 67 58 68 59 69 62 70 60 71 6 72 7 73 8 74 9 76
REMARK SMILES IDX 10 77 11 78 27 79 12 80 26 81 13 82 14 83 15 84 16 85 17 86
REMARK SMILES IDX 25 87 18 88 20 89 19 90 21 91 24 92 22 93 23 94
REMARK H PARENT 3 6 84 24 52 35 7 75
REMARK Flexibility Score: inf
ROOT
ATOM      1  C   UNL A   1      31.315  32.117  26.495  1.00  0.00     0.042 C 
ENDROOT
BRANCH   1   2
ATOM      2  C   UNL A   1      32.635  32.734  26.927  1.00  0.00     0.118 C 
BRANCH   2   3
ATOM      3  N   UNL A   1      32.470  34.044  27.544  1.00  0.00    -0.352 N 
ATOM      4  O   UNL A   1      32.701  35.652  29.106  1.00  0.00    -0.269 OA
ATOM      5  C   UNL A   1      33.115  34.603  28.618  1.00  0.00     0.251 C 
ATOM      6  H   UNL A   1      31.789  34.618  27.124  1.00  0.00     0.163 HD
BRANCH   5   7
ATOM      7  C   UNL A   1      34.294  33.933  29.203  1.00  0.00     0.039 A 
ATOM      8  C   UNL A   1      34.137  32.839  30.053  1.00  0.00     0.014 A 
ATOM      9  C   UNL A   1      35.574  34.398  28.887  1.00  0.00     0.014 A 
ATOM     10  C   UNL A   1      35.237  32.324  30.724  1.00  0.00     0.010 A 
ATOM     11  C   UNL A   1      36.692  33.798  29.474  1.00  0.00     0.010 A 
ATOM     12  C   UNL A   1      36.529  32.777  30.421  1.00  0.00    -0.014 A 
BRANCH  12  13
ATOM     13  C   UNL A   1      37.691  32.105  31.055  1.00  0.00     0.031 A 
ATOM     14  C   UNL A   1      38.135  32.453  32.445  1.00  0.00     0.074 A 
ATOM     15  C   UNL A   1      38.329  31.143  30.358  1.00  0.00     0.049 A 
ATOM     16  N   UNL A   1      39.121  31.950  33.146  1.00  0.00    -0.248 NA
ATOM     17  C   UNL A   1      37.383  33.508  33.142  1.00  0.00     0.031 C 
ATOM     18  C   UNL A   1      37.989  30.729  28.994  1.00  0.00     0.029 A 
ATOM     19  N   UNL A   1      39.375  30.328  30.700  1.00  0.00    -0.354 N 
ATOM     20  C   UNL A   1      39.121  32.636  34.353  1.00  0.00     0.074 A 
ATOM     21  C   UNL A   1      38.054  33.612  34.283  1.00  0.00     0.031 C 
ATOM     22  C   UNL A   1      38.775  29.707  28.635  1.00  0.00     0.029 A 
ATOM     23  C   UNL A   1      39.724  29.443  29.709  1.00  0.00     0.049 A 
ATOM     24  H   UNL A   1      39.832  30.371  31.570  1.00  0.00     0.167 HD
ATOM     25  C   UNL A   1      39.934  32.457  35.422  1.00  0.00     0.037 A 
ATOM     26  C   UNL A   1      40.715  28.535  29.658  1.00  0.00     0.037 A 
ATOM     27  C   UNL A   1      40.987  31.474  35.484  1.00  0.00     0.049 A 
ATOM     28  C   UNL A   1      41.624  28.388  30.844  1.00  0.00     0.074 A 
ATOM     29  C   UNL A   1      41.842  31.190  36.535  1.00  0.00     0.029 A 
ATOM     30  N   UNL A   1      41.337  30.621  34.446  1.00  0.00    -0.354 N 
ATOM     31  N   UNL A   1      41.589  29.015  31.995  1.00  0.00    -0.248 NA
ATOM     32  C   UNL A   1      42.710  27.410  30.723  1.00  0.00     0.031 C 
ATOM     33  C   UNL A   1      42.744  30.207  36.115  1.00  0.00     0.029 A 
ATOM     34  C   UNL A   1      42.413  29.832  34.822  1.00  0.00     0.049 A 
ATOM     35  H   UNL A   1      40.886  30.582  33.572  1.00  0.00     0.167 HD
ATOM     36  C   UNL A   1      42.635  28.497  32.742  1.00  0.00     0.074 A 
ATOM     37  C   UNL A   1      43.271  27.485  31.921  1.00  0.00     0.031 C 
ATOM     38  C   UNL A   1      43.037  28.830  33.993  1.00  0.00     0.037 A 
BRANCH  25  39
ATOM     39  C   UNL A   1      39.735  33.357  36.611  1.00  0.00     0.064 A 
ATOM     40  C   UNL A   1      40.392  34.590  36.723  1.00  0.00     0.173 A 
ATOM     41  C   UNL A   1      38.835  33.000  37.627  1.00  0.00     0.173 A 
ATOM     42  F   UNL A   1      41.270  34.978  35.785  1.00  0.00    -0.203 F 
ATOM     43  C   UNL A   1      40.177  35.420  37.822  1.00  0.00     0.198 A 
ATOM     44  C   UNL A   1      38.599  33.845  38.709  1.00  0.00     0.198 A 
ATOM     45  F   UNL A   1      38.173  31.835  37.567  1.00  0.00    -0.203 F 
ATOM     46  F   UNL A   1      40.852  36.574  37.931  1.00  0.00    -0.200 F 
ATOM     47  C   UNL A   1      39.276  35.051  38.810  1.00  0.00     0.200 A 
ATOM     48  F   UNL A   1      37.716  33.493  39.654  1.00  0.00    -0.200 F 
ATOM     49  F   UNL A   1      39.063  35.855  39.860  1.00  0.00    -0.200 F 
ENDBRANCH  25  39
BRANCH  26  50
ATOM     50  C   UNL A   1      40.899  27.713  28.436  1.00  0.00     0.064 A 
ATOM     51  C   UNL A   1      40.223  26.497  28.273  1.00  0.00     0.173 A 
ATOM     52  C   UNL A   1      41.745  28.134  27.397  1.00  0.00     0.173 A 
ATOM     53  F   UNL A   1      39.416  26.045  29.244  1.00  0.00    -0.203 F 
ATOM     54  C   UNL A   1      40.399  25.724  27.128  1.00  0.00     0.198 A 
ATOM     55  C   UNL A   1      41.893  27.377  26.238  1.00  0.00     0.198 A 
ATOM     56  F   UNL A   1      42.409  29.294  27.500  1.00  0.00    -0.203 F 
ATOM     57  F   UNL A   1      39.775  24.543  27.017  1.00  0.00    -0.200 F 
ATOM     58  C   UNL A   1      41.227  26.169  26.108  1.00  0.00     0.200 A 
ATOM     59  F   UNL A   1      42.678  27.822  25.247  1.00  0.00    -0.200 F 
ATOM     60  F   UNL A   1      41.389  25.429  25.002  1.00  0.00    -0.200 F 
ENDBRANCH  26  50
BRANCH  38  61
ATOM     61  C   UNL A   1      44.201  28.071  34.561  1.00  0.00     0.064 A 
ATOM     62  C   UNL A   1      45.518  28.539  34.434  1.00  0.00     0.173 A 
ATOM     63  C   UNL A   1      43.994  26.872  35.258  1.00  0.00     0.173 A 
ATOM     64  F   UNL A   1      45.771  29.670  33.758  1.00  0.00    -0.203 F 
ATOM     65  C   UNL A   1      46.586  27.817  34.958  1.00  0.00     0.198 A 
ATOM     66  C   UNL A   1      45.061  26.171  35.811  1.00  0.00     0.198 A 
ATOM     67  F   UNL A   1      42.753  26.385  35.412  1.00  0.00    -0.203 F 
ATOM     68  F   UNL A   1      47.841  28.253  34.775  1.00  0.00    -0.200 F 
ATOM     69  C   UNL A   1      46.357  26.639  35.653  1.00  0.00     0.200 A 
ATOM     70  F   UNL A   1      44.836  25.040  36.494  1.00  0.00    -0.200 F 
ATOM     71  F   UNL A   1      47.386  25.949  36.162  1.00  0.00    -0.200 F 
ENDBRANCH  38  61
ENDBRANCH  12  13
ENDBRANCH   5   7
ENDBRANCH   2   3
ENDBRANCH   1   2
BRANCH   1  72
ATOM     72  C   UNL A   1      31.430  30.649  26.118  1.00  0.00     0.118 C 
BRANCH  72  73
ATOM     73  N   UNL A   1      31.022  30.417  24.742  1.00  0.00    -0.352 N 
ATOM     74  C   UNL A   1      31.134  29.278  23.992  1.00  0.00     0.251 C 
ATOM     75  H   UNL A   1      30.607  31.186  24.286  1.00  0.00     0.163 HD
ATOM     76  O   UNL A   1      30.990  29.315  22.774  1.00  0.00    -0.269 OA
BRANCH  74  77
ATOM     77  C   UNL A   1      31.424  27.997  24.659  1.00  0.00     0.039 A 
ATOM     78  C   UNL A   1      30.384  27.089  24.864  1.00  0.00     0.015 A 
ATOM     79  C   UNL A   1      32.712  27.726  25.133  1.00  0.00     0.015 A 
ATOM     80  C   UNL A   1      30.643  25.890  25.526  1.00  0.00     0.018 A 
ATOM     81  C   UNL A   1      32.969  26.527  25.790  1.00  0.00     0.018 A 
ATOM     82  C   UNL A   1      31.928  25.622  26.018  1.00  0.00     0.039 A 
BRANCH  82  83
ATOM     83  S   UNL A   1      32.211  24.150  27.006  1.00  0.00     0.056 S 
ATOM     84  O   UNL A   1      30.855  23.550  27.240  1.00  0.00    -0.254 OA
BRANCH  83  85
ATOM     85  C   UNL A   1      33.077  23.059  25.798  1.00  0.00     0.089 C 
ATOM     86  C   UNL A   1      32.590  23.112  24.352  1.00  0.00     0.046 C 
ATOM     87  C   UNL A   1      34.563  23.405  25.848  1.00  0.00     0.053 C 
ATOM     88  C   UNL A   1      33.458  22.245  23.457  1.00  0.00     0.162 C 
ATOM     89  C   UNL A   1      35.378  22.519  24.903  1.00  0.00     0.069 C 
ATOM     90  O   UNL A   1      34.837  22.590  23.577  1.00  0.00    -0.375 OA
ATOM     91  C   UNL A   1      36.839  23.024  24.817  1.00  0.00     0.035 C 
ATOM     92  C   UNL A   1      35.493  21.058  25.387  1.00  0.00     0.035 C 
ATOM     93  C   UNL A   1      37.714  21.872  25.295  1.00  0.00     0.003 C 
ATOM     94  C   UNL A   1      36.896  20.636  24.978  1.00  0.00     0.003 C 
ENDBRANCH  83  85
ENDBRANCH  82  83
ENDBRANCH  74  77
ENDBRANCH  72  73
ENDBRANCH   1  72
TORSDOF 12
ENDMDL
MODEL 2
REMARK VINA RESULT:     -13.0      5.109     10.614
REMARK SMILES O=C(NCCCNC(=O)c1ccc([S@@](=O)[C@H]2CCOC3(CCCC3)C2)cc1)c1ccc(-c2c3nc(c(-c4c(F)c(F)c(F)c(F)c4F)c4ccc([nH]4)c(-c4c(F)c(F)c(F)c(F)c4F)c4nc(c(-c5c(F)c(F)c(F)c(F)c5F)c5ccc2[nH]5)C=C4)C=C3)cc1
REMARK SMILES IDX 5 1 4 2 3 3 1 4 2 5 28 7 29 8 90 9 30 10 89 11 31 12 32 13
REMARK SMILES IDX 33 14 83 15 34 16 88 17 82 18 84 19 35 20 87 21 81 22 80 23
REMARK SMILES IDX 36 25 68 26 48 27 67 28 49 29 52 30 66 31 85 32 50 33 51 34
REMARK SMILES IDX 65 36 86 37 53 38 37 39 38 40 46 41 39 42 40 43 44 44 47 45
REMARK SMILES IDX 41 46 42 47 45 48 43 49 69 50 70 51 78 52 71 53 72 54 76 55
REMARK SMILES IDX 79 56 73 57 74 58 77 59 75 60 54 61 55 62 63 63 56 64 57 65
REMARK SMILES IDX 61 66 64 67 58 68 59 69 62 70 60 71 6 72 7 73 8 74 9 76
REMARK SMILES IDX 10 77 11 78 27 79 12 80 26 81 13 82 14 83 15 84 16 85 17 86
REMARK SMILES IDX 25 87 18 88 20 89 19 90 21 91 24 92 22 93 23 94
REMARK H PARENT 3 6 84 24 52 35 7 75
REMARK Flexibility Score: inf
ROOT
ATOM      1  C   UNL A   1      38.071  19.615  24.984  1.00  0.00     0.042 C 
ENDROOT
BRANCH   1   2
ATOM      2  C   UNL A   1      39.183  20.083  25.908  1.00  0.00     0.118 C 
BRANCH   2   3
ATOM      3  N   UNL A   1      40.317  19.168  25.933  1.00  0.00    -0.352 N 
ATOM      4  O   UNL A   1      42.479  18.532  25.885  1.00  0.00    -0.269 OA
ATOM      5  C   UNL A   1      41.657  19.424  26.080  1.00  0.00     0.251 C 
ATOM      6  H   UNL A   1      40.085  18.217  25.828  1.00  0.00     0.163 HD
BRANCH   5   7
ATOM      7  C   UNL A   1      42.114  20.779  26.452  1.00  0.00     0.039 A 
ATOM      8  C   UNL A   1      42.245  21.138  27.793  1.00  0.00     0.014 A 
ATOM      9  C   UNL A   1      42.424  21.698  25.446  1.00  0.00     0.014 A 
ATOM     10  C   UNL A   1      42.513  22.456  28.131  1.00  0.00     0.010 A 
ATOM     11  C   UNL A   1      42.811  22.997  25.791  1.00  0.00     0.010 A 
ATOM     12  C   UNL A   1      42.828  23.394  27.136  1.00  0.00    -0.014 A 
BRANCH  12  13
ATOM     13  C   UNL A   1      43.247  24.758  27.543  1.00  0.00     0.031 A 
ATOM     14  C   UNL A   1      44.692  25.163  27.553  1.00  0.00     0.074 A 
ATOM     15  C   UNL A   1      42.290  25.645  27.881  1.00  0.00     0.049 A 
ATOM     16  N   UNL A   1      45.222  26.319  27.870  1.00  0.00    -0.248 NA
ATOM     17  C   UNL A   1      45.676  24.140  27.165  1.00  0.00     0.031 C 
ATOM     18  C   UNL A   1      40.853  25.357  27.916  1.00  0.00     0.029 A 
ATOM     19  N   UNL A   1      42.372  26.966  28.237  1.00  0.00    -0.354 N 
ATOM     20  C   UNL A   1      46.595  26.158  27.739  1.00  0.00     0.074 A 
ATOM     21  C   UNL A   1      46.822  24.785  27.340  1.00  0.00     0.031 C 
ATOM     22  C   UNL A   1      40.187  26.477  28.223  1.00  0.00     0.029 A 
ATOM     23  C   UNL A   1      41.149  27.541  28.481  1.00  0.00     0.049 A 
ATOM     24  H   UNL A   1      43.223  27.454  28.309  1.00  0.00     0.167 HD
ATOM     25  C   UNL A   1      47.571  27.079  27.927  1.00  0.00     0.037 A 
ATOM     26  C   UNL A   1      40.835  28.782  28.894  1.00  0.00     0.037 A 
ATOM     27  C   UNL A   1      47.331  28.447  28.315  1.00  0.00     0.049 A 
ATOM     28  C   UNL A   1      41.942  29.768  29.132  1.00  0.00     0.074 A 
ATOM     29  C   UNL A   1      48.250  29.466  28.496  1.00  0.00     0.029 A 
ATOM     30  N   UNL A   1      46.082  28.985  28.592  1.00  0.00    -0.354 N 
ATOM     31  N   UNL A   1      43.233  29.616  28.966  1.00  0.00    -0.248 NA
ATOM     32  C   UNL A   1      41.548  31.096  29.616  1.00  0.00     0.031 C 
ATOM     33  C   UNL A   1      47.564  30.603  28.937  1.00  0.00     0.029 A 
ATOM     34  C   UNL A   1      46.210  30.312  28.971  1.00  0.00     0.049 A 
ATOM     35  H   UNL A   1      45.230  28.494  28.528  1.00  0.00     0.167 HD
ATOM     36  C   UNL A   1      43.806  30.831  29.308  1.00  0.00     0.074 A 
ATOM     37  C   UNL A   1      42.717  31.718  29.666  1.00  0.00     0.031 C 
ATOM     38  C   UNL A   1      45.115  31.182  29.328  1.00  0.00     0.037 A 
BRANCH  25  39
ATOM     39  C   UNL A   1      48.996  26.637  27.738  1.00  0.00     0.064 A 
ATOM     40  C   UNL A   1      49.828  26.336  28.826  1.00  0.00     0.173 A 
ATOM     41  C   UNL A   1      49.519  26.464  26.447  1.00  0.00     0.173 A 
ATOM     42  F   UNL A   1      49.382  26.491  30.082  1.00  0.00    -0.203 F 
ATOM     43  C   UNL A   1      51.139  25.905  28.630  1.00  0.00     0.198 A 
ATOM     44  C   UNL A   1      50.820  26.004  26.254  1.00  0.00     0.198 A 
ATOM     45  F   UNL A   1      48.766  26.729  25.370  1.00  0.00    -0.203 F 
ATOM     46  F   UNL A   1      51.930  25.668  29.685  1.00  0.00    -0.200 F 
ATOM     47  C   UNL A   1      51.631  25.732  27.345  1.00  0.00     0.200 A 
ATOM     48  F   UNL A   1      51.288  25.823  25.011  1.00  0.00    -0.200 F 
ATOM     49  F   UNL A   1      52.889  25.309  27.158  1.00  0.00    -0.200 F 
ENDBRANCH  25  39
BRANCH  26  50
ATOM     50  C   UNL A   1      39.413  29.147  29.118  1.00  0.00     0.064 A 
ATOM     51  C   UNL A   1      38.591  29.541  28.055  1.00  0.00     0.173 A 
ATOM     52  C   UNL A   1      38.843  29.094  30.400  1.00  0.00     0.173 A 
ATOM     53  F   UNL A   1      39.094  29.623  26.815  1.00  0.00    -0.203 F 
ATOM     54  C   UNL A   1      37.258  29.886  28.267  1.00  0.00     0.198 A 
ATOM     55  C   UNL A   1      37.501  29.406  30.605  1.00  0.00     0.198 A 
ATOM     56  F   UNL A   1      39.585  28.715  31.451  1.00  0.00    -0.203 F 
ATOM     57  F   UNL A   1      36.505  30.304  27.240  1.00  0.00    -0.200 F 
ATOM     58  C   UNL A   1      36.713  29.810  29.540  1.00  0.00     0.200 A 
ATOM     59  F   UNL A   1      36.975  29.310  31.833  1.00  0.00    -0.200 F 
ATOM     60  F   UNL A   1      35.428  30.134  29.741  1.00  0.00    -0.200 F 
ENDBRANCH  26  50
BRANCH  38  61
ATOM     61  C   UNL A   1      45.438  32.594  29.722  1.00  0.00     0.064 A 
ATOM     62  C   UNL A   1      45.696  32.946  31.055  1.00  0.00     0.173 A 
ATOM     63  C   UNL A   1      45.511  33.603  28.750  1.00  0.00     0.173 A 
ATOM     64  F   UNL A   1      45.619  32.021  32.025  1.00  0.00    -0.203 F 
ATOM     65  C   UNL A   1      45.984  34.262  31.404  1.00  0.00     0.198 A 
ATOM     66  C   UNL A   1      45.833  34.911  29.098  1.00  0.00     0.198 A 
ATOM     67  F   UNL A   1      45.277  33.317  27.460  1.00  0.00    -0.203 F 
ATOM     68  F   UNL A   1      46.170  34.587  32.691  1.00  0.00    -0.200 F 
ATOM     69  C   UNL A   1      46.060  35.242  30.425  1.00  0.00     0.200 A 
ATOM     70  F   UNL A   1      45.920  35.853  28.148  1.00  0.00    -0.200 F 
ATOM     71  F   UNL A   1      46.343  36.507  30.762  1.00  0.00    -0.200 F 
ENDBRANCH  38  61
ENDBRANCH  12  13
ENDBRANCH   5   7
ENDBRANCH   2   3
ENDBRANCH   1   2
BRANCH   1  72
ATOM     72  C   UNL A   1      36.990  20.661  24.762  1.00  0.00     0.118 C 
BRANCH  72  73
ATOM     73  N   UNL A   1      35.710  20.230  25.304  1.00  0.00    -0.352 N 
ATOM     74  C   UNL A   1      34.550  20.943  25.437  1.00  0.00     0.251 C 
ATOM     75  H   UNL A   1      35.674  19.298  25.616  1.00  0.00     0.163 HD
ATOM     76  O   UNL A   1      33.641  20.528  26.150  1.00  0.00    -0.269 OA
BRANCH  74  77
ATOM     77  C   UNL A   1      34.393  22.215  24.713  1.00  0.00     0.039 A 
ATOM     78  C   UNL A   1      34.946  23.377  25.254  1.00  0.00     0.015 A 
ATOM     79  C   UNL A   1      33.644  22.265  23.531  1.00  0.00     0.015 A 
ATOM     80  C   UNL A   1      34.771  24.591  24.593  1.00  0.00     0.018 A 
ATOM     81  C   UNL A   1      33.474  23.477  22.871  1.00  0.00     0.018 A 
ATOM     82  C   UNL A   1      34.008  24.648  23.418  1.00  0.00     0.039 A 
BRANCH  82  83
ATOM     83  S   UNL A   1      33.657  26.239  22.664  1.00  0.00     0.056 S 
ATOM     84  O   UNL A   1      32.826  25.938  21.449  1.00  0.00    -0.254 OA
BRANCH  83  85
ATOM     85  C   UNL A   1      32.528  26.994  23.910  1.00  0.00     0.089 C 
ATOM     86  C   UNL A   1      31.547  26.055  24.607  1.00  0.00     0.046 C 
ATOM     87  C   UNL A   1      33.396  27.691  24.955  1.00  0.00     0.053 C 
ATOM     88  C   UNL A   1      30.757  26.792  25.675  1.00  0.00     0.162 C 
ATOM     89  C   UNL A   1      32.543  28.388  26.018  1.00  0.00     0.069 C 
ATOM     90  O   UNL A   1      31.621  27.453  26.597  1.00  0.00    -0.375 OA
ATOM     91  C   UNL A   1      33.438  28.905  27.171  1.00  0.00     0.035 C 
ATOM     92  C   UNL A   1      31.817  29.642  25.489  1.00  0.00     0.035 C 
ATOM     93  C   UNL A   1      33.231  30.414  27.223  1.00  0.00     0.003 C 
ATOM     94  C   UNL A   1      31.837  30.611  26.661  1.00  0.00     0.003 C 
ENDBRANCH  83  85
ENDBRANCH  82  83
ENDBRANCH  74  77
ENDBRANCH  72  73
ENDBRANCH   1  72
TORSDOF 12
ENDMDL
MODEL 3
REMARK VINA RESULT:     -13.0      0.109      1.667
REMARK SMILES O=C(NCCCNC(=O)c1ccc([S@@](=O)[C@H]2CCOC3(CCCC3)C2)cc1)c1ccc(-c2c3nc(c(-c4c(F)c(F)c(F)c(F)c4F)c4ccc([nH]4)c(-c4c(F)c(F)c(F)c(F)c4F)c4nc(c(-c5c(F)c(F)c(F)c(F)c5F)c5ccc2[nH]5)C=C4)C=C3)cc1
REMARK SMILES IDX 5 1 4 2 3 3 1 4 2 5 28 7 29 8 90 9 30 10 89 11 31 12 32 13
REMARK SMILES IDX 33 14 83 15 34 16 88 17 82 18 84 19 35 20 87 21 81 22 80 23
REMARK SMILES IDX 36 25 68 26 48 27 67 28 49 29 52 30 66 31 85 32 50 33 51 34
REMARK SMILES IDX 65 36 86 37 53 38 37 39 38 40 46 41 39 42 40 43 44 44 47 45
REMARK SMILES IDX 41 46 42 47 45 48 43 49 69 50 70 51 78 52 71 53 72 54 76 55
REMARK SMILES IDX 79 56 73 57 74 58 77 59 75 60 54 61 55 62 63 63 56 64 57 65
REMARK SMILES IDX 61 66 64 67 58 68 59 69 62 70 60 71 6 72 7 73 8 74 9 76
REMARK SMILES IDX 10 77 11 78 27 79 12 80 26 81 13 82 14 83 15 84 16 85 17 86
REMARK SMILES IDX 25 87 18 88 20 89 19 90 21 91 24 92 22 93 23 94
REMARK H PARENT 3 6 84 24 52 35 7 75
REMARK Flexibility Score: inf
ROOT
ATOM      1  C   UNL A   1      31.366  32.142  26.501  1.00  0.00     0.042 C 
ENDROOT
BRANCH   1   2
ATOM      2  C   UNL A   1      32.672  32.739  26.997  1.00  0.00     0.118 C 
BRANCH   2   3
ATOM      3  N   UNL A   1      32.513  34.094  27.510  1.00  0.00    -0.352 N 
ATOM      4  O   UNL A   1      32.721  35.807  28.960  1.00  0.00    -0.269 OA
ATOM      5  C   UNL A   1      33.129  34.717  28.567  1.00  0.00     0.251 C 
ATOM      6  H   UNL A   1      31.863  34.649  27.022  1.00  0.00     0.163 HD
BRANCH   5   7
ATOM      7  C   UNL A   1      34.268  34.067  29.246  1.00  0.00     0.039 A 
ATOM      8  C   UNL A   1      35.575  34.486  28.993  1.00  0.00     0.014 A 
ATOM      9  C   UNL A   1      34.027  33.034  30.155  1.00  0.00     0.014 A 
ATOM     10  C   UNL A   1      36.642  33.763  29.506  1.00  0.00     0.010 A 
ATOM     11  C   UNL A   1      35.104  32.383  30.765  1.00  0.00     0.010 A 
ATOM     12  C   UNL A   1      36.420  32.722  30.420  1.00  0.00    -0.014 A 
BRANCH  12  13
ATOM     13  C   UNL A   1      37.589  32.066  31.056  1.00  0.00     0.031 A 
ATOM     14  C   UNL A   1      38.023  32.418  32.449  1.00  0.00     0.074 A 
ATOM     15  C   UNL A   1      38.244  31.116  30.360  1.00  0.00     0.049 A 
ATOM     16  N   UNL A   1      39.014  31.927  33.152  1.00  0.00    -0.248 NA
ATOM     17  C   UNL A   1      37.253  33.460  33.146  1.00  0.00     0.031 C 
ATOM     18  C   UNL A   1      37.915  30.700  28.993  1.00  0.00     0.029 A 
ATOM     19  N   UNL A   1      39.301  30.315  30.703  1.00  0.00    -0.354 N 
ATOM     20  C   UNL A   1      38.999  32.610  34.361  1.00  0.00     0.074 A 
ATOM     21  C   UNL A   1      37.918  33.570  34.289  1.00  0.00     0.031 C 
ATOM     22  C   UNL A   1      38.717  29.690  28.635  1.00  0.00     0.029 A 
ATOM     23  C   UNL A   1      39.666  29.438  29.712  1.00  0.00     0.049 A 
ATOM     24  H   UNL A   1      39.754  30.363  31.575  1.00  0.00     0.167 HD
ATOM     25  C   UNL A   1      39.810  32.440  35.433  1.00  0.00     0.037 A 
ATOM     26  C   UNL A   1      40.671  28.545  29.662  1.00  0.00     0.037 A 
ATOM     27  C   UNL A   1      40.878  31.473  35.496  1.00  0.00     0.049 A 
ATOM     28  C   UNL A   1      41.577  28.409  30.851  1.00  0.00     0.074 A 
ATOM     29  C   UNL A   1      41.733  31.199  36.550  1.00  0.00     0.029 A 
ATOM     30  N   UNL A   1      41.244  30.627  34.458  1.00  0.00    -0.354 N 
ATOM     31  N   UNL A   1      41.529  29.032  32.003  1.00  0.00    -0.248 NA
ATOM     32  C   UNL A   1      42.679  27.447  30.731  1.00  0.00     0.031 C 
ATOM     33  C   UNL A   1      42.651  30.231  36.130  1.00  0.00     0.029 A 
ATOM     34  C   UNL A   1      42.331  29.854  34.836  1.00  0.00     0.049 A 
ATOM     35  H   UNL A   1      40.797  30.584  33.581  1.00  0.00     0.167 HD
ATOM     36  C   UNL A   1      42.580  28.527  32.753  1.00  0.00     0.074 A 
ATOM     37  C   UNL A   1      43.233  27.527  31.932  1.00  0.00     0.031 C 
ATOM     38  C   UNL A   1      42.972  28.863  34.006  1.00  0.00     0.037 A 
BRANCH  25  39
ATOM     39  C   UNL A   1      39.594  33.334  36.623  1.00  0.00     0.064 A 
ATOM     40  C   UNL A   1      38.738  32.974  37.673  1.00  0.00     0.173 A 
ATOM     41  C   UNL A   1      40.294  34.546  36.735  1.00  0.00     0.173 A 
ATOM     42  F   UNL A   1      38.037  31.832  37.614  1.00  0.00    -0.203 F 
ATOM     43  C   UNL A   1      38.569  33.807  38.778  1.00  0.00     0.198 A 
ATOM     44  C   UNL A   1      40.147  35.360  37.855  1.00  0.00     0.198 A 
ATOM     45  F   UNL A   1      41.134  34.935  35.764  1.00  0.00    -0.203 F 
ATOM     46  F   UNL A   1      37.709  33.464  39.748  1.00  0.00    -0.200 F 
ATOM     47  C   UNL A   1      39.279  34.995  38.872  1.00  0.00     0.200 A 
ATOM     48  F   UNL A   1      40.845  36.500  37.951  1.00  0.00    -0.200 F 
ATOM     49  F   UNL A   1      39.122  35.789  39.940  1.00  0.00    -0.200 F 
ENDBRANCH  25  39
BRANCH  26  50
ATOM     50  C   UNL A   1      40.872  27.729  28.438  1.00  0.00     0.064 A 
ATOM     51  C   UNL A   1      40.236  26.490  28.283  1.00  0.00     0.173 A 
ATOM     52  C   UNL A   1      41.692  28.178  27.391  1.00  0.00     0.173 A 
ATOM     53  F   UNL A   1      39.455  26.011  29.262  1.00  0.00    -0.203 F 
ATOM     54  C   UNL A   1      40.427  25.723  27.136  1.00  0.00     0.198 A 
ATOM     55  C   UNL A   1      41.855  27.426  26.231  1.00  0.00     0.198 A 
ATOM     56  F   UNL A   1      42.317  29.360  27.488  1.00  0.00    -0.203 F 
ATOM     57  F   UNL A   1      39.844  24.521  27.032  1.00  0.00    -0.200 F 
ATOM     58  C   UNL A   1      41.230  26.195  26.108  1.00  0.00     0.200 A 
ATOM     59  F   UNL A   1      42.615  27.897  25.233  1.00  0.00    -0.200 F 
ATOM     60  F   UNL A   1      41.407  25.461  25.001  1.00  0.00    -0.200 F 
ENDBRANCH  26  50
BRANCH  38  61
ATOM     61  C   UNL A   1      44.145  28.120  34.576  1.00  0.00     0.064 A 
ATOM     62  C   UNL A   1      43.986  26.901  35.253  1.00  0.00     0.173 A 
ATOM     63  C   UNL A   1      45.446  28.623  34.424  1.00  0.00     0.173 A 
ATOM     64  F   UNL A   1      42.761  26.388  35.442  1.00  0.00    -0.203 F 
ATOM     65  C   UNL A   1      45.085  26.230  35.784  1.00  0.00     0.198 A 
ATOM     66  C   UNL A   1      46.544  27.932  34.925  1.00  0.00     0.198 A 
ATOM     67  F   UNL A   1      45.652  29.782  33.780  1.00  0.00    -0.203 F 
ATOM     68  F   UNL A   1      44.904  25.097  36.477  1.00  0.00    -0.200 F 
ATOM     69  C   UNL A   1      46.362  26.741  35.613  1.00  0.00     0.200 A 
ATOM     70  F   UNL A   1      47.780  28.420  34.747  1.00  0.00    -0.200 F 
ATOM     71  F   UNL A   1      47.419  26.091  36.119  1.00  0.00    -0.200 F 
ENDBRANCH  38  61
ENDBRANCH  12  13
ENDBRANCH   5   7
ENDBRANCH   2   3
ENDBRANCH   1   2
BRANCH   1  72
ATOM     72  C   UNL A   1      31.478  30.673  26.123  1.00  0.00     0.118 C 
BRANCH  72  73
ATOM     73  N   UNL A   1      31.028  30.436  24.760  1.00  0.00    -0.352 N 
ATOM     74  C   UNL A   1      31.121  29.295  24.011  1.00  0.00     0.251 C 
ATOM     75  H   UNL A   1      30.597  31.202  24.316  1.00  0.00     0.163 HD
ATOM     76  O   UNL A   1      30.938  29.328  22.798  1.00  0.00    -0.269 OA
BRANCH  74  77
ATOM     77  C   UNL A   1      31.436  28.017  24.672  1.00  0.00     0.039 A 
ATOM     78  C   UNL A   1      30.401  27.121  24.942  1.00  0.00     0.015 A 
ATOM     79  C   UNL A   1      32.746  27.738  25.076  1.00  0.00     0.015 A 
ATOM     80  C   UNL A   1      30.685  25.925  25.599  1.00  0.00     0.018 A 
ATOM     81  C   UNL A   1      33.028  26.543  25.729  1.00  0.00     0.018 A 
ATOM     82  C   UNL A   1      31.993  25.649  26.022  1.00  0.00     0.039 A 
BRANCH  82  83
ATOM     83  S   UNL A   1      32.318  24.183  27.005  1.00  0.00     0.056 S 
ATOM     84  O   UNL A   1      30.977  23.553  27.251  1.00  0.00    -0.254 OA
BRANCH  83  85
ATOM     85  C   UNL A   1      33.198  23.113  25.789  1.00  0.00     0.089 C 
ATOM     86  C   UNL A   1      32.753  23.219  24.333  1.00  0.00     0.046 C 
ATOM     87  C   UNL A   1      34.688  23.429  25.891  1.00  0.00     0.053 C 
ATOM     88  C   UNL A   1      33.629  22.363  23.435  1.00  0.00     0.162 C 
ATOM     89  C   UNL A   1      35.512  22.556  24.942  1.00  0.00     0.069 C 
ATOM     90  O   UNL A   1      35.010  22.677  23.604  1.00  0.00    -0.375 OA
ATOM     91  C   UNL A   1      36.984  23.035  24.912  1.00  0.00     0.035 C 
ATOM     92  C   UNL A   1      35.587  21.079  25.384  1.00  0.00     0.035 C 
ATOM     93  C   UNL A   1      37.824  21.853  25.378  1.00  0.00     0.003 C 
ATOM     94  C   UNL A   1      36.993  20.643  25.001  1.00  0.00     0.003 C 
ENDBRANCH  83  85
ENDBRANCH  82  83
ENDBRANCH  74  77
ENDBRANCH  72  73
ENDBRANCH   1  72
TORSDOF 12
ENDMDL
