MODEL 1
REMARK VINA RESULT:     -12.4      0.000      0.000
REMARK SMILES C[C@@H](C(=O)NCCCNC(=O)c1ccc(-c2c3nc(c(-c4c(F)c(F)c(F)c(F)c4F)c4ccc([nH]4)c(-c4c(F)c(F)c(F)c(F)c4F)c4nc(c(-c5c(F)c(F)c(F)c(F)c5F)c5ccc2[nH]5)C=C4)C=C3)cc1)c1ccc(C[C@H]2CCCC2=O)cc1
REMARK SMILES IDX 6 1 5 2 3 3 4 4 2 6 1 7 75 8 76 9 87 10 77 11 86 12 78 13
REMARK SMILES IDX 79 14 80 15 81 16 84 17 82 18 83 19 85 20 7 21 8 22 9 23
REMARK SMILES IDX 10 24 11 26 12 27 13 28 74 29 14 30 73 31 15 32 16 33 17 34
REMARK SMILES IDX 67 35 18 36 72 37 66 38 68 39 19 40 71 41 65 42 64 43 20 45
REMARK SMILES IDX 52 46 32 47 51 48 33 49 36 50 50 51 69 52 34 53 35 54 49 56
REMARK SMILES IDX 70 57 37 58 21 59 22 60 30 61 23 62 24 63 28 64 31 65 25 66
REMARK SMILES IDX 26 67 29 68 27 69 53 70 54 71 62 72 55 73 56 74 60 75 63 76
REMARK SMILES IDX 57 77 58 78 61 79 59 80 38 81 39 82 47 83 40 84 41 85 45 86
REMARK SMILES IDX 48 87 42 88 43 89 46 90 44 91
REMARK H PARENT 5 5 9 25 68 44 36 55
REMARK Flexibility Score: inf
ROOT
ATOM      1  C   UNL A   1      31.253  30.806  26.442  1.00  0.00     0.117 C 
ENDROOT
BRANCH   1   2
ATOM      2  N   UNL A   1      31.873  30.208  25.275  1.00  0.00    -0.356 N 
ATOM      3  C   UNL A   1      32.836  29.245  25.175  1.00  0.00     0.227 C 
ATOM      4  O   UNL A   1      33.301  29.049  24.050  1.00  0.00    -0.274 OA
ATOM      5  H   UNL A   1      31.547  30.554  24.414  1.00  0.00     0.163 HD
BRANCH   3   6
ATOM      6  C   UNL A   1      33.273  28.451  26.418  1.00  0.00     0.105 C 
ATOM      7  C   UNL A   1      34.669  28.888  26.875  1.00  0.00     0.023 C 
BRANCH   6   8
ATOM      8  C   UNL A   1      33.147  26.943  26.197  1.00  0.00    -0.036 A 
ATOM      9  C   UNL A   1      31.920  26.316  26.469  1.00  0.00     0.005 A 
ATOM     10  C   UNL A   1      34.200  26.147  25.720  1.00  0.00     0.005 A 
ATOM     11  C   UNL A   1      31.760  24.939  26.291  1.00  0.00     0.004 A 
ATOM     12  C   UNL A   1      34.048  24.767  25.570  1.00  0.00     0.004 A 
ATOM     13  C   UNL A   1      32.832  24.146  25.869  1.00  0.00    -0.047 A 
BRANCH  13  14
ATOM     14  C   UNL A   1      32.690  22.648  25.744  1.00  0.00     0.047 C 
BRANCH  14  15
ATOM     15  C   UNL A   1      33.375  22.002  24.534  1.00  0.00     0.060 C 
ATOM     16  C   UNL A   1      33.675  20.502  24.634  1.00  0.00     0.012 C 
ATOM     17  C   UNL A   1      32.528  22.073  23.284  1.00  0.00     0.136 C 
ATOM     18  C   UNL A   1      32.536  19.792  23.909  1.00  0.00     0.009 C 
ATOM     19  C   UNL A   1      32.154  20.712  22.759  1.00  0.00     0.076 C 
ATOM     20  O   UNL A   1      32.197  23.121  22.743  1.00  0.00    -0.299 OA
ENDBRANCH  14  15
ENDBRANCH  13  14
ENDBRANCH   6   8
ENDBRANCH   3   6
ENDBRANCH   1   2
BRANCH   1  21
ATOM     21  C   UNL A   1      31.395  32.329  26.433  1.00  0.00     0.042 C 
BRANCH  21  22
ATOM     22  C   UNL A   1      32.571  32.857  27.250  1.00  0.00     0.118 C 
BRANCH  22  23
ATOM     23  N   UNL A   1      32.407  34.250  27.636  1.00  0.00    -0.352 N 
ATOM     24  C   UNL A   1      33.047  34.981  28.604  1.00  0.00     0.251 C 
ATOM     25  H   UNL A   1      31.729  34.745  27.122  1.00  0.00     0.163 HD
ATOM     26  O   UNL A   1      32.630  36.104  28.887  1.00  0.00    -0.269 OA
BRANCH  24  27
ATOM     27  C   UNL A   1      34.213  34.434  29.332  1.00  0.00     0.039 A 
ATOM     28  C   UNL A   1      33.988  33.724  30.515  1.00  0.00     0.014 A 
ATOM     29  C   UNL A   1      35.523  34.645  28.887  1.00  0.00     0.014 A 
ATOM     30  C   UNL A   1      35.063  33.168  31.214  1.00  0.00     0.010 A 
ATOM     31  C   UNL A   1      36.590  34.038  29.550  1.00  0.00     0.010 A 
ATOM     32  C   UNL A   1      36.371  33.290  30.716  1.00  0.00    -0.014 A 
BRANCH  32  33
ATOM     33  C   UNL A   1      37.512  32.615  31.389  1.00  0.00     0.031 A 
ATOM     34  C   UNL A   1      38.210  31.457  30.735  1.00  0.00     0.074 A 
ATOM     35  C   UNL A   1      37.878  33.013  32.623  1.00  0.00     0.049 A 
ATOM     36  N   UNL A   1      39.175  30.702  31.201  1.00  0.00    -0.248 NA
ATOM     37  C   UNL A   1      37.752  31.081  29.389  1.00  0.00     0.031 C 
ATOM     38  C   UNL A   1      37.252  34.096  33.383  1.00  0.00     0.029 A 
ATOM     39  N   UNL A   1      38.855  32.540  33.465  1.00  0.00    -0.354 N 
ATOM     40  C   UNL A   1      39.426  29.757  30.216  1.00  0.00     0.074 A 
ATOM     41  C   UNL A   1      38.492  30.008  29.140  1.00  0.00     0.031 C 
ATOM     42  C   UNL A   1      37.867  34.214  34.571  1.00  0.00     0.029 A 
ATOM     43  C   UNL A   1      38.906  33.194  34.672  1.00  0.00     0.049 A 
ATOM     44  H   UNL A   1      39.462  31.803  33.225  1.00  0.00     0.167 HD
ATOM     45  C   UNL A   1      40.365  28.780  30.204  1.00  0.00     0.037 A 
ATOM     46  C   UNL A   1      39.693  32.986  35.745  1.00  0.00     0.037 A 
ATOM     47  C   UNL A   1      41.317  28.551  31.261  1.00  0.00     0.049 A 
ATOM     48  C   UNL A   1      40.725  31.893  35.702  1.00  0.00     0.074 A 
ATOM     49  C   UNL A   1      42.352  27.633  31.304  1.00  0.00     0.029 A 
ATOM     50  N   UNL A   1      41.349  29.246  32.460  1.00  0.00    -0.354 N 
ATOM     51  N   UNL A   1      40.999  31.052  34.735  1.00  0.00    -0.248 NA
ATOM     52  C   UNL A   1      41.561  31.725  36.900  1.00  0.00     0.031 C 
ATOM     53  C   UNL A   1      42.985  27.744  32.547  1.00  0.00     0.029 A 
ATOM     54  C   UNL A   1      42.371  28.760  33.260  1.00  0.00     0.049 A 
ATOM     55  H   UNL A   1      40.736  29.975  32.707  1.00  0.00     0.167 HD
ATOM     56  C   UNL A   1      42.052  30.273  35.196  1.00  0.00     0.074 A 
ATOM     57  C   UNL A   1      42.378  30.751  36.523  1.00  0.00     0.031 C 
ATOM     58  C   UNL A   1      42.689  29.251  34.575  1.00  0.00     0.037 A 
BRANCH  45  59
ATOM     59  C   UNL A   1      40.423  27.881  29.006  1.00  0.00     0.064 A 
ATOM     60  C   UNL A   1      39.657  26.709  28.931  1.00  0.00     0.173 A 
ATOM     61  C   UNL A   1      41.200  28.231  27.890  1.00  0.00     0.173 A 
ATOM     62  F   UNL A   1      38.905  26.326  29.973  1.00  0.00    -0.203 F 
ATOM     63  C   UNL A   1      39.679  25.910  27.790  1.00  0.00     0.198 A 
ATOM     64  C   UNL A   1      41.199  27.444  26.742  1.00  0.00     0.198 A 
ATOM     65  F   UNL A   1      41.945  29.346  27.909  1.00  0.00    -0.203 F 
ATOM     66  F   UNL A   1      38.962  24.779  27.752  1.00  0.00    -0.200 F 
ATOM     67  C   UNL A   1      40.442  26.283  26.694  1.00  0.00     0.200 A 
ATOM     68  F   UNL A   1      41.928  27.812  25.679  1.00  0.00    -0.200 F 
ATOM     69  F   UNL A   1      40.450  25.522  25.591  1.00  0.00    -0.200 F 
ENDBRANCH  45  59
BRANCH  46  70
ATOM     70  C   UNL A   1      39.544  33.840  36.952  1.00  0.00     0.064 A 
ATOM     71  C   UNL A   1      38.751  33.427  38.031  1.00  0.00     0.173 A 
ATOM     72  C   UNL A   1      40.174  35.090  37.044  1.00  0.00     0.173 A 
ATOM     73  F   UNL A   1      38.112  32.249  37.979  1.00  0.00    -0.203 F 
ATOM     74  C   UNL A   1      38.575  34.241  39.147  1.00  0.00     0.198 A 
ATOM     75  C   UNL A   1      40.018  35.892  38.172  1.00  0.00     0.198 A 
ATOM     76  F   UNL A   1      40.946  35.530  36.039  1.00  0.00    -0.203 F 
ATOM     77  F   UNL A   1      37.773  33.843  40.144  1.00  0.00    -0.200 F 
ATOM     78  C   UNL A   1      39.212  35.471  39.218  1.00  0.00     0.200 A 
ATOM     79  F   UNL A   1      40.646  37.073  38.243  1.00  0.00    -0.200 F 
ATOM     80  F   UNL A   1      39.042  36.255  40.293  1.00  0.00    -0.200 F 
ENDBRANCH  46  70
BRANCH  58  81
ATOM     81  C   UNL A   1      43.821  28.600  35.313  1.00  0.00     0.064 A 
ATOM     82  C   UNL A   1      43.613  27.488  36.142  1.00  0.00     0.173 A 
ATOM     83  C   UNL A   1      45.133  29.074  35.162  1.00  0.00     0.173 A 
ATOM     84  F   UNL A   1      42.375  27.010  36.331  1.00  0.00    -0.203 F 
ATOM     85  C   UNL A   1      44.676  26.889  36.812  1.00  0.00     0.198 A 
ATOM     86  C   UNL A   1      46.196  28.454  35.813  1.00  0.00     0.198 A 
ATOM     87  F   UNL A   1      45.384  30.132  34.376  1.00  0.00    -0.203 F 
ATOM     88  F   UNL A   1      44.449  25.855  37.635  1.00  0.00    -0.200 F 
ATOM     89  C   UNL A   1      45.966  27.367  36.642  1.00  0.00     0.200 A 
ATOM     90  F   UNL A   1      47.444  28.912  35.639  1.00  0.00    -0.200 F 
ATOM     91  F   UNL A   1      46.988  26.786  37.285  1.00  0.00    -0.200 F 
ENDBRANCH  58  81
ENDBRANCH  32  33
ENDBRANCH  24  27
ENDBRANCH  22  23
ENDBRANCH  21  22
ENDBRANCH   1  21
TORSDOF 13
ENDMDL
MODEL 2
REMARK VINA RESULT:     -12.3      0.279      1.636
REMARK SMILES C[C@@H](C(=O)NCCCNC(=O)c1ccc(-c2c3nc(c(-c4c(F)c(F)c(F)c(F)c4F)c4ccc([nH]4)c(-c4c(F)c(F)c(F)c(F)c4F)c4nc(c(-c5c(F)c(F)c(F)c(F)c5F)c5ccc2[nH]5)C=C4)C=C3)cc1)c1ccc(C[C@H]2CCCC2=O)cc1
REMARK SMILES IDX 6 1 5 2 3 3 4 4 2 6 1 7 75 8 76 9 87 10 77 11 86 12 78 13
REMARK SMILES IDX 79 14 80 15 81 16 84 17 82 18 83 19 85 20 7 21 8 22 9 23
REMARK SMILES IDX 10 24 11 26 12 27 13 28 74 29 14 30 73 31 15 32 16 33 17 34
REMARK SMILES IDX 67 35 18 36 72 37 66 38 68 39 19 40 71 41 65 42 64 43 20 45
REMARK SMILES IDX 52 46 32 47 51 48 33 49 36 50 50 51 69 52 34 53 35 54 49 56
REMARK SMILES IDX 70 57 37 58 21 59 22 60 30 61 23 62 24 63 28 64 31 65 25 66
REMARK SMILES IDX 26 67 29 68 27 69 53 70 54 71 62 72 55 73 56 74 60 75 63 76
REMARK SMILES IDX 57 77 58 78 61 79 59 80 38 81 39 82 47 83 40 84 41 85 45 86
REMARK SMILES IDX 48 87 42 88 43 89 46 90 44 91
REMARK H PARENT 5 5 9 25 68 44 36 55
REMARK Flexibility Score: inf
ROOT
ATOM      1  C   UNL A   1      31.261  30.969  26.502  1.00  0.00     0.117 C 
ENDROOT
BRANCH   1   2
ATOM      2  N   UNL A   1      31.868  30.375  25.327  1.00  0.00    -0.356 N 
ATOM      3  C   UNL A   1      32.810  29.394  25.211  1.00  0.00     0.227 C 
ATOM      4  O   UNL A   1      33.270  29.204  24.082  1.00  0.00    -0.274 OA
ATOM      5  H   UNL A   1      31.548  30.740  24.471  1.00  0.00     0.163 HD
BRANCH   3   6
ATOM      6  C   UNL A   1      33.231  28.572  26.441  1.00  0.00     0.105 C 
ATOM      7  C   UNL A   1      34.678  28.892  26.834  1.00  0.00     0.023 C 
BRANCH   6   8
ATOM      8  C   UNL A   1      32.969  27.079  26.240  1.00  0.00    -0.036 A 
ATOM      9  C   UNL A   1      31.681  26.576  26.488  1.00  0.00     0.005 A 
ATOM     10  C   UNL A   1      33.954  26.179  25.805  1.00  0.00     0.005 A 
ATOM     11  C   UNL A   1      31.395  25.217  26.326  1.00  0.00     0.004 A 
ATOM     12  C   UNL A   1      33.676  24.817  25.672  1.00  0.00     0.004 A 
ATOM     13  C   UNL A   1      32.398  24.320  25.947  1.00  0.00    -0.047 A 
BRANCH  13  14
ATOM     14  C   UNL A   1      32.118  22.840  25.841  1.00  0.00     0.047 C 
BRANCH  14  15
ATOM     15  C   UNL A   1      33.095  22.026  24.984  1.00  0.00     0.060 C 
ATOM     16  C   UNL A   1      33.546  20.674  25.552  1.00  0.00     0.012 C 
ATOM     17  C   UNL A   1      32.501  21.626  23.653  1.00  0.00     0.136 C 
ATOM     18  C   UNL A   1      32.660  19.621  24.896  1.00  0.00     0.009 C 
ATOM     19  C   UNL A   1      32.399  20.133  23.486  1.00  0.00     0.076 C 
ATOM     20  O   UNL A   1      32.159  22.427  22.791  1.00  0.00    -0.299 OA
ENDBRANCH  14  15
ENDBRANCH  13  14
ENDBRANCH   6   8
ENDBRANCH   3   6
ENDBRANCH   1   2
BRANCH   1  21
ATOM     21  C   UNL A   1      31.381  32.494  26.485  1.00  0.00     0.042 C 
BRANCH  21  22
ATOM     22  C   UNL A   1      32.582  33.041  27.253  1.00  0.00     0.118 C 
BRANCH  22  23
ATOM     23  N   UNL A   1      32.379  34.404  27.716  1.00  0.00    -0.352 N 
ATOM     24  C   UNL A   1      33.004  35.100  28.721  1.00  0.00     0.251 C 
ATOM     25  H   UNL A   1      31.683  34.907  27.234  1.00  0.00     0.163 HD
ATOM     26  O   UNL A   1      32.556  36.191  29.068  1.00  0.00    -0.269 OA
BRANCH  24  27
ATOM     27  C   UNL A   1      34.191  34.548  29.410  1.00  0.00     0.039 A 
ATOM     28  C   UNL A   1      34.020  33.960  30.666  1.00  0.00     0.014 A 
ATOM     29  C   UNL A   1      35.472  34.638  28.854  1.00  0.00     0.014 A 
ATOM     30  C   UNL A   1      35.114  33.403  31.334  1.00  0.00     0.010 A 
ATOM     31  C   UNL A   1      36.553  34.029  29.492  1.00  0.00     0.010 A 
ATOM     32  C   UNL A   1      36.384  33.400  30.735  1.00  0.00    -0.014 A 
BRANCH  32  33
ATOM     33  C   UNL A   1      37.535  32.720  31.383  1.00  0.00     0.031 A 
ATOM     34  C   UNL A   1      38.207  31.552  30.719  1.00  0.00     0.074 A 
ATOM     35  C   UNL A   1      37.934  33.119  32.607  1.00  0.00     0.049 A 
ATOM     36  N   UNL A   1      39.177  30.792  31.165  1.00  0.00    -0.248 NA
ATOM     37  C   UNL A   1      37.714  31.174  29.386  1.00  0.00     0.031 C 
ATOM     38  C   UNL A   1      37.336  34.211  33.376  1.00  0.00     0.029 A 
ATOM     39  N   UNL A   1      38.927  32.643  33.427  1.00  0.00    -0.354 N 
ATOM     40  C   UNL A   1      39.397  29.840  30.179  1.00  0.00     0.074 A 
ATOM     41  C   UNL A   1      38.439  30.094  29.125  1.00  0.00     0.031 C 
ATOM     42  C   UNL A   1      37.980  34.330  34.548  1.00  0.00     0.029 A 
ATOM     43  C   UNL A   1      39.013  33.301  34.629  1.00  0.00     0.049 A 
ATOM     44  H   UNL A   1      39.522  31.899  33.176  1.00  0.00     0.167 HD
ATOM     45  C   UNL A   1      40.326  28.855  30.149  1.00  0.00     0.037 A 
ATOM     46  C   UNL A   1      39.823  33.092  35.684  1.00  0.00     0.037 A 
ATOM     47  C   UNL A   1      41.302  28.622  31.184  1.00  0.00     0.049 A 
ATOM     48  C   UNL A   1      40.845  31.990  35.622  1.00  0.00     0.074 A 
ATOM     49  C   UNL A   1      42.330  27.695  31.207  1.00  0.00     0.029 A 
ATOM     50  N   UNL A   1      41.368  29.323  32.378  1.00  0.00    -0.354 N 
ATOM     51  N   UNL A   1      41.089  31.142  34.652  1.00  0.00    -0.248 NA
ATOM     52  C   UNL A   1      41.708  31.820  36.799  1.00  0.00     0.031 C 
ATOM     53  C   UNL A   1      42.993  27.807  32.433  1.00  0.00     0.029 A 
ATOM     54  C   UNL A   1      42.405  28.832  33.156  1.00  0.00     0.049 A 
ATOM     55  H   UNL A   1      40.768  30.058  32.636  1.00  0.00     0.167 HD
ATOM     56  C   UNL A   1      42.145  30.356  35.092  1.00  0.00     0.074 A 
ATOM     57  C   UNL A   1      42.507  30.837  36.408  1.00  0.00     0.031 C 
ATOM     58  C   UNL A   1      42.759  29.326  34.460  1.00  0.00     0.037 A 
BRANCH  45  59
ATOM     59  C   UNL A   1      40.348  27.949  28.954  1.00  0.00     0.064 A 
ATOM     60  C   UNL A   1      41.117  28.248  27.821  1.00  0.00     0.173 A 
ATOM     61  C   UNL A   1      39.645  26.734  28.970  1.00  0.00     0.173 A 
ATOM     62  F   UNL A   1      41.800  29.400  27.754  1.00  0.00    -0.203 F 
ATOM     63  C   UNL A   1      41.171  27.372  26.740  1.00  0.00     0.198 A 
ATOM     64  C   UNL A   1      39.721  25.848  27.898  1.00  0.00     0.198 A 
ATOM     65  F   UNL A   1      38.900  26.398  30.033  1.00  0.00    -0.203 F 
ATOM     66  F   UNL A   1      41.889  27.692  25.655  1.00  0.00    -0.200 F 
ATOM     67  C   UNL A   1      40.480  26.170  26.783  1.00  0.00     0.200 A 
ATOM     68  F   UNL A   1      39.063  24.682  27.946  1.00  0.00    -0.200 F 
ATOM     69  F   UNL A   1      40.545  25.321  25.748  1.00  0.00    -0.200 F 
ENDBRANCH  45  59
BRANCH  46  70
ATOM     70  C   UNL A   1      39.711  33.952  36.890  1.00  0.00     0.064 A 
ATOM     71  C   UNL A   1      38.906  33.572  37.972  1.00  0.00     0.173 A 
ATOM     72  C   UNL A   1      40.388  35.178  36.978  1.00  0.00     0.173 A 
ATOM     73  F   UNL A   1      38.222  32.419  37.924  1.00  0.00    -0.203 F 
ATOM     74  C   UNL A   1      38.764  34.394  39.087  1.00  0.00     0.198 A 
ATOM     75  C   UNL A   1      40.266  35.987  38.105  1.00  0.00     0.198 A 
ATOM     76  F   UNL A   1      41.173  35.586  35.970  1.00  0.00    -0.203 F 
ATOM     77  F   UNL A   1      37.950  34.028  40.087  1.00  0.00    -0.200 F 
ATOM     78  C   UNL A   1      39.448  35.598  39.155  1.00  0.00     0.200 A 
ATOM     79  F   UNL A   1      40.939  37.143  38.173  1.00  0.00    -0.200 F 
ATOM     80  F   UNL A   1      39.311  36.389  40.228  1.00  0.00    -0.200 F 
ENDBRANCH  46  70
BRANCH  58  81
ATOM     81  C   UNL A   1      43.903  28.668  35.174  1.00  0.00     0.064 A 
ATOM     82  C   UNL A   1      45.223  29.115  35.012  1.00  0.00     0.173 A 
ATOM     83  C   UNL A   1      43.671  27.600  36.054  1.00  0.00     0.173 A 
ATOM     84  F   UNL A   1      45.495  30.121  34.168  1.00  0.00    -0.203 F 
ATOM     85  C   UNL A   1      46.272  28.501  35.689  1.00  0.00     0.198 A 
ATOM     86  C   UNL A   1      44.721  27.007  36.750  1.00  0.00     0.198 A 
ATOM     87  F   UNL A   1      42.426  27.140  36.247  1.00  0.00    -0.203 F 
ATOM     88  F   UNL A   1      47.531  28.914  35.485  1.00  0.00    -0.200 F 
ATOM     89  C   UNL A   1      46.020  27.453  36.562  1.00  0.00     0.200 A 
ATOM     90  F   UNL A   1      44.474  26.001  37.601  1.00  0.00    -0.200 F 
ATOM     91  F   UNL A   1      47.032  26.866  37.216  1.00  0.00    -0.200 F 
ENDBRANCH  58  81
ENDBRANCH  32  33
ENDBRANCH  24  27
ENDBRANCH  22  23
ENDBRANCH  21  22
ENDBRANCH   1  21
TORSDOF 13
ENDMDL
MODEL 3
REMARK VINA RESULT:     -12.2      6.022     11.418
REMARK SMILES C[C@@H](C(=O)NCCCNC(=O)c1ccc(-c2c3nc(c(-c4c(F)c(F)c(F)c(F)c4F)c4ccc([nH]4)c(-c4c(F)c(F)c(F)c(F)c4F)c4nc(c(-c5c(F)c(F)c(F)c(F)c5F)c5ccc2[nH]5)C=C4)C=C3)cc1)c1ccc(C[C@H]2CCCC2=O)cc1
REMARK SMILES IDX 6 1 5 2 3 3 4 4 2 6 1 7 75 8 76 9 87 10 77 11 86 12 78 13
REMARK SMILES IDX 79 14 80 15 81 16 84 17 82 18 83 19 85 20 7 21 8 22 9 23
REMARK SMILES IDX 10 24 11 26 12 27 13 28 74 29 14 30 73 31 15 32 16 33 17 34
REMARK SMILES IDX 67 35 18 36 72 37 66 38 68 39 19 40 71 41 65 42 64 43 20 45
REMARK SMILES IDX 52 46 32 47 51 48 33 49 36 50 50 51 69 52 34 53 35 54 49 56
REMARK SMILES IDX 70 57 37 58 21 59 22 60 30 61 23 62 24 63 28 64 31 65 25 66
REMARK SMILES IDX 26 67 29 68 27 69 53 70 54 71 62 72 55 73 56 74 60 75 63 76
REMARK SMILES IDX 57 77 58 78 61 79 59 80 38 81 39 82 47 83 40 84 41 85 45 86
REMARK SMILES IDX 48 87 42 88 43 89 46 90 44 91
REMARK H PARENT 5 5 9 25 68 44 36 55
REMARK Flexibility Score: inf
ROOT
ATOM      1  C   UNL A   1      37.200  20.202  24.586  1.00  0.00     0.117 C 
ENDROOT
BRANCH   1   2
ATOM      2  N   UNL A   1      36.057  20.605  25.383  1.00  0.00    -0.356 N 
ATOM      3  C   UNL A   1      35.640  21.843  25.779  1.00  0.00     0.227 C 
ATOM      4  O   UNL A   1      34.721  21.876  26.601  1.00  0.00    -0.274 OA
ATOM      5  H   UNL A   1      35.488  19.862  25.689  1.00  0.00     0.163 HD
BRANCH   3   6
ATOM      6  C   UNL A   1      36.289  23.107  25.189  1.00  0.00     0.105 C 
ATOM      7  C   UNL A   1      37.369  23.649  26.131  1.00  0.00     0.023 C 
BRANCH   6   8
ATOM      8  C   UNL A   1      35.241  24.150  24.798  1.00  0.00    -0.036 A 
ATOM      9  C   UNL A   1      34.721  24.135  23.493  1.00  0.00     0.005 A 
ATOM     10  C   UNL A   1      34.758  25.122  25.687  1.00  0.00     0.005 A 
ATOM     11  C   UNL A   1      33.768  25.073  23.087  1.00  0.00     0.004 A 
ATOM     12  C   UNL A   1      33.828  26.078  25.272  1.00  0.00     0.004 A 
ATOM     13  C   UNL A   1      33.335  26.073  23.964  1.00  0.00    -0.047 A 
BRANCH  13  14
ATOM     14  C   UNL A   1      32.362  27.135  23.512  1.00  0.00     0.047 C 
BRANCH  14  15
ATOM     15  C   UNL A   1      31.061  26.633  22.873  1.00  0.00     0.060 C 
ATOM     16  C   UNL A   1      30.275  25.574  23.654  1.00  0.00     0.012 C 
ATOM     17  C   UNL A   1      30.036  27.732  22.712  1.00  0.00     0.136 C 
ATOM     18  C   UNL A   1      29.187  26.325  24.413  1.00  0.00     0.009 C 
ATOM     19  C   UNL A   1      28.779  27.474  23.501  1.00  0.00     0.076 C 
ATOM     20  O   UNL A   1      30.197  28.716  22.000  1.00  0.00    -0.299 OA
ENDBRANCH  14  15
ENDBRANCH  13  14
ENDBRANCH   6   8
ENDBRANCH   3   6
ENDBRANCH   1   2
BRANCH   1  21
ATOM     21  C   UNL A   1      38.135  19.282  25.373  1.00  0.00     0.042 C 
BRANCH  21  22
ATOM     22  C   UNL A   1      39.461  19.923  25.774  1.00  0.00     0.118 C 
BRANCH  22  23
ATOM     23  N   UNL A   1      40.533  18.951  25.920  1.00  0.00    -0.352 N 
ATOM     24  C   UNL A   1      41.876  19.140  26.127  1.00  0.00     0.251 C 
ATOM     25  H   UNL A   1      40.251  18.010  25.861  1.00  0.00     0.163 HD
ATOM     26  O   UNL A   1      42.640  18.180  26.044  1.00  0.00    -0.269 OA
BRANCH  24  27
ATOM     27  C   UNL A   1      42.424  20.483  26.421  1.00  0.00     0.039 A 
ATOM     28  C   UNL A   1      42.867  21.271  25.356  1.00  0.00     0.014 A 
ATOM     29  C   UNL A   1      42.544  20.956  27.732  1.00  0.00     0.014 A 
ATOM     30  C   UNL A   1      43.364  22.555  25.593  1.00  0.00     0.010 A 
ATOM     31  C   UNL A   1      42.983  22.260  27.965  1.00  0.00     0.010 A 
ATOM     32  C   UNL A   1      43.392  23.075  26.898  1.00  0.00    -0.014 A 
BRANCH  32  33
ATOM     33  C   UNL A   1      43.817  24.475  27.156  1.00  0.00     0.031 A 
ATOM     34  C   UNL A   1      42.829  25.499  27.640  1.00  0.00     0.074 A 
ATOM     35  C   UNL A   1      45.088  24.837  26.893  1.00  0.00     0.049 A 
ATOM     36  N   UNL A   1      43.002  26.780  27.850  1.00  0.00    -0.248 NA
ATOM     37  C   UNL A   1      41.461  25.028  27.903  1.00  0.00     0.031 C 
ATOM     38  C   UNL A   1      46.131  23.948  26.379  1.00  0.00     0.029 A 
ATOM     39  N   UNL A   1      45.715  26.054  27.004  1.00  0.00    -0.354 N 
ATOM     40  C   UNL A   1      41.767  27.269  28.252  1.00  0.00     0.074 A 
ATOM     41  C   UNL A   1      40.843  26.156  28.224  1.00  0.00     0.031 C 
ATOM     42  C   UNL A   1      47.270  24.644  26.232  1.00  0.00     0.029 A 
ATOM     43  C   UNL A   1      47.030  26.034  26.607  1.00  0.00     0.049 A 
ATOM     44  H   UNL A   1      45.265  26.864  27.338  1.00  0.00     0.167 HD
ATOM     45  C   UNL A   1      41.439  28.529  28.628  1.00  0.00     0.037 A 
ATOM     46  C   UNL A   1      47.937  27.028  26.539  1.00  0.00     0.037 A 
ATOM     47  C   UNL A   1      42.366  29.629  28.687  1.00  0.00     0.049 A 
ATOM     48  C   UNL A   1      47.543  28.416  26.962  1.00  0.00     0.074 A 
ATOM     49  C   UNL A   1      42.142  30.923  29.126  1.00  0.00     0.029 A 
ATOM     50  N   UNL A   1      43.694  29.565  28.294  1.00  0.00    -0.354 N 
ATOM     51  N   UNL A   1      46.389  28.848  27.408  1.00  0.00    -0.248 NA
ATOM     52  C   UNL A   1      48.581  29.454  26.877  1.00  0.00     0.031 C 
ATOM     53  C   UNL A   1      43.323  31.654  28.960  1.00  0.00     0.029 A 
ATOM     54  C   UNL A   1      44.295  30.804  28.458  1.00  0.00     0.049 A 
ATOM     55  H   UNL A   1      44.143  28.761  27.950  1.00  0.00     0.167 HD
ATOM     56  C   UNL A   1      46.568  30.198  27.679  1.00  0.00     0.074 A 
ATOM     57  C   UNL A   1      47.945  30.511  27.362  1.00  0.00     0.031 C 
ATOM     58  C   UNL A   1      45.669  31.098  28.146  1.00  0.00     0.037 A 
BRANCH  45  59
ATOM     59  C   UNL A   1      40.015  28.794  29.017  1.00  0.00     0.064 A 
ATOM     60  C   UNL A   1      39.057  29.185  28.072  1.00  0.00     0.173 A 
ATOM     61  C   UNL A   1      39.588  28.587  30.338  1.00  0.00     0.173 A 
ATOM     62  F   UNL A   1      39.416  29.404  26.798  1.00  0.00    -0.203 F 
ATOM     63  C   UNL A   1      37.727  29.376  28.436  1.00  0.00     0.198 A 
ATOM     64  C   UNL A   1      38.253  28.754  30.694  1.00  0.00     0.198 A 
ATOM     65  F   UNL A   1      40.465  28.205  31.279  1.00  0.00    -0.203 F 
ATOM     66  F   UNL A   1      36.834  29.780  27.522  1.00  0.00    -0.200 F 
ATOM     67  C   UNL A   1      37.324  29.152  29.744  1.00  0.00     0.200 A 
ATOM     68  F   UNL A   1      37.863  28.525  31.956  1.00  0.00    -0.200 F 
ATOM     69  F   UNL A   1      36.041  29.321  30.090  1.00  0.00    -0.200 F 
ENDBRANCH  45  59
BRANCH  46  70
ATOM     70  C   UNL A   1      49.315  26.745  26.061  1.00  0.00     0.064 A 
ATOM     71  C   UNL A   1      50.300  26.276  26.941  1.00  0.00     0.173 A 
ATOM     72  C   UNL A   1      49.680  26.955  24.723  1.00  0.00     0.173 A 
ATOM     73  F   UNL A   1      50.003  26.082  28.234  1.00  0.00    -0.203 F 
ATOM     74  C   UNL A   1      51.603  26.049  26.506  1.00  0.00     0.198 A 
ATOM     75  C   UNL A   1      50.977  26.702  24.284  1.00  0.00     0.198 A 
ATOM     76  F   UNL A   1      48.773  27.400  23.840  1.00  0.00    -0.203 F 
ATOM     77  F   UNL A   1      52.537  25.646  27.379  1.00  0.00    -0.200 F 
ATOM     78  C   UNL A   1      51.940  26.257  25.177  1.00  0.00     0.200 A 
ATOM     79  F   UNL A   1      51.296  26.892  22.997  1.00  0.00    -0.200 F 
ATOM     80  F   UNL A   1      53.195  26.039  24.760  1.00  0.00    -0.200 F 
ENDBRANCH  46  70
BRANCH  58  81
ATOM     81  C   UNL A   1      46.155  32.500  28.370  1.00  0.00     0.064 A 
ATOM     82  C   UNL A   1      46.725  32.893  29.589  1.00  0.00     0.173 A 
ATOM     83  C   UNL A   1      46.078  33.451  27.341  1.00  0.00     0.173 A 
ATOM     84  F   UNL A   1      46.804  32.024  30.608  1.00  0.00    -0.203 F 
ATOM     85  C   UNL A   1      47.181  34.194  29.778  1.00  0.00     0.198 A 
ATOM     86  C   UNL A   1      46.560  34.743  27.525  1.00  0.00     0.198 A 
ATOM     87  F   UNL A   1      45.545  33.122  26.154  1.00  0.00    -0.203 F 
ATOM     88  F   UNL A   1      47.681  34.561  30.966  1.00  0.00    -0.200 F 
ATOM     89  C   UNL A   1      47.105  35.116  28.744  1.00  0.00     0.200 A 
ATOM     90  F   UNL A   1      46.494  35.630  26.522  1.00  0.00    -0.200 F 
ATOM     91  F   UNL A   1      47.548  36.368  28.927  1.00  0.00    -0.200 F 
ENDBRANCH  58  81
ENDBRANCH  32  33
ENDBRANCH  24  27
ENDBRANCH  22  23
ENDBRANCH  21  22
ENDBRANCH   1  21
TORSDOF 13
ENDMDL
