MODEL 1
REMARK VINA RESULT:     -10.5      0.000      0.000
REMARK SMILES CC(C)[C@@H](C(=O)NCCCNC(=O)c1ccc(-c2c3nc(c(-c4c(F)c(F)c(F)c(F)c4F)c4ccc([nH]4)c(-c4c(F)c(F)c(F)c(F)c4F)c4nc(c(-c5c(F)c(F)c(F)c(F)c5F)c5ccc2[nH]5)C=C4)C=C3)cc1)N1C(=O)/C(=C\c2ccc([N+](=O)[O-])cc2)SC1=S
REMARK SMILES IDX 8 1 7 2 5 3 6 4 4 6 2 7 1 8 3 9 77 10 78 11 92 12 79 13
REMARK SMILES IDX 80 14 91 15 93 16 81 17 82 18 83 19 90 20 84 21 89 22 85 23
REMARK SMILES IDX 86 24 87 25 88 26 9 27 10 28 11 29 12 30 13 32 14 33 15 34
REMARK SMILES IDX 76 35 16 36 75 37 17 38 18 39 19 40 69 41 20 42 74 43 68 44
REMARK SMILES IDX 70 45 21 46 73 47 67 48 66 49 22 51 54 52 34 53 53 54 35 55
REMARK SMILES IDX 38 56 52 57 71 58 36 59 37 60 51 62 72 63 39 64 23 65 24 66
REMARK SMILES IDX 32 67 25 68 26 69 30 70 33 71 27 72 28 73 31 74 29 75 55 76
REMARK SMILES IDX 56 77 64 78 57 79 58 80 62 81 65 82 59 83 60 84 63 85 61 86
REMARK SMILES IDX 40 87 41 88 49 89 42 90 43 91 47 92 50 93 44 94 45 95 48 96
REMARK SMILES IDX 46 97
REMARK H PARENT 7 5 11 31 70 50 38 61
REMARK Flexibility Score: inf
ROOT
ATOM      1  C   UNL A   1      48.440  20.854  34.725  1.00  0.00     0.117 C 
ENDROOT
BRANCH   1   2
ATOM      2  N   UNL A   1      49.519  20.124  35.367  1.00  0.00    -0.354 N 
ATOM      3  C   UNL A   1      50.874  20.210  35.287  1.00  0.00     0.243 C 
ATOM      4  O   UNL A   1      51.463  19.683  36.238  1.00  0.00    -0.273 OA
ATOM      5  H   UNL A   1      49.206  19.426  35.988  1.00  0.00     0.163 HD
BRANCH   3   6
ATOM      6  C   UNL A   1      51.638  20.984  34.172  1.00  0.00     0.184 C 
BRANCH   6   7
ATOM      7  C   UNL A   1      53.080  20.618  33.709  1.00  0.00     0.015 C 
ATOM      8  C   UNL A   1      53.378  19.143  33.529  1.00  0.00     0.010 C 
ATOM      9  C   UNL A   1      53.408  21.335  32.383  1.00  0.00     0.010 C 
ENDBRANCH   6   7
BRANCH   6  10
ATOM     10  N   UNL A   1      51.606  22.440  34.523  1.00  0.00    -0.280 N 
ATOM     11  C   UNL A   1      50.841  23.271  33.720  1.00  0.00     0.266 C 
ATOM     12  C   UNL A   1      52.371  23.066  35.497  1.00  0.00     0.149 C 
ATOM     13  O   UNL A   1      50.112  22.890  32.821  1.00  0.00    -0.268 OA
ATOM     14  C   UNL A   1      51.105  24.704  34.050  1.00  0.00     0.081 C 
ATOM     15  S   UNL A   1      52.056  24.800  35.480  1.00  0.00    -0.054 SA
ATOM     16  S   UNL A   1      53.507  22.437  36.554  1.00  0.00    -0.052 S 
ATOM     17  C   UNL A   1      50.784  25.787  33.327  1.00  0.00     0.029 C 
BRANCH  17  18
ATOM     18  C   UNL A   1      50.085  25.754  32.042  1.00  0.00    -0.024 A 
ATOM     19  C   UNL A   1      50.803  25.492  30.868  1.00  0.00     0.015 A 
ATOM     20  C   UNL A   1      48.698  25.938  31.981  1.00  0.00     0.015 A 
ATOM     21  C   UNL A   1      50.135  25.359  29.648  1.00  0.00     0.086 A 
ATOM     22  C   UNL A   1      48.019  25.792  30.770  1.00  0.00     0.086 A 
ATOM     23  C   UNL A   1      48.740  25.489  29.609  1.00  0.00     0.269 A 
BRANCH  23  24
ATOM     24  N   UNL A   1      48.023  25.284  28.345  1.00  0.00     0.062 N 
ATOM     25  O   UNL A   1      48.505  24.480  27.534  1.00  0.00    -0.258 OA
ATOM     26  O   UNL A   1      46.976  25.922  28.165  1.00  0.00    -0.258 OA
ENDBRANCH  23  24
ENDBRANCH  17  18
ENDBRANCH   6  10
ENDBRANCH   3   6
ENDBRANCH   1   2
BRANCH   1  27
ATOM     27  C   UNL A   1      47.686  21.759  35.699  1.00  0.00     0.042 C 
BRANCH  27  28
ATOM     28  C   UNL A   1      47.581  23.216  35.262  1.00  0.00     0.118 C 
BRANCH  28  29
ATOM     29  N   UNL A   1      48.025  24.132  36.298  1.00  0.00    -0.352 N 
ATOM     30  C   UNL A   1      47.701  25.453  36.496  1.00  0.00     0.251 C 
ATOM     31  H   UNL A   1      48.649  23.750  36.957  1.00  0.00     0.163 HD
ATOM     32  O   UNL A   1      48.361  26.126  37.283  1.00  0.00    -0.269 OA
BRANCH  30  33
ATOM     33  C   UNL A   1      46.577  26.081  35.759  1.00  0.00     0.039 A 
ATOM     34  C   UNL A   1      46.843  27.169  34.923  1.00  0.00     0.014 A 
ATOM     35  C   UNL A   1      45.260  25.643  35.924  1.00  0.00     0.014 A 
ATOM     36  C   UNL A   1      45.801  27.783  34.221  1.00  0.00     0.010 A 
ATOM     37  C   UNL A   1      44.237  26.194  35.152  1.00  0.00     0.010 A 
ATOM     38  C   UNL A   1      44.492  27.285  34.309  1.00  0.00    -0.014 A 
BRANCH  38  39
ATOM     39  C   UNL A   1      43.371  27.919  33.564  1.00  0.00     0.031 A 
ATOM     40  C   UNL A   1      43.143  27.584  32.114  1.00  0.00     0.074 A 
ATOM     41  C   UNL A   1      42.585  28.826  34.174  1.00  0.00     0.049 A 
ATOM     42  N   UNL A   1      42.252  28.061  31.279  1.00  0.00    -0.248 NA
ATOM     43  C   UNL A   1      44.056  26.600  31.512  1.00  0.00     0.031 C 
ATOM     44  C   UNL A   1      42.720  29.265  35.563  1.00  0.00     0.029 A 
ATOM     45  N   UNL A   1      41.514  29.545  33.701  1.00  0.00    -0.354 N 
ATOM     46  C   UNL A   1      42.509  27.447  30.060  1.00  0.00     0.074 A 
ATOM     47  C   UNL A   1      43.680  26.619  30.244  1.00  0.00     0.031 C 
ATOM     48  C   UNL A   1      41.745  30.146  35.842  1.00  0.00     0.029 A 
ATOM     49  C   UNL A   1      40.943  30.366  34.642  1.00  0.00     0.049 A 
ATOM     50  H   UNL A   1      41.186  29.476  32.775  1.00  0.00     0.167 HD
ATOM     51  C   UNL A   1      41.815  27.538  28.900  1.00  0.00     0.037 A 
ATOM     52  C   UNL A   1      39.892  31.203  34.547  1.00  0.00     0.037 A 
ATOM     53  C   UNL A   1      40.641  28.351  28.722  1.00  0.00     0.049 A 
ATOM     54  C   UNL A   1      39.160  31.318  33.237  1.00  0.00     0.074 A 
ATOM     55  C   UNL A   1      39.840  28.484  27.601  1.00  0.00     0.029 A 
ATOM     56  N   UNL A   1      40.101  29.180  29.696  1.00  0.00    -0.354 N 
ATOM     57  N   UNL A   1      39.373  30.686  32.108  1.00  0.00    -0.248 NA
ATOM     58  C   UNL A   1      38.034  32.261  33.193  1.00  0.00     0.031 C 
ATOM     59  C   UNL A   1      38.848  29.430  27.880  1.00  0.00     0.029 A 
ATOM     60  C   UNL A   1      38.993  29.844  29.195  1.00  0.00     0.049 A 
ATOM     61  H   UNL A   1      40.454  29.281  30.611  1.00  0.00     0.167 HD
ATOM     62  C   UNL A   1      38.391  31.126  31.232  1.00  0.00     0.074 A 
ATOM     63  C   UNL A   1      37.573  32.072  31.963  1.00  0.00     0.031 C 
ATOM     64  C   UNL A   1      38.182  30.777  29.938  1.00  0.00     0.037 A 
BRANCH  51  65
ATOM     65  C   UNL A   1      42.318  26.733  27.732  1.00  0.00     0.064 A 
ATOM     66  C   UNL A   1      43.305  27.230  26.865  1.00  0.00     0.173 A 
ATOM     67  C   UNL A   1      41.809  25.452  27.475  1.00  0.00     0.173 A 
ATOM     68  F   UNL A   1      43.821  28.453  27.059  1.00  0.00    -0.203 F 
ATOM     69  C   UNL A   1      43.724  26.496  25.758  1.00  0.00     0.198 A 
ATOM     70  C   UNL A   1      42.257  24.706  26.387  1.00  0.00     0.198 A 
ATOM     71  F   UNL A   1      40.871  24.923  28.274  1.00  0.00    -0.203 F 
ATOM     72  F   UNL A   1      44.613  27.024  24.905  1.00  0.00    -0.200 F 
ATOM     73  C   UNL A   1      43.203  25.234  25.522  1.00  0.00     0.200 A 
ATOM     74  F   UNL A   1      41.764  23.479  26.169  1.00  0.00    -0.200 F 
ATOM     75  F   UNL A   1      43.605  24.531  24.454  1.00  0.00    -0.200 F 
ENDBRANCH  51  65
BRANCH  52  76
ATOM     76  C   UNL A   1      39.439  31.963  35.741  1.00  0.00     0.064 A 
ATOM     77  C   UNL A   1      39.987  33.220  36.038  1.00  0.00     0.173 A 
ATOM     78  C   UNL A   1      38.453  31.462  36.603  1.00  0.00     0.173 A 
ATOM     79  F   UNL A   1      40.948  33.732  35.254  1.00  0.00    -0.203 F 
ATOM     80  C   UNL A   1      39.578  33.938  37.159  1.00  0.00     0.198 A 
ATOM     81  C   UNL A   1      38.024  32.195  37.708  1.00  0.00     0.198 A 
ATOM     82  F   UNL A   1      37.894  30.267  36.362  1.00  0.00    -0.203 F 
ATOM     83  F   UNL A   1      40.148  35.117  37.440  1.00  0.00    -0.200 F 
ATOM     84  C   UNL A   1      38.592  33.428  37.989  1.00  0.00     0.200 A 
ATOM     85  F   UNL A   1      37.061  31.705  38.500  1.00  0.00    -0.200 F 
ATOM     86  F   UNL A   1      38.193  34.123  39.063  1.00  0.00    -0.200 F 
ENDBRANCH  52  76
BRANCH  64  87
ATOM     87  C   UNL A   1      36.997  31.382  29.242  1.00  0.00     0.064 A 
ATOM     88  C   UNL A   1      35.852  30.629  28.941  1.00  0.00     0.173 A 
ATOM     89  C   UNL A   1      36.995  32.744  28.902  1.00  0.00     0.173 A 
ATOM     90  F   UNL A   1      35.809  29.320  29.229  1.00  0.00    -0.203 F 
ATOM     91  C   UNL A   1      34.762  31.212  28.300  1.00  0.00     0.198 A 
ATOM     92  C   UNL A   1      35.890  33.331  28.293  1.00  0.00     0.198 A 
ATOM     93  F   UNL A   1      38.062  33.510  29.174  1.00  0.00    -0.203 F 
ATOM     94  F   UNL A   1      33.699  30.462  27.975  1.00  0.00    -0.200 F 
ATOM     95  C   UNL A   1      34.777  32.562  27.985  1.00  0.00     0.200 A 
ATOM     96  F   UNL A   1      35.901  34.639  28.003  1.00  0.00    -0.200 F 
ATOM     97  F   UNL A   1      33.723  33.123  27.376  1.00  0.00    -0.200 F 
ENDBRANCH  64  87
ENDBRANCH  38  39
ENDBRANCH  30  33
ENDBRANCH  28  29
ENDBRANCH  27  28
ENDBRANCH   1  27
TORSDOF 14
ENDMDL
MODEL 2
REMARK VINA RESULT:     -10.4      2.330      3.945
REMARK SMILES CC(C)[C@@H](C(=O)NCCCNC(=O)c1ccc(-c2c3nc(c(-c4c(F)c(F)c(F)c(F)c4F)c4ccc([nH]4)c(-c4c(F)c(F)c(F)c(F)c4F)c4nc(c(-c5c(F)c(F)c(F)c(F)c5F)c5ccc2[nH]5)C=C4)C=C3)cc1)N1C(=O)/C(=C\c2ccc([N+](=O)[O-])cc2)SC1=S
REMARK SMILES IDX 8 1 7 2 5 3 6 4 4 6 2 7 1 8 3 9 77 10 78 11 92 12 79 13
REMARK SMILES IDX 80 14 91 15 93 16 81 17 82 18 83 19 90 20 84 21 89 22 85 23
REMARK SMILES IDX 86 24 87 25 88 26 9 27 10 28 11 29 12 30 13 32 14 33 15 34
REMARK SMILES IDX 76 35 16 36 75 37 17 38 18 39 19 40 69 41 20 42 74 43 68 44
REMARK SMILES IDX 70 45 21 46 73 47 67 48 66 49 22 51 54 52 34 53 53 54 35 55
REMARK SMILES IDX 38 56 52 57 71 58 36 59 37 60 51 62 72 63 39 64 23 65 24 66
REMARK SMILES IDX 32 67 25 68 26 69 30 70 33 71 27 72 28 73 31 74 29 75 55 76
REMARK SMILES IDX 56 77 64 78 57 79 58 80 62 81 65 82 59 83 60 84 63 85 61 86
REMARK SMILES IDX 40 87 41 88 49 89 42 90 43 91 47 92 50 93 44 94 45 95 48 96
REMARK SMILES IDX 46 97
REMARK H PARENT 7 5 11 31 70 50 38 61
REMARK Flexibility Score: inf
ROOT
ATOM      1  C   UNL A   1      50.106  24.974  32.141  1.00  0.00     0.117 C 
ENDROOT
BRANCH   1   2
ATOM      2  N   UNL A   1      51.366  25.673  31.962  1.00  0.00    -0.354 N 
ATOM      3  C   UNL A   1      51.919  26.333  30.909  1.00  0.00     0.243 C 
ATOM      4  O   UNL A   1      52.831  27.106  31.230  1.00  0.00    -0.273 OA
ATOM      5  H   UNL A   1      51.934  25.671  32.766  1.00  0.00     0.163 HD
BRANCH   3   6
ATOM      6  C   UNL A   1      51.408  26.228  29.442  1.00  0.00     0.184 C 
BRANCH   6   7
ATOM      7  C   UNL A   1      52.247  26.674  28.208  1.00  0.00     0.015 C 
ATOM      8  C   UNL A   1      53.684  26.197  28.160  1.00  0.00     0.010 C 
ATOM      9  C   UNL A   1      51.553  26.225  26.906  1.00  0.00     0.010 C 
ENDBRANCH   6   7
BRANCH   6  10
ATOM     10  N   UNL A   1      50.070  26.900  29.377  1.00  0.00    -0.280 N 
ATOM     11  C   UNL A   1      48.993  26.135  28.958  1.00  0.00     0.266 C 
ATOM     12  C   UNL A   1      49.822  28.253  29.569  1.00  0.00     0.149 C 
ATOM     13  O   UNL A   1      49.035  24.936  28.745  1.00  0.00    -0.268 OA
ATOM     14  C   UNL A   1      47.800  27.000  28.717  1.00  0.00     0.081 C 
ATOM     15  S   UNL A   1      48.112  28.588  29.299  1.00  0.00    -0.054 SA
ATOM     16  S   UNL A   1      50.869  29.507  29.932  1.00  0.00    -0.052 S 
ATOM     17  C   UNL A   1      46.677  26.687  28.053  1.00  0.00     0.029 C 
BRANCH  17  18
ATOM     18  C   UNL A   1      46.412  25.389  27.430  1.00  0.00    -0.024 A 
ATOM     19  C   UNL A   1      45.600  24.456  28.088  1.00  0.00     0.015 A 
ATOM     20  C   UNL A   1      46.927  25.090  26.163  1.00  0.00     0.015 A 
ATOM     21  C   UNL A   1      45.259  23.255  27.462  1.00  0.00     0.086 A 
ATOM     22  C   UNL A   1      46.579  23.899  25.522  1.00  0.00     0.086 A 
ATOM     23  C   UNL A   1      45.734  22.991  26.171  1.00  0.00     0.269 A 
BRANCH  23  24
ATOM     24  N   UNL A   1      45.325  21.764  25.479  1.00  0.00     0.062 N 
ATOM     25  O   UNL A   1      46.124  20.816  25.469  1.00  0.00    -0.258 OA
ATOM     26  O   UNL A   1      44.205  21.744  24.951  1.00  0.00    -0.258 OA
ENDBRANCH  23  24
ENDBRANCH  17  18
ENDBRANCH   6  10
ENDBRANCH   3   6
ENDBRANCH   1   2
BRANCH   1  27
ATOM     27  C   UNL A   1      49.822  24.646  33.607  1.00  0.00     0.042 C 
BRANCH  27  28
ATOM     28  C   UNL A   1      49.279  25.812  34.425  1.00  0.00     0.118 C 
BRANCH  28  29
ATOM     29  N   UNL A   1      48.818  25.393  35.737  1.00  0.00    -0.352 N 
ATOM     30  C   UNL A   1      47.637  25.675  36.381  1.00  0.00     0.251 C 
ATOM     31  H   UNL A   1      49.444  24.821  36.239  1.00  0.00     0.163 HD
ATOM     32  O   UNL A   1      47.530  25.430  37.580  1.00  0.00    -0.269 OA
BRANCH  30  33
ATOM     33  C   UNL A   1      46.499  26.285  35.654  1.00  0.00     0.039 A 
ATOM     34  C   UNL A   1      46.649  27.570  35.122  1.00  0.00     0.014 A 
ATOM     35  C   UNL A   1      45.270  25.629  35.535  1.00  0.00     0.014 A 
ATOM     36  C   UNL A   1      45.589  28.171  34.436  1.00  0.00     0.010 A 
ATOM     37  C   UNL A   1      44.248  26.188  34.770  1.00  0.00     0.010 A 
ATOM     38  C   UNL A   1      44.387  27.476  34.231  1.00  0.00    -0.014 A 
BRANCH  38  39
ATOM     39  C   UNL A   1      43.251  28.095  33.497  1.00  0.00     0.031 A 
ATOM     40  C   UNL A   1      43.020  27.766  32.045  1.00  0.00     0.074 A 
ATOM     41  C   UNL A   1      42.452  28.984  34.117  1.00  0.00     0.049 A 
ATOM     42  N   UNL A   1      42.116  28.233  31.219  1.00  0.00    -0.248 NA
ATOM     43  C   UNL A   1      43.947  26.803  31.432  1.00  0.00     0.031 C 
ATOM     44  C   UNL A   1      42.587  29.415  35.508  1.00  0.00     0.029 A 
ATOM     45  N   UNL A   1      41.365  29.686  33.655  1.00  0.00    -0.354 N 
ATOM     46  C   UNL A   1      42.377  27.631  29.994  1.00  0.00     0.074 A 
ATOM     47  C   UNL A   1      43.564  26.822  30.166  1.00  0.00     0.031 C 
ATOM     48  C   UNL A   1      41.599  30.277  35.799  1.00  0.00     0.029 A 
ATOM     49  C   UNL A   1      40.786  30.490  34.605  1.00  0.00     0.049 A 
ATOM     50  H   UNL A   1      41.034  29.618  32.731  1.00  0.00     0.167 HD
ATOM     51  C   UNL A   1      41.675  27.717  28.839  1.00  0.00     0.037 A 
ATOM     52  C   UNL A   1      39.719  31.309  34.522  1.00  0.00     0.037 A 
ATOM     53  C   UNL A   1      40.485  28.511  28.673  1.00  0.00     0.049 A 
ATOM     54  C   UNL A   1      38.977  31.419  33.217  1.00  0.00     0.074 A 
ATOM     55  C   UNL A   1      39.676  28.636  27.558  1.00  0.00     0.029 A 
ATOM     56  N   UNL A   1      39.936  29.323  29.656  1.00  0.00    -0.354 N 
ATOM     57  N   UNL A   1      39.196  30.799  32.083  1.00  0.00    -0.248 NA
ATOM     58  C   UNL A   1      37.834  32.343  33.185  1.00  0.00     0.031 C 
ATOM     59  C   UNL A   1      38.669  29.563  27.849  1.00  0.00     0.029 A 
ATOM     60  C   UNL A   1      38.813  29.970  29.166  1.00  0.00     0.049 A 
ATOM     61  H   UNL A   1      40.293  29.424  30.569  1.00  0.00     0.167 HD
ATOM     62  C   UNL A   1      38.200  31.228  31.215  1.00  0.00     0.074 A 
ATOM     63  C   UNL A   1      37.370  32.154  31.957  1.00  0.00     0.031 C 
ATOM     64  C   UNL A   1      37.991  30.883  29.920  1.00  0.00     0.037 A 
BRANCH  51  65
ATOM     65  C   UNL A   1      42.185  26.930  27.663  1.00  0.00     0.064 A 
ATOM     66  C   UNL A   1      43.123  27.468  26.766  1.00  0.00     0.173 A 
ATOM     67  C   UNL A   1      41.732  25.624  27.427  1.00  0.00     0.173 A 
ATOM     68  F   UNL A   1      43.584  28.716  26.939  1.00  0.00    -0.203 F 
ATOM     69  C   UNL A   1      43.548  26.748  25.653  1.00  0.00     0.198 A 
ATOM     70  C   UNL A   1      42.187  24.892  26.332  1.00  0.00     0.198 A 
ATOM     71  F   UNL A   1      40.843  25.055  28.254  1.00  0.00    -0.203 F 
ATOM     72  F   UNL A   1      44.387  27.312  24.773  1.00  0.00    -0.200 F 
ATOM     73  C   UNL A   1      43.084  25.460  25.439  1.00  0.00     0.200 A 
ATOM     74  F   UNL A   1      41.750  23.641  26.134  1.00  0.00    -0.200 F 
ATOM     75  F   UNL A   1      43.491  24.769  24.364  1.00  0.00    -0.200 F 
ENDBRANCH  51  65
BRANCH  52  76
ATOM     76  C   UNL A   1      39.260  32.053  35.724  1.00  0.00     0.064 A 
ATOM     77  C   UNL A   1      38.391  31.453  36.646  1.00  0.00     0.173 A 
ATOM     78  C   UNL A   1      39.678  33.366  35.981  1.00  0.00     0.173 A 
ATOM     79  F   UNL A   1      37.947  30.206  36.433  1.00  0.00    -0.203 F 
ATOM     80  C   UNL A   1      37.946  32.144  37.771  1.00  0.00     0.198 A 
ATOM     81  C   UNL A   1      39.255  34.046  37.122  1.00  0.00     0.198 A 
ATOM     82  F   UNL A   1      40.513  33.984  35.132  1.00  0.00    -0.203 F 
ATOM     83  F   UNL A   1      37.083  31.560  38.615  1.00  0.00    -0.200 F 
ATOM     84  C   UNL A   1      38.383  33.436  38.012  1.00  0.00     0.200 A 
ATOM     85  F   UNL A   1      39.692  35.290  37.358  1.00  0.00    -0.200 F 
ATOM     86  F   UNL A   1      37.961  34.098  39.098  1.00  0.00    -0.200 F 
ENDBRANCH  52  76
BRANCH  64  87
ATOM     87  C   UNL A   1      36.791  31.472  29.234  1.00  0.00     0.064 A 
ATOM     88  C   UNL A   1      36.744  32.821  28.853  1.00  0.00     0.173 A 
ATOM     89  C   UNL A   1      35.686  30.663  28.924  1.00  0.00     0.173 A 
ATOM     90  F   UNL A   1      37.766  33.640  29.140  1.00  0.00    -0.203 F 
ATOM     91  C   UNL A   1      35.624  33.344  28.212  1.00  0.00     0.198 A 
ATOM     92  C   UNL A   1      34.582  31.182  28.253  1.00  0.00     0.198 A 
ATOM     93  F   UNL A   1      35.683  29.365  29.261  1.00  0.00    -0.203 F 
ATOM     94  F   UNL A   1      35.579  34.648  27.905  1.00  0.00    -0.200 F 
ATOM     95  C   UNL A   1      34.548  32.525  27.905  1.00  0.00     0.200 A 
ATOM     96  F   UNL A   1      33.551  30.384  27.944  1.00  0.00    -0.200 F 
ATOM     97  F   UNL A   1      33.475  33.029  27.281  1.00  0.00    -0.200 F 
ENDBRANCH  64  87
ENDBRANCH  38  39
ENDBRANCH  30  33
ENDBRANCH  28  29
ENDBRANCH  27  28
ENDBRANCH   1  27
TORSDOF 14
ENDMDL
MODEL 3
REMARK VINA RESULT:     -10.4      3.394      5.899
REMARK SMILES CC(C)[C@@H](C(=O)NCCCNC(=O)c1ccc(-c2c3nc(c(-c4c(F)c(F)c(F)c(F)c4F)c4ccc([nH]4)c(-c4c(F)c(F)c(F)c(F)c4F)c4nc(c(-c5c(F)c(F)c(F)c(F)c5F)c5ccc2[nH]5)C=C4)C=C3)cc1)N1C(=O)/C(=C\c2ccc([N+](=O)[O-])cc2)SC1=S
REMARK SMILES IDX 8 1 7 2 5 3 6 4 4 6 2 7 1 8 3 9 77 10 78 11 92 12 79 13
REMARK SMILES IDX 80 14 91 15 93 16 81 17 82 18 83 19 90 20 84 21 89 22 85 23
REMARK SMILES IDX 86 24 87 25 88 26 9 27 10 28 11 29 12 30 13 32 14 33 15 34
REMARK SMILES IDX 76 35 16 36 75 37 17 38 18 39 19 40 69 41 20 42 74 43 68 44
REMARK SMILES IDX 70 45 21 46 73 47 67 48 66 49 22 51 54 52 34 53 53 54 35 55
REMARK SMILES IDX 38 56 52 57 71 58 36 59 37 60 51 62 72 63 39 64 23 65 24 66
REMARK SMILES IDX 32 67 25 68 26 69 30 70 33 71 27 72 28 73 31 74 29 75 55 76
REMARK SMILES IDX 56 77 64 78 57 79 58 80 62 81 65 82 59 83 60 84 63 85 61 86
REMARK SMILES IDX 40 87 41 88 49 89 42 90 43 91 47 92 50 93 44 94 45 95 48 96
REMARK SMILES IDX 46 97
REMARK H PARENT 7 5 11 31 70 50 38 61
REMARK Flexibility Score: inf
ROOT
ATOM      1  C   UNL A   1      47.678  23.368  34.762  1.00  0.00     0.117 C 
ENDROOT
BRANCH   1   2
ATOM      2  N   UNL A   1      47.482  21.944  34.554  1.00  0.00    -0.354 N 
ATOM      3  C   UNL A   1      46.794  20.992  35.239  1.00  0.00     0.243 C 
ATOM      4  O   UNL A   1      46.554  19.977  34.574  1.00  0.00    -0.273 OA
ATOM      5  H   UNL A   1      47.940  21.598  33.753  1.00  0.00     0.163 HD
BRANCH   3   6
ATOM      6  C   UNL A   1      46.252  21.174  36.687  1.00  0.00     0.184 C 
BRANCH   6   7
ATOM      7  C   UNL A   1      46.070  22.564  37.367  1.00  0.00     0.015 C 
ATOM      8  C   UNL A   1      44.985  23.456  36.800  1.00  0.00     0.010 C 
ATOM      9  C   UNL A   1      45.800  22.386  38.875  1.00  0.00     0.010 C 
ENDBRANCH   6   7
BRANCH   6  10
ATOM     10  N   UNL A   1      47.071  20.305  37.592  1.00  0.00    -0.280 N 
ATOM     11  C   UNL A   1      46.464  19.167  38.101  1.00  0.00     0.266 C 
ATOM     12  C   UNL A   1      48.338  20.592  38.080  1.00  0.00     0.149 C 
ATOM     13  O   UNL A   1      45.357  18.768  37.782  1.00  0.00    -0.268 OA
ATOM     14  C   UNL A   1      47.316  18.551  39.162  1.00  0.00     0.081 C 
ATOM     15  S   UNL A   1      48.856  19.317  39.181  1.00  0.00    -0.054 SA
ATOM     16  S   UNL A   1      49.324  21.920  37.822  1.00  0.00    -0.052 S 
ATOM     17  C   UNL A   1      46.963  17.626  40.067  1.00  0.00     0.029 C 
BRANCH  17  18
ATOM     18  C   UNL A   1      45.630  17.032  40.174  1.00  0.00    -0.024 A 
ATOM     19  C   UNL A   1      45.199  16.116  39.206  1.00  0.00     0.015 A 
ATOM     20  C   UNL A   1      44.800  17.337  41.259  1.00  0.00     0.015 A 
ATOM     21  C   UNL A   1      43.970  15.467  39.349  1.00  0.00     0.086 A 
ATOM     22  C   UNL A   1      43.577  16.683  41.420  1.00  0.00     0.086 A 
ATOM     23  C   UNL A   1      43.173  15.738  40.468  1.00  0.00     0.269 A 
BRANCH  23  24
ATOM     24  N   UNL A   1      41.913  15.012  40.662  1.00  0.00     0.062 N 
ATOM     25  O   UNL A   1      41.628  14.125  39.843  1.00  0.00    -0.258 OA
ATOM     26  O   UNL A   1      41.210  15.323  41.634  1.00  0.00    -0.258 OA
ENDBRANCH  23  24
ENDBRANCH  17  18
ENDBRANCH   6  10
ENDBRANCH   3   6
ENDBRANCH   1   2
BRANCH   1  27
ATOM     27  C   UNL A   1      49.004  23.867  34.187  1.00  0.00     0.042 C 
BRANCH  27  28
ATOM     28  C   UNL A   1      49.254  25.359  34.369  1.00  0.00     0.118 C 
BRANCH  28  29
ATOM     29  N   UNL A   1      49.139  25.769  35.757  1.00  0.00    -0.352 N 
ATOM     30  C   UNL A   1      48.259  26.649  36.340  1.00  0.00     0.251 C 
ATOM     31  H   UNL A   1      49.786  25.353  36.373  1.00  0.00     0.163 HD
ATOM     32  O   UNL A   1      48.471  27.048  37.482  1.00  0.00    -0.269 OA
BRANCH  30  33
ATOM     33  C   UNL A   1      47.068  27.136  35.604  1.00  0.00     0.039 A 
ATOM     34  C   UNL A   1      47.169  28.319  34.864  1.00  0.00     0.014 A 
ATOM     35  C   UNL A   1      45.841  26.471  35.675  1.00  0.00     0.014 A 
ATOM     36  C   UNL A   1      46.060  28.804  34.164  1.00  0.00     0.010 A 
ATOM     37  C   UNL A   1      44.764  26.902  34.902  1.00  0.00     0.010 A 
ATOM     38  C   UNL A   1      44.854  28.086  34.156  1.00  0.00    -0.014 A 
BRANCH  38  39
ATOM     39  C   UNL A   1      43.664  28.580  33.411  1.00  0.00     0.031 A 
ATOM     40  C   UNL A   1      43.445  28.170  31.979  1.00  0.00     0.074 A 
ATOM     41  C   UNL A   1      42.804  29.431  34.004  1.00  0.00     0.049 A 
ATOM     42  N   UNL A   1      42.499  28.527  31.146  1.00  0.00    -0.248 NA
ATOM     43  C   UNL A   1      44.439  27.256  31.396  1.00  0.00     0.031 C 
ATOM     44  C   UNL A   1      42.919  29.933  35.372  1.00  0.00     0.029 A 
ATOM     45  N   UNL A   1      41.661  30.024  33.527  1.00  0.00    -0.354 N 
ATOM     46  C   UNL A   1      42.793  27.893  29.945  1.00  0.00     0.074 A 
ATOM     47  C   UNL A   1      44.041  27.189  30.136  1.00  0.00     0.031 C 
ATOM     48  C   UNL A   1      41.869  30.726  35.639  1.00  0.00     0.029 A 
ATOM     49  C   UNL A   1      41.029  30.822  34.448  1.00  0.00     0.049 A 
ATOM     50  H   UNL A   1      41.326  29.889  32.611  1.00  0.00     0.167 HD
ATOM     51  C   UNL A   1      42.074  27.872  28.797  1.00  0.00     0.037 A 
ATOM     52  C   UNL A   1      39.901  31.550  34.344  1.00  0.00     0.037 A 
ATOM     53  C   UNL A   1      40.824  28.562  28.613  1.00  0.00     0.049 A 
ATOM     54  C   UNL A   1      39.139  31.544  33.046  1.00  0.00     0.074 A 
ATOM     55  C   UNL A   1      39.996  28.574  27.505  1.00  0.00     0.029 A 
ATOM     56  N   UNL A   1      40.223  29.372  29.568  1.00  0.00    -0.354 N 
ATOM     57  N   UNL A   1      39.393  30.892  31.937  1.00  0.00    -0.248 NA
ATOM     58  C   UNL A   1      37.926  32.372  32.990  1.00  0.00     0.031 C 
ATOM     59  C   UNL A   1      38.921  29.431  27.770  1.00  0.00     0.029 A 
ATOM     60  C   UNL A   1      39.047  29.906  29.065  1.00  0.00     0.049 A 
ATOM     61  H   UNL A   1      40.580  29.541  30.470  1.00  0.00     0.167 HD
ATOM     62  C   UNL A   1      38.358  31.202  31.066  1.00  0.00     0.074 A 
ATOM     63  C   UNL A   1      37.465  32.093  31.779  1.00  0.00     0.031 C 
ATOM     64  C   UNL A   1      38.163  30.785  29.790  1.00  0.00     0.037 A 
BRANCH  51  65
ATOM     65  C   UNL A   1      42.633  27.076  27.650  1.00  0.00     0.064 A 
ATOM     66  C   UNL A   1      42.341  25.711  27.488  1.00  0.00     0.173 A 
ATOM     67  C   UNL A   1      43.471  27.680  26.702  1.00  0.00     0.173 A 
ATOM     68  F   UNL A   1      41.553  25.080  28.371  1.00  0.00    -0.203 F 
ATOM     69  C   UNL A   1      42.908  24.973  26.452  1.00  0.00     0.198 A 
ATOM     70  C   UNL A   1      44.006  26.947  25.645  1.00  0.00     0.198 A 
ATOM     71  F   UNL A   1      43.777  28.982  26.800  1.00  0.00    -0.203 F 
ATOM     72  F   UNL A   1      42.672  23.657  26.364  1.00  0.00    -0.200 F 
ATOM     73  C   UNL A   1      43.736  25.592  25.529  1.00  0.00     0.200 A 
ATOM     74  F   UNL A   1      44.794  27.549  24.744  1.00  0.00    -0.200 F 
ATOM     75  F   UNL A   1      44.283  24.879  24.534  1.00  0.00    -0.200 F 
ENDBRANCH  51  65
BRANCH  52  76
ATOM     76  C   UNL A   1      39.397  32.309  35.519  1.00  0.00     0.064 A 
ATOM     77  C   UNL A   1      39.758  33.650  35.711  1.00  0.00     0.173 A 
ATOM     78  C   UNL A   1      38.545  31.721  36.465  1.00  0.00     0.173 A 
ATOM     79  F   UNL A   1      40.587  34.250  34.844  1.00  0.00    -0.203 F 
ATOM     80  C   UNL A   1      39.299  34.369  36.813  1.00  0.00     0.198 A 
ATOM     81  C   UNL A   1      38.064  32.450  37.551  1.00  0.00     0.198 A 
ATOM     82  F   UNL A   1      38.165  30.442  36.325  1.00  0.00    -0.203 F 
ATOM     83  F   UNL A   1      39.694  35.637  36.993  1.00  0.00    -0.200 F 
ATOM     84  C   UNL A   1      38.448  33.771  37.728  1.00  0.00     0.200 A 
ATOM     85  F   UNL A   1      37.229  31.872  38.425  1.00  0.00    -0.200 F 
ATOM     86  F   UNL A   1      38.000  34.465  38.783  1.00  0.00    -0.200 F 
ENDBRANCH  52  76
BRANCH  64  87
ATOM     87  C   UNL A   1      36.913  31.246  29.096  1.00  0.00     0.064 A 
ATOM     88  C   UNL A   1      36.769  32.560  28.627  1.00  0.00     0.173 A 
ATOM     89  C   UNL A   1      35.858  30.348  28.868  1.00  0.00     0.173 A 
ATOM     90  F   UNL A   1      37.740  33.462  28.834  1.00  0.00    -0.203 F 
ATOM     91  C   UNL A   1      35.604  32.965  27.980  1.00  0.00     0.198 A 
ATOM     92  C   UNL A   1      34.709  30.748  28.191  1.00  0.00     0.198 A 
ATOM     93  F   UNL A   1      35.948  29.079  29.290  1.00  0.00    -0.203 F 
ATOM     94  F   UNL A   1      35.467  34.240  27.588  1.00  0.00    -0.200 F 
ATOM     95  C   UNL A   1      34.580  32.058  27.755  1.00  0.00     0.200 A 
ATOM     96  F   UNL A   1      33.728  29.865  27.961  1.00  0.00    -0.200 F 
ATOM     97  F   UNL A   1      33.463  32.448  27.125  1.00  0.00    -0.200 F 
ENDBRANCH  64  87
ENDBRANCH  38  39
ENDBRANCH  30  33
ENDBRANCH  28  29
ENDBRANCH  27  28
ENDBRANCH   1  27
TORSDOF 14
ENDMDL
