MODEL 1
REMARK VINA RESULT:     -14.1      0.000      0.000
REMARK SMILES Cc1c(NS(=O)(=O)c2ccc3c(c2)COC3)cccc1C(=O)NCCCNC(=O)c1ccc(-c2c3nc(c(-c4c(F)c(F)c(F)c(F)c4F)c4ccc([nH]4)c(-c4c(F)c(F)c(F)c(F)c4F)c4nc(c(-c5c(F)c(F)c(F)c(F)c5F)c5ccc2[nH]5)C=C4)C=C3)cc1
REMARK SMILES IDX 24 1 23 2 21 3 22 4 20 6 1 7 2 8 3 9 17 10 19 11 18 12 4 13
REMARK SMILES IDX 5 15 6 16 7 17 8 18 9 19 13 20 10 21 12 22 11 23 14 24 16 25
REMARK SMILES IDX 15 26 25 27 26 28 27 29 28 30 29 32 30 33 31 34 92 35 32 36
REMARK SMILES IDX 91 37 33 38 34 39 35 40 85 41 36 42 90 43 84 44 86 45 37 46
REMARK SMILES IDX 89 47 83 48 82 49 38 51 70 52 50 53 69 54 51 55 54 56 68 57
REMARK SMILES IDX 87 58 52 59 53 60 67 62 88 63 55 64 39 65 40 66 48 67 41 68
REMARK SMILES IDX 42 69 46 70 49 71 43 72 44 73 47 74 45 75 71 76 72 77 80 78
REMARK SMILES IDX 73 79 74 80 78 81 81 82 75 83 76 84 79 85 77 86 56 87 57 88
REMARK SMILES IDX 65 89 58 90 59 91 63 92 66 93 60 94 61 95 64 96 62 97
REMARK H PARENT 23 5 4 14 27 31 86 50 54 61
REMARK Flexibility Score: inf
ROOT
ATOM      1  C   UNL A   1      31.622  30.404  26.041  1.00  0.00     0.118 C 
ENDROOT
BRANCH   1   2
ATOM      2  N   UNL A   1      32.377  30.073  24.842  1.00  0.00    -0.352 N 
ATOM      3  C   UNL A   1      32.538  28.884  24.167  1.00  0.00     0.251 C 
ATOM      4  O   UNL A   1      33.270  28.869  23.179  1.00  0.00    -0.269 OA
ATOM      5  H   UNL A   1      32.857  30.834  24.442  1.00  0.00     0.163 HD
BRANCH   3   6
ATOM      6  C   UNL A   1      31.763  27.658  24.506  1.00  0.00     0.044 A 
ATOM      7  C   UNL A   1      33.503  26.638  26.051  1.00  0.00     0.047 C 
ATOM      8  C   UNL A   1      32.129  26.681  25.461  1.00  0.00    -0.014 A 
ATOM      9  C   UNL A   1      31.181  25.696  25.807  1.00  0.00     0.053 A 
ATOM     10  C   UNL A   1      29.993  25.576  25.076  1.00  0.00     0.027 A 
ATOM     11  C   UNL A   1      30.591  27.486  23.750  1.00  0.00     0.014 A 
ATOM     12  C   UNL A   1      29.725  26.430  24.010  1.00  0.00     0.003 A 
BRANCH   9  13
ATOM     13  N   UNL A   1      31.346  24.820  26.933  1.00  0.00    -0.279 N 
ATOM     14  H   UNL A   1      31.298  25.201  27.839  1.00  0.00     0.180 HD
BRANCH  13  15
ATOM     15  S   UNL A   1      31.619  23.147  26.767  1.00  0.00     0.261 S 
ATOM     16  O   UNL A   1      31.948  22.603  28.068  1.00  0.00    -0.201 OA
ATOM     17  O   UNL A   1      30.467  22.648  26.046  1.00  0.00    -0.201 OA
BRANCH  15  18
ATOM     18  C   UNL A   1      33.042  22.969  25.732  1.00  0.00     0.088 A 
ATOM     19  C   UNL A   1      32.893  22.881  24.337  1.00  0.00     0.022 A 
ATOM     20  C   UNL A   1      34.308  22.964  26.328  1.00  0.00     0.028 A 
ATOM     21  C   UNL A   1      34.021  22.908  23.516  1.00  0.00     0.008 A 
ATOM     22  C   UNL A   1      35.402  23.079  25.495  1.00  0.00    -0.015 A 
ATOM     23  C   UNL A   1      35.260  23.068  24.115  1.00  0.00    -0.017 A 
ATOM     24  C   UNL A   1      36.825  23.298  25.846  1.00  0.00     0.196 C 
ATOM     25  C   UNL A   1      36.593  23.275  23.495  1.00  0.00     0.196 C 
ATOM     26  O   UNL A   1      37.427  23.710  24.597  1.00  0.00    -0.372 OA
ENDBRANCH  15  18
ENDBRANCH  13  15
ENDBRANCH   9  13
ENDBRANCH   3   6
ENDBRANCH   1   2
BRANCH   1  27
ATOM     27  C   UNL A   1      32.442  31.300  26.973  1.00  0.00     0.042 C 
BRANCH  27  28
ATOM     28  C   UNL A   1      33.636  30.631  27.632  1.00  0.00     0.118 C 
BRANCH  28  29
ATOM     29  N   UNL A   1      34.370  31.531  28.527  1.00  0.00    -0.352 N 
ATOM     30  C   UNL A   1      35.553  31.297  29.208  1.00  0.00     0.251 C 
ATOM     31  H   UNL A   1      33.968  32.419  28.663  1.00  0.00     0.163 HD
ATOM     32  O   UNL A   1      36.099  32.170  29.868  1.00  0.00    -0.269 OA
BRANCH  30  33
ATOM     33  C   UNL A   1      36.207  29.991  28.991  1.00  0.00     0.039 A 
ATOM     34  C   UNL A   1      36.714  29.359  30.128  1.00  0.00     0.014 A 
ATOM     35  C   UNL A   1      36.683  29.694  27.720  1.00  0.00     0.014 A 
ATOM     36  C   UNL A   1      37.911  28.662  30.021  1.00  0.00     0.010 A 
ATOM     37  C   UNL A   1      37.922  29.092  27.630  1.00  0.00     0.010 A 
ATOM     38  C   UNL A   1      38.571  28.654  28.793  1.00  0.00    -0.014 A 
BRANCH  38  39
ATOM     39  C   UNL A   1      39.960  28.237  28.653  1.00  0.00     0.031 A 
ATOM     40  C   UNL A   1      40.245  26.819  28.366  1.00  0.00     0.074 A 
ATOM     41  C   UNL A   1      40.984  29.109  28.791  1.00  0.00     0.049 A 
ATOM     42  N   UNL A   1      41.331  26.217  28.709  1.00  0.00    -0.248 NA
ATOM     43  C   UNL A   1      39.280  25.948  27.712  1.00  0.00     0.031 C 
ATOM     44  C   UNL A   1      42.393  28.859  28.497  1.00  0.00     0.029 A 
ATOM     45  N   UNL A   1      40.982  30.362  29.426  1.00  0.00    -0.354 N 
ATOM     46  C   UNL A   1      41.326  24.975  28.121  1.00  0.00     0.074 A 
ATOM     47  C   UNL A   1      40.000  24.835  27.562  1.00  0.00     0.031 C 
ATOM     48  C   UNL A   1      43.143  29.718  29.201  1.00  0.00     0.029 A 
ATOM     49  C   UNL A   1      42.253  30.481  30.051  1.00  0.00     0.049 A 
ATOM     50  H   UNL A   1      40.251  31.021  29.436  1.00  0.00     0.167 HD
ATOM     51  C   UNL A   1      42.484  24.257  28.079  1.00  0.00     0.037 A 
ATOM     52  C   UNL A   1      42.364  30.620  31.405  1.00  0.00     0.037 A 
ATOM     53  C   UNL A   1      43.567  24.944  28.787  1.00  0.00     0.049 A 
ATOM     54  C   UNL A   1      43.063  29.469  32.093  1.00  0.00     0.074 A 
ATOM     55  C   UNL A   1      44.628  25.743  28.392  1.00  0.00     0.029 A 
ATOM     56  N   UNL A   1      43.468  25.105  30.158  1.00  0.00    -0.354 N 
ATOM     57  N   UNL A   1      43.575  28.437  31.481  1.00  0.00    -0.248 NA
ATOM     58  C   UNL A   1      43.122  29.340  33.549  1.00  0.00     0.031 C 
ATOM     59  C   UNL A   1      45.168  26.375  29.549  1.00  0.00     0.029 A 
ATOM     60  C   UNL A   1      44.442  25.955  30.648  1.00  0.00     0.049 A 
ATOM     61  H   UNL A   1      42.786  24.666  30.717  1.00  0.00     0.167 HD
ATOM     62  C   UNL A   1      43.951  27.501  32.408  1.00  0.00     0.074 A 
ATOM     63  C   UNL A   1      43.639  28.109  33.689  1.00  0.00     0.031 C 
ATOM     64  C   UNL A   1      44.445  26.275  32.067  1.00  0.00     0.037 A 
BRANCH  51  65
ATOM     65  C   UNL A   1      42.696  23.056  27.182  1.00  0.00     0.064 A 
ATOM     66  C   UNL A   1      42.068  21.826  27.469  1.00  0.00     0.173 A 
ATOM     67  C   UNL A   1      43.545  23.030  26.060  1.00  0.00     0.173 A 
ATOM     68  F   UNL A   1      41.133  21.723  28.422  1.00  0.00    -0.203 F 
ATOM     69  C   UNL A   1      42.376  20.647  26.783  1.00  0.00     0.198 A 
ATOM     70  C   UNL A   1      43.907  21.842  25.417  1.00  0.00     0.198 A 
ATOM     71  F   UNL A   1      43.999  24.158  25.502  1.00  0.00    -0.203 F 
ATOM     72  F   UNL A   1      41.749  19.507  27.107  1.00  0.00    -0.200 F 
ATOM     73  C   UNL A   1      43.332  20.646  25.788  1.00  0.00     0.200 A 
ATOM     74  F   UNL A   1      44.814  21.869  24.429  1.00  0.00    -0.200 F 
ATOM     75  F   UNL A   1      43.670  19.506  25.169  1.00  0.00    -0.200 F 
ENDBRANCH  51  65
BRANCH  52  76
ATOM     76  C   UNL A   1      41.237  31.410  31.968  1.00  0.00     0.064 A 
ATOM     77  C   UNL A   1      40.216  30.692  32.622  1.00  0.00     0.173 A 
ATOM     78  C   UNL A   1      41.400  32.760  32.293  1.00  0.00     0.173 A 
ATOM     79  F   UNL A   1      40.001  29.402  32.317  1.00  0.00    -0.203 F 
ATOM     80  C   UNL A   1      39.546  31.239  33.709  1.00  0.00     0.198 A 
ATOM     81  C   UNL A   1      40.690  33.318  33.353  1.00  0.00     0.198 A 
ATOM     82  F   UNL A   1      42.343  33.498  31.691  1.00  0.00    -0.203 F 
ATOM     83  F   UNL A   1      38.726  30.473  34.444  1.00  0.00    -0.200 F 
ATOM     84  C   UNL A   1      39.817  32.539  34.101  1.00  0.00     0.200 A 
ATOM     85  F   UNL A   1      40.934  34.583  33.720  1.00  0.00    -0.200 F 
ATOM     86  F   UNL A   1      39.280  33.021  35.231  1.00  0.00    -0.200 F 
ENDBRANCH  52  76
BRANCH  64  87
ATOM     87  C   UNL A   1      44.934  25.267  33.078  1.00  0.00     0.064 A 
ATOM     88  C   UNL A   1      44.071  24.624  33.982  1.00  0.00     0.173 A 
ATOM     89  C   UNL A   1      46.307  24.979  33.240  1.00  0.00     0.173 A 
ATOM     90  F   UNL A   1      42.763  24.919  34.017  1.00  0.00    -0.203 F 
ATOM     91  C   UNL A   1      44.532  23.676  34.899  1.00  0.00     0.198 A 
ATOM     92  C   UNL A   1      46.772  24.076  34.196  1.00  0.00     0.198 A 
ATOM     93  F   UNL A   1      47.244  25.543  32.466  1.00  0.00    -0.203 F 
ATOM     94  F   UNL A   1      43.656  23.030  35.681  1.00  0.00    -0.200 F 
ATOM     95  C   UNL A   1      45.882  23.403  35.007  1.00  0.00     0.200 A 
ATOM     96  F   UNL A   1      48.088  23.856  34.316  1.00  0.00    -0.200 F 
ATOM     97  F   UNL A   1      46.324  22.501  35.892  1.00  0.00    -0.200 F 
ENDBRANCH  64  87
ENDBRANCH  38  39
ENDBRANCH  30  33
ENDBRANCH  28  29
ENDBRANCH  27  28
ENDBRANCH   1  27
TORSDOF 13
ENDMDL
MODEL 2
REMARK VINA RESULT:     -13.8      0.907      1.858
REMARK SMILES Cc1c(NS(=O)(=O)c2ccc3c(c2)COC3)cccc1C(=O)NCCCNC(=O)c1ccc(-c2c3nc(c(-c4c(F)c(F)c(F)c(F)c4F)c4ccc([nH]4)c(-c4c(F)c(F)c(F)c(F)c4F)c4nc(c(-c5c(F)c(F)c(F)c(F)c5F)c5ccc2[nH]5)C=C4)C=C3)cc1
REMARK SMILES IDX 24 1 23 2 21 3 22 4 20 6 1 7 2 8 3 9 17 10 19 11 18 12 4 13
REMARK SMILES IDX 5 15 6 16 7 17 8 18 9 19 13 20 10 21 12 22 11 23 14 24 16 25
REMARK SMILES IDX 15 26 25 27 26 28 27 29 28 30 29 32 30 33 31 34 92 35 32 36
REMARK SMILES IDX 91 37 33 38 34 39 35 40 85 41 36 42 90 43 84 44 86 45 37 46
REMARK SMILES IDX 89 47 83 48 82 49 38 51 70 52 50 53 69 54 51 55 54 56 68 57
REMARK SMILES IDX 87 58 52 59 53 60 67 62 88 63 55 64 39 65 40 66 48 67 41 68
REMARK SMILES IDX 42 69 46 70 49 71 43 72 44 73 47 74 45 75 71 76 72 77 80 78
REMARK SMILES IDX 73 79 74 80 78 81 81 82 75 83 76 84 79 85 77 86 56 87 57 88
REMARK SMILES IDX 65 89 58 90 59 91 63 92 66 93 60 94 61 95 64 96 62 97
REMARK H PARENT 23 5 4 14 27 31 86 50 54 61
REMARK Flexibility Score: inf
ROOT
ATOM      1  C   UNL A   1      31.806  30.232  26.420  1.00  0.00     0.118 C 
ENDROOT
BRANCH   1   2
ATOM      2  N   UNL A   1      32.292  30.081  25.056  1.00  0.00    -0.352 N 
ATOM      3  C   UNL A   1      32.263  29.011  24.192  1.00  0.00     0.251 C 
ATOM      4  O   UNL A   1      32.783  29.139  23.085  1.00  0.00    -0.269 OA
ATOM      5  H   UNL A   1      32.717  30.889  24.686  1.00  0.00     0.163 HD
BRANCH   3   6
ATOM      6  C   UNL A   1      31.517  27.756  24.494  1.00  0.00     0.044 A 
ATOM      7  C   UNL A   1      33.254  26.759  26.056  1.00  0.00     0.047 C 
ATOM      8  C   UNL A   1      31.892  26.774  25.439  1.00  0.00    -0.014 A 
ATOM      9  C   UNL A   1      30.966  25.756  25.748  1.00  0.00     0.053 A 
ATOM     10  C   UNL A   1      29.797  25.615  24.991  1.00  0.00     0.027 A 
ATOM     11  C   UNL A   1      30.366  27.565  23.711  1.00  0.00     0.014 A 
ATOM     12  C   UNL A   1      29.526  26.480  23.935  1.00  0.00     0.003 A 
BRANCH   9  13
ATOM     13  N   UNL A   1      31.133  24.864  26.862  1.00  0.00    -0.279 N 
ATOM     14  H   UNL A   1      30.920  25.192  27.765  1.00  0.00     0.180 HD
BRANCH  13  15
ATOM     15  S   UNL A   1      31.683  23.262  26.686  1.00  0.00     0.261 S 
ATOM     16  O   UNL A   1      31.776  22.661  28.000  1.00  0.00    -0.201 OA
ATOM     17  O   UNL A   1      30.821  22.677  25.682  1.00  0.00    -0.201 OA
BRANCH  15  18
ATOM     18  C   UNL A   1      33.320  23.362  26.023  1.00  0.00     0.088 A 
ATOM     19  C   UNL A   1      34.434  23.200  26.865  1.00  0.00     0.022 A 
ATOM     20  C   UNL A   1      33.474  23.559  24.647  1.00  0.00     0.028 A 
ATOM     21  C   UNL A   1      35.714  23.114  26.314  1.00  0.00     0.008 A 
ATOM     22  C   UNL A   1      34.736  23.381  24.118  1.00  0.00    -0.015 A 
ATOM     23  C   UNL A   1      35.833  23.148  24.934  1.00  0.00    -0.017 A 
ATOM     24  C   UNL A   1      35.156  23.328  22.697  1.00  0.00     0.196 C 
ATOM     25  C   UNL A   1      37.029  22.933  24.081  1.00  0.00     0.196 C 
ATOM     26  O   UNL A   1      36.482  22.753  22.752  1.00  0.00    -0.372 OA
ENDBRANCH  15  18
ENDBRANCH  13  15
ENDBRANCH   9  13
ENDBRANCH   3   6
ENDBRANCH   1   2
BRANCH   1  27
ATOM     27  C   UNL A   1      32.726  31.149  27.229  1.00  0.00     0.042 C 
BRANCH  27  28
ATOM     28  C   UNL A   1      33.992  30.495  27.756  1.00  0.00     0.118 C 
BRANCH  28  29
ATOM     29  N   UNL A   1      34.744  31.365  28.667  1.00  0.00    -0.352 N 
ATOM     30  C   UNL A   1      35.905  31.084  29.368  1.00  0.00     0.251 C 
ATOM     31  H   UNL A   1      34.375  32.268  28.797  1.00  0.00     0.163 HD
ATOM     32  O   UNL A   1      36.472  31.935  30.040  1.00  0.00    -0.269 OA
BRANCH  30  33
ATOM     33  C   UNL A   1      36.512  29.755  29.160  1.00  0.00     0.039 A 
ATOM     34  C   UNL A   1      37.049  29.137  30.292  1.00  0.00     0.014 A 
ATOM     35  C   UNL A   1      36.926  29.410  27.878  1.00  0.00     0.014 A 
ATOM     36  C   UNL A   1      38.219  28.403  30.154  1.00  0.00     0.010 A 
ATOM     37  C   UNL A   1      38.142  28.770  27.754  1.00  0.00     0.010 A 
ATOM     38  C   UNL A   1      38.826  28.344  28.901  1.00  0.00    -0.014 A 
BRANCH  38  39
ATOM     39  C   UNL A   1      40.195  27.882  28.715  1.00  0.00     0.031 A 
ATOM     40  C   UNL A   1      40.425  26.457  28.414  1.00  0.00     0.074 A 
ATOM     41  C   UNL A   1      41.252  28.720  28.822  1.00  0.00     0.049 A 
ATOM     42  N   UNL A   1      41.502  25.818  28.720  1.00  0.00    -0.248 NA
ATOM     43  C   UNL A   1      39.411  25.621  27.789  1.00  0.00     0.031 C 
ATOM     44  C   UNL A   1      42.642  28.425  28.482  1.00  0.00     0.029 A 
ATOM     45  N   UNL A   1      41.311  29.969  29.461  1.00  0.00    -0.354 N 
ATOM     46  C   UNL A   1      41.437  24.580  28.128  1.00  0.00     0.074 A 
ATOM     47  C   UNL A   1      40.090  24.485  27.612  1.00  0.00     0.031 C 
ATOM     48  C   UNL A   1      43.442  29.256  29.164  1.00  0.00     0.029 A 
ATOM     49  C   UNL A   1      42.604  30.044  30.045  1.00  0.00     0.049 A 
ATOM     50  H   UNL A   1      40.603  30.652  29.496  1.00  0.00     0.167 HD
ATOM     51  C   UNL A   1      42.569  23.824  28.047  1.00  0.00     0.037 A 
ATOM     52  C   UNL A   1      42.763  30.174  31.394  1.00  0.00     0.037 A 
ATOM     53  C   UNL A   1      43.696  24.473  28.721  1.00  0.00     0.049 A 
ATOM     54  C   UNL A   1      43.447  28.997  32.056  1.00  0.00     0.074 A 
ATOM     55  C   UNL A   1      44.769  25.238  28.295  1.00  0.00     0.029 A 
ATOM     56  N   UNL A   1      43.646  24.631  30.096  1.00  0.00    -0.354 N 
ATOM     57  N   UNL A   1      43.904  27.952  31.425  1.00  0.00    -0.248 NA
ATOM     58  C   UNL A   1      43.548  28.860  33.510  1.00  0.00     0.031 C 
ATOM     59  C   UNL A   1      45.366  25.848  29.436  1.00  0.00     0.029 A 
ATOM     60  C   UNL A   1      44.663  25.447  30.556  1.00  0.00     0.049 A 
ATOM     61  H   UNL A   1      42.968  24.212  30.675  1.00  0.00     0.167 HD
ATOM     62  C   UNL A   1      44.279  27.001  32.336  1.00  0.00     0.074 A 
ATOM     63  C   UNL A   1      44.029  27.613  33.629  1.00  0.00     0.031 C 
ATOM     64  C   UNL A   1      44.722  25.760  31.975  1.00  0.00     0.037 A 
BRANCH  51  65
ATOM     65  C   UNL A   1      42.712  22.621  27.139  1.00  0.00     0.064 A 
ATOM     66  C   UNL A   1      42.012  21.427  27.414  1.00  0.00     0.173 A 
ATOM     67  C   UNL A   1      43.562  22.555  26.019  1.00  0.00     0.173 A 
ATOM     68  F   UNL A   1      41.070  21.371  28.364  1.00  0.00    -0.203 F 
ATOM     69  C   UNL A   1      42.253  20.238  26.718  1.00  0.00     0.198 A 
ATOM     70  C   UNL A   1      43.855  21.353  25.367  1.00  0.00     0.198 A 
ATOM     71  F   UNL A   1      44.083  23.659  25.472  1.00  0.00    -0.203 F 
ATOM     72  F   UNL A   1      41.559  19.134  27.030  1.00  0.00    -0.200 F 
ATOM     73  C   UNL A   1      43.209  20.190  25.726  1.00  0.00     0.200 A 
ATOM     74  F   UNL A   1      44.765  21.336  24.381  1.00  0.00    -0.200 F 
ATOM     75  F   UNL A   1      43.482  19.038  25.097  1.00  0.00    -0.200 F 
ENDBRANCH  51  65
BRANCH  52  76
ATOM     76  C   UNL A   1      41.682  30.998  31.997  1.00  0.00     0.064 A 
ATOM     77  C   UNL A   1      41.749  32.390  31.791  1.00  0.00     0.173 A 
ATOM     78  C   UNL A   1      40.436  30.439  32.296  1.00  0.00     0.173 A 
ATOM     79  F   UNL A   1      42.930  32.976  31.536  1.00  0.00    -0.203 F 
ATOM     80  C   UNL A   1      40.590  33.147  31.666  1.00  0.00     0.198 A 
ATOM     81  C   UNL A   1      39.281  31.213  32.217  1.00  0.00     0.198 A 
ATOM     82  F   UNL A   1      40.315  29.122  32.519  1.00  0.00    -0.203 F 
ATOM     83  F   UNL A   1      40.667  34.426  31.269  1.00  0.00    -0.200 F 
ATOM     84  C   UNL A   1      39.354  32.546  31.835  1.00  0.00     0.200 A 
ATOM     85  F   UNL A   1      38.086  30.638  32.403  1.00  0.00    -0.200 F 
ATOM     86  F   UNL A   1      38.235  33.236  31.575  1.00  0.00    -0.200 F 
ENDBRANCH  52  76
BRANCH  64  87
ATOM     87  C   UNL A   1      45.210  24.733  32.967  1.00  0.00     0.064 A 
ATOM     88  C   UNL A   1      46.483  24.800  33.560  1.00  0.00     0.173 A 
ATOM     89  C   UNL A   1      44.450  23.586  33.289  1.00  0.00     0.173 A 
ATOM     90  F   UNL A   1      47.348  25.769  33.228  1.00  0.00    -0.203 F 
ATOM     91  C   UNL A   1      46.915  23.856  34.494  1.00  0.00     0.198 A 
ATOM     92  C   UNL A   1      44.909  22.614  34.177  1.00  0.00     0.198 A 
ATOM     93  F   UNL A   1      43.231  23.379  32.773  1.00  0.00    -0.203 F 
ATOM     94  F   UNL A   1      48.104  24.012  35.093  1.00  0.00    -0.200 F 
ATOM     95  C   UNL A   1      46.130  22.762  34.801  1.00  0.00     0.200 A 
ATOM     96  F   UNL A   1      44.151  21.537  34.429  1.00  0.00    -0.200 F 
ATOM     97  F   UNL A   1      46.548  21.852  35.690  1.00  0.00    -0.200 F 
ENDBRANCH  64  87
ENDBRANCH  38  39
ENDBRANCH  30  33
ENDBRANCH  28  29
ENDBRANCH  27  28
ENDBRANCH   1  27
TORSDOF 13
ENDMDL
MODEL 3
REMARK VINA RESULT:     -13.7      3.623      9.752
REMARK SMILES Cc1c(NS(=O)(=O)c2ccc3c(c2)COC3)cccc1C(=O)NCCCNC(=O)c1ccc(-c2c3nc(c(-c4c(F)c(F)c(F)c(F)c4F)c4ccc([nH]4)c(-c4c(F)c(F)c(F)c(F)c4F)c4nc(c(-c5c(F)c(F)c(F)c(F)c5F)c5ccc2[nH]5)C=C4)C=C3)cc1
REMARK SMILES IDX 24 1 23 2 21 3 22 4 20 6 1 7 2 8 3 9 17 10 19 11 18 12 4 13
REMARK SMILES IDX 5 15 6 16 7 17 8 18 9 19 13 20 10 21 12 22 11 23 14 24 16 25
REMARK SMILES IDX 15 26 25 27 26 28 27 29 28 30 29 32 30 33 31 34 92 35 32 36
REMARK SMILES IDX 91 37 33 38 34 39 35 40 85 41 36 42 90 43 84 44 86 45 37 46
REMARK SMILES IDX 89 47 83 48 82 49 38 51 70 52 50 53 69 54 51 55 54 56 68 57
REMARK SMILES IDX 87 58 52 59 53 60 67 62 88 63 55 64 39 65 40 66 48 67 41 68
REMARK SMILES IDX 42 69 46 70 49 71 43 72 44 73 47 74 45 75 71 76 72 77 80 78
REMARK SMILES IDX 73 79 74 80 78 81 81 82 75 83 76 84 79 85 77 86 56 87 57 88
REMARK SMILES IDX 65 89 58 90 59 91 63 92 66 93 60 94 61 95 64 96 62 97
REMARK H PARENT 23 5 4 14 27 31 86 50 54 61
REMARK Flexibility Score: inf
ROOT
ATOM      1  C   UNL A   1      37.141  21.221  25.094  1.00  0.00     0.118 C 
ENDROOT
BRANCH   1   2
ATOM      2  N   UNL A   1      36.152  21.176  26.160  1.00  0.00    -0.352 N 
ATOM      3  C   UNL A   1      34.855  21.636  26.220  1.00  0.00     0.251 C 
ATOM      4  O   UNL A   1      34.235  21.497  27.273  1.00  0.00    -0.269 OA
ATOM      5  H   UNL A   1      36.464  20.739  26.985  1.00  0.00     0.163 HD
BRANCH   3   6
ATOM      6  C   UNL A   1      34.139  22.171  25.028  1.00  0.00     0.044 A 
ATOM      7  C   UNL A   1      35.100  24.519  25.148  1.00  0.00     0.047 C 
ATOM      8  C   UNL A   1      34.331  23.445  24.446  1.00  0.00    -0.014 A 
ATOM      9  C   UNL A   1      33.724  23.709  23.201  1.00  0.00     0.053 A 
ATOM     10  C   UNL A   1      32.798  22.807  22.664  1.00  0.00     0.027 A 
ATOM     11  C   UNL A   1      33.167  21.304  24.500  1.00  0.00     0.014 A 
ATOM     12  C   UNL A   1      32.474  21.635  23.341  1.00  0.00     0.003 A 
BRANCH   9  13
ATOM     13  N   UNL A   1      34.052  24.859  22.404  1.00  0.00    -0.279 N 
ATOM     14  H   UNL A   1      34.953  24.920  22.012  1.00  0.00     0.180 HD
BRANCH  13  15
ATOM     15  S   UNL A   1      32.947  26.121  22.108  1.00  0.00     0.261 S 
ATOM     16  O   UNL A   1      33.594  27.113  21.276  1.00  0.00    -0.201 OA
ATOM     17  O   UNL A   1      31.742  25.464  21.646  1.00  0.00    -0.201 OA
BRANCH  15  18
ATOM     18  C   UNL A   1      32.606  26.870  23.674  1.00  0.00     0.088 A 
ATOM     19  C   UNL A   1      31.460  26.499  24.398  1.00  0.00     0.022 A 
ATOM     20  C   UNL A   1      33.520  27.797  24.186  1.00  0.00     0.028 A 
ATOM     21  C   UNL A   1      31.282  26.967  25.701  1.00  0.00     0.008 A 
ATOM     22  C   UNL A   1      33.369  28.173  25.505  1.00  0.00    -0.015 A 
ATOM     23  C   UNL A   1      32.279  27.754  26.254  1.00  0.00    -0.017 A 
ATOM     24  C   UNL A   1      34.282  28.969  26.361  1.00  0.00     0.196 C 
ATOM     25  C   UNL A   1      32.428  28.261  27.641  1.00  0.00     0.196 C 
ATOM     26  O   UNL A   1      33.801  28.718  27.702  1.00  0.00    -0.372 OA
ENDBRANCH  15  18
ENDBRANCH  13  15
ENDBRANCH   9  13
ENDBRANCH   3   6
ENDBRANCH   1   2
BRANCH   1  27
ATOM     27  C   UNL A   1      38.545  21.445  25.661  1.00  0.00     0.042 C 
BRANCH  27  28
ATOM     28  C   UNL A   1      38.880  22.884  26.014  1.00  0.00     0.118 C 
BRANCH  28  29
ATOM     29  N   UNL A   1      40.301  23.078  26.320  1.00  0.00    -0.352 N 
ATOM     30  C   UNL A   1      40.953  24.240  26.696  1.00  0.00     0.251 C 
ATOM     31  H   UNL A   1      40.867  22.275  26.249  1.00  0.00     0.163 HD
ATOM     32  O   UNL A   1      42.139  24.244  26.997  1.00  0.00    -0.269 OA
BRANCH  30  33
ATOM     33  C   UNL A   1      40.126  25.452  26.858  1.00  0.00     0.039 A 
ATOM     34  C   UNL A   1      40.674  26.642  26.374  1.00  0.00     0.014 A 
ATOM     35  C   UNL A   1      39.137  25.452  27.835  1.00  0.00     0.014 A 
ATOM     36  C   UNL A   1      40.456  27.813  27.089  1.00  0.00     0.010 A 
ATOM     37  C   UNL A   1      39.003  26.590  28.604  1.00  0.00     0.010 A 
ATOM     38  C   UNL A   1      39.730  27.743  28.277  1.00  0.00    -0.014 A 
BRANCH  38  39
ATOM     39  C   UNL A   1      39.716  28.827  29.251  1.00  0.00     0.031 A 
ATOM     40  C   UNL A   1      38.704  29.890  29.109  1.00  0.00     0.074 A 
ATOM     41  C   UNL A   1      40.609  28.886  30.265  1.00  0.00     0.049 A 
ATOM     42  N   UNL A   1      38.864  31.099  29.523  1.00  0.00    -0.248 NA
ATOM     43  C   UNL A   1      37.439  29.673  28.422  1.00  0.00     0.031 C 
ATOM     44  C   UNL A   1      40.586  29.808  31.399  1.00  0.00     0.029 A 
ATOM     45  N   UNL A   1      41.851  28.241  30.371  1.00  0.00    -0.354 N 
ATOM     46  C   UNL A   1      37.660  31.750  29.390  1.00  0.00     0.074 A 
ATOM     47  C   UNL A   1      36.825  30.837  28.645  1.00  0.00     0.031 C 
ATOM     48  C   UNL A   1      41.828  29.921  31.891  1.00  0.00     0.029 A 
ATOM     49  C   UNL A   1      42.710  29.160  31.031  1.00  0.00     0.049 A 
ATOM     50  H   UNL A   1      42.080  27.337  30.052  1.00  0.00     0.167 HD
ATOM     51  C   UNL A   1      37.478  32.942  30.028  1.00  0.00     0.037 A 
ATOM     52  C   UNL A   1      43.839  29.633  30.426  1.00  0.00     0.037 A 
ATOM     53  C   UNL A   1      38.700  33.379  30.707  1.00  0.00     0.049 A 
ATOM     54  C   UNL A   1      43.825  31.122  30.160  1.00  0.00     0.074 A 
ATOM     55  C   UNL A   1      39.157  33.314  32.013  1.00  0.00     0.029 A 
ATOM     56  N   UNL A   1      39.803  33.715  29.941  1.00  0.00    -0.354 N 
ATOM     57  N   UNL A   1      42.862  31.930  30.507  1.00  0.00    -0.248 NA
ATOM     58  C   UNL A   1      44.853  31.790  29.362  1.00  0.00     0.031 C 
ATOM     59  C   UNL A   1      40.547  33.627  32.018  1.00  0.00     0.029 A 
ATOM     60  C   UNL A   1      40.934  33.891  30.717  1.00  0.00     0.049 A 
ATOM     61  H   UNL A   1      39.784  33.818  28.962  1.00  0.00     0.167 HD
ATOM     62  C   UNL A   1      43.078  33.160  29.945  1.00  0.00     0.074 A 
ATOM     63  C   UNL A   1      44.334  33.020  29.230  1.00  0.00     0.031 C 
ATOM     64  C   UNL A   1      42.195  34.196  30.060  1.00  0.00     0.037 A 
BRANCH  51  65
ATOM     65  C   UNL A   1      36.122  33.580  30.243  1.00  0.00     0.064 A 
ATOM     66  C   UNL A   1      35.397  34.109  29.154  1.00  0.00     0.173 A 
ATOM     67  C   UNL A   1      35.506  33.757  31.496  1.00  0.00     0.173 A 
ATOM     68  F   UNL A   1      35.786  33.905  27.888  1.00  0.00    -0.203 F 
ATOM     69  C   UNL A   1      34.235  34.868  29.323  1.00  0.00     0.198 A 
ATOM     70  C   UNL A   1      34.385  34.573  31.674  1.00  0.00     0.198 A 
ATOM     71  F   UNL A   1      35.923  33.092  32.579  1.00  0.00    -0.203 F 
ATOM     72  F   UNL A   1      33.594  35.348  28.248  1.00  0.00    -0.200 F 
ATOM     73  C   UNL A   1      33.756  35.141  30.587  1.00  0.00     0.200 A 
ATOM     74  F   UNL A   1      33.915  34.797  32.910  1.00  0.00    -0.200 F 
ATOM     75  F   UNL A   1      32.676  35.917  30.753  1.00  0.00    -0.200 F 
ENDBRANCH  51  65
BRANCH  52  76
ATOM     76  C   UNL A   1      44.465  28.604  29.554  1.00  0.00     0.064 A 
ATOM     77  C   UNL A   1      44.256  28.729  28.166  1.00  0.00     0.173 A 
ATOM     78  C   UNL A   1      45.578  27.878  29.986  1.00  0.00     0.173 A 
ATOM     79  F   UNL A   1      43.181  29.388  27.704  1.00  0.00    -0.203 F 
ATOM     80  C   UNL A   1      45.239  28.343  27.262  1.00  0.00     0.198 A 
ATOM     81  C   UNL A   1      46.537  27.450  29.071  1.00  0.00     0.198 A 
ATOM     82  F   UNL A   1      45.818  27.711  31.295  1.00  0.00    -0.203 F 
ATOM     83  F   UNL A   1      45.112  28.655  25.963  1.00  0.00    -0.200 F 
ATOM     84  C   UNL A   1      46.399  27.743  27.721  1.00  0.00     0.200 A 
ATOM     85  F   UNL A   1      47.649  26.848  29.511  1.00  0.00    -0.200 F 
ATOM     86  F   UNL A   1      47.406  27.500  26.871  1.00  0.00    -0.200 F 
ENDBRANCH  52  76
BRANCH  64  87
ATOM     87  C   UNL A   1      42.459  35.576  29.511  1.00  0.00     0.064 A 
ATOM     88  C   UNL A   1      41.931  36.015  28.285  1.00  0.00     0.173 A 
ATOM     89  C   UNL A   1      43.332  36.480  30.155  1.00  0.00     0.173 A 
ATOM     90  F   UNL A   1      41.198  35.197  27.516  1.00  0.00    -0.203 F 
ATOM     91  C   UNL A   1      42.163  37.304  27.798  1.00  0.00     0.198 A 
ATOM     92  C   UNL A   1      43.610  37.745  29.637  1.00  0.00     0.198 A 
ATOM     93  F   UNL A   1      43.929  36.180  31.316  1.00  0.00    -0.203 F 
ATOM     94  F   UNL A   1      41.568  37.701  26.665  1.00  0.00    -0.200 F 
ATOM     95  C   UNL A   1      43.004  38.167  28.472  1.00  0.00     0.200 A 
ATOM     96  F   UNL A   1      44.463  38.553  30.282  1.00  0.00    -0.200 F 
ATOM     97  F   UNL A   1      43.234  39.399  28.000  1.00  0.00    -0.200 F 
ENDBRANCH  64  87
ENDBRANCH  38  39
ENDBRANCH  30  33
ENDBRANCH  28  29
ENDBRANCH  27  28
ENDBRANCH   1  27
TORSDOF 13
ENDMDL
