MODEL 1
REMARK VINA RESULT:     -15.0      0.000      0.000
REMARK SMILES COc1cc(/C=C2/SC(=O)N(c3ccc(C)c(C)c3)C2=O)ccc1OCCC(=O)NCCCNC(=O)c1ccc(-c2c3nc(c(-c4c(F)c(F)c(F)c(F)c4F)c4ccc([nH]4)c(-c4c(F)c(F)c(F)c(F)c4F)c4nc(c(-c5c(F)c(F)c(F)c(F)c5F)c5ccc2[nH]5)C=C4)C=C3)cc1
REMARK SMILES IDX 28 1 29 2 30 3 27 5 26 6 25 7 24 8 3 9 4 10 5 11 23 12 22 13
REMARK SMILES IDX 2 14 1 15 6 16 7 17 8 18 20 19 9 20 11 21 21 22 10 23 12 24
REMARK SMILES IDX 13 25 19 26 14 27 17 28 15 29 18 30 16 31 31 32 32 33 33 34
REMARK SMILES IDX 34 35 35 36 36 38 37 39 38 40 99 41 39 42 98 43 40 44 41 45
REMARK SMILES IDX 42 46 92 47 43 48 97 49 91 50 93 51 44 52 96 53 90 54 89 55
REMARK SMILES IDX 45 57 77 58 57 59 76 60 58 61 61 62 75 63 94 64 59 65 60 66
REMARK SMILES IDX 74 68 95 69 62 70 46 71 47 72 55 73 48 74 49 75 53 76 56 77
REMARK SMILES IDX 50 78 51 79 54 80 52 81 78 82 79 83 87 84 80 85 81 86 85 87
REMARK SMILES IDX 88 88 82 89 83 90 86 91 84 92 63 93 64 94 72 95 65 96 66 97
REMARK SMILES IDX 70 98 73 99 67 100 68 101 71 102 69 103
REMARK H PARENT 30 4 34 37 93 56 61 67
REMARK Flexibility Score: inf
ROOT
ATOM      1  C   UNL A   1      32.736  18.336  24.481  1.00  0.00     0.223 C 
ATOM      2  O   UNL A   1      31.779  17.822  25.064  1.00  0.00    -0.275 OA
ATOM      3  N   UNL A   1      33.879  18.591  25.202  1.00  0.00    -0.356 N 
ATOM      4  H   UNL A   1      34.127  17.950  25.907  1.00  0.00     0.163 HD
ENDROOT
BRANCH   1   5
ATOM      5  C   UNL A   1      32.680  18.676  22.992  1.00  0.00     0.141 C 
BRANCH   5   6
ATOM      6  C   UNL A   1      32.155  20.063  22.604  1.00  0.00     0.239 C 
BRANCH   6   7
ATOM      7  O   UNL A   1      32.880  21.133  23.247  1.00  0.00    -0.489 OA
BRANCH   7   8
ATOM      8  C   UNL A   1      32.270  22.341  23.047  1.00  0.00     0.161 A 
ATOM      9  C   UNL A   1      31.182  23.047  24.284  1.00  0.00     0.161 A 
ATOM     10  C   UNL A   1      30.775  24.767  24.227  1.00  0.00     0.058 A 
ATOM     11  C   UNL A   1      31.323  25.827  22.896  1.00  0.00    -0.020 A 
ATOM     12  C   UNL A   1      32.886  23.365  21.683  1.00  0.00     0.051 A 
ATOM     13  C   UNL A   1      32.463  25.152  21.644  1.00  0.00     0.012 A 
BRANCH   9  14
ATOM     14  O   UNL A   1      30.884  22.355  25.429  1.00  0.00    -0.493 OA
ATOM     15  C   UNL A   1      31.956  22.433  26.382  1.00  0.00     0.278 C 
ENDBRANCH   9  14
BRANCH  11  16
ATOM     16  C   UNL A   1      30.525  27.070  22.782  1.00  0.00     0.029 C 
ATOM     17  C   UNL A   1      30.993  28.289  23.160  1.00  0.00     0.083 C 
ATOM     18  S   UNL A   1      29.962  29.653  23.423  1.00  0.00    -0.022 SA
ATOM     19  C   UNL A   1      32.343  28.735  23.698  1.00  0.00     0.272 C 
ATOM     20  C   UNL A   1      31.023  30.275  24.722  1.00  0.00     0.298 C 
ATOM     21  N   UNL A   1      32.177  29.530  24.808  1.00  0.00    -0.236 N 
ATOM     22  O   UNL A   1      33.397  28.580  23.100  1.00  0.00    -0.268 OA
ATOM     23  O   UNL A   1      30.672  31.240  25.381  1.00  0.00    -0.260 OA
BRANCH  21  24
ATOM     24  C   UNL A   1      33.192  29.694  25.828  1.00  0.00     0.053 A 
ATOM     25  C   UNL A   1      34.025  28.642  26.247  1.00  0.00     0.027 A 
ATOM     26  C   UNL A   1      33.332  30.901  26.535  1.00  0.00     0.030 A 
ATOM     27  C   UNL A   1      34.949  28.790  27.298  1.00  0.00     0.006 A 
ATOM     28  C   UNL A   1      34.225  31.052  27.627  1.00  0.00    -0.046 A 
ATOM     29  C   UNL A   1      35.040  29.981  28.020  1.00  0.00    -0.048 A 
ATOM     30  C   UNL A   1      34.229  32.345  28.397  1.00  0.00     0.044 C 
ATOM     31  C   UNL A   1      36.033  30.070  29.152  1.00  0.00     0.044 C 
ENDBRANCH  21  24
ENDBRANCH  11  16
ENDBRANCH   7   8
ENDBRANCH   6   7
ENDBRANCH   5   6
ENDBRANCH   1   5
BRANCH   3  32
ATOM     32  C   UNL A   1      34.757  19.752  24.997  1.00  0.00     0.117 C 
BRANCH  32  33
ATOM     33  C   UNL A   1      36.335  19.146  24.760  1.00  0.00     0.042 C 
BRANCH  33  34
ATOM     34  C   UNL A   1      38.359  19.935  24.980  1.00  0.00     0.118 C 
BRANCH  34  35
ATOM     35  N   UNL A   1      38.977  21.144  25.922  1.00  0.00    -0.352 N 
ATOM     36  C   UNL A   1      40.268  21.466  26.369  1.00  0.00     0.251 C 
ATOM     37  H   UNL A   1      38.291  21.775  26.240  1.00  0.00     0.163 HD
ATOM     38  O   UNL A   1      41.295  20.852  26.117  1.00  0.00    -0.269 OA
BRANCH  36  39
ATOM     39  C   UNL A   1      40.341  22.722  27.195  1.00  0.00     0.039 A 
ATOM     40  C   UNL A   1      41.324  22.957  28.160  1.00  0.00     0.014 A 
ATOM     41  C   UNL A   1      39.502  23.765  26.854  1.00  0.00     0.014 A 
ATOM     42  C   UNL A   1      41.605  24.280  28.558  1.00  0.00     0.010 A 
ATOM     43  C   UNL A   1      39.900  25.060  27.080  1.00  0.00     0.010 A 
ATOM     44  C   UNL A   1      40.987  25.352  27.898  1.00  0.00    -0.014 A 
BRANCH  44  45
ATOM     45  C   UNL A   1      41.479  26.763  27.868  1.00  0.00     0.031 A 
ATOM     46  C   UNL A   1      42.871  27.069  27.339  1.00  0.00     0.074 A 
ATOM     47  C   UNL A   1      40.833  27.680  28.622  1.00  0.00     0.049 A 
ATOM     48  N   UNL A   1      43.628  28.120  27.538  1.00  0.00    -0.248 NA
ATOM     49  C   UNL A   1      43.552  25.987  26.600  1.00  0.00     0.031 C 
ATOM     50  C   UNL A   1      39.612  27.437  29.402  1.00  0.00     0.029 A 
ATOM     51  N   UNL A   1      41.159  28.976  28.938  1.00  0.00    -0.354 N 
ATOM     52  C   UNL A   1      44.870  27.794  26.993  1.00  0.00     0.074 A 
ATOM     53  C   UNL A   1      44.809  26.404  26.612  1.00  0.00     0.031 C 
ATOM     54  C   UNL A   1      39.302  28.532  30.110  1.00  0.00     0.029 A 
ATOM     55  C   UNL A   1      40.314  29.547  29.862  1.00  0.00     0.049 A 
ATOM     56  H   UNL A   1      41.924  29.452  28.541  1.00  0.00     0.167 HD
ATOM     57  C   UNL A   1      45.933  28.601  26.749  1.00  0.00     0.037 A 
ATOM     58  C   UNL A   1      40.366  30.745  30.470  1.00  0.00     0.037 A 
ATOM     59  C   UNL A   1      45.920  30.007  27.056  1.00  0.00     0.049 A 
ATOM     60  C   UNL A   1      41.475  31.678  30.091  1.00  0.00     0.074 A 
ATOM     61  C   UNL A   1      46.805  30.995  26.667  1.00  0.00     0.029 A 
ATOM     62  N   UNL A   1      44.944  30.622  27.830  1.00  0.00    -0.354 N 
ATOM     63  N   UNL A   1      42.565  31.427  29.406  1.00  0.00    -0.248 NA
ATOM     64  C   UNL A   1      41.336  33.072  30.521  1.00  0.00     0.031 C 
ATOM     65  C   UNL A   1      46.375  32.205  27.222  1.00  0.00     0.029 A 
ATOM     66  C   UNL A   1      45.195  31.980  27.916  1.00  0.00     0.049 A 
ATOM     67  H   UNL A   1      44.186  30.160  28.255  1.00  0.00     0.167 HD
ATOM     68  C   UNL A   1      43.209  32.645  29.261  1.00  0.00     0.074 A 
ATOM     69  C   UNL A   1      42.394  33.628  29.950  1.00  0.00     0.031 C 
ATOM     70  C   UNL A   1      44.356  32.933  28.596  1.00  0.00     0.037 A 
BRANCH  57  71
ATOM     71  C   UNL A   1      47.125  28.022  26.021  1.00  0.00     0.064 A 
ATOM     72  C   UNL A   1      47.121  27.852  24.624  1.00  0.00     0.173 A 
ATOM     73  C   UNL A   1      48.308  27.687  26.701  1.00  0.00     0.173 A 
ATOM     74  F   UNL A   1      46.033  28.173  23.905  1.00  0.00    -0.203 F 
ATOM     75  C   UNL A   1      48.216  27.317  23.950  1.00  0.00     0.198 A 
ATOM     76  C   UNL A   1      49.423  27.197  26.015  1.00  0.00     0.198 A 
ATOM     77  F   UNL A   1      48.397  27.848  28.029  1.00  0.00    -0.203 F 
ATOM     78  F   UNL A   1      48.147  27.104  22.628  1.00  0.00    -0.200 F 
ATOM     79  C   UNL A   1      49.370  26.999  24.644  1.00  0.00     0.200 A 
ATOM     80  F   UNL A   1      50.551  26.920  26.683  1.00  0.00    -0.200 F 
ATOM     81  F   UNL A   1      50.432  26.506  23.992  1.00  0.00    -0.200 F 
ENDBRANCH  57  71
BRANCH  58  82
ATOM     82  C   UNL A   1      39.295  31.155  31.414  1.00  0.00     0.064 A 
ATOM     83  C   UNL A   1      38.226  31.950  30.975  1.00  0.00     0.173 A 
ATOM     84  C   UNL A   1      39.298  30.750  32.755  1.00  0.00     0.173 A 
ATOM     85  F   UNL A   1      38.187  32.370  29.701  1.00  0.00    -0.203 F 
ATOM     86  C   UNL A   1      37.214  32.345  31.846  1.00  0.00     0.198 A 
ATOM     87  C   UNL A   1      38.274  31.129  33.622  1.00  0.00     0.198 A 
ATOM     88  F   UNL A   1      40.290  29.977  33.220  1.00  0.00    -0.203 F 
ATOM     89  F   UNL A   1      36.226  33.136  31.407  1.00  0.00    -0.200 F 
ATOM     90  C   UNL A   1      37.237  31.932  33.170  1.00  0.00     0.200 A 
ATOM     91  F   UNL A   1      38.292  30.719  34.898  1.00  0.00    -0.200 F 
ATOM     92  F   UNL A   1      36.263  32.313  34.009  1.00  0.00    -0.200 F 
ENDBRANCH  58  82
BRANCH  70  93
ATOM     93  C   UNL A   1      44.726  34.380  28.496  1.00  0.00     0.064 A 
ATOM     94  C   UNL A   1      45.660  34.971  29.358  1.00  0.00     0.173 A 
ATOM     95  C   UNL A   1      44.117  35.189  27.524  1.00  0.00     0.173 A 
ATOM     96  F   UNL A   1      46.253  34.242  30.315  1.00  0.00    -0.203 F 
ATOM     97  C   UNL A   1      45.933  36.334  29.282  1.00  0.00     0.198 A 
ATOM     98  C   UNL A   1      44.423  36.541  27.425  1.00  0.00     0.198 A 
ATOM     99  F   UNL A   1      43.222  34.666  26.672  1.00  0.00    -0.203 F 
ATOM    100  F   UNL A   1      46.770  36.896  30.166  1.00  0.00    -0.200 F 
ATOM    101  C   UNL A   1      45.319  37.114  28.313  1.00  0.00     0.200 A 
ATOM    102  F   UNL A   1      43.841  37.291  26.479  1.00  0.00    -0.200 F 
ATOM    103  F   UNL A   1      45.580  38.428  28.247  1.00  0.00    -0.200 F 
ENDBRANCH  70  93
ENDBRANCH  44  45
ENDBRANCH  36  39
ENDBRANCH  34  35
ENDBRANCH  33  34
ENDBRANCH  32  33
ENDBRANCH   3  32
TORSDOF 16
ENDMDL
MODEL 2
REMARK VINA RESULT:     -14.4      4.411      9.506
REMARK SMILES COc1cc(/C=C2/SC(=O)N(c3ccc(C)c(C)c3)C2=O)ccc1OCCC(=O)NCCCNC(=O)c1ccc(-c2c3nc(c(-c4c(F)c(F)c(F)c(F)c4F)c4ccc([nH]4)c(-c4c(F)c(F)c(F)c(F)c4F)c4nc(c(-c5c(F)c(F)c(F)c(F)c5F)c5ccc2[nH]5)C=C4)C=C3)cc1
REMARK SMILES IDX 28 1 29 2 30 3 27 5 26 6 25 7 24 8 3 9 4 10 5 11 23 12 22 13
REMARK SMILES IDX 2 14 1 15 6 16 7 17 8 18 20 19 9 20 11 21 21 22 10 23 12 24
REMARK SMILES IDX 13 25 19 26 14 27 17 28 15 29 18 30 16 31 31 32 32 33 33 34
REMARK SMILES IDX 34 35 35 36 36 38 37 39 38 40 99 41 39 42 98 43 40 44 41 45
REMARK SMILES IDX 42 46 92 47 43 48 97 49 91 50 93 51 44 52 96 53 90 54 89 55
REMARK SMILES IDX 45 57 77 58 57 59 76 60 58 61 61 62 75 63 94 64 59 65 60 66
REMARK SMILES IDX 74 68 95 69 62 70 46 71 47 72 55 73 48 74 49 75 53 76 56 77
REMARK SMILES IDX 50 78 51 79 54 80 52 81 78 82 79 83 87 84 80 85 81 86 85 87
REMARK SMILES IDX 88 88 82 89 83 90 86 91 84 92 63 93 64 94 72 95 65 96 66 97
REMARK SMILES IDX 70 98 73 99 67 100 68 101 71 102 69 103
REMARK H PARENT 30 4 34 37 93 56 61 67
REMARK Flexibility Score: inf
ROOT
ATOM      1  C   UNL A   1      44.257  22.411  26.409  1.00  0.00     0.223 C 
ATOM      2  O   UNL A   1      44.301  23.040  27.468  1.00  0.00    -0.275 OA
ATOM      3  N   UNL A   1      45.278  21.532  26.130  1.00  0.00    -0.356 N 
ATOM      4  H   UNL A   1      45.673  21.036  26.882  1.00  0.00     0.163 HD
ENDROOT
BRANCH   1   5
ATOM      5  C   UNL A   1      43.100  22.576  25.424  1.00  0.00     0.141 C 
BRANCH   5   6
ATOM      6  C   UNL A   1      41.801  21.822  25.729  1.00  0.00     0.239 C 
BRANCH   6   7
ATOM      7  O   UNL A   1      40.842  22.629  26.443  1.00  0.00    -0.489 OA
BRANCH   7   8
ATOM      8  C   UNL A   1      39.570  22.149  26.290  1.00  0.00     0.161 A 
ATOM      9  C   UNL A   1      38.154  23.245  26.331  1.00  0.00     0.161 A 
ATOM     10  C   UNL A   1      36.597  22.703  25.689  1.00  0.00     0.058 A 
ATOM     11  C   UNL A   1      36.344  21.037  25.094  1.00  0.00    -0.020 A 
ATOM     12  C   UNL A   1      39.394  20.452  25.674  1.00  0.00     0.051 A 
ATOM     13  C   UNL A   1      37.774  19.909  25.000  1.00  0.00     0.012 A 
BRANCH   9  14
ATOM     14  O   UNL A   1      38.312  24.583  26.587  1.00  0.00    -0.493 OA
ATOM     15  C   UNL A   1      38.707  24.810  27.948  1.00  0.00     0.278 C 
ENDBRANCH   9  14
BRANCH  11  16
ATOM     16  C   UNL A   1      34.915  20.654  25.038  1.00  0.00     0.029 C 
ATOM     17  C   UNL A   1      33.968  21.409  24.419  1.00  0.00     0.083 C 
ATOM     18  S   UNL A   1      32.272  21.203  24.694  1.00  0.00    -0.022 SA
ATOM     19  C   UNL A   1      34.062  22.702  23.625  1.00  0.00     0.272 C 
ATOM     20  C   UNL A   1      31.968  22.952  24.473  1.00  0.00     0.298 C 
ATOM     21  N   UNL A   1      33.110  23.597  24.055  1.00  0.00    -0.236 N 
ATOM     22  O   UNL A   1      34.741  22.833  22.619  1.00  0.00    -0.268 OA
ATOM     23  O   UNL A   1      30.856  23.406  24.689  1.00  0.00    -0.260 OA
BRANCH  21  24
ATOM     24  C   UNL A   1      33.237  25.031  23.897  1.00  0.00     0.053 A 
ATOM     25  C   UNL A   1      33.275  25.657  22.638  1.00  0.00     0.027 A 
ATOM     26  C   UNL A   1      33.435  25.876  25.004  1.00  0.00     0.030 A 
ATOM     27  C   UNL A   1      33.485  27.040  22.495  1.00  0.00     0.006 A 
ATOM     28  C   UNL A   1      33.694  27.265  24.873  1.00  0.00    -0.046 A 
ATOM     29  C   UNL A   1      33.727  27.856  23.602  1.00  0.00    -0.048 A 
ATOM     30  C   UNL A   1      34.005  28.071  26.105  1.00  0.00     0.044 C 
ATOM     31  C   UNL A   1      33.969  29.328  23.381  1.00  0.00     0.044 C 
ENDBRANCH  21  24
ENDBRANCH  11  16
ENDBRANCH   7   8
ENDBRANCH   6   7
ENDBRANCH   5   6
ENDBRANCH   1   5
BRANCH   3  32
ATOM     32  C   UNL A   1      45.822  21.281  24.787  1.00  0.00     0.117 C 
BRANCH  32  33
ATOM     33  C   UNL A   1      46.514  22.746  24.250  1.00  0.00     0.042 C 
BRANCH  33  34
ATOM     34  C   UNL A   1      46.293  24.856  24.764  1.00  0.00     0.118 C 
BRANCH  34  35
ATOM     35  N   UNL A   1      45.038  25.707  25.423  1.00  0.00    -0.352 N 
ATOM     36  C   UNL A   1      44.674  27.063  25.419  1.00  0.00     0.251 C 
ATOM     37  H   UNL A   1      44.411  25.142  25.930  1.00  0.00     0.163 HD
ATOM     38  O   UNL A   1      45.274  27.973  24.865  1.00  0.00    -0.269 OA
BRANCH  36  39
ATOM     39  C   UNL A   1      43.389  27.359  26.144  1.00  0.00     0.039 A 
ATOM     40  C   UNL A   1      42.651  26.395  26.836  1.00  0.00     0.014 A 
ATOM     41  C   UNL A   1      43.020  28.683  26.282  1.00  0.00     0.014 A 
ATOM     42  C   UNL A   1      41.745  26.799  27.838  1.00  0.00     0.010 A 
ATOM     43  C   UNL A   1      42.298  29.077  27.383  1.00  0.00     0.010 A 
ATOM     44  C   UNL A   1      41.680  28.148  28.215  1.00  0.00    -0.014 A 
BRANCH  44  45
ATOM     45  C   UNL A   1      41.144  28.671  29.508  1.00  0.00     0.031 A 
ATOM     46  C   UNL A   1      39.891  29.532  29.517  1.00  0.00     0.074 A 
ATOM     47  C   UNL A   1      41.960  28.666  30.585  1.00  0.00     0.049 A 
ATOM     48  N   UNL A   1      39.456  30.366  30.429  1.00  0.00    -0.248 NA
ATOM     49  C   UNL A   1      39.096  29.557  28.273  1.00  0.00     0.031 C 
ATOM     50  C   UNL A   1      43.313  28.094  30.630  1.00  0.00     0.029 A 
ATOM     51  N   UNL A   1      41.818  29.240  31.825  1.00  0.00    -0.354 N 
ATOM     52  C   UNL A   1      38.382  31.033  29.844  1.00  0.00     0.074 A 
ATOM     53  C   UNL A   1      38.341  30.629  28.460  1.00  0.00     0.031 C 
ATOM     54  C   UNL A   1      43.875  28.355  31.818  1.00  0.00     0.029 A 
ATOM     55  C   UNL A   1      42.942  29.137  32.613  1.00  0.00     0.049 A 
ATOM     56  H   UNL A   1      40.990  29.683  32.123  1.00  0.00     0.167 HD
ATOM     57  C   UNL A   1      37.458  31.839  30.425  1.00  0.00     0.037 A 
ATOM     58  C   UNL A   1      43.205  29.645  33.829  1.00  0.00     0.037 A 
ATOM     59  C   UNL A   1      37.477  32.143  31.832  1.00  0.00     0.049 A 
ATOM     60  C   UNL A   1      42.125  30.423  34.515  1.00  0.00     0.074 A 
ATOM     61  C   UNL A   1      36.503  32.738  32.611  1.00  0.00     0.029 A 
ATOM     62  N   UNL A   1      38.543  31.851  32.673  1.00  0.00    -0.354 N 
ATOM     63  N   UNL A   1      41.007  30.894  34.018  1.00  0.00    -0.248 NA
ATOM     64  C   UNL A   1      42.316  30.693  35.942  1.00  0.00     0.031 C 
ATOM     65  C   UNL A   1      36.987  32.825  33.921  1.00  0.00     0.029 A 
ATOM     66  C   UNL A   1      38.243  32.239  33.968  1.00  0.00     0.049 A 
ATOM     67  H   UNL A   1      39.387  31.431  32.391  1.00  0.00     0.167 HD
ATOM     68  C   UNL A   1      40.325  31.457  35.085  1.00  0.00     0.074 A 
ATOM     69  C   UNL A   1      41.171  31.284  36.252  1.00  0.00     0.031 C 
ATOM     70  C   UNL A   1      39.100  32.038  35.108  1.00  0.00     0.037 A 
BRANCH  57  71
ATOM     71  C   UNL A   1      36.303  32.336  29.585  1.00  0.00     0.064 A 
ATOM     72  C   UNL A   1      35.276  31.472  29.163  1.00  0.00     0.173 A 
ATOM     73  C   UNL A   1      36.176  33.693  29.243  1.00  0.00     0.173 A 
ATOM     74  F   UNL A   1      35.319  30.167  29.473  1.00  0.00    -0.203 F 
ATOM     75  C   UNL A   1      34.212  31.926  28.387  1.00  0.00     0.198 A 
ATOM     76  C   UNL A   1      35.082  34.154  28.506  1.00  0.00     0.198 A 
ATOM     77  F   UNL A   1      37.101  34.582  29.633  1.00  0.00    -0.203 F 
ATOM     78  F   UNL A   1      33.292  31.058  27.944  1.00  0.00    -0.200 F 
ATOM     79  C   UNL A   1      34.110  33.268  28.067  1.00  0.00     0.200 A 
ATOM     80  F   UNL A   1      34.967  35.459  28.224  1.00  0.00    -0.200 F 
ATOM     81  F   UNL A   1      33.075  33.709  27.339  1.00  0.00    -0.200 F 
ENDBRANCH  57  71
BRANCH  58  82
ATOM     82  C   UNL A   1      44.497  29.353  34.501  1.00  0.00     0.064 A 
ATOM     83  C   UNL A   1      45.581  30.236  34.373  1.00  0.00     0.173 A 
ATOM     84  C   UNL A   1      44.676  28.213  35.296  1.00  0.00     0.173 A 
ATOM     85  F   UNL A   1      45.459  31.335  33.613  1.00  0.00    -0.203 F 
ATOM     86  C   UNL A   1      46.800  29.977  34.994  1.00  0.00     0.198 A 
ATOM     87  C   UNL A   1      45.891  27.966  35.934  1.00  0.00     0.198 A 
ATOM     88  F   UNL A   1      43.666  27.347  35.462  1.00  0.00    -0.203 F 
ATOM     89  F   UNL A   1      47.828  30.818  34.822  1.00  0.00    -0.200 F 
ATOM     90  C   UNL A   1      46.954  28.843  35.777  1.00  0.00     0.200 A 
ATOM     91  F   UNL A   1      46.034  26.875  36.699  1.00  0.00    -0.200 F 
ATOM     92  F   UNL A   1      48.128  28.594  36.374  1.00  0.00    -0.200 F 
ENDBRANCH  58  82
BRANCH  70  93
ATOM     93  C   UNL A   1      38.568  32.425  36.453  1.00  0.00     0.064 A 
ATOM     94  C   UNL A   1      38.736  33.714  36.978  1.00  0.00     0.173 A 
ATOM     95  C   UNL A   1      37.890  31.475  37.233  1.00  0.00     0.173 A 
ATOM     96  F   UNL A   1      39.395  34.649  36.276  1.00  0.00    -0.203 F 
ATOM     97  C   UNL A   1      38.287  34.023  38.258  1.00  0.00     0.198 A 
ATOM     98  C   UNL A   1      37.407  31.800  38.495  1.00  0.00     0.198 A 
ATOM     99  F   UNL A   1      37.699  30.231  36.770  1.00  0.00    -0.203 F 
ATOM    100  F   UNL A   1      38.528  35.237  38.774  1.00  0.00    -0.200 F 
ATOM    101  C   UNL A   1      37.620  33.069  39.012  1.00  0.00     0.200 A 
ATOM    102  F   UNL A   1      36.750  30.882  39.216  1.00  0.00    -0.200 F 
ATOM    103  F   UNL A   1      37.195  33.368  40.248  1.00  0.00    -0.200 F 
ENDBRANCH  70  93
ENDBRANCH  44  45
ENDBRANCH  36  39
ENDBRANCH  34  35
ENDBRANCH  33  34
ENDBRANCH  32  33
ENDBRANCH   3  32
TORSDOF 16
ENDMDL
MODEL 3
REMARK VINA RESULT:     -14.3      4.873     11.175
REMARK SMILES COc1cc(/C=C2/SC(=O)N(c3ccc(C)c(C)c3)C2=O)ccc1OCCC(=O)NCCCNC(=O)c1ccc(-c2c3nc(c(-c4c(F)c(F)c(F)c(F)c4F)c4ccc([nH]4)c(-c4c(F)c(F)c(F)c(F)c4F)c4nc(c(-c5c(F)c(F)c(F)c(F)c5F)c5ccc2[nH]5)C=C4)C=C3)cc1
REMARK SMILES IDX 28 1 29 2 30 3 27 5 26 6 25 7 24 8 3 9 4 10 5 11 23 12 22 13
REMARK SMILES IDX 2 14 1 15 6 16 7 17 8 18 20 19 9 20 11 21 21 22 10 23 12 24
REMARK SMILES IDX 13 25 19 26 14 27 17 28 15 29 18 30 16 31 31 32 32 33 33 34
REMARK SMILES IDX 34 35 35 36 36 38 37 39 38 40 99 41 39 42 98 43 40 44 41 45
REMARK SMILES IDX 42 46 92 47 43 48 97 49 91 50 93 51 44 52 96 53 90 54 89 55
REMARK SMILES IDX 45 57 77 58 57 59 76 60 58 61 61 62 75 63 94 64 59 65 60 66
REMARK SMILES IDX 74 68 95 69 62 70 46 71 47 72 55 73 48 74 49 75 53 76 56 77
REMARK SMILES IDX 50 78 51 79 54 80 52 81 78 82 79 83 87 84 80 85 81 86 85 87
REMARK SMILES IDX 88 88 82 89 83 90 86 91 84 92 63 93 64 94 72 95 65 96 66 97
REMARK SMILES IDX 70 98 73 99 67 100 68 101 71 102 69 103
REMARK H PARENT 30 4 34 37 93 56 61 67
REMARK Flexibility Score: inf
ROOT
ATOM      1  C   UNL A   1      31.499  29.514  25.169  1.00  0.00     0.223 C 
ATOM      2  O   UNL A   1      30.658  29.537  24.269  1.00  0.00    -0.275 OA
ATOM      3  N   UNL A   1      31.422  30.468  26.157  1.00  0.00    -0.356 N 
ATOM      4  H   UNL A   1      30.526  30.760  26.442  1.00  0.00     0.163 HD
ENDROOT
BRANCH   1   5
ATOM      5  C   UNL A   1      32.597  28.453  25.216  1.00  0.00     0.141 C 
BRANCH   5   6
ATOM      6  C   UNL A   1      33.329  28.137  23.907  1.00  0.00     0.239 C 
BRANCH   6   7
ATOM      7  O   UNL A   1      32.478  27.498  22.932  1.00  0.00    -0.489 OA
BRANCH   7   8
ATOM      8  C   UNL A   1      32.461  26.140  23.096  1.00  0.00     0.161 A 
ATOM      9  C   UNL A   1      31.072  25.316  23.872  1.00  0.00     0.161 A 
ATOM     10  C   UNL A   1      30.852  23.573  23.669  1.00  0.00     0.058 A 
ATOM     11  C   UNL A   1      32.042  22.561  22.801  1.00  0.00    -0.020 A 
ATOM     12  C   UNL A   1      33.694  25.179  22.175  1.00  0.00     0.051 A 
ATOM     13  C   UNL A   1      33.444  23.372  21.965  1.00  0.00     0.012 A 
BRANCH   9  14
ATOM     14  O   UNL A   1      30.026  26.041  24.382  1.00  0.00    -0.493 OA
ATOM     15  C   UNL A   1      29.939  25.899  25.808  1.00  0.00     0.278 C 
ENDBRANCH   9  14
BRANCH  11  16
ATOM     16  C   UNL A   1      31.925  21.121  23.129  1.00  0.00     0.029 C 
ATOM     17  C   UNL A   1      32.747  20.492  24.010  1.00  0.00     0.083 C 
ATOM     18  S   UNL A   1      32.897  18.770  24.092  1.00  0.00    -0.022 SA
ATOM     19  C   UNL A   1      33.876  21.006  24.888  1.00  0.00     0.272 C 
ATOM     20  C   UNL A   1      34.624  18.888  24.546  1.00  0.00     0.298 C 
ATOM     21  N   UNL A   1      34.982  20.198  24.767  1.00  0.00    -0.236 N 
ATOM     22  O   UNL A   1      33.737  21.880  25.731  1.00  0.00    -0.268 OA
ATOM     23  O   UNL A   1      35.300  17.876  24.623  1.00  0.00    -0.260 OA
BRANCH  21  24
ATOM     24  C   UNL A   1      36.332  20.651  25.034  1.00  0.00     0.053 A 
ATOM     25  C   UNL A   1      37.436  19.782  25.054  1.00  0.00     0.027 A 
ATOM     26  C   UNL A   1      36.599  21.985  25.394  1.00  0.00     0.030 A 
ATOM     27  C   UNL A   1      38.728  20.218  25.399  1.00  0.00     0.006 A 
ATOM     28  C   UNL A   1      37.887  22.430  25.789  1.00  0.00    -0.046 A 
ATOM     29  C   UNL A   1      38.966  21.535  25.799  1.00  0.00    -0.048 A 
ATOM     30  C   UNL A   1      38.058  23.847  26.265  1.00  0.00     0.044 C 
ATOM     31  C   UNL A   1      40.369  21.936  26.180  1.00  0.00     0.044 C 
ENDBRANCH  21  24
ENDBRANCH  11  16
ENDBRANCH   7   8
ENDBRANCH   6   7
ENDBRANCH   5   6
ENDBRANCH   1   5
BRANCH   3  32
ATOM     32  C   UNL A   1      32.582  31.084  26.818  1.00  0.00     0.117 C 
BRANCH  32  33
ATOM     33  C   UNL A   1      32.200  32.732  27.055  1.00  0.00     0.042 C 
BRANCH  33  34
ATOM     34  C   UNL A   1      32.987  34.352  28.288  1.00  0.00     0.118 C 
BRANCH  34  35
ATOM     35  N   UNL A   1      33.647  34.368  29.804  1.00  0.00    -0.352 N 
ATOM     36  C   UNL A   1      33.460  35.174  30.938  1.00  0.00     0.251 C 
ATOM     37  H   UNL A   1      34.317  33.659  29.941  1.00  0.00     0.163 HD
ATOM     38  O   UNL A   1      32.688  36.117  31.037  1.00  0.00    -0.269 OA
BRANCH  36  39
ATOM     39  C   UNL A   1      34.281  34.762  32.130  1.00  0.00     0.039 A 
ATOM     40  C   UNL A   1      33.897  33.761  33.026  1.00  0.00     0.014 A 
ATOM     41  C   UNL A   1      35.559  35.275  32.238  1.00  0.00     0.014 A 
ATOM     42  C   UNL A   1      34.874  33.127  33.820  1.00  0.00     0.010 A 
ATOM     43  C   UNL A   1      36.540  34.536  32.852  1.00  0.00     0.010 A 
ATOM     44  C   UNL A   1      36.231  33.417  33.620  1.00  0.00    -0.014 A 
BRANCH  44  45
ATOM     45  C   UNL A   1      37.381  32.553  34.024  1.00  0.00     0.031 A 
ATOM     46  C   UNL A   1      38.234  32.936  35.223  1.00  0.00     0.074 A 
ATOM     47  C   UNL A   1      37.850  31.656  33.128  1.00  0.00     0.049 A 
ATOM     48  N   UNL A   1      39.449  32.561  35.538  1.00  0.00    -0.248 NA
ATOM     49  C   UNL A   1      37.696  33.987  36.110  1.00  0.00     0.031 C 
ATOM     50  C   UNL A   1      37.263  31.379  31.810  1.00  0.00     0.029 A 
ATOM     51  N   UNL A   1      38.982  30.879  33.141  1.00  0.00    -0.354 N 
ATOM     52  C   UNL A   1      39.820  33.363  36.616  1.00  0.00     0.074 A 
ATOM     53  C   UNL A   1      38.776  34.344  36.787  1.00  0.00     0.031 C 
ATOM     54  C   UNL A   1      38.039  30.513  31.143  1.00  0.00     0.029 A 
ATOM     55  C   UNL A   1      39.193  30.193  31.966  1.00  0.00     0.049 A 
ATOM     56  H   UNL A   1      39.586  30.817  33.917  1.00  0.00     0.167 HD
ATOM     57  C   UNL A   1      40.887  33.239  37.445  1.00  0.00     0.037 A 
ATOM     58  C   UNL A   1      40.222  29.418  31.581  1.00  0.00     0.037 A 
ATOM     59  C   UNL A   1      41.857  32.187  37.300  1.00  0.00     0.049 A 
ATOM     60  C   UNL A   1      41.332  29.184  32.559  1.00  0.00     0.074 A 
ATOM     61  C   UNL A   1      42.847  31.784  38.176  1.00  0.00     0.029 A 
ATOM     62  N   UNL A   1      41.939  31.356  36.189  1.00  0.00    -0.354 N 
ATOM     63  N   UNL A   1      41.582  29.809  33.685  1.00  0.00    -0.248 NA
ATOM     64  C   UNL A   1      42.269  28.103  32.243  1.00  0.00     0.031 C 
ATOM     65  C   UNL A   1      43.542  30.721  37.586  1.00  0.00     0.029 A 
ATOM     66  C   UNL A   1      42.953  30.431  36.365  1.00  0.00     0.049 A 
ATOM     67  H   UNL A   1      41.361  31.417  35.394  1.00  0.00     0.167 HD
ATOM     68  C   UNL A   1      42.665  29.152  34.249  1.00  0.00     0.074 A 
ATOM     69  C   UNL A   1      43.032  28.095  33.326  1.00  0.00     0.031 C 
ATOM     70  C   UNL A   1      43.282  29.382  35.435  1.00  0.00     0.037 A 
BRANCH  57  71
ATOM     71  C   UNL A   1      40.989  34.170  38.632  1.00  0.00     0.064 A 
ATOM     72  C   UNL A   1      41.669  35.399  38.546  1.00  0.00     0.173 A 
ATOM     73  C   UNL A   1      40.359  33.875  39.853  1.00  0.00     0.173 A 
ATOM     74  F   UNL A   1      42.276  35.759  37.404  1.00  0.00    -0.203 F 
ATOM     75  C   UNL A   1      41.768  36.258  39.638  1.00  0.00     0.198 A 
ATOM     76  C   UNL A   1      40.418  34.761  40.931  1.00  0.00     0.198 A 
ATOM     77  F   UNL A   1      39.668  32.735  40.002  1.00  0.00    -0.203 F 
ATOM     78  F   UNL A   1      42.485  37.386  39.538  1.00  0.00    -0.200 F 
ATOM     79  C   UNL A   1      41.134  35.943  40.827  1.00  0.00     0.200 A 
ATOM     80  F   UNL A   1      39.776  34.471  42.072  1.00  0.00    -0.200 F 
ATOM     81  F   UNL A   1      41.210  36.780  41.871  1.00  0.00    -0.200 F 
ENDBRANCH  57  71
BRANCH  58  82
ATOM     82  C   UNL A   1      40.198  28.742  30.259  1.00  0.00     0.064 A 
ATOM     83  C   UNL A   1      39.555  27.505  30.103  1.00  0.00     0.173 A 
ATOM     84  C   UNL A   1      40.788  29.317  29.125  1.00  0.00     0.173 A 
ATOM     85  F   UNL A   1      38.986  26.912  31.164  1.00  0.00    -0.203 F 
ATOM     86  C   UNL A   1      39.525  26.856  28.871  1.00  0.00     0.198 A 
ATOM     87  C   UNL A   1      40.739  28.677  27.887  1.00  0.00     0.198 A 
ATOM     88  F   UNL A   1      41.401  30.506  29.217  1.00  0.00    -0.203 F 
ATOM     89  F   UNL A   1      38.937  25.658  28.763  1.00  0.00    -0.200 F 
ATOM     90  C   UNL A   1      40.114  27.444  27.762  1.00  0.00     0.200 A 
ATOM     91  F   UNL A   1      41.299  29.252  26.814  1.00  0.00    -0.200 F 
ATOM     92  F   UNL A   1      40.085  26.820  26.577  1.00  0.00    -0.200 F 
ENDBRANCH  58  82
BRANCH  70  93
ATOM     93  C   UNL A   1      44.342  28.403  35.838  1.00  0.00     0.064 A 
ATOM     94  C   UNL A   1      44.046  27.241  36.563  1.00  0.00     0.173 A 
ATOM     95  C   UNL A   1      45.682  28.651  35.500  1.00  0.00     0.173 A 
ATOM     96  F   UNL A   1      42.782  26.974  36.924  1.00  0.00    -0.203 F 
ATOM     97  C   UNL A   1      45.062  26.386  36.979  1.00  0.00     0.198 A 
ATOM     98  C   UNL A   1      46.689  27.773  35.883  1.00  0.00     0.198 A 
ATOM     99  F   UNL A   1      46.013  29.747  34.801  1.00  0.00    -0.203 F 
ATOM    100  F   UNL A   1      44.768  25.322  37.739  1.00  0.00    -0.200 F 
ATOM    101  C   UNL A   1      46.380  26.650  36.635  1.00  0.00     0.200 A 
ATOM    102  F   UNL A   1      47.959  28.022  35.537  1.00  0.00    -0.200 F 
ATOM    103  F   UNL A   1      47.357  25.828  37.043  1.00  0.00    -0.200 F 
ENDBRANCH  70  93
ENDBRANCH  44  45
ENDBRANCH  36  39
ENDBRANCH  34  35
ENDBRANCH  33  34
ENDBRANCH  32  33
ENDBRANCH   3  32
TORSDOF 16
ENDMDL
