MODEL 1
REMARK VINA RESULT:     -12.9      0.000      0.000
REMARK SMILES Cc1cc(NCc2ccc(C(=O)NCCCNC(=O)c3ccc(-c4c5nc(c(-c6c(F)c(F)c(F)c(F)c6F)c6ccc([nH]6)c(-c6c(F)c(F)c(F)c(F)c6F)c6nc(c(-c7c(F)c(F)c(F)c(F)c7F)c7ccc4[nH]7)C=C6)C=C5)cc3)o2)ccc1F
REMARK SMILES IDX 14 1 13 2 11 3 12 4 10 6 7 7 8 8 83 9 9 10 6 11 5 12 4 14
REMARK SMILES IDX 1 15 2 16 3 17 86 18 85 19 87 20 84 21 15 22 16 23 17 24
REMARK SMILES IDX 18 25 19 27 20 28 21 29 82 30 22 31 81 32 23 33 24 34 25 35
REMARK SMILES IDX 75 36 26 37 80 38 74 39 76 40 27 41 79 42 73 43 72 44 28 46
REMARK SMILES IDX 60 47 40 48 59 49 41 50 44 51 58 52 77 53 42 54 43 55 57 57
REMARK SMILES IDX 78 58 45 59 29 60 30 61 38 62 31 63 32 64 36 65 39 66 33 67
REMARK SMILES IDX 34 68 37 69 35 70 61 71 62 72 70 73 63 74 64 75 68 76 71 77
REMARK SMILES IDX 65 78 66 79 69 80 67 81 46 82 47 83 55 84 48 85 49 86 53 87
REMARK SMILES IDX 56 88 50 89 51 90 54 91 52 92
REMARK H PARENT 13 5 5 13 17 26 76 45 44 56
REMARK Flexibility Score: inf
ROOT
ATOM      1  C   UNL A   1      33.152  28.991  24.959  1.00  0.00     0.118 C 
ENDROOT
BRANCH   1   2
ATOM      2  N   UNL A   1      33.805  28.999  23.669  1.00  0.00    -0.349 N 
ATOM      3  C   UNL A   1      33.729  28.057  22.671  1.00  0.00     0.286 C 
ATOM      4  O   UNL A   1      34.316  28.323  21.621  1.00  0.00    -0.266 OA
ATOM      5  H   UNL A   1      34.376  29.779  23.482  1.00  0.00     0.163 HD
BRANCH   3   6
ATOM      6  C   UNL A   1      32.955  26.847  22.880  1.00  0.00     0.191 A 
ATOM      7  C   UNL A   1      32.728  24.776  23.604  1.00  0.00     0.124 A 
ATOM      8  C   UNL A   1      31.535  25.092  23.005  1.00  0.00     0.048 A 
ATOM      9  O   UNL A   1      33.588  25.827  23.535  1.00  0.00    -0.454 OA
ATOM     10  C   UNL A   1      31.671  26.426  22.568  1.00  0.00     0.056 A 
BRANCH   7  11
ATOM     11  C   UNL A   1      33.236  23.577  24.306  1.00  0.00     0.188 C 
BRANCH  11  12
ATOM     12  N   UNL A   1      34.433  23.036  23.697  1.00  0.00    -0.378 N 
ATOM     13  H   UNL A   1      34.371  22.765  22.752  1.00  0.00     0.161 HD
BRANCH  12  14
ATOM     14  C   UNL A   1      35.653  22.864  24.317  1.00  0.00     0.035 A 
ATOM     15  C   UNL A   1      37.984  19.902  24.958  1.00  0.00     0.047 C 
ATOM     16  C   UNL A   1      37.406  21.281  24.983  1.00  0.00    -0.013 A 
ATOM     17  C   UNL A   1      36.235  21.586  24.276  1.00  0.00     0.032 A 
ATOM     18  C   UNL A   1      38.001  22.284  25.743  1.00  0.00     0.126 A 
ATOM     19  C   UNL A   1      37.459  23.561  25.794  1.00  0.00     0.041 A 
ATOM     20  F   UNL A   1      39.107  22.019  26.452  1.00  0.00    -0.207 F 
ATOM     21  C   UNL A   1      36.286  23.846  25.087  1.00  0.00     0.029 A 
ENDBRANCH  12  14
ENDBRANCH  11  12
ENDBRANCH   7  11
ENDBRANCH   3   6
ENDBRANCH   1   2
BRANCH   1  22
ATOM     22  C   UNL A   1      34.094  28.458  26.041  1.00  0.00     0.042 C 
BRANCH  22  23
ATOM     23  C   UNL A   1      33.624  28.930  27.387  1.00  0.00     0.118 C 
BRANCH  23  24
ATOM     24  N   UNL A   1      33.868  30.365  27.535  1.00  0.00    -0.352 N 
ATOM     25  C   UNL A   1      34.858  30.998  28.250  1.00  0.00     0.251 C 
ATOM     26  H   UNL A   1      33.241  30.955  27.059  1.00  0.00     0.163 HD
ATOM     27  O   UNL A   1      34.740  32.161  28.586  1.00  0.00    -0.269 OA
BRANCH  25  28
ATOM     28  C   UNL A   1      36.081  30.242  28.551  1.00  0.00     0.039 A 
ATOM     29  C   UNL A   1      36.265  29.593  29.777  1.00  0.00     0.014 A 
ATOM     30  C   UNL A   1      37.092  30.266  27.598  1.00  0.00     0.014 A 
ATOM     31  C   UNL A   1      37.493  28.995  30.039  1.00  0.00     0.010 A 
ATOM     32  C   UNL A   1      38.178  29.480  27.745  1.00  0.00     0.010 A 
ATOM     33  C   UNL A   1      38.434  28.978  29.014  1.00  0.00    -0.014 A 
BRANCH  33  34
ATOM     34  C   UNL A   1      39.805  28.546  29.118  1.00  0.00     0.031 A 
ATOM     35  C   UNL A   1      40.117  27.161  28.800  1.00  0.00     0.074 A 
ATOM     36  C   UNL A   1      40.692  29.567  29.177  1.00  0.00     0.049 A 
ATOM     37  N   UNL A   1      41.203  26.579  29.141  1.00  0.00    -0.248 NA
ATOM     38  C   UNL A   1      39.194  26.288  28.080  1.00  0.00     0.031 C 
ATOM     39  C   UNL A   1      42.103  29.625  28.843  1.00  0.00     0.029 A 
ATOM     40  N   UNL A   1      40.409  30.867  29.640  1.00  0.00    -0.354 N 
ATOM     41  C   UNL A   1      41.294  25.431  28.384  1.00  0.00     0.074 A 
ATOM     42  C   UNL A   1      39.957  25.207  27.894  1.00  0.00     0.031 C 
ATOM     43  C   UNL A   1      42.631  30.725  29.417  1.00  0.00     0.029 A 
ATOM     44  C   UNL A   1      41.590  31.322  30.244  1.00  0.00     0.049 A 
ATOM     45  H   UNL A   1      39.558  31.354  29.556  1.00  0.00     0.167 HD
ATOM     46  C   UNL A   1      42.544  24.951  28.122  1.00  0.00     0.037 A 
ATOM     47  C   UNL A   1      41.601  31.413  31.608  1.00  0.00     0.037 A 
ATOM     48  C   UNL A   1      43.538  25.826  28.763  1.00  0.00     0.049 A 
ATOM     49  C   UNL A   1      42.527  30.381  32.201  1.00  0.00     0.074 A 
ATOM     50  C   UNL A   1      44.325  26.857  28.275  1.00  0.00     0.029 A 
ATOM     51  N   UNL A   1      43.522  25.969  30.147  1.00  0.00    -0.354 N 
ATOM     52  N   UNL A   1      42.805  29.232  31.643  1.00  0.00    -0.248 NA
ATOM     53  C   UNL A   1      43.295  30.624  33.413  1.00  0.00     0.031 C 
ATOM     54  C   UNL A   1      44.742  27.650  29.381  1.00  0.00     0.029 A 
ATOM     55  C   UNL A   1      44.216  27.098  30.539  1.00  0.00     0.049 A 
ATOM     56  H   UNL A   1      43.074  25.348  30.766  1.00  0.00     0.167 HD
ATOM     57  C   UNL A   1      43.810  28.616  32.345  1.00  0.00     0.074 A 
ATOM     58  C   UNL A   1      44.077  29.530  33.443  1.00  0.00     0.031 C 
ATOM     59  C   UNL A   1      44.360  27.425  31.953  1.00  0.00     0.037 A 
BRANCH  46  60
ATOM     60  C   UNL A   1      42.920  23.904  27.092  1.00  0.00     0.064 A 
ATOM     61  C   UNL A   1      42.641  22.539  27.339  1.00  0.00     0.173 A 
ATOM     62  C   UNL A   1      43.558  24.147  25.860  1.00  0.00     0.173 A 
ATOM     63  F   UNL A   1      41.977  22.147  28.434  1.00  0.00    -0.203 F 
ATOM     64  C   UNL A   1      43.022  21.515  26.466  1.00  0.00     0.198 A 
ATOM     65  C   UNL A   1      43.962  23.121  24.996  1.00  0.00     0.198 A 
ATOM     66  F   UNL A   1      43.778  25.381  25.404  1.00  0.00    -0.203 F 
ATOM     67  F   UNL A   1      42.730  20.242  26.767  1.00  0.00    -0.200 F 
ATOM     68  C   UNL A   1      43.696  21.805  25.300  1.00  0.00     0.200 A 
ATOM     69  F   UNL A   1      44.599  23.427  23.857  1.00  0.00    -0.200 F 
ATOM     70  F   UNL A   1      44.067  20.826  24.464  1.00  0.00    -0.200 F 
ENDBRANCH  46  60
BRANCH  47  71
ATOM     71  C   UNL A   1      40.262  31.849  32.134  1.00  0.00     0.064 A 
ATOM     72  C   UNL A   1      39.503  30.864  32.809  1.00  0.00     0.173 A 
ATOM     73  C   UNL A   1      39.985  33.188  32.444  1.00  0.00     0.173 A 
ATOM     74  F   UNL A   1      39.708  29.565  32.540  1.00  0.00    -0.203 F 
ATOM     75  C   UNL A   1      38.671  31.192  33.879  1.00  0.00     0.198 A 
ATOM     76  C   UNL A   1      39.114  33.514  33.493  1.00  0.00     0.198 A 
ATOM     77  F   UNL A   1      40.647  34.179  31.830  1.00  0.00    -0.203 F 
ATOM     78  F   UNL A   1      38.114  30.218  34.615  1.00  0.00    -0.200 F 
ATOM     79  C   UNL A   1      38.506  32.516  34.243  1.00  0.00     0.200 A 
ATOM     80  F   UNL A   1      38.934  34.797  33.838  1.00  0.00    -0.200 F 
ATOM     81  F   UNL A   1      37.796  32.824  35.338  1.00  0.00    -0.200 F 
ENDBRANCH  47  71
BRANCH  59  82
ATOM     82  C   UNL A   1      45.162  26.472  32.825  1.00  0.00     0.064 A 
ATOM     83  C   UNL A   1      44.601  25.599  33.772  1.00  0.00     0.173 A 
ATOM     84  C   UNL A   1      46.554  26.286  32.605  1.00  0.00     0.173 A 
ATOM     85  F   UNL A   1      43.284  25.549  33.998  1.00  0.00    -0.203 F 
ATOM     86  C   UNL A   1      45.371  24.677  34.485  1.00  0.00     0.198 A 
ATOM     87  C   UNL A   1      47.299  25.302  33.249  1.00  0.00     0.198 A 
ATOM     88  F   UNL A   1      47.247  27.029  31.730  1.00  0.00    -0.203 F 
ATOM     89  F   UNL A   1      44.787  23.918  35.423  1.00  0.00    -0.200 F 
ATOM     90  C   UNL A   1      46.713  24.512  34.210  1.00  0.00     0.200 A 
ATOM     91  F   UNL A   1      48.583  25.112  32.911  1.00  0.00    -0.200 F 
ATOM     92  F   UNL A   1      47.430  23.581  34.850  1.00  0.00    -0.200 F 
ENDBRANCH  59  82
ENDBRANCH  33  34
ENDBRANCH  25  28
ENDBRANCH  23  24
ENDBRANCH  22  23
ENDBRANCH   1  22
TORSDOF 13
ENDMDL
MODEL 2
REMARK VINA RESULT:     -12.7      3.341      9.217
REMARK SMILES Cc1cc(NCc2ccc(C(=O)NCCCNC(=O)c3ccc(-c4c5nc(c(-c6c(F)c(F)c(F)c(F)c6F)c6ccc([nH]6)c(-c6c(F)c(F)c(F)c(F)c6F)c6nc(c(-c7c(F)c(F)c(F)c(F)c7F)c7ccc4[nH]7)C=C6)C=C5)cc3)o2)ccc1F
REMARK SMILES IDX 14 1 13 2 11 3 12 4 10 6 7 7 8 8 83 9 9 10 6 11 5 12 4 14
REMARK SMILES IDX 1 15 2 16 3 17 86 18 85 19 87 20 84 21 15 22 16 23 17 24
REMARK SMILES IDX 18 25 19 27 20 28 21 29 82 30 22 31 81 32 23 33 24 34 25 35
REMARK SMILES IDX 75 36 26 37 80 38 74 39 76 40 27 41 79 42 73 43 72 44 28 46
REMARK SMILES IDX 60 47 40 48 59 49 41 50 44 51 58 52 77 53 42 54 43 55 57 57
REMARK SMILES IDX 78 58 45 59 29 60 30 61 38 62 31 63 32 64 36 65 39 66 33 67
REMARK SMILES IDX 34 68 37 69 35 70 61 71 62 72 70 73 63 74 64 75 68 76 71 77
REMARK SMILES IDX 65 78 66 79 69 80 67 81 46 82 47 83 55 84 48 85 49 86 53 87
REMARK SMILES IDX 56 88 50 89 51 90 54 91 52 92
REMARK H PARENT 13 5 5 13 17 26 76 45 44 56
REMARK Flexibility Score: inf
ROOT
ATOM      1  C   UNL A   1      35.447  22.911  24.066  1.00  0.00     0.118 C 
ENDROOT
BRANCH   1   2
ATOM      2  N   UNL A   1      35.253  21.483  24.166  1.00  0.00    -0.349 N 
ATOM      3  C   UNL A   1      34.494  20.789  25.078  1.00  0.00     0.286 C 
ATOM      4  O   UNL A   1      34.419  19.570  24.915  1.00  0.00    -0.266 OA
ATOM      5  H   UNL A   1      35.725  20.937  23.496  1.00  0.00     0.163 HD
BRANCH   3   6
ATOM      6  C   UNL A   1      33.808  21.505  26.138  1.00  0.00     0.191 A 
ATOM      7  C   UNL A   1      32.136  22.721  26.907  1.00  0.00     0.124 A 
ATOM      8  C   UNL A   1      33.011  22.588  27.955  1.00  0.00     0.048 A 
ATOM      9  O   UNL A   1      32.606  22.070  25.810  1.00  0.00    -0.454 OA
ATOM     10  C   UNL A   1      34.066  21.786  27.471  1.00  0.00     0.056 A 
BRANCH   7  11
ATOM     11  C   UNL A   1      30.822  23.381  26.746  1.00  0.00     0.188 C 
BRANCH  11  12
ATOM     12  N   UNL A   1      30.926  24.823  26.659  1.00  0.00    -0.378 N 
ATOM     13  H   UNL A   1      30.281  25.351  27.182  1.00  0.00     0.161 HD
BRANCH  12  14
ATOM     14  C   UNL A   1      31.847  25.525  25.909  1.00  0.00     0.035 A 
ATOM     15  C   UNL A   1      34.159  28.505  26.540  1.00  0.00     0.047 C 
ATOM     16  C   UNL A   1      33.432  27.397  25.845  1.00  0.00    -0.013 A 
ATOM     17  C   UNL A   1      32.569  26.547  26.549  1.00  0.00     0.032 A 
ATOM     18  C   UNL A   1      33.569  27.212  24.472  1.00  0.00     0.126 A 
ATOM     19  C   UNL A   1      32.881  26.204  23.813  1.00  0.00     0.041 A 
ATOM     20  F   UNL A   1      34.367  28.025  23.764  1.00  0.00    -0.207 F 
ATOM     21  C   UNL A   1      32.020  25.368  24.530  1.00  0.00     0.029 A 
ENDBRANCH  12  14
ENDBRANCH  11  12
ENDBRANCH   7  11
ENDBRANCH   3   6
ENDBRANCH   1   2
BRANCH   1  22
ATOM     22  C   UNL A   1      36.901  23.285  24.363  1.00  0.00     0.042 C 
BRANCH  22  23
ATOM     23  C   UNL A   1      37.109  23.333  25.850  1.00  0.00     0.118 C 
BRANCH  23  24
ATOM     24  N   UNL A   1      38.273  22.528  26.225  1.00  0.00    -0.352 N 
ATOM     25  C   UNL A   1      39.545  22.952  26.536  1.00  0.00     0.251 C 
ATOM     26  H   UNL A   1      38.126  21.556  26.259  1.00  0.00     0.163 HD
ATOM     27  O   UNL A   1      40.490  22.190  26.473  1.00  0.00    -0.269 OA
BRANCH  25  28
ATOM     28  C   UNL A   1      39.715  24.338  26.993  1.00  0.00     0.039 A 
ATOM     29  C   UNL A   1      40.354  25.302  26.204  1.00  0.00     0.014 A 
ATOM     30  C   UNL A   1      39.293  24.637  28.282  1.00  0.00     0.014 A 
ATOM     31  C   UNL A   1      40.586  26.561  26.745  1.00  0.00     0.010 A 
ATOM     32  C   UNL A   1      39.289  25.915  28.712  1.00  0.00     0.010 A 
ATOM     33  C   UNL A   1      40.064  26.827  28.008  1.00  0.00    -0.014 A 
BRANCH  33  34
ATOM     34  C   UNL A   1      40.309  28.002  28.807  1.00  0.00     0.031 A 
ATOM     35  C   UNL A   1      39.342  29.087  28.749  1.00  0.00     0.074 A 
ATOM     36  C   UNL A   1      41.240  27.817  29.771  1.00  0.00     0.049 A 
ATOM     37  N   UNL A   1      39.584  30.278  29.148  1.00  0.00    -0.248 NA
ATOM     38  C   UNL A   1      38.001  28.923  28.197  1.00  0.00     0.031 C 
ATOM     39  C   UNL A   1      41.469  28.515  31.022  1.00  0.00     0.029 A 
ATOM     40  N   UNL A   1      42.272  26.859  29.734  1.00  0.00    -0.354 N 
ATOM     41  C   UNL A   1      38.367  30.912  29.267  1.00  0.00     0.074 A 
ATOM     42  C   UNL A   1      37.453  30.105  28.497  1.00  0.00     0.031 C 
ATOM     43  C   UNL A   1      42.716  28.228  31.447  1.00  0.00     0.029 A 
ATOM     44  C   UNL A   1      43.359  27.443  30.402  1.00  0.00     0.049 A 
ATOM     45  H   UNL A   1      42.237  25.964  29.326  1.00  0.00     0.167 HD
ATOM     46  C   UNL A   1      38.275  31.927  30.175  1.00  0.00     0.037 A 
ATOM     47  C   UNL A   1      44.423  27.839  29.640  1.00  0.00     0.037 A 
ATOM     48  C   UNL A   1      39.582  32.107  30.826  1.00  0.00     0.049 A 
ATOM     49  C   UNL A   1      44.531  29.342  29.620  1.00  0.00     0.074 A 
ATOM     50  C   UNL A   1      40.085  31.672  32.043  1.00  0.00     0.029 A 
ATOM     51  N   UNL A   1      40.683  32.455  30.050  1.00  0.00    -0.354 N 
ATOM     52  N   UNL A   1      43.518  30.157  29.759  1.00  0.00    -0.248 NA
ATOM     53  C   UNL A   1      45.810  30.034  29.554  1.00  0.00     0.031 C 
ATOM     54  C   UNL A   1      41.505  31.718  31.970  1.00  0.00     0.029 A 
ATOM     55  C   UNL A   1      41.865  32.186  30.715  1.00  0.00     0.049 A 
ATOM     56  H   UNL A   1      40.629  32.840  29.146  1.00  0.00     0.167 HD
ATOM     57  C   UNL A   1      43.980  31.443  29.874  1.00  0.00     0.074 A 
ATOM     58  C   UNL A   1      45.420  31.308  29.737  1.00  0.00     0.031 C 
ATOM     59  C   UNL A   1      43.149  32.507  30.102  1.00  0.00     0.037 A 
BRANCH  46  60
ATOM     60  C   UNL A   1      37.006  32.569  30.699  1.00  0.00     0.064 A 
ATOM     61  C   UNL A   1      36.287  33.477  29.885  1.00  0.00     0.173 A 
ATOM     62  C   UNL A   1      36.437  32.362  31.971  1.00  0.00     0.173 A 
ATOM     63  F   UNL A   1      36.656  33.731  28.623  1.00  0.00    -0.203 F 
ATOM     64  C   UNL A   1      35.149  34.158  30.329  1.00  0.00     0.198 A 
ATOM     65  C   UNL A   1      35.312  33.061  32.425  1.00  0.00     0.198 A 
ATOM     66  F   UNL A   1      36.905  31.444  32.818  1.00  0.00    -0.203 F 
ATOM     67  F   UNL A   1      34.521  35.009  29.506  1.00  0.00    -0.200 F 
ATOM     68  C   UNL A   1      34.669  33.961  31.605  1.00  0.00     0.200 A 
ATOM     69  F   UNL A   1      34.851  32.840  33.664  1.00  0.00    -0.200 F 
ATOM     70  F   UNL A   1      33.582  34.616  32.035  1.00  0.00    -0.200 F 
ENDBRANCH  46  60
BRANCH  47  71
ATOM     71  C   UNL A   1      44.655  26.890  28.497  1.00  0.00     0.064 A 
ATOM     72  C   UNL A   1      44.338  27.375  27.206  1.00  0.00     0.173 A 
ATOM     73  C   UNL A   1      45.591  25.849  28.573  1.00  0.00     0.173 A 
ATOM     74  F   UNL A   1      43.434  28.358  27.067  1.00  0.00    -0.203 F 
ATOM     75  C   UNL A   1      45.069  26.988  26.084  1.00  0.00     0.198 A 
ATOM     76  C   UNL A   1      46.292  25.433  27.433  1.00  0.00     0.198 A 
ATOM     77  F   UNL A   1      45.926  25.321  29.759  1.00  0.00    -0.203 F 
ATOM     78  F   UNL A   1      44.867  27.606  24.909  1.00  0.00    -0.200 F 
ATOM     79  C   UNL A   1      46.070  26.043  26.205  1.00  0.00     0.200 A 
ATOM     80  F   UNL A   1      47.251  24.502  27.541  1.00  0.00    -0.200 F 
ATOM     81  F   UNL A   1      46.846  25.752  25.151  1.00  0.00    -0.200 F 
ENDBRANCH  47  71
BRANCH  59  82
ATOM     82  C   UNL A   1      43.471  33.973  29.853  1.00  0.00     0.064 A 
ATOM     83  C   UNL A   1      43.594  34.554  28.581  1.00  0.00     0.173 A 
ATOM     84  C   UNL A   1      43.503  34.900  30.930  1.00  0.00     0.173 A 
ATOM     85  F   UNL A   1      43.449  33.841  27.458  1.00  0.00    -0.203 F 
ATOM     86  C   UNL A   1      43.801  35.924  28.402  1.00  0.00     0.198 A 
ATOM     87  C   UNL A   1      43.614  36.276  30.742  1.00  0.00     0.198 A 
ATOM     88  F   UNL A   1      43.391  34.517  32.210  1.00  0.00    -0.203 F 
ATOM     89  F   UNL A   1      43.977  36.407  27.165  1.00  0.00    -0.200 F 
ATOM     90  C   UNL A   1      43.789  36.787  29.479  1.00  0.00     0.200 A 
ATOM     91  F   UNL A   1      43.525  37.099  31.798  1.00  0.00    -0.200 F 
ATOM     92  F   UNL A   1      43.922  38.106  29.295  1.00  0.00    -0.200 F 
ENDBRANCH  59  82
ENDBRANCH  33  34
ENDBRANCH  25  28
ENDBRANCH  23  24
ENDBRANCH  22  23
ENDBRANCH   1  22
TORSDOF 13
ENDMDL
MODEL 3
REMARK VINA RESULT:     -12.7      1.233      1.760
REMARK SMILES Cc1cc(NCc2ccc(C(=O)NCCCNC(=O)c3ccc(-c4c5nc(c(-c6c(F)c(F)c(F)c(F)c6F)c6ccc([nH]6)c(-c6c(F)c(F)c(F)c(F)c6F)c6nc(c(-c7c(F)c(F)c(F)c(F)c7F)c7ccc4[nH]7)C=C6)C=C5)cc3)o2)ccc1F
REMARK SMILES IDX 14 1 13 2 11 3 12 4 10 6 7 7 8 8 83 9 9 10 6 11 5 12 4 14
REMARK SMILES IDX 1 15 2 16 3 17 86 18 85 19 87 20 84 21 15 22 16 23 17 24
REMARK SMILES IDX 18 25 19 27 20 28 21 29 82 30 22 31 81 32 23 33 24 34 25 35
REMARK SMILES IDX 75 36 26 37 80 38 74 39 76 40 27 41 79 42 73 43 72 44 28 46
REMARK SMILES IDX 60 47 40 48 59 49 41 50 44 51 58 52 77 53 42 54 43 55 57 57
REMARK SMILES IDX 78 58 45 59 29 60 30 61 38 62 31 63 32 64 36 65 39 66 33 67
REMARK SMILES IDX 34 68 37 69 35 70 61 71 62 72 70 73 63 74 64 75 68 76 71 77
REMARK SMILES IDX 65 78 66 79 69 80 67 81 46 82 47 83 55 84 48 85 49 86 53 87
REMARK SMILES IDX 56 88 50 89 51 90 54 91 52 92
REMARK H PARENT 13 5 5 13 17 26 76 45 44 56
REMARK Flexibility Score: inf
ROOT
ATOM      1  C   UNL A   1      31.785  28.408  26.662  1.00  0.00     0.118 C 
ENDROOT
BRANCH   1   2
ATOM      2  N   UNL A   1      31.043  27.196  26.924  1.00  0.00    -0.349 N 
ATOM      3  C   UNL A   1      30.582  26.269  26.019  1.00  0.00     0.286 C 
ATOM      4  O   UNL A   1      30.038  25.268  26.490  1.00  0.00    -0.266 OA
ATOM      5  H   UNL A   1      30.842  27.011  27.870  1.00  0.00     0.163 HD
BRANCH   3   6
ATOM      6  C   UNL A   1      30.781  26.487  24.598  1.00  0.00     0.191 A 
ATOM      7  C   UNL A   1      31.877  26.171  22.711  1.00  0.00     0.124 A 
ATOM      8  C   UNL A   1      30.876  27.061  22.414  1.00  0.00     0.048 A 
ATOM      9  O   UNL A   1      31.826  25.819  24.023  1.00  0.00    -0.454 OA
ATOM     10  C   UNL A   1      30.158  27.239  23.615  1.00  0.00     0.056 A 
BRANCH   7  11
ATOM     11  C   UNL A   1      32.942  25.524  21.914  1.00  0.00     0.188 C 
BRANCH  11  12
ATOM     12  N   UNL A   1      32.802  24.083  21.856  1.00  0.00    -0.378 N 
ATOM     13  H   UNL A   1      32.198  23.720  21.169  1.00  0.00     0.161 HD
BRANCH  12  14
ATOM     14  C   UNL A   1      33.437  23.174  22.676  1.00  0.00     0.035 A 
ATOM     15  C   UNL A   1      32.343  20.143  24.735  1.00  0.00     0.047 C 
ATOM     16  C   UNL A   1      33.192  21.227  24.150  1.00  0.00    -0.013 A 
ATOM     17  C   UNL A   1      32.669  22.125  23.209  1.00  0.00     0.032 A 
ATOM     18  C   UNL A   1      34.513  21.390  24.558  1.00  0.00     0.126 A 
ATOM     19  C   UNL A   1      35.302  22.407  24.041  1.00  0.00     0.041 A 
ATOM     20  F   UNL A   1      35.035  20.565  25.476  1.00  0.00    -0.207 F 
ATOM     21  C   UNL A   1      34.762  23.298  23.107  1.00  0.00     0.029 A 
ENDBRANCH  12  14
ENDBRANCH  11  12
ENDBRANCH   7  11
ENDBRANCH   3   6
ENDBRANCH   1   2
BRANCH   1  22
ATOM     22  C   UNL A   1      33.203  28.311  27.230  1.00  0.00     0.042 C 
BRANCH  22  23
ATOM     23  C   UNL A   1      34.127  29.169  26.414  1.00  0.00     0.118 C 
BRANCH  23  24
ATOM     24  N   UNL A   1      34.193  30.518  26.976  1.00  0.00    -0.352 N 
ATOM     25  C   UNL A   1      34.963  30.975  28.023  1.00  0.00     0.251 C 
ATOM     26  H   UNL A   1      33.613  31.188  26.550  1.00  0.00     0.163 HD
ATOM     27  O   UNL A   1      34.668  31.994  28.617  1.00  0.00    -0.269 OA
BRANCH  25  28
ATOM     28  C   UNL A   1      36.175  30.220  28.365  1.00  0.00     0.039 A 
ATOM     29  C   UNL A   1      36.332  29.600  29.611  1.00  0.00     0.014 A 
ATOM     30  C   UNL A   1      37.205  30.217  27.433  1.00  0.00     0.014 A 
ATOM     31  C   UNL A   1      37.551  29.003  29.911  1.00  0.00     0.010 A 
ATOM     32  C   UNL A   1      38.284  29.429  27.620  1.00  0.00     0.010 A 
ATOM     33  C   UNL A   1      38.513  28.956  28.906  1.00  0.00    -0.014 A 
BRANCH  33  34
ATOM     34  C   UNL A   1      39.879  28.521  29.047  1.00  0.00     0.031 A 
ATOM     35  C   UNL A   1      40.199  27.140  28.719  1.00  0.00     0.074 A 
ATOM     36  C   UNL A   1      40.765  29.540  29.149  1.00  0.00     0.049 A 
ATOM     37  N   UNL A   1      41.273  26.552  29.086  1.00  0.00    -0.248 NA
ATOM     38  C   UNL A   1      39.299  26.280  27.958  1.00  0.00     0.031 C 
ATOM     39  C   UNL A   1      42.186  29.601  28.861  1.00  0.00     0.029 A 
ATOM     40  N   UNL A   1      40.468  30.833  29.621  1.00  0.00    -0.354 N 
ATOM     41  C   UNL A   1      41.387  25.415  28.317  1.00  0.00     0.074 A 
ATOM     42  C   UNL A   1      40.066  25.200  27.781  1.00  0.00     0.031 C 
ATOM     43  C   UNL A   1      42.696  30.691  29.468  1.00  0.00     0.029 A 
ATOM     44  C   UNL A   1      41.630  31.278  30.269  1.00  0.00     0.049 A 
ATOM     45  H   UNL A   1      39.621  31.324  29.517  1.00  0.00     0.167 HD
ATOM     46  C   UNL A   1      42.645  24.937  28.087  1.00  0.00     0.037 A 
ATOM     47  C   UNL A   1      41.598  31.349  31.634  1.00  0.00     0.037 A 
ATOM     48  C   UNL A   1      43.619  25.800  28.773  1.00  0.00     0.049 A 
ATOM     49  C   UNL A   1      42.503  30.308  32.241  1.00  0.00     0.074 A 
ATOM     50  C   UNL A   1      44.422  26.837  28.324  1.00  0.00     0.029 A 
ATOM     51  N   UNL A   1      43.558  25.924  30.157  1.00  0.00    -0.354 N 
ATOM     52  N   UNL A   1      42.797  29.166  31.676  1.00  0.00    -0.248 NA
ATOM     53  C   UNL A   1      43.233  30.532  33.481  1.00  0.00     0.031 C 
ATOM     54  C   UNL A   1      44.804  27.614  29.455  1.00  0.00     0.029 A 
ATOM     55  C   UNL A   1      44.241  27.046  30.587  1.00  0.00     0.049 A 
ATOM     56  H   UNL A   1      43.090  25.295  30.753  1.00  0.00     0.167 HD
ATOM     57  C   UNL A   1      43.779  28.539  32.401  1.00  0.00     0.074 A 
ATOM     58  C   UNL A   1      44.011  29.437  33.520  1.00  0.00     0.031 C 
ATOM     59  C   UNL A   1      44.340  27.353  32.009  1.00  0.00     0.037 A 
BRANCH  46  60
ATOM     60  C   UNL A   1      43.052  23.904  27.055  1.00  0.00     0.064 A 
ATOM     61  C   UNL A   1      42.743  22.539  27.263  1.00  0.00     0.173 A 
ATOM     62  C   UNL A   1      43.747  24.161  25.858  1.00  0.00     0.173 A 
ATOM     63  F   UNL A   1      42.026  22.135  28.320  1.00  0.00    -0.203 F 
ATOM     64  C   UNL A   1      43.150  21.526  26.388  1.00  0.00     0.198 A 
ATOM     65  C   UNL A   1      44.176  23.145  24.993  1.00  0.00     0.198 A 
ATOM     66  F   UNL A   1      44.005  25.400  25.436  1.00  0.00    -0.203 F 
ATOM     67  F   UNL A   1      42.827  20.252  26.651  1.00  0.00    -0.200 F 
ATOM     68  C   UNL A   1      43.879  21.828  25.259  1.00  0.00     0.200 A 
ATOM     69  F   UNL A   1      44.868  23.464  23.890  1.00  0.00    -0.200 F 
ATOM     70  F   UNL A   1      44.274  20.860  24.422  1.00  0.00    -0.200 F 
ENDBRANCH  46  60
BRANCH  47  71
ATOM     71  C   UNL A   1      40.243  31.780  32.123  1.00  0.00     0.064 A 
ATOM     72  C   UNL A   1      39.467  30.790  32.771  1.00  0.00     0.173 A 
ATOM     73  C   UNL A   1      39.954  33.117  32.432  1.00  0.00     0.173 A 
ATOM     74  F   UNL A   1      39.683  29.492  32.501  1.00  0.00    -0.203 F 
ATOM     75  C   UNL A   1      38.603  31.111  33.817  1.00  0.00     0.198 A 
ATOM     76  C   UNL A   1      39.053  33.436  33.457  1.00  0.00     0.198 A 
ATOM     77  F   UNL A   1      40.631  34.112  31.842  1.00  0.00    -0.203 F 
ATOM     78  F   UNL A   1      38.027  30.132  34.532  1.00  0.00    -0.200 F 
ATOM     79  C   UNL A   1      38.425  32.432  34.183  1.00  0.00     0.200 A 
ATOM     80  F   UNL A   1      38.859  34.717  33.803  1.00  0.00    -0.200 F 
ATOM     81  F   UNL A   1      37.683  32.733  35.259  1.00  0.00    -0.200 F 
ENDBRANCH  47  71
BRANCH  59  82
ATOM     82  C   UNL A   1      45.112  26.386  32.893  1.00  0.00     0.064 A 
ATOM     83  C   UNL A   1      44.521  25.505  33.814  1.00  0.00     0.173 A 
ATOM     84  C   UNL A   1      46.510  26.196  32.711  1.00  0.00     0.173 A 
ATOM     85  F   UNL A   1      43.198  25.459  34.002  1.00  0.00    -0.203 F 
ATOM     86  C   UNL A   1      45.266  24.571  34.538  1.00  0.00     0.198 A 
ATOM     87  C   UNL A   1      47.231  25.201  33.364  1.00  0.00     0.198 A 
ATOM     88  F   UNL A   1      47.230  26.945  31.864  1.00  0.00    -0.203 F 
ATOM     89  F   UNL A   1      44.652  23.805  35.450  1.00  0.00    -0.200 F 
ATOM     90  C   UNL A   1      46.615  24.403  34.298  1.00  0.00     0.200 A 
ATOM     91  F   UNL A   1      48.523  25.009  33.060  1.00  0.00    -0.200 F 
ATOM     92  F   UNL A   1      47.309  23.461  34.948  1.00  0.00    -0.200 F 
ENDBRANCH  59  82
ENDBRANCH  33  34
ENDBRANCH  25  28
ENDBRANCH  23  24
ENDBRANCH  22  23
ENDBRANCH   1  22
TORSDOF 13
ENDMDL
