MODEL 1
REMARK VINA RESULT:     -12.2      0.000      0.000
REMARK SMILES Cc1cccc(C[N@@H+](C)C[C@]2(C(=O)NCCCNC(=O)c3ccc(-c4c5nc(c(-c6c(F)c(F)c(F)c(F)c6F)c6ccc([nH]6)c(-c6c(F)c(F)c(F)c(F)c6F)c6nc(c(-c7c(F)c(F)c(F)c(F)c7F)c7ccc4[nH]7)C=C6)C=C5)cc3)CCC[C@H](C)C2)n1
REMARK SMILES IDX 15 1 14 2 12 3 13 4 11 6 84 7 89 8 85 9 87 10 86 11 88 12
REMARK SMILES IDX 10 13 8 14 9 15 7 17 6 18 1 19 2 20 3 21 90 22 4 23 5 24
REMARK SMILES IDX 16 25 17 26 18 27 19 28 20 30 21 31 22 32 83 33 23 34 82 35
REMARK SMILES IDX 24 36 25 37 26 38 76 39 27 40 81 41 75 42 77 43 28 44 80 45
REMARK SMILES IDX 74 46 73 47 29 49 61 50 41 51 60 52 42 53 45 54 59 55 78 56
REMARK SMILES IDX 43 57 44 58 58 60 79 61 46 62 30 63 31 64 39 65 32 66 33 67
REMARK SMILES IDX 37 68 40 69 34 70 35 71 38 72 36 73 62 74 63 75 71 76 64 77
REMARK SMILES IDX 65 78 69 79 72 80 66 81 67 82 70 83 68 84 47 85 48 86 56 87
REMARK SMILES IDX 49 88 50 89 54 90 57 91 51 92 52 93 55 94 53 95
REMARK H PARENT 14 5 8 16 18 29 77 48 45 59
REMARK Flexibility Score: inf
ROOT
ATOM      1  C   UNL A   1      34.572  25.074  24.781  1.00  0.00     0.117 C 
ENDROOT
BRANCH   1   2
ATOM      2  N   UNL A   1      33.576  24.982  25.825  1.00  0.00    -0.355 N 
ATOM      3  C   UNL A   1      32.457  25.729  26.032  1.00  0.00     0.231 C 
ATOM      4  O   UNL A   1      31.638  25.239  26.819  1.00  0.00    -0.274 OA
ATOM      5  H   UNL A   1      33.731  24.271  26.487  1.00  0.00     0.163 HD
BRANCH   3   6
ATOM      6  C   UNL A   1      32.223  27.119  25.371  1.00  0.00     0.098 C 
ATOM      7  C   UNL A   1      31.082  27.840  26.175  1.00  0.00     0.023 C 
ATOM      8  C   UNL A   1      33.464  28.045  25.455  1.00  0.00     0.026 C 
ATOM      9  C   UNL A   1      31.467  28.256  27.599  1.00  0.00     0.002 C 
ATOM     10  C   UNL A   1      33.883  28.385  26.898  1.00  0.00    -0.013 C 
ATOM     11  C   UNL A   1      32.741  29.087  27.632  1.00  0.00     0.003 C 
ATOM     12  C   UNL A   1      35.139  29.257  26.902  1.00  0.00     0.007 C 
BRANCH   6  13
ATOM     13  C   UNL A   1      31.649  26.933  23.909  1.00  0.00     0.279 C 
BRANCH  13  14
ATOM     14  N   UNL A   1      30.279  27.393  23.652  1.00  0.00    -0.331 N 
ATOM     15  C   UNL A   1      29.263  26.357  23.838  1.00  0.00     0.333 C 
ATOM     16  H   UNL A   1      30.185  28.096  24.385  1.00  0.00     0.348 HD
BRANCH  14  17
ATOM     17  C   UNL A   1      30.032  28.114  22.386  1.00  0.00     0.319 C 
BRANCH  17  18
ATOM     18  C   UNL A   1      29.515  29.543  22.478  1.00  0.00     0.095 A 
ATOM     19  C   UNL A   1      27.919  32.018  20.258  1.00  0.00     0.067 C 
ATOM     20  C   UNL A   1      28.515  31.396  21.486  1.00  0.00     0.038 A 
ATOM     21  C   UNL A   1      28.533  32.098  22.687  1.00  0.00     0.023 A 
ATOM     22  N   UNL A   1      29.011  30.138  21.364  1.00  0.00    -0.252 NA
ATOM     23  C   UNL A   1      29.076  31.489  23.811  1.00  0.00     0.004 A 
ATOM     24  C   UNL A   1      29.571  30.196  23.709  1.00  0.00     0.030 A 
ENDBRANCH  17  18
ENDBRANCH  14  17
ENDBRANCH  13  14
ENDBRANCH   6  13
ENDBRANCH   3   6
ENDBRANCH   1   2
BRANCH   1  25
ATOM     25  C   UNL A   1      35.572  23.944  24.791  1.00  0.00     0.042 C 
BRANCH  25  26
ATOM     26  C   UNL A   1      36.434  23.942  26.033  1.00  0.00     0.118 C 
BRANCH  26  27
ATOM     27  N   UNL A   1      37.438  22.882  26.021  1.00  0.00    -0.352 N 
ATOM     28  C   UNL A   1      38.785  22.917  26.299  1.00  0.00     0.251 C 
ATOM     29  H   UNL A   1      37.094  21.994  25.773  1.00  0.00     0.163 HD
ATOM     30  O   UNL A   1      39.494  21.954  26.044  1.00  0.00    -0.269 OA
BRANCH  28  31
ATOM     31  C   UNL A   1      39.382  24.136  26.882  1.00  0.00     0.039 A 
ATOM     32  C   UNL A   1      40.071  25.027  26.053  1.00  0.00     0.014 A 
ATOM     33  C   UNL A   1      39.256  24.409  28.242  1.00  0.00     0.014 A 
ATOM     34  C   UNL A   1      40.553  26.226  26.581  1.00  0.00     0.010 A 
ATOM     35  C   UNL A   1      39.600  25.659  28.731  1.00  0.00     0.010 A 
ATOM     36  C   UNL A   1      40.278  26.573  27.914  1.00  0.00    -0.014 A 
BRANCH  36  37
ATOM     37  C   UNL A   1      40.725  27.860  28.499  1.00  0.00     0.031 A 
ATOM     38  C   UNL A   1      42.178  28.054  28.844  1.00  0.00     0.074 A 
ATOM     39  C   UNL A   1      39.823  28.816  28.793  1.00  0.00     0.049 A 
ATOM     40  N   UNL A   1      42.761  29.054  29.454  1.00  0.00    -0.248 NA
ATOM     41  C   UNL A   1      43.095  26.955  28.494  1.00  0.00     0.031 C 
ATOM     42  C   UNL A   1      38.380  28.720  28.562  1.00  0.00     0.029 A 
ATOM     43  N   UNL A   1      39.985  30.054  29.362  1.00  0.00    -0.354 N 
ATOM     44  C   UNL A   1      44.096  28.693  29.579  1.00  0.00     0.074 A 
ATOM     45  C   UNL A   1      44.227  27.353  29.054  1.00  0.00     0.031 C 
ATOM     46  C   UNL A   1      37.796  29.864  28.952  1.00  0.00     0.029 A 
ATOM     47  C   UNL A   1      38.812  30.753  29.503  1.00  0.00     0.049 A 
ATOM     48  H   UNL A   1      40.861  30.407  29.641  1.00  0.00     0.167 HD
ATOM     49  C   UNL A   1      45.129  29.424  30.057  1.00  0.00     0.037 A 
ATOM     50  C   UNL A   1      38.585  31.973  30.026  1.00  0.00     0.037 A 
ATOM     51  C   UNL A   1      44.998  30.771  30.544  1.00  0.00     0.049 A 
ATOM     52  C   UNL A   1      39.751  32.768  30.551  1.00  0.00     0.074 A 
ATOM     53  C   UNL A   1      45.988  31.628  30.988  1.00  0.00     0.029 A 
ATOM     54  N   UNL A   1      43.796  31.458  30.646  1.00  0.00    -0.354 N 
ATOM     55  N   UNL A   1      41.022  32.446  30.596  1.00  0.00    -0.248 NA
ATOM     56  C   UNL A   1      39.452  34.101  31.091  1.00  0.00     0.031 C 
ATOM     57  C   UNL A   1      45.380  32.813  31.410  1.00  0.00     0.029 A 
ATOM     58  C   UNL A   1      44.018  32.720  31.170  1.00  0.00     0.049 A 
ATOM     59  H   UNL A   1      42.916  31.100  30.385  1.00  0.00     0.167 HD
ATOM     60  C   UNL A   1      41.676  33.545  31.137  1.00  0.00     0.074 A 
ATOM     61  C   UNL A   1      40.663  34.549  31.389  1.00  0.00     0.031 C 
ATOM     62  C   UNL A   1      42.996  33.709  31.402  1.00  0.00     0.037 A 
BRANCH  49  63
ATOM     63  C   UNL A   1      46.489  28.785  30.067  1.00  0.00     0.064 A 
ATOM     64  C   UNL A   1      47.357  28.881  28.968  1.00  0.00     0.173 A 
ATOM     65  C   UNL A   1      46.939  28.089  31.198  1.00  0.00     0.173 A 
ATOM     66  F   UNL A   1      46.973  29.524  27.855  1.00  0.00    -0.203 F 
ATOM     67  C   UNL A   1      48.610  28.272  28.988  1.00  0.00     0.198 A 
ATOM     68  C   UNL A   1      48.207  27.513  31.229  1.00  0.00     0.198 A 
ATOM     69  F   UNL A   1      46.152  27.969  32.278  1.00  0.00    -0.203 F 
ATOM     70  F   UNL A   1      49.397  28.327  27.904  1.00  0.00    -0.200 F 
ATOM     71  C   UNL A   1      49.037  27.596  30.121  1.00  0.00     0.200 A 
ATOM     72  F   UNL A   1      48.624  26.873  32.329  1.00  0.00    -0.200 F 
ATOM     73  F   UNL A   1      50.246  27.018  30.142  1.00  0.00    -0.200 F 
ENDBRANCH  49  63
BRANCH  50  74
ATOM     74  C   UNL A   1      37.206  32.529  30.054  1.00  0.00     0.064 A 
ATOM     75  C   UNL A   1      36.746  33.362  29.024  1.00  0.00     0.173 A 
ATOM     76  C   UNL A   1      36.325  32.250  31.108  1.00  0.00     0.173 A 
ATOM     77  F   UNL A   1      37.556  33.673  28.002  1.00  0.00    -0.203 F 
ATOM     78  C   UNL A   1      35.468  33.915  29.061  1.00  0.00     0.198 A 
ATOM     79  C   UNL A   1      35.035  32.778  31.128  1.00  0.00     0.198 A 
ATOM     80  F   UNL A   1      36.711  31.453  32.115  1.00  0.00    -0.203 F 
ATOM     81  F   UNL A   1      35.073  34.750  28.090  1.00  0.00    -0.200 F 
ATOM     82  C   UNL A   1      34.612  33.618  30.111  1.00  0.00     0.200 A 
ATOM     83  F   UNL A   1      34.205  32.475  32.136  1.00  0.00    -0.200 F 
ATOM     84  F   UNL A   1      33.382  34.149  30.144  1.00  0.00    -0.200 F 
ENDBRANCH  50  74
BRANCH  62  85
ATOM     85  C   UNL A   1      43.428  35.037  31.953  1.00  0.00     0.064 A 
ATOM     86  C   UNL A   1      43.560  35.258  33.331  1.00  0.00     0.173 A 
ATOM     87  C   UNL A   1      43.759  36.088  31.083  1.00  0.00     0.173 A 
ATOM     88  F   UNL A   1      43.243  34.290  34.205  1.00  0.00    -0.203 F 
ATOM     89  C   UNL A   1      43.980  36.493  33.820  1.00  0.00     0.198 A 
ATOM     90  C   UNL A   1      44.212  37.309  31.575  1.00  0.00     0.198 A 
ATOM     91  F   UNL A   1      43.658  35.926  29.755  1.00  0.00    -0.203 F 
ATOM     92  F   UNL A   1      44.048  36.698  35.142  1.00  0.00    -0.200 F 
ATOM     93  C   UNL A   1      44.314  37.513  32.942  1.00  0.00     0.200 A 
ATOM     94  F   UNL A   1      44.550  38.287  30.723  1.00  0.00    -0.200 F 
ATOM     95  F   UNL A   1      44.727  38.697  33.414  1.00  0.00    -0.200 F 
ENDBRANCH  62  85
ENDBRANCH  36  37
ENDBRANCH  28  31
ENDBRANCH  26  27
ENDBRANCH  25  26
ENDBRANCH   1  25
TORSDOF 14
ENDMDL
MODEL 2
REMARK VINA RESULT:     -12.1      3.921      8.505
REMARK SMILES Cc1cccc(C[N@@H+](C)C[C@]2(C(=O)NCCCNC(=O)c3ccc(-c4c5nc(c(-c6c(F)c(F)c(F)c(F)c6F)c6ccc([nH]6)c(-c6c(F)c(F)c(F)c(F)c6F)c6nc(c(-c7c(F)c(F)c(F)c(F)c7F)c7ccc4[nH]7)C=C6)C=C5)cc3)CCC[C@H](C)C2)n1
REMARK SMILES IDX 15 1 14 2 12 3 13 4 11 6 84 7 89 8 85 9 87 10 86 11 88 12
REMARK SMILES IDX 10 13 8 14 9 15 7 17 6 18 1 19 2 20 3 21 90 22 4 23 5 24
REMARK SMILES IDX 16 25 17 26 18 27 19 28 20 30 21 31 22 32 83 33 23 34 82 35
REMARK SMILES IDX 24 36 25 37 26 38 76 39 27 40 81 41 75 42 77 43 28 44 80 45
REMARK SMILES IDX 74 46 73 47 29 49 61 50 41 51 60 52 42 53 45 54 59 55 78 56
REMARK SMILES IDX 43 57 44 58 58 60 79 61 46 62 30 63 31 64 39 65 32 66 33 67
REMARK SMILES IDX 37 68 40 69 34 70 35 71 38 72 36 73 62 74 63 75 71 76 64 77
REMARK SMILES IDX 65 78 69 79 72 80 66 81 67 82 70 83 68 84 47 85 48 86 56 87
REMARK SMILES IDX 49 88 50 89 54 90 57 91 51 92 52 93 55 94 53 95
REMARK H PARENT 14 5 8 16 18 29 77 48 45 59
REMARK Flexibility Score: inf
ROOT
ATOM      1  C   UNL A   1      32.254  27.117  26.531  1.00  0.00     0.117 C 
ENDROOT
BRANCH   1   2
ATOM      2  N   UNL A   1      31.336  26.124  26.019  1.00  0.00    -0.355 N 
ATOM      3  C   UNL A   1      31.579  25.019  25.263  1.00  0.00     0.231 C 
ATOM      4  O   UNL A   1      30.656  24.195  25.228  1.00  0.00    -0.274 OA
ATOM      5  H   UNL A   1      30.391  26.271  26.252  1.00  0.00     0.163 HD
BRANCH   3   6
ATOM      6  C   UNL A   1      32.895  24.803  24.461  1.00  0.00     0.098 C 
ATOM      7  C   UNL A   1      34.088  24.857  25.481  1.00  0.00     0.023 C 
ATOM      8  C   UNL A   1      32.967  23.410  23.782  1.00  0.00     0.026 C 
ATOM      9  C   UNL A   1      34.146  23.679  26.460  1.00  0.00     0.002 C 
ATOM     10  C   UNL A   1      32.944  22.237  24.781  1.00  0.00    -0.013 C 
ATOM     11  C   UNL A   1      34.125  22.336  25.746  1.00  0.00     0.003 C 
ATOM     12  C   UNL A   1      32.968  20.899  24.041  1.00  0.00     0.007 C 
BRANCH   6  13
ATOM     13  C   UNL A   1      33.133  26.017  23.475  1.00  0.00     0.279 C 
BRANCH  13  14
ATOM     14  N   UNL A   1      31.999  26.457  22.653  1.00  0.00    -0.331 N 
ATOM     15  C   UNL A   1      32.035  25.956  21.279  1.00  0.00     0.333 C 
ATOM     16  H   UNL A   1      31.230  26.014  23.156  1.00  0.00     0.348 HD
BRANCH  14  17
ATOM     17  C   UNL A   1      31.683  27.901  22.649  1.00  0.00     0.319 C 
BRANCH  17  18
ATOM     18  C   UNL A   1      30.215  28.302  22.700  1.00  0.00     0.095 A 
ATOM     19  C   UNL A   1      28.030  30.864  21.197  1.00  0.00     0.067 C 
ATOM     20  C   UNL A   1      28.478  29.693  22.021  1.00  0.00     0.038 A 
ATOM     21  C   UNL A   1      27.552  28.964  22.760  1.00  0.00     0.023 A 
ATOM     22  N   UNL A   1      29.800  29.387  21.993  1.00  0.00    -0.252 NA
ATOM     23  C   UNL A   1      27.994  27.874  23.499  1.00  0.00     0.004 A 
ATOM     24  C   UNL A   1      29.339  27.535  23.469  1.00  0.00     0.030 A 
ENDBRANCH  17  18
ENDBRANCH  14  17
ENDBRANCH  13  14
ENDBRANCH   6  13
ENDBRANCH   3   6
ENDBRANCH   1   2
BRANCH   1  25
ATOM     25  C   UNL A   1      31.797  28.539  26.315  1.00  0.00     0.042 C 
BRANCH  25  26
ATOM     26  C   UNL A   1      32.928  29.458  25.914  1.00  0.00     0.118 C 
BRANCH  26  27
ATOM     27  N   UNL A   1      32.705  30.841  26.328  1.00  0.00    -0.352 N 
ATOM     28  C   UNL A   1      33.366  31.620  27.249  1.00  0.00     0.251 C 
ATOM     29  H   UNL A   1      31.958  31.290  25.873  1.00  0.00     0.163 HD
ATOM     30  O   UNL A   1      32.902  32.698  27.593  1.00  0.00    -0.269 OA
BRANCH  28  31
ATOM     31  C   UNL A   1      34.628  31.138  27.849  1.00  0.00     0.039 A 
ATOM     32  C   UNL A   1      35.693  32.027  28.014  1.00  0.00     0.014 A 
ATOM     33  C   UNL A   1      34.759  29.812  28.258  1.00  0.00     0.014 A 
ATOM     34  C   UNL A   1      36.851  31.601  28.667  1.00  0.00     0.010 A 
ATOM     35  C   UNL A   1      35.842  29.434  29.035  1.00  0.00     0.010 A 
ATOM     36  C   UNL A   1      36.915  30.314  29.226  1.00  0.00    -0.014 A 
BRANCH  36  37
ATOM     37  C   UNL A   1      38.104  29.839  29.973  1.00  0.00     0.031 A 
ATOM     38  C   UNL A   1      38.347  30.336  31.374  1.00  0.00     0.074 A 
ATOM     39  C   UNL A   1      38.999  29.033  29.372  1.00  0.00     0.049 A 
ATOM     40  N   UNL A   1      39.372  30.129  32.162  1.00  0.00    -0.248 NA
ATOM     41  C   UNL A   1      37.321  31.219  31.953  1.00  0.00     0.031 C 
ATOM     42  C   UNL A   1      38.903  28.534  27.998  1.00  0.00     0.029 A 
ATOM     43  N   UNL A   1      40.175  28.498  29.836  1.00  0.00    -0.354 N 
ATOM     44  C   UNL A   1      39.121  30.873  33.309  1.00  0.00     0.074 A 
ATOM     45  C   UNL A   1      37.890  31.595  33.087  1.00  0.00     0.031 C 
ATOM     46  C   UNL A   1      39.955  27.740  27.745  1.00  0.00     0.029 A 
ATOM     47  C   UNL A   1      40.823  27.711  28.917  1.00  0.00     0.049 A 
ATOM     48  H   UNL A   1      40.520  28.664  30.743  1.00  0.00     0.167 HD
ATOM     49  C   UNL A   1      39.834  30.922  34.457  1.00  0.00     0.037 A 
ATOM     50  C   UNL A   1      41.990  27.046  29.011  1.00  0.00     0.037 A 
ATOM     51  C   UNL A   1      41.039  30.170  34.684  1.00  0.00     0.049 A 
ATOM     52  C   UNL A   1      42.765  27.117  30.300  1.00  0.00     0.074 A 
ATOM     53  C   UNL A   1      41.804  30.093  35.833  1.00  0.00     0.029 A 
ATOM     54  N   UNL A   1      41.651  29.360  33.737  1.00  0.00    -0.354 N 
ATOM     55  N   UNL A   1      42.481  27.764  31.405  1.00  0.00    -0.248 NA
ATOM     56  C   UNL A   1      44.021  26.357  30.358  1.00  0.00     0.031 C 
ATOM     57  C   UNL A   1      42.909  29.280  35.565  1.00  0.00     0.029 A 
ATOM     58  C   UNL A   1      42.800  28.799  34.270  1.00  0.00     0.049 A 
ATOM     59  H   UNL A   1      41.318  29.207  32.824  1.00  0.00     0.167 HD
ATOM     60  C   UNL A   1      43.501  27.464  32.298  1.00  0.00     0.074 A 
ATOM     61  C   UNL A   1      44.404  26.564  31.610  1.00  0.00     0.031 C 
ATOM     62  C   UNL A   1      43.678  27.895  33.571  1.00  0.00     0.037 A 
BRANCH  49  63
ATOM     63  C   UNL A   1      39.323  31.811  35.556  1.00  0.00     0.064 A 
ATOM     64  C   UNL A   1      38.424  31.341  36.526  1.00  0.00     0.173 A 
ATOM     65  C   UNL A   1      39.757  33.141  35.654  1.00  0.00     0.173 A 
ATOM     66  F   UNL A   1      37.966  30.082  36.473  1.00  0.00    -0.203 F 
ATOM     67  C   UNL A   1      37.950  32.182  37.531  1.00  0.00     0.198 A 
ATOM     68  C   UNL A   1      39.310  33.968  36.682  1.00  0.00     0.198 A 
ATOM     69  F   UNL A   1      40.619  33.641  34.755  1.00  0.00    -0.203 F 
ATOM     70  F   UNL A   1      37.046  31.728  38.410  1.00  0.00    -0.200 F 
ATOM     71  C   UNL A   1      38.400  33.491  37.613  1.00  0.00     0.200 A 
ATOM     72  F   UNL A   1      39.756  35.228  36.768  1.00  0.00    -0.200 F 
ATOM     73  F   UNL A   1      37.950  34.296  38.586  1.00  0.00    -0.200 F 
ENDBRANCH  49  63
BRANCH  50  74
ATOM     74  C   UNL A   1      42.483  26.237  27.866  1.00  0.00     0.064 A 
ATOM     75  C   UNL A   1      43.410  26.766  26.957  1.00  0.00     0.173 A 
ATOM     76  C   UNL A   1      42.037  24.925  27.650  1.00  0.00     0.173 A 
ATOM     77  F   UNL A   1      43.854  28.022  27.110  1.00  0.00    -0.203 F 
ATOM     78  C   UNL A   1      43.850  26.026  25.862  1.00  0.00     0.198 A 
ATOM     79  C   UNL A   1      42.501  24.174  26.572  1.00  0.00     0.198 A 
ATOM     80  F   UNL A   1      41.157  24.367  28.494  1.00  0.00    -0.203 F 
ATOM     81  F   UNL A   1      44.694  26.577  24.979  1.00  0.00    -0.200 F 
ATOM     82  C   UNL A   1      43.399  24.728  25.673  1.00  0.00     0.200 A 
ATOM     83  F   UNL A   1      42.077  22.914  26.403  1.00  0.00    -0.200 F 
ATOM     84  F   UNL A   1      43.824  24.016  24.621  1.00  0.00    -0.200 F 
ENDBRANCH  50  74
BRANCH  62  85
ATOM     85  C   UNL A   1      44.865  27.364  34.321  1.00  0.00     0.064 A 
ATOM     86  C   UNL A   1      46.091  28.044  34.340  1.00  0.00     0.173 A 
ATOM     87  C   UNL A   1      44.758  26.180  35.067  1.00  0.00     0.173 A 
ATOM     88  F   UNL A   1      46.250  29.172  33.632  1.00  0.00    -0.203 F 
ATOM     89  C   UNL A   1      47.175  27.542  35.056  1.00  0.00     0.198 A 
ATOM     90  C   UNL A   1      45.832  25.701  35.810  1.00  0.00     0.198 A 
ATOM     91  F   UNL A   1      43.604  25.496  35.089  1.00  0.00    -0.203 F 
ATOM     92  F   UNL A   1      48.353  28.181  35.018  1.00  0.00    -0.200 F 
ATOM     93  C   UNL A   1      47.042  26.378  35.797  1.00  0.00     0.200 A 
ATOM     94  F   UNL A   1      45.696  24.585  36.539  1.00  0.00    -0.200 F 
ATOM     95  F   UNL A   1      48.083  25.903  36.494  1.00  0.00    -0.200 F 
ENDBRANCH  62  85
ENDBRANCH  36  37
ENDBRANCH  28  31
ENDBRANCH  26  27
ENDBRANCH  25  26
ENDBRANCH   1  25
TORSDOF 14
ENDMDL
MODEL 3
REMARK VINA RESULT:     -12.0      2.231      7.588
REMARK SMILES Cc1cccc(C[N@@H+](C)C[C@]2(C(=O)NCCCNC(=O)c3ccc(-c4c5nc(c(-c6c(F)c(F)c(F)c(F)c6F)c6ccc([nH]6)c(-c6c(F)c(F)c(F)c(F)c6F)c6nc(c(-c7c(F)c(F)c(F)c(F)c7F)c7ccc4[nH]7)C=C6)C=C5)cc3)CCC[C@H](C)C2)n1
REMARK SMILES IDX 15 1 14 2 12 3 13 4 11 6 84 7 89 8 85 9 87 10 86 11 88 12
REMARK SMILES IDX 10 13 8 14 9 15 7 17 6 18 1 19 2 20 3 21 90 22 4 23 5 24
REMARK SMILES IDX 16 25 17 26 18 27 19 28 20 30 21 31 22 32 83 33 23 34 82 35
REMARK SMILES IDX 24 36 25 37 26 38 76 39 27 40 81 41 75 42 77 43 28 44 80 45
REMARK SMILES IDX 74 46 73 47 29 49 61 50 41 51 60 52 42 53 45 54 59 55 78 56
REMARK SMILES IDX 43 57 44 58 58 60 79 61 46 62 30 63 31 64 39 65 32 66 33 67
REMARK SMILES IDX 37 68 40 69 34 70 35 71 38 72 36 73 62 74 63 75 71 76 64 77
REMARK SMILES IDX 65 78 69 79 72 80 66 81 67 82 70 83 68 84 47 85 48 86 56 87
REMARK SMILES IDX 49 88 50 89 54 90 57 91 51 92 52 93 55 94 53 95
REMARK H PARENT 14 5 8 16 18 29 77 48 45 59
REMARK Flexibility Score: inf
ROOT
ATOM      1  C   UNL A   1      34.774  24.793  25.104  1.00  0.00     0.117 C 
ENDROOT
BRANCH   1   2
ATOM      2  N   UNL A   1      33.711  24.964  26.069  1.00  0.00    -0.355 N 
ATOM      3  C   UNL A   1      32.726  25.901  26.126  1.00  0.00     0.231 C 
ATOM      4  O   UNL A   1      31.785  25.627  26.881  1.00  0.00    -0.274 OA
ATOM      5  H   UNL A   1      33.699  24.301  26.796  1.00  0.00     0.163 HD
BRANCH   3   6
ATOM      6  C   UNL A   1      32.777  27.244  25.340  1.00  0.00     0.098 C 
ATOM      7  C   UNL A   1      31.527  28.093  25.768  1.00  0.00     0.023 C 
ATOM      8  C   UNL A   1      34.022  28.101  25.687  1.00  0.00     0.026 C 
ATOM      9  C   UNL A   1      31.562  28.600  27.214  1.00  0.00     0.002 C 
ATOM     10  C   UNL A   1      34.079  28.532  27.165  1.00  0.00    -0.013 C 
ATOM     11  C   UNL A   1      32.844  29.357  27.527  1.00  0.00     0.003 C 
ATOM     12  C   UNL A   1      35.355  29.328  27.444  1.00  0.00     0.007 C 
BRANCH   6  13
ATOM     13  C   UNL A   1      32.587  26.973  23.793  1.00  0.00     0.279 C 
BRANCH  13  14
ATOM     14  N   UNL A   1      31.228  26.692  23.313  1.00  0.00    -0.331 N 
ATOM     15  C   UNL A   1      30.982  25.279  23.027  1.00  0.00     0.333 C 
ATOM     16  H   UNL A   1      30.688  26.973  24.132  1.00  0.00     0.348 HD
BRANCH  14  17
ATOM     17  C   UNL A   1      30.716  27.524  22.204  1.00  0.00     0.319 C 
BRANCH  17  18
ATOM     18  C   UNL A   1      29.571  28.480  22.510  1.00  0.00     0.095 A 
ATOM     19  C   UNL A   1      28.778  32.044  21.996  1.00  0.00     0.067 C 
ATOM     20  C   UNL A   1      28.641  30.611  22.417  1.00  0.00     0.038 A 
ATOM     21  C   UNL A   1      27.467  30.168  23.017  1.00  0.00     0.023 A 
ATOM     22  N   UNL A   1      29.696  29.791  22.174  1.00  0.00    -0.252 NA
ATOM     23  C   UNL A   1      27.363  28.832  23.381  1.00  0.00     0.004 A 
ATOM     24  C   UNL A   1      28.424  27.975  23.124  1.00  0.00     0.030 A 
ENDBRANCH  17  18
ENDBRANCH  14  17
ENDBRANCH  13  14
ENDBRANCH   6  13
ENDBRANCH   3   6
ENDBRANCH   1   2
BRANCH   1  25
ATOM     25  C   UNL A   1      35.202  23.359  24.916  1.00  0.00     0.042 C 
BRANCH  25  26
ATOM     26  C   UNL A   1      35.790  22.758  26.172  1.00  0.00     0.118 C 
BRANCH  26  27
ATOM     27  N   UNL A   1      36.755  21.698  25.893  1.00  0.00    -0.352 N 
ATOM     28  C   UNL A   1      38.130  21.711  25.900  1.00  0.00     0.251 C 
ATOM     29  H   UNL A   1      36.355  20.830  25.660  1.00  0.00     0.163 HD
ATOM     30  O   UNL A   1      38.760  20.766  25.447  1.00  0.00    -0.269 OA
BRANCH  28  31
ATOM     31  C   UNL A   1      38.851  22.887  26.432  1.00  0.00     0.039 A 
ATOM     32  C   UNL A   1      39.967  22.696  27.250  1.00  0.00     0.014 A 
ATOM     33  C   UNL A   1      38.433  24.179  26.116  1.00  0.00     0.014 A 
ATOM     34  C   UNL A   1      40.707  23.801  27.675  1.00  0.00     0.010 A 
ATOM     35  C   UNL A   1      39.248  25.259  26.411  1.00  0.00     0.010 A 
ATOM     36  C   UNL A   1      40.381  25.088  27.218  1.00  0.00    -0.014 A 
BRANCH  36  37
ATOM     37  C   UNL A   1      41.171  26.283  27.601  1.00  0.00     0.031 A 
ATOM     38  C   UNL A   1      40.505  27.403  28.355  1.00  0.00     0.074 A 
ATOM     39  C   UNL A   1      42.454  26.396  27.207  1.00  0.00     0.049 A 
ATOM     40  N   UNL A   1      40.982  28.573  28.697  1.00  0.00    -0.248 NA
ATOM     41  C   UNL A   1      39.098  27.198  28.742  1.00  0.00     0.031 C 
ATOM     42  C   UNL A   1      43.191  25.405  26.421  1.00  0.00     0.029 A 
ATOM     43  N   UNL A   1      43.364  27.404  27.405  1.00  0.00    -0.354 N 
ATOM     44  C   UNL A   1      39.931  29.244  29.310  1.00  0.00     0.074 A 
ATOM     45  C   UNL A   1      38.772  28.385  29.228  1.00  0.00     0.031 C 
ATOM     46  C   UNL A   1      44.448  25.838  26.234  1.00  0.00     0.029 A 
ATOM     47  C   UNL A   1      44.592  27.155  26.844  1.00  0.00     0.049 A 
ATOM     48  H   UNL A   1      43.156  28.228  27.902  1.00  0.00     0.167 HD
ATOM     49  C   UNL A   1      39.939  30.451  29.919  1.00  0.00     0.037 A 
ATOM     50  C   UNL A   1      45.707  27.910  26.821  1.00  0.00     0.037 A 
ATOM     51  C   UNL A   1      41.107  31.284  30.030  1.00  0.00     0.049 A 
ATOM     52  C   UNL A   1      45.691  29.251  27.506  1.00  0.00     0.074 A 
ATOM     53  C   UNL A   1      41.244  32.494  30.683  1.00  0.00     0.029 A 
ATOM     54  N   UNL A   1      42.342  30.985  29.472  1.00  0.00    -0.354 N 
ATOM     55  N   UNL A   1      44.713  29.843  28.148  1.00  0.00    -0.248 NA
ATOM     56  C   UNL A   1      46.939  30.026  27.470  1.00  0.00     0.031 C 
ATOM     57  C   UNL A   1      42.547  32.955  30.476  1.00  0.00     0.029 A 
ATOM     58  C   UNL A   1      43.241  32.002  29.747  1.00  0.00     0.049 A 
ATOM     59  H   UNL A   1      42.549  30.171  28.959  1.00  0.00     0.167 HD
ATOM     60  C   UNL A   1      45.233  31.041  28.619  1.00  0.00     0.074 A 
ATOM     61  C   UNL A   1      46.620  31.084  28.203  1.00  0.00     0.031 C 
ATOM     62  C   UNL A   1      44.621  32.019  29.332  1.00  0.00     0.037 A 
BRANCH  49  63
ATOM     63  C   UNL A   1      38.650  30.938  30.518  1.00  0.00     0.064 A 
ATOM     64  C   UNL A   1      38.410  30.878  31.900  1.00  0.00     0.173 A 
ATOM     65  C   UNL A   1      37.651  31.492  29.704  1.00  0.00     0.173 A 
ATOM     66  F   UNL A   1      39.324  30.346  32.724  1.00  0.00    -0.203 F 
ATOM     67  C   UNL A   1      37.204  31.322  32.438  1.00  0.00     0.198 A 
ATOM     68  C   UNL A   1      36.462  31.968  30.250  1.00  0.00     0.198 A 
ATOM     69  F   UNL A   1      37.829  31.577  28.376  1.00  0.00    -0.203 F 
ATOM     70  F   UNL A   1      36.974  31.199  33.753  1.00  0.00    -0.200 F 
ATOM     71  C   UNL A   1      36.235  31.874  31.614  1.00  0.00     0.200 A 
ATOM     72  F   UNL A   1      35.533  32.515  29.454  1.00  0.00    -0.200 F 
ATOM     73  F   UNL A   1      35.079  32.308  32.135  1.00  0.00    -0.200 F 
ENDBRANCH  49  63
BRANCH  50  74
ATOM     74  C   UNL A   1      46.936  27.408  26.153  1.00  0.00     0.064 A 
ATOM     75  C   UNL A   1      47.129  27.585  24.775  1.00  0.00     0.173 A 
ATOM     76  C   UNL A   1      47.937  26.735  26.868  1.00  0.00     0.173 A 
ATOM     77  F   UNL A   1      46.194  28.207  24.043  1.00  0.00    -0.203 F 
ATOM     78  C   UNL A   1      48.262  27.087  24.135  1.00  0.00     0.198 A 
ATOM     79  C   UNL A   1      49.085  26.265  26.233  1.00  0.00     0.198 A 
ATOM     80  F   UNL A   1      47.807  26.545  28.189  1.00  0.00    -0.203 F 
ATOM     81  F   UNL A   1      48.395  27.224  22.809  1.00  0.00    -0.200 F 
ATOM     82  C   UNL A   1      49.241  26.431  24.866  1.00  0.00     0.200 A 
ATOM     83  F   UNL A   1      50.038  25.647  26.945  1.00  0.00    -0.200 F 
ATOM     84  F   UNL A   1      50.331  25.954  24.250  1.00  0.00    -0.200 F 
ENDBRANCH  50  74
BRANCH  62  85
ATOM     85  C   UNL A   1      45.456  33.196  29.746  1.00  0.00     0.064 A 
ATOM     86  C   UNL A   1      45.553  34.348  28.953  1.00  0.00     0.173 A 
ATOM     87  C   UNL A   1      46.129  33.186  30.977  1.00  0.00     0.173 A 
ATOM     88  F   UNL A   1      44.939  34.403  27.761  1.00  0.00    -0.203 F 
ATOM     89  C   UNL A   1      46.319  35.436  29.364  1.00  0.00     0.198 A 
ATOM     90  C   UNL A   1      46.864  34.289  31.401  1.00  0.00     0.198 A 
ATOM     91  F   UNL A   1      46.062  32.111  31.778  1.00  0.00    -0.203 F 
ATOM     92  F   UNL A   1      46.440  36.506  28.567  1.00  0.00    -0.200 F 
ATOM     93  C   UNL A   1      46.965  35.409  30.591  1.00  0.00     0.200 A 
ATOM     94  F   UNL A   1      47.474  34.267  32.594  1.00  0.00    -0.200 F 
ATOM     95  F   UNL A   1      47.693  36.461  30.989  1.00  0.00    -0.200 F 
ENDBRANCH  62  85
ENDBRANCH  36  37
ENDBRANCH  28  31
ENDBRANCH  26  27
ENDBRANCH  25  26
ENDBRANCH   1  25
TORSDOF 14
ENDMDL
