MODEL 1
REMARK VINA RESULT:     -10.9      0.000      0.000
REMARK SMILES CC(C)NC(=O)C[N@@H+]1CCC[C@H]1C(=O)NCCCNC(=O)c1ccc(-c2c3nc(c(-c4c(F)c(F)c(F)c(F)c4F)c4ccc([nH]4)c(-c4c(F)c(F)c(F)c(F)c4F)c4nc(c(-c5c(F)c(F)c(F)c(F)c5F)c5ccc2[nH]5)C=C4)C=C3)cc1
REMARK SMILES IDX 16 1 15 2 13 3 14 4 12 6 8 7 9 8 10 10 11 11 7 12 5 13 4 14
REMARK SMILES IDX 6 16 2 17 1 18 3 19 17 20 18 21 19 22 20 23 21 25 22 26
REMARK SMILES IDX 23 27 84 28 24 29 83 30 25 31 26 32 27 33 77 34 28 35 82 36
REMARK SMILES IDX 76 37 78 38 29 39 81 40 75 41 74 42 30 44 62 45 42 46 61 47
REMARK SMILES IDX 43 48 46 49 60 50 79 51 44 52 45 53 59 55 80 56 47 57 31 58
REMARK SMILES IDX 32 59 40 60 33 61 34 62 38 63 41 64 35 65 36 66 39 67 37 68
REMARK SMILES IDX 63 69 64 70 72 71 65 72 66 73 70 74 73 75 67 76 68 77 71 78
REMARK SMILES IDX 69 79 48 80 49 81 57 82 50 83 51 84 55 85 58 86 52 87 53 88
REMARK SMILES IDX 56 89 54 90
REMARK H PARENT 15 5 8 9 4 15 19 24 78 43 46 54
REMARK Flexibility Score: inf
ROOT
ATOM      1  C   UNL A   1      34.801  34.930  28.310  1.00  0.00     0.118 C 
ENDROOT
BRANCH   1   2
ATOM      2  N   UNL A   1      33.950  36.062  28.601  1.00  0.00    -0.351 N 
ATOM      3  C   UNL A   1      33.284  36.442  29.720  1.00  0.00     0.278 C 
ATOM      4  O   UNL A   1      32.652  37.501  29.621  1.00  0.00    -0.268 OA
ATOM      5  H   UNL A   1      33.831  36.675  27.840  1.00  0.00     0.163 HD
BRANCH   3   6
ATOM      6  C   UNL A   1      33.277  35.641  31.048  1.00  0.00     0.274 C 
ATOM      7  N   UNL A   1      34.492  35.973  31.828  1.00  0.00    -0.317 N 
ATOM      8  C   UNL A   1      34.046  37.063  32.712  1.00  0.00     0.263 C 
ATOM      9  H   UNL A   1      35.251  36.203  31.186  1.00  0.00     0.349 HD
ATOM     10  C   UNL A   1      32.642  36.658  33.153  1.00  0.00     0.068 C 
ATOM     11  C   UNL A   1      32.088  35.831  31.992  1.00  0.00     0.081 C 
BRANCH   7  12
ATOM     12  C   UNL A   1      35.067  34.869  32.650  1.00  0.00     0.364 C 
BRANCH  12  13
ATOM     13  C   UNL A   1      34.991  33.442  32.067  1.00  0.00     0.275 C 
ATOM     14  N   UNL A   1      35.974  33.002  31.202  1.00  0.00    -0.349 N 
ATOM     15  H   UNL A   1      35.747  32.230  30.634  1.00  0.00     0.163 HD
ATOM     16  O   UNL A   1      34.027  32.702  32.270  1.00  0.00    -0.268 OA
BRANCH  14  17
ATOM     17  C   UNL A   1      37.306  33.552  31.038  1.00  0.00     0.076 C 
ATOM     18  C   UNL A   1      38.243  33.064  32.144  1.00  0.00     0.030 C 
ATOM     19  C   UNL A   1      37.930  33.380  29.666  1.00  0.00     0.030 C 
ENDBRANCH  14  17
ENDBRANCH  12  13
ENDBRANCH   7  12
ENDBRANCH   3   6
ENDBRANCH   1   2
BRANCH   1  20
ATOM     20  C   UNL A   1      34.038  33.639  28.176  1.00  0.00     0.042 C 
BRANCH  20  21
ATOM     21  C   UNL A   1      34.942  32.501  27.770  1.00  0.00     0.118 C 
BRANCH  21  22
ATOM     22  N   UNL A   1      34.249  31.215  27.806  1.00  0.00    -0.352 N 
ATOM     23  C   UNL A   1      34.753  29.939  27.889  1.00  0.00     0.251 C 
ATOM     24  H   UNL A   1      33.266  31.270  27.764  1.00  0.00     0.163 HD
ATOM     25  O   UNL A   1      34.038  28.972  27.626  1.00  0.00    -0.269 OA
BRANCH  23  26
ATOM     26  C   UNL A   1      36.167  29.738  28.256  1.00  0.00     0.039 A 
ATOM     27  C   UNL A   1      36.510  29.328  29.545  1.00  0.00     0.014 A 
ATOM     28  C   UNL A   1      37.160  29.926  27.300  1.00  0.00     0.014 A 
ATOM     29  C   UNL A   1      37.842  29.022  29.833  1.00  0.00     0.010 A 
ATOM     30  C   UNL A   1      38.432  29.441  27.527  1.00  0.00     0.010 A 
ATOM     31  C   UNL A   1      38.804  29.025  28.809  1.00  0.00    -0.014 A 
BRANCH  31  32
ATOM     32  C   UNL A   1      40.221  28.660  29.047  1.00  0.00     0.031 A 
ATOM     33  C   UNL A   1      41.135  29.647  29.729  1.00  0.00     0.074 A 
ATOM     34  C   UNL A   1      40.702  27.492  28.581  1.00  0.00     0.049 A 
ATOM     35  N   UNL A   1      42.424  29.574  29.941  1.00  0.00    -0.248 NA
ATOM     36  C   UNL A   1      40.529  30.910  30.189  1.00  0.00     0.031 C 
ATOM     37  C   UNL A   1      39.929  26.489  27.845  1.00  0.00     0.029 A 
ATOM     38  N   UNL A   1      41.960  26.953  28.652  1.00  0.00    -0.354 N 
ATOM     39  C   UNL A   1      42.777  30.783  30.526  1.00  0.00     0.074 A 
ATOM     40  C   UNL A   1      41.591  31.607  30.555  1.00  0.00     0.031 C 
ATOM     41  C   UNL A   1      40.718  25.438  27.574  1.00  0.00     0.029 A 
ATOM     42  C   UNL A   1      42.062  25.713  28.073  1.00  0.00     0.049 A 
ATOM     43  H   UNL A   1      42.719  27.413  29.079  1.00  0.00     0.167 HD
ATOM     44  C   UNL A   1      43.970  31.159  31.039  1.00  0.00     0.037 A 
ATOM     45  C   UNL A   1      43.124  24.894  27.956  1.00  0.00     0.037 A 
ATOM     46  C   UNL A   1      45.133  30.316  31.045  1.00  0.00     0.049 A 
ATOM     47  C   UNL A   1      44.443  25.332  28.535  1.00  0.00     0.074 A 
ATOM     48  C   UNL A   1      46.378  30.564  31.595  1.00  0.00     0.029 A 
ATOM     49  N   UNL A   1      45.191  29.054  30.471  1.00  0.00    -0.354 N 
ATOM     50  N   UNL A   1      44.745  26.445  29.159  1.00  0.00    -0.248 NA
ATOM     51  C   UNL A   1      45.565  24.396  28.399  1.00  0.00     0.031 C 
ATOM     52  C   UNL A   1      47.205  29.475  31.305  1.00  0.00     0.029 A 
ATOM     53  C   UNL A   1      46.458  28.520  30.631  1.00  0.00     0.049 A 
ATOM     54  H   UNL A   1      44.442  28.604  30.016  1.00  0.00     0.167 HD
ATOM     55  C   UNL A   1      46.082  26.331  29.518  1.00  0.00     0.074 A 
ATOM     56  C   UNL A   1      46.525  25.031  29.056  1.00  0.00     0.031 C 
ATOM     57  C   UNL A   1      46.872  27.219  30.171  1.00  0.00     0.037 A 
BRANCH  44  58
ATOM     58  C   UNL A   1      44.068  32.533  31.643  1.00  0.00     0.064 A 
ATOM     59  C   UNL A   1      43.786  32.766  32.999  1.00  0.00     0.173 A 
ATOM     60  C   UNL A   1      44.459  33.629  30.859  1.00  0.00     0.173 A 
ATOM     61  F   UNL A   1      43.391  31.757  33.790  1.00  0.00    -0.203 F 
ATOM     62  C   UNL A   1      43.852  34.049  33.536  1.00  0.00     0.198 A 
ATOM     63  C   UNL A   1      44.562  34.903  31.410  1.00  0.00     0.198 A 
ATOM     64  F   UNL A   1      44.743  33.465  29.559  1.00  0.00    -0.203 F 
ATOM     65  F   UNL A   1      43.513  34.255  34.816  1.00  0.00    -0.200 F 
ATOM     66  C   UNL A   1      44.249  35.115  32.745  1.00  0.00     0.200 A 
ATOM     67  F   UNL A   1      44.960  35.931  30.647  1.00  0.00    -0.200 F 
ATOM     68  F   UNL A   1      44.319  36.348  33.265  1.00  0.00    -0.200 F 
ENDBRANCH  44  58
BRANCH  45  69
ATOM     69  C   UNL A   1      42.975  23.568  27.302  1.00  0.00     0.064 A 
ATOM     70  C   UNL A   1      43.448  23.352  25.999  1.00  0.00     0.173 A 
ATOM     71  C   UNL A   1      42.362  22.490  27.959  1.00  0.00     0.173 A 
ATOM     72  F   UNL A   1      44.029  24.354  25.324  1.00  0.00    -0.203 F 
ATOM     73  C   UNL A   1      43.289  22.118  25.370  1.00  0.00     0.198 A 
ATOM     74  C   UNL A   1      42.233  21.248  27.339  1.00  0.00     0.198 A 
ATOM     75  F   UNL A   1      41.902  22.638  29.209  1.00  0.00    -0.203 F 
ATOM     76  F   UNL A   1      43.707  21.956  24.107  1.00  0.00    -0.200 F 
ATOM     77  C   UNL A   1      42.688  21.067  26.042  1.00  0.00     0.200 A 
ATOM     78  F   UNL A   1      41.669  20.228  28.000  1.00  0.00    -0.200 F 
ATOM     79  F   UNL A   1      42.541  19.879  25.439  1.00  0.00    -0.200 F 
ENDBRANCH  45  69
BRANCH  57  80
ATOM     80  C   UNL A   1      48.284  26.798  30.461  1.00  0.00     0.064 A 
ATOM     81  C   UNL A   1      48.605  26.004  31.572  1.00  0.00     0.173 A 
ATOM     82  C   UNL A   1      49.322  27.158  29.588  1.00  0.00     0.173 A 
ATOM     83  F   UNL A   1      47.651  25.644  32.444  1.00  0.00    -0.203 F 
ATOM     84  C   UNL A   1      49.918  25.614  31.814  1.00  0.00     0.198 A 
ATOM     85  C   UNL A   1      50.627  26.735  29.813  1.00  0.00     0.198 A 
ATOM     86  F   UNL A   1      49.065  27.909  28.505  1.00  0.00    -0.203 F 
ATOM     87  F   UNL A   1      50.211  24.902  32.911  1.00  0.00    -0.200 F 
ATOM     88  C   UNL A   1      50.926  25.972  30.931  1.00  0.00     0.200 A 
ATOM     89  F   UNL A   1      51.596  27.066  28.948  1.00  0.00    -0.200 F 
ATOM     90  F   UNL A   1      52.189  25.586  31.161  1.00  0.00    -0.200 F 
ENDBRANCH  57  80
ENDBRANCH  31  32
ENDBRANCH  23  26
ENDBRANCH  21  22
ENDBRANCH  20  21
ENDBRANCH   1  20
TORSDOF 13
ENDMDL
MODEL 2
REMARK VINA RESULT:     -10.8      4.379     10.308
REMARK SMILES CC(C)NC(=O)C[N@@H+]1CCC[C@H]1C(=O)NCCCNC(=O)c1ccc(-c2c3nc(c(-c4c(F)c(F)c(F)c(F)c4F)c4ccc([nH]4)c(-c4c(F)c(F)c(F)c(F)c4F)c4nc(c(-c5c(F)c(F)c(F)c(F)c5F)c5ccc2[nH]5)C=C4)C=C3)cc1
REMARK SMILES IDX 16 1 15 2 13 3 14 4 12 6 8 7 9 8 10 10 11 11 7 12 5 13 4 14
REMARK SMILES IDX 6 16 2 17 1 18 3 19 17 20 18 21 19 22 20 23 21 25 22 26
REMARK SMILES IDX 23 27 84 28 24 29 83 30 25 31 26 32 27 33 77 34 28 35 82 36
REMARK SMILES IDX 76 37 78 38 29 39 81 40 75 41 74 42 30 44 62 45 42 46 61 47
REMARK SMILES IDX 43 48 46 49 60 50 79 51 44 52 45 53 59 55 80 56 47 57 31 58
REMARK SMILES IDX 32 59 40 60 33 61 34 62 38 63 41 64 35 65 36 66 39 67 37 68
REMARK SMILES IDX 63 69 64 70 72 71 65 72 66 73 70 74 73 75 67 76 68 77 71 78
REMARK SMILES IDX 69 79 48 80 49 81 57 82 50 83 51 84 55 85 58 86 52 87 53 88
REMARK SMILES IDX 56 89 54 90
REMARK H PARENT 15 5 8 9 4 15 19 24 78 43 46 54
REMARK Flexibility Score: inf
ROOT
ATOM      1  C   UNL A   1      31.517  30.731  26.579  1.00  0.00     0.118 C 
ENDROOT
BRANCH   1   2
ATOM      2  N   UNL A   1      32.858  30.190  26.607  1.00  0.00    -0.351 N 
ATOM      3  C   UNL A   1      33.465  29.216  25.884  1.00  0.00     0.278 C 
ATOM      4  O   UNL A   1      34.655  29.019  26.164  1.00  0.00    -0.268 OA
ATOM      5  H   UNL A   1      33.442  30.609  27.279  1.00  0.00     0.163 HD
BRANCH   3   6
ATOM      6  C   UNL A   1      32.766  28.377  24.783  1.00  0.00     0.274 C 
ATOM      7  N   UNL A   1      32.680  29.176  23.538  1.00  0.00    -0.317 N 
ATOM      8  C   UNL A   1      33.887  28.783  22.793  1.00  0.00     0.263 C 
ATOM      9  H   UNL A   1      32.607  30.165  23.778  1.00  0.00     0.349 HD
ATOM     10  C   UNL A   1      34.015  27.279  23.022  1.00  0.00     0.068 C 
ATOM     11  C   UNL A   1      33.393  27.035  24.398  1.00  0.00     0.081 C 
BRANCH   7  12
ATOM     12  C   UNL A   1      31.474  28.943  22.691  1.00  0.00     0.364 C 
BRANCH  12  13
ATOM     13  C   UNL A   1      30.133  28.716  23.419  1.00  0.00     0.275 C 
ATOM     14  N   UNL A   1      29.207  29.739  23.484  1.00  0.00    -0.349 N 
ATOM     15  H   UNL A   1      28.519  29.666  24.185  1.00  0.00     0.163 HD
ATOM     16  O   UNL A   1      29.889  27.677  24.034  1.00  0.00    -0.268 OA
BRANCH  14  17
ATOM     17  C   UNL A   1      29.136  30.910  22.632  1.00  0.00     0.076 C 
ATOM     18  C   UNL A   1      28.355  30.611  21.350  1.00  0.00     0.030 C 
ATOM     19  C   UNL A   1      28.645  32.183  23.295  1.00  0.00     0.030 C 
ENDBRANCH  14  17
ENDBRANCH  12  13
ENDBRANCH   7  12
ENDBRANCH   3   6
ENDBRANCH   1   2
BRANCH   1  20
ATOM     20  C   UNL A   1      31.489  32.236  26.594  1.00  0.00     0.042 C 
BRANCH  20  21
ATOM     21  C   UNL A   1      32.606  32.803  27.435  1.00  0.00     0.118 C 
BRANCH  21  22
ATOM     22  N   UNL A   1      32.469  34.246  27.623  1.00  0.00    -0.352 N 
ATOM     23  C   UNL A   1      33.026  35.073  28.569  1.00  0.00     0.251 C 
ATOM     24  H   UNL A   1      31.887  34.697  26.969  1.00  0.00     0.163 HD
ATOM     25  O   UNL A   1      32.579  36.207  28.740  1.00  0.00    -0.269 OA
BRANCH  23  26
ATOM     26  C   UNL A   1      34.136  34.579  29.404  1.00  0.00     0.039 A 
ATOM     27  C   UNL A   1      33.885  34.039  30.665  1.00  0.00     0.014 A 
ATOM     28  C   UNL A   1      35.437  34.619  28.912  1.00  0.00     0.014 A 
ATOM     29  C   UNL A   1      34.935  33.463  31.384  1.00  0.00     0.010 A 
ATOM     30  C   UNL A   1      36.428  33.882  29.531  1.00  0.00     0.010 A 
ATOM     31  C   UNL A   1      36.204  33.332  30.796  1.00  0.00    -0.014 A 
BRANCH  31  32
ATOM     32  C   UNL A   1      37.341  32.684  31.493  1.00  0.00     0.031 A 
ATOM     33  C   UNL A   1      38.049  31.526  30.835  1.00  0.00     0.074 A 
ATOM     34  C   UNL A   1      37.679  33.075  32.736  1.00  0.00     0.049 A 
ATOM     35  N   UNL A   1      38.992  30.753  31.309  1.00  0.00    -0.248 NA
ATOM     36  C   UNL A   1      37.600  31.152  29.481  1.00  0.00     0.031 C 
ATOM     37  C   UNL A   1      37.021  34.136  33.501  1.00  0.00     0.029 A 
ATOM     38  N   UNL A   1      38.658  32.618  33.580  1.00  0.00    -0.354 N 
ATOM     39  C   UNL A   1      39.222  29.797  30.328  1.00  0.00     0.074 A 
ATOM     40  C   UNL A   1      38.262  30.027  29.274  1.00  0.00     0.031 C 
ATOM     41  C   UNL A   1      37.645  34.280  34.680  1.00  0.00     0.029 A 
ATOM     42  C   UNL A   1      38.713  33.290  34.775  1.00  0.00     0.049 A 
ATOM     43  H   UNL A   1      39.265  31.878  33.349  1.00  0.00     0.167 HD
ATOM     44  C   UNL A   1      40.178  28.841  30.285  1.00  0.00     0.037 A 
ATOM     45  C   UNL A   1      39.533  33.122  35.829  1.00  0.00     0.037 A 
ATOM     46  C   UNL A   1      41.155  28.648  31.320  1.00  0.00     0.049 A 
ATOM     47  C   UNL A   1      40.590  32.052  35.759  1.00  0.00     0.074 A 
ATOM     48  C   UNL A   1      42.211  27.756  31.355  1.00  0.00     0.029 A 
ATOM     49  N   UNL A   1      41.195  29.367  32.506  1.00  0.00    -0.354 N 
ATOM     50  N   UNL A   1      40.851  31.206  34.792  1.00  0.00    -0.248 NA
ATOM     51  C   UNL A   1      41.472  31.920  36.926  1.00  0.00     0.031 C 
ATOM     52  C   UNL A   1      42.856  27.896  32.587  1.00  0.00     0.029 A 
ATOM     53  C   UNL A   1      42.243  28.921  33.293  1.00  0.00     0.049 A 
ATOM     54  H   UNL A   1      40.570  30.087  32.753  1.00  0.00     0.167 HD
ATOM     55  C   UNL A   1      41.944  30.463  35.218  1.00  0.00     0.074 A 
ATOM     56  C   UNL A   1      42.307  30.973  36.525  1.00  0.00     0.031 C 
ATOM     57  C   UNL A   1      42.590  29.451  34.587  1.00  0.00     0.037 A 
BRANCH  44  58
ATOM     58  C   UNL A   1      40.213  27.946  29.078  1.00  0.00     0.064 A 
ATOM     59  C   UNL A   1      40.934  28.291  27.922  1.00  0.00     0.173 A 
ATOM     60  C   UNL A   1      39.529  26.722  29.078  1.00  0.00     0.173 A 
ATOM     61  F   UNL A   1      41.594  29.459  27.862  1.00  0.00    -0.203 F 
ATOM     62  C   UNL A   1      40.934  27.466  26.802  1.00  0.00     0.198 A 
ATOM     63  C   UNL A   1      39.564  25.881  27.969  1.00  0.00     0.198 A 
ATOM     64  F   UNL A   1      38.826  26.339  30.153  1.00  0.00    -0.203 F 
ATOM     65  F   UNL A   1      41.575  27.850  25.689  1.00  0.00    -0.200 F 
ATOM     66  C   UNL A   1      40.257  26.257  26.828  1.00  0.00     0.200 A 
ATOM     67  F   UNL A   1      38.919  24.705  28.001  1.00  0.00    -0.200 F 
ATOM     68  F   UNL A   1      40.263  25.460  25.751  1.00  0.00    -0.200 F 
ENDBRANCH  44  58
BRANCH  45  69
ATOM     69  C   UNL A   1      39.414  34.007  37.017  1.00  0.00     0.064 A 
ATOM     70  C   UNL A   1      40.033  35.265  37.040  1.00  0.00     0.173 A 
ATOM     71  C   UNL A   1      38.682  33.620  38.150  1.00  0.00     0.173 A 
ATOM     72  F   UNL A   1      40.754  35.676  35.988  1.00  0.00    -0.203 F 
ATOM     73  C   UNL A   1      39.946  36.090  38.161  1.00  0.00     0.198 A 
ATOM     74  C   UNL A   1      38.571  34.460  39.257  1.00  0.00     0.198 A 
ATOM     75  F   UNL A   1      38.062  32.432  38.177  1.00  0.00    -0.203 F 
ATOM     76  F   UNL A   1      40.589  37.266  38.173  1.00  0.00    -0.200 F 
ATOM     77  C   UNL A   1      39.212  35.690  39.265  1.00  0.00     0.200 A 
ATOM     78  F   UNL A   1      37.843  34.077  40.315  1.00  0.00    -0.200 F 
ATOM     79  F   UNL A   1      39.124  36.485  40.340  1.00  0.00    -0.200 F 
ENDBRANCH  45  69
BRANCH  57  80
ATOM     80  C   UNL A   1      43.781  28.857  35.282  1.00  0.00     0.064 A 
ATOM     81  C   UNL A   1      43.661  27.761  36.148  1.00  0.00     0.173 A 
ATOM     82  C   UNL A   1      45.066  29.367  35.040  1.00  0.00     0.173 A 
ATOM     83  F   UNL A   1      42.453  27.245  36.422  1.00  0.00    -0.203 F 
ATOM     84  C   UNL A   1      44.780  27.218  36.771  1.00  0.00     0.198 A 
ATOM     85  C   UNL A   1      46.187  28.798  35.636  1.00  0.00     0.198 A 
ATOM     86  F   UNL A   1      45.236  30.409  34.212  1.00  0.00    -0.203 F 
ATOM     87  F   UNL A   1      44.636  26.207  37.639  1.00  0.00    -0.200 F 
ATOM     88  C   UNL A   1      46.042  27.731  36.509  1.00  0.00     0.200 A 
ATOM     89  F   UNL A   1      47.406  29.283  35.366  1.00  0.00    -0.200 F 
ATOM     90  F   UNL A   1      47.120  27.200  37.102  1.00  0.00    -0.200 F 
ENDBRANCH  57  80
ENDBRANCH  31  32
ENDBRANCH  23  26
ENDBRANCH  21  22
ENDBRANCH  20  21
ENDBRANCH   1  20
TORSDOF 13
ENDMDL
MODEL 3
REMARK VINA RESULT:     -10.8      4.301     10.216
REMARK SMILES CC(C)NC(=O)C[N@@H+]1CCC[C@H]1C(=O)NCCCNC(=O)c1ccc(-c2c3nc(c(-c4c(F)c(F)c(F)c(F)c4F)c4ccc([nH]4)c(-c4c(F)c(F)c(F)c(F)c4F)c4nc(c(-c5c(F)c(F)c(F)c(F)c5F)c5ccc2[nH]5)C=C4)C=C3)cc1
REMARK SMILES IDX 16 1 15 2 13 3 14 4 12 6 8 7 9 8 10 10 11 11 7 12 5 13 4 14
REMARK SMILES IDX 6 16 2 17 1 18 3 19 17 20 18 21 19 22 20 23 21 25 22 26
REMARK SMILES IDX 23 27 84 28 24 29 83 30 25 31 26 32 27 33 77 34 28 35 82 36
REMARK SMILES IDX 76 37 78 38 29 39 81 40 75 41 74 42 30 44 62 45 42 46 61 47
REMARK SMILES IDX 43 48 46 49 60 50 79 51 44 52 45 53 59 55 80 56 47 57 31 58
REMARK SMILES IDX 32 59 40 60 33 61 34 62 38 63 41 64 35 65 36 66 39 67 37 68
REMARK SMILES IDX 63 69 64 70 72 71 65 72 66 73 70 74 73 75 67 76 68 77 71 78
REMARK SMILES IDX 69 79 48 80 49 81 57 82 50 83 51 84 55 85 58 86 52 87 53 88
REMARK SMILES IDX 56 89 54 90
REMARK H PARENT 15 5 8 9 4 15 19 24 78 43 46 54
REMARK Flexibility Score: inf
ROOT
ATOM      1  C   UNL A   1      31.781  30.716  26.294  1.00  0.00     0.118 C 
ENDROOT
BRANCH   1   2
ATOM      2  N   UNL A   1      31.178  30.262  25.061  1.00  0.00    -0.351 N 
ATOM      3  C   UNL A   1      31.574  29.362  24.126  1.00  0.00     0.278 C 
ATOM      4  O   UNL A   1      30.787  29.200  23.185  1.00  0.00    -0.268 OA
ATOM      5  H   UNL A   1      30.314  30.688  24.860  1.00  0.00     0.163 HD
BRANCH   3   6
ATOM      6  C   UNL A   1      32.907  28.572  24.182  1.00  0.00     0.274 C 
ATOM      7  N   UNL A   1      32.629  27.166  24.558  1.00  0.00    -0.317 N 
ATOM      8  C   UNL A   1      32.506  26.480  23.261  1.00  0.00     0.263 C 
ATOM      9  H   UNL A   1      31.804  27.135  25.158  1.00  0.00     0.349 HD
ATOM     10  C   UNL A   1      33.597  27.096  22.389  1.00  0.00     0.068 C 
ATOM     11  C   UNL A   1      33.764  28.522  22.915  1.00  0.00     0.081 C 
BRANCH   7  12
ATOM     12  C   UNL A   1      33.671  26.487  25.382  1.00  0.00     0.364 C 
BRANCH  12  13
ATOM     13  C   UNL A   1      33.376  25.045  25.846  1.00  0.00     0.275 C 
ATOM     14  N   UNL A   1      34.150  24.002  25.376  1.00  0.00    -0.349 N 
ATOM     15  H   UNL A   1      33.763  23.100  25.449  1.00  0.00     0.163 HD
ATOM     16  O   UNL A   1      32.406  24.771  26.555  1.00  0.00    -0.268 OA
BRANCH  14  17
ATOM     17  C   UNL A   1      35.471  24.090  24.785  1.00  0.00     0.076 C 
ATOM     18  C   UNL A   1      36.558  23.793  25.821  1.00  0.00     0.030 C 
ATOM     19  C   UNL A   1      35.684  23.290  23.514  1.00  0.00     0.030 C 
ENDBRANCH  14  17
ENDBRANCH  12  13
ENDBRANCH   7  12
ENDBRANCH   3   6
ENDBRANCH   1   2
BRANCH   1  20
ATOM     20  C   UNL A   1      31.567  32.184  26.548  1.00  0.00     0.042 C 
BRANCH  20  21
ATOM     21  C   UNL A   1      32.657  32.761  27.419  1.00  0.00     0.118 C 
BRANCH  21  22
ATOM     22  N   UNL A   1      32.467  34.190  27.656  1.00  0.00    -0.352 N 
ATOM     23  C   UNL A   1      32.991  35.003  28.632  1.00  0.00     0.251 C 
ATOM     24  H   UNL A   1      31.870  34.642  27.016  1.00  0.00     0.163 HD
ATOM     25  O   UNL A   1      32.503  36.113  28.841  1.00  0.00    -0.269 OA
BRANCH  23  26
ATOM     26  C   UNL A   1      34.117  34.521  29.452  1.00  0.00     0.039 A 
ATOM     27  C   UNL A   1      33.888  33.982  30.718  1.00  0.00     0.014 A 
ATOM     28  C   UNL A   1      35.412  34.573  28.943  1.00  0.00     0.014 A 
ATOM     29  C   UNL A   1      34.953  33.416  31.424  1.00  0.00     0.010 A 
ATOM     30  C   UNL A   1      36.417  33.846  29.550  1.00  0.00     0.010 A 
ATOM     31  C   UNL A   1      36.215  33.297  30.819  1.00  0.00    -0.014 A 
BRANCH  31  32
ATOM     32  C   UNL A   1      37.368  32.661  31.501  1.00  0.00     0.031 A 
ATOM     33  C   UNL A   1      38.086  31.517  30.830  1.00  0.00     0.074 A 
ATOM     34  C   UNL A   1      37.711  33.048  32.744  1.00  0.00     0.049 A 
ATOM     35  N   UNL A   1      39.045  30.756  31.291  1.00  0.00    -0.248 NA
ATOM     36  C   UNL A   1      37.631  31.146  29.478  1.00  0.00     0.031 C 
ATOM     37  C   UNL A   1      37.044  34.095  33.522  1.00  0.00     0.029 A 
ATOM     38  N   UNL A   1      38.704  32.601  33.577  1.00  0.00    -0.354 N 
ATOM     39  C   UNL A   1      39.280  29.809  30.301  1.00  0.00     0.074 A 
ATOM     40  C   UNL A   1      38.308  30.032  29.257  1.00  0.00     0.031 C 
ATOM     41  C   UNL A   1      37.677  34.240  34.697  1.00  0.00     0.029 A 
ATOM     42  C   UNL A   1      38.759  33.266  34.776  1.00  0.00     0.049 A 
ATOM     43  H   UNL A   1      39.320  31.871  33.335  1.00  0.00     0.167 HD
ATOM     44  C   UNL A   1      40.249  28.868  30.243  1.00  0.00     0.037 A 
ATOM     45  C   UNL A   1      39.591  33.102  35.821  1.00  0.00     0.037 A 
ATOM     46  C   UNL A   1      41.239  28.682  31.268  1.00  0.00     0.049 A 
ATOM     47  C   UNL A   1      40.663  32.048  35.735  1.00  0.00     0.074 A 
ATOM     48  C   UNL A   1      42.308  27.805  31.289  1.00  0.00     0.029 A 
ATOM     49  N   UNL A   1      41.279  29.394  32.459  1.00  0.00    -0.354 N 
ATOM     50  N   UNL A   1      40.928  31.213  34.760  1.00  0.00    -0.248 NA
ATOM     51  C   UNL A   1      41.557  31.921  36.893  1.00  0.00     0.031 C 
ATOM     52  C   UNL A   1      42.962  27.947  32.516  1.00  0.00     0.029 A 
ATOM     53  C   UNL A   1      42.339  28.958  33.234  1.00  0.00     0.049 A 
ATOM     54  H   UNL A   1      40.645  30.103  32.716  1.00  0.00     0.167 HD
ATOM     55  C   UNL A   1      42.035  30.483  35.171  1.00  0.00     0.074 A 
ATOM     56  C   UNL A   1      42.402  30.989  36.479  1.00  0.00     0.031 C 
ATOM     57  C   UNL A   1      42.691  29.485  34.528  1.00  0.00     0.037 A 
BRANCH  44  58
ATOM     58  C   UNL A   1      40.288  27.982  29.030  1.00  0.00     0.064 A 
ATOM     59  C   UNL A   1      39.596  26.759  28.984  1.00  0.00     0.173 A 
ATOM     60  C   UNL A   1      41.014  28.363  27.892  1.00  0.00     0.173 A 
ATOM     61  F   UNL A   1      38.899  26.338  30.051  1.00  0.00    -0.203 F 
ATOM     62  C   UNL A   1      39.665  25.936  27.864  1.00  0.00     0.198 A 
ATOM     63  C   UNL A   1      41.048  27.554  26.759  1.00  0.00     0.198 A 
ATOM     64  F   UNL A   1      41.691  29.520  27.877  1.00  0.00    -0.203 F 
ATOM     65  F   UNL A   1      39.051  24.744  27.872  1.00  0.00    -0.200 F 
ATOM     66  C   UNL A   1      40.382  26.338  26.748  1.00  0.00     0.200 A 
ATOM     67  F   UNL A   1      41.731  27.950  25.675  1.00  0.00    -0.200 F 
ATOM     68  F   UNL A   1      40.442  25.547  25.668  1.00  0.00    -0.200 F 
ENDBRANCH  44  58
BRANCH  45  69
ATOM     69  C   UNL A   1      39.469  33.977  37.016  1.00  0.00     0.064 A 
ATOM     70  C   UNL A   1      40.066  35.247  37.041  1.00  0.00     0.173 A 
ATOM     71  C   UNL A   1      38.758  33.571  38.155  1.00  0.00     0.173 A 
ATOM     72  F   UNL A   1      40.768  35.677  35.983  1.00  0.00    -0.203 F 
ATOM     73  C   UNL A   1      39.977  36.063  38.167  1.00  0.00     0.198 A 
ATOM     74  C   UNL A   1      38.644  34.402  39.269  1.00  0.00     0.198 A 
ATOM     75  F   UNL A   1      38.159  32.371  38.181  1.00  0.00    -0.203 F 
ATOM     76  F   UNL A   1      40.599  37.251  38.180  1.00  0.00    -0.200 F 
ATOM     77  C   UNL A   1      39.263  35.642  39.277  1.00  0.00     0.200 A 
ATOM     78  F   UNL A   1      37.935  33.999  40.332  1.00  0.00    -0.200 F 
ATOM     79  F   UNL A   1      39.173  36.430  40.358  1.00  0.00    -0.200 F 
ENDBRANCH  45  69
BRANCH  57  80
ATOM     80  C   UNL A   1      43.896  28.904  35.209  1.00  0.00     0.064 A 
ATOM     81  C   UNL A   1      43.800  27.801  36.069  1.00  0.00     0.173 A 
ATOM     82  C   UNL A   1      45.171  29.434  34.960  1.00  0.00     0.173 A 
ATOM     83  F   UNL A   1      42.602  27.265  36.350  1.00  0.00    -0.203 F 
ATOM     84  C   UNL A   1      44.932  27.270  36.678  1.00  0.00     0.198 A 
ATOM     85  C   UNL A   1      46.305  28.878  35.542  1.00  0.00     0.198 A 
ATOM     86  F   UNL A   1      45.318  30.484  34.137  1.00  0.00    -0.203 F 
ATOM     87  F   UNL A   1      44.810  26.250  37.540  1.00  0.00    -0.200 F 
ATOM     88  C   UNL A   1      46.184  27.803  36.408  1.00  0.00     0.200 A 
ATOM     89  F   UNL A   1      47.515  29.382  35.265  1.00  0.00    -0.200 F 
ATOM     90  F   UNL A   1      47.274  27.283  36.989  1.00  0.00    -0.200 F 
ENDBRANCH  57  80
ENDBRANCH  31  32
ENDBRANCH  23  26
ENDBRANCH  21  22
ENDBRANCH  20  21
ENDBRANCH   1  20
TORSDOF 13
ENDMDL
