MODEL 1
REMARK VINA RESULT:     -14.8      0.000      0.000
REMARK SMILES COC(=O)c1ccc([C@H]2CC(=O)Nc3c(C(=O)NCCCNC(=O)c4ccc(-c5c6nc(c(-c7c(F)c(F)c(F)c(F)c7F)c7ccc([nH]7)c(-c7c(F)c(F)c(F)c(F)c7F)c7nc(c(-c8c(F)c(F)c(F)c(F)c8F)c8ccc5[nH]8)C=C7)C=C6)cc4)cn(-c4ccccc4)c32)cc1
REMARK SMILES IDX 19 1 18 2 16 3 17 4 15 6 9 7 10 8 96 9 11 10 14 11 89 12
REMARK SMILES IDX 12 13 13 14 88 15 8 17 5 18 6 19 98 20 7 21 97 22 3 23 4 24
REMARK SMILES IDX 2 25 1 26 90 27 91 28 95 29 92 30 94 31 93 32 20 33 21 34
REMARK SMILES IDX 22 35 23 36 24 38 25 39 26 40 87 41 27 42 86 43 28 44 29 45
REMARK SMILES IDX 30 46 80 47 31 48 85 49 79 50 81 51 32 52 84 53 78 54 77 55
REMARK SMILES IDX 33 57 65 58 45 59 64 60 46 61 49 62 63 63 82 64 47 65 48 66
REMARK SMILES IDX 62 68 83 69 50 70 34 71 35 72 43 73 36 74 37 75 41 76 44 77
REMARK SMILES IDX 38 78 39 79 42 80 40 81 66 82 67 83 75 84 68 85 69 86 73 87
REMARK SMILES IDX 76 88 70 89 71 90 74 91 72 92 51 93 52 94 60 95 53 96 54 97
REMARK SMILES IDX 58 98 61 99 55 100 56 101 59 102 57 103
REMARK H PARENT 18 5 13 16 22 37 81 56 49 67
REMARK Flexibility Score: inf
ROOT
ATOM      1  C   UNL A   1      35.735  21.141  25.459  1.00  0.00     0.118 C 
ENDROOT
BRANCH   1   2
ATOM      2  N   UNL A   1      34.604  20.613  24.728  1.00  0.00    -0.352 N 
ATOM      3  C   UNL A   1      33.437  21.144  24.248  1.00  0.00     0.254 C 
ATOM      4  O   UNL A   1      32.772  20.359  23.565  1.00  0.00    -0.269 OA
ATOM      5  H   UNL A   1      34.695  19.654  24.529  1.00  0.00     0.163 HD
BRANCH   3   6
ATOM      6  C   UNL A   1      32.936  22.505  24.505  1.00  0.00     0.081 A 
ATOM      7  C   UNL A   1      30.857  25.431  25.593  1.00  0.00     0.078 C 
ATOM      8  C   UNL A   1      29.711  24.622  26.237  1.00  0.00     0.115 C 
ATOM      9  C   UNL A   1      31.875  24.480  25.007  1.00  0.00     0.055 A 
ATOM     10  C   UNL A   1      30.165  23.375  26.934  1.00  0.00     0.225 C 
ATOM     11  C   UNL A   1      31.974  23.143  25.343  1.00  0.00     0.076 A 
ATOM     12  N   UNL A   1      32.929  24.765  24.162  1.00  0.00    -0.317 N 
ATOM     13  O   UNL A   1      29.562  22.902  27.896  1.00  0.00    -0.275 OA
ATOM     14  N   UNL A   1      31.203  22.690  26.379  1.00  0.00    -0.324 N 
ATOM     15  C   UNL A   1      33.456  23.562  23.753  1.00  0.00     0.107 A 
ATOM     16  H   UNL A   1      31.413  21.804  26.751  1.00  0.00     0.170 HD
BRANCH   7  17
ATOM     17  C   UNL A   1      30.165  26.437  24.671  1.00  0.00    -0.038 A 
ATOM     18  C   UNL A   1      28.893  28.485  23.194  1.00  0.00     0.060 A 
ATOM     19  C   UNL A   1      30.071  28.752  23.893  1.00  0.00     0.016 A 
ATOM     20  C   UNL A   1      28.353  27.194  23.227  1.00  0.00     0.016 A 
ATOM     21  C   UNL A   1      30.709  27.735  24.601  1.00  0.00     0.005 A 
ATOM     22  C   UNL A   1      28.969  26.190  23.984  1.00  0.00     0.005 A 
BRANCH  18  23
ATOM     23  C   UNL A   1      28.264  29.602  22.444  1.00  0.00     0.337 C 
ATOM     24  O   UNL A   1      28.585  29.912  21.308  1.00  0.00    -0.246 OA
BRANCH  23  25
ATOM     25  O   UNL A   1      27.320  30.214  23.200  1.00  0.00    -0.465 OA
ATOM     26  C   UNL A   1      27.624  31.575  23.505  1.00  0.00     0.282 C 
ENDBRANCH  23  25
ENDBRANCH  18  23
ENDBRANCH   7  17
BRANCH  12  27
ATOM     27  C   UNL A   1      33.393  26.036  23.748  1.00  0.00     0.045 A 
ATOM     28  C   UNL A   1      33.923  26.927  24.687  1.00  0.00     0.026 A 
ATOM     29  C   UNL A   1      33.268  26.412  22.405  1.00  0.00     0.026 A 
ATOM     30  C   UNL A   1      34.271  28.216  24.294  1.00  0.00     0.002 A 
ATOM     31  C   UNL A   1      33.587  27.717  22.029  1.00  0.00     0.002 A 
ATOM     32  C   UNL A   1      34.079  28.619  22.973  1.00  0.00     0.000 A 
ENDBRANCH  12  27
ENDBRANCH   3   6
ENDBRANCH   1   2
BRANCH   1  33
ATOM     33  C   UNL A   1      36.765  21.833  24.551  1.00  0.00     0.042 C 
BRANCH  33  34
ATOM     34  C   UNL A   1      37.779  22.655  25.324  1.00  0.00     0.118 C 
BRANCH  34  35
ATOM     35  N   UNL A   1      38.534  21.820  26.271  1.00  0.00    -0.352 N 
ATOM     36  C   UNL A   1      39.653  22.131  27.027  1.00  0.00     0.251 C 
ATOM     37  H   UNL A   1      38.193  20.904  26.385  1.00  0.00     0.163 HD
ATOM     38  O   UNL A   1      40.366  21.267  27.494  1.00  0.00    -0.269 OA
BRANCH  36  39
ATOM     39  C   UNL A   1      39.951  23.552  27.253  1.00  0.00     0.039 A 
ATOM     40  C   UNL A   1      38.955  24.534  27.237  1.00  0.00     0.014 A 
ATOM     41  C   UNL A   1      41.259  23.858  27.591  1.00  0.00     0.014 A 
ATOM     42  C   UNL A   1      39.288  25.819  27.659  1.00  0.00     0.010 A 
ATOM     43  C   UNL A   1      41.507  25.025  28.245  1.00  0.00     0.010 A 
ATOM     44  C   UNL A   1      40.568  26.044  28.184  1.00  0.00    -0.014 A 
BRANCH  44  45
ATOM     45  C   UNL A   1      40.963  27.311  28.776  1.00  0.00     0.031 A 
ATOM     46  C   UNL A   1      42.173  27.916  28.165  1.00  0.00     0.074 A 
ATOM     47  C   UNL A   1      40.125  27.991  29.591  1.00  0.00     0.049 A 
ATOM     48  N   UNL A   1      43.335  28.071  28.705  1.00  0.00    -0.248 NA
ATOM     49  C   UNL A   1      42.138  28.241  26.728  1.00  0.00     0.031 C 
ATOM     50  C   UNL A   1      38.749  27.639  29.976  1.00  0.00     0.029 A 
ATOM     51  N   UNL A   1      40.276  29.218  30.153  1.00  0.00    -0.354 N 
ATOM     52  C   UNL A   1      44.108  28.732  27.753  1.00  0.00     0.074 A 
ATOM     53  C   UNL A   1      43.409  28.583  26.506  1.00  0.00     0.031 C 
ATOM     54  C   UNL A   1      38.124  28.721  30.486  1.00  0.00     0.029 A 
ATOM     55  C   UNL A   1      39.099  29.780  30.639  1.00  0.00     0.049 A 
ATOM     56  H   UNL A   1      41.147  29.673  30.212  1.00  0.00     0.167 HD
ATOM     57  C   UNL A   1      45.080  29.605  28.144  1.00  0.00     0.037 A 
ATOM     58  C   UNL A   1      38.942  31.041  31.110  1.00  0.00     0.037 A 
ATOM     59  C   UNL A   1      45.384  29.418  29.547  1.00  0.00     0.049 A 
ATOM     60  C   UNL A   1      40.297  31.550  31.437  1.00  0.00     0.074 A 
ATOM     61  C   UNL A   1      45.839  28.372  30.325  1.00  0.00     0.029 A 
ATOM     62  N   UNL A   1      44.844  30.326  30.424  1.00  0.00    -0.354 N 
ATOM     63  N   UNL A   1      41.039  31.071  32.397  1.00  0.00    -0.248 NA
ATOM     64  C   UNL A   1      41.011  32.278  30.401  1.00  0.00     0.031 C 
ATOM     65  C   UNL A   1      45.142  28.497  31.565  1.00  0.00     0.029 A 
ATOM     66  C   UNL A   1      44.356  29.650  31.509  1.00  0.00     0.049 A 
ATOM     67  H   UNL A   1      44.812  31.302  30.295  1.00  0.00     0.167 HD
ATOM     68  C   UNL A   1      42.322  31.047  31.871  1.00  0.00     0.074 A 
ATOM     69  C   UNL A   1      42.259  31.899  30.686  1.00  0.00     0.031 C 
ATOM     70  C   UNL A   1      43.219  30.100  32.277  1.00  0.00     0.037 A 
BRANCH  57  71
ATOM     71  C   UNL A   1      45.407  30.914  27.438  1.00  0.00     0.064 A 
ATOM     72  C   UNL A   1      46.747  31.138  27.052  1.00  0.00     0.173 A 
ATOM     73  C   UNL A   1      44.585  32.062  27.432  1.00  0.00     0.173 A 
ATOM     74  F   UNL A   1      47.622  30.123  26.989  1.00  0.00    -0.203 F 
ATOM     75  C   UNL A   1      47.254  32.423  26.839  1.00  0.00     0.198 A 
ATOM     76  C   UNL A   1      45.085  33.338  27.169  1.00  0.00     0.198 A 
ATOM     77  F   UNL A   1      43.294  32.034  27.771  1.00  0.00    -0.203 F 
ATOM     78  F   UNL A   1      48.567  32.595  26.640  1.00  0.00    -0.200 F 
ATOM     79  C   UNL A   1      46.425  33.524  26.919  1.00  0.00     0.200 A 
ATOM     80  F   UNL A   1      44.262  34.393  27.254  1.00  0.00    -0.200 F 
ATOM     81  F   UNL A   1      46.920  34.763  26.801  1.00  0.00    -0.200 F 
ENDBRANCH  57  71
BRANCH  58  82
ATOM     82  C   UNL A   1      37.760  31.930  31.020  1.00  0.00     0.064 A 
ATOM     83  C   UNL A   1      37.397  32.524  29.801  1.00  0.00     0.173 A 
ATOM     84  C   UNL A   1      36.800  31.981  32.051  1.00  0.00     0.173 A 
ATOM     85  F   UNL A   1      38.236  32.484  28.756  1.00  0.00    -0.203 F 
ATOM     86  C   UNL A   1      36.137  33.104  29.611  1.00  0.00     0.198 A 
ATOM     87  C   UNL A   1      35.546  32.564  31.863  1.00  0.00     0.198 A 
ATOM     88  F   UNL A   1      37.024  31.378  33.227  1.00  0.00    -0.203 F 
ATOM     89  F   UNL A   1      35.804  33.600  28.412  1.00  0.00    -0.200 F 
ATOM     90  C   UNL A   1      35.209  33.112  30.638  1.00  0.00     0.200 A 
ATOM     91  F   UNL A   1      34.643  32.532  32.853  1.00  0.00    -0.200 F 
ATOM     92  F   UNL A   1      33.979  33.605  30.437  1.00  0.00    -0.200 F 
ENDBRANCH  58  82
BRANCH  70  93
ATOM     93  C   UNL A   1      42.890  29.316  33.517  1.00  0.00     0.064 A 
ATOM     94  C   UNL A   1      42.145  28.123  33.530  1.00  0.00     0.173 A 
ATOM     95  C   UNL A   1      43.469  29.726  34.725  1.00  0.00     0.173 A 
ATOM     96  F   UNL A   1      41.639  27.612  32.403  1.00  0.00    -0.203 F 
ATOM     97  C   UNL A   1      41.955  27.401  34.709  1.00  0.00     0.198 A 
ATOM     98  C   UNL A   1      43.308  28.985  35.891  1.00  0.00     0.198 A 
ATOM     99  F   UNL A   1      44.232  30.829  34.761  1.00  0.00    -0.203 F 
ATOM    100  F   UNL A   1      41.229  26.274  34.697  1.00  0.00    -0.200 F 
ATOM    101  C   UNL A   1      42.544  27.830  35.886  1.00  0.00     0.200 A 
ATOM    102  F   UNL A   1      43.920  29.379  37.017  1.00  0.00    -0.200 F 
ATOM    103  F   UNL A   1      42.395  27.117  37.011  1.00  0.00    -0.200 F 
ENDBRANCH  70  93
ENDBRANCH  44  45
ENDBRANCH  36  39
ENDBRANCH  34  35
ENDBRANCH  33  34
ENDBRANCH   1  33
TORSDOF 14
ENDMDL
MODEL 2
REMARK VINA RESULT:     -13.8      1.897      3.001
REMARK SMILES COC(=O)c1ccc([C@H]2CC(=O)Nc3c(C(=O)NCCCNC(=O)c4ccc(-c5c6nc(c(-c7c(F)c(F)c(F)c(F)c7F)c7ccc([nH]7)c(-c7c(F)c(F)c(F)c(F)c7F)c7nc(c(-c8c(F)c(F)c(F)c(F)c8F)c8ccc5[nH]8)C=C7)C=C6)cc4)cn(-c4ccccc4)c32)cc1
REMARK SMILES IDX 19 1 18 2 16 3 17 4 15 6 9 7 10 8 96 9 11 10 14 11 89 12
REMARK SMILES IDX 12 13 13 14 88 15 8 17 5 18 6 19 98 20 7 21 97 22 3 23 4 24
REMARK SMILES IDX 2 25 1 26 90 27 91 28 95 29 92 30 94 31 93 32 20 33 21 34
REMARK SMILES IDX 22 35 23 36 24 38 25 39 26 40 87 41 27 42 86 43 28 44 29 45
REMARK SMILES IDX 30 46 80 47 31 48 85 49 79 50 81 51 32 52 84 53 78 54 77 55
REMARK SMILES IDX 33 57 65 58 45 59 64 60 46 61 49 62 63 63 82 64 47 65 48 66
REMARK SMILES IDX 62 68 83 69 50 70 34 71 35 72 43 73 36 74 37 75 41 76 44 77
REMARK SMILES IDX 38 78 39 79 42 80 40 81 66 82 67 83 75 84 68 85 69 86 73 87
REMARK SMILES IDX 76 88 70 89 71 90 74 91 72 92 51 93 52 94 60 95 53 96 54 97
REMARK SMILES IDX 58 98 61 99 55 100 56 101 59 102 57 103
REMARK H PARENT 18 5 13 16 22 37 81 56 49 67
REMARK Flexibility Score: inf
ROOT
ATOM      1  C   UNL A   1      37.530  23.674  26.163  1.00  0.00     0.118 C 
ENDROOT
BRANCH   1   2
ATOM      2  N   UNL A   1      37.376  23.255  24.788  1.00  0.00    -0.352 N 
ATOM      3  C   UNL A   1      36.377  23.358  23.857  1.00  0.00     0.254 C 
ATOM      4  O   UNL A   1      36.693  22.953  22.734  1.00  0.00    -0.269 OA
ATOM      5  H   UNL A   1      38.171  22.789  24.442  1.00  0.00     0.163 HD
BRANCH   3   6
ATOM      6  C   UNL A   1      35.015  23.862  24.103  1.00  0.00     0.081 A 
ATOM      7  C   UNL A   1      31.319  24.481  23.935  1.00  0.00     0.078 C 
ATOM      8  C   UNL A   1      31.011  23.490  22.793  1.00  0.00     0.115 C 
ATOM      9  C   UNL A   1      32.805  24.481  24.213  1.00  0.00     0.055 A 
ATOM     10  C   UNL A   1      31.837  22.240  22.835  1.00  0.00     0.225 C 
ATOM     11  C   UNL A   1      33.672  23.483  23.809  1.00  0.00     0.076 A 
ATOM     12  N   UNL A   1      33.533  25.361  24.989  1.00  0.00    -0.317 N 
ATOM     13  O   UNL A   1      31.430  21.166  22.394  1.00  0.00    -0.275 OA
ATOM     14  N   UNL A   1      33.127  22.355  23.256  1.00  0.00    -0.324 N 
ATOM     15  C   UNL A   1      34.863  25.069  24.790  1.00  0.00     0.107 A 
ATOM     16  H   UNL A   1      33.711  21.569  23.153  1.00  0.00     0.170 HD
BRANCH   7  17
ATOM     17  C   UNL A   1      30.643  25.789  23.520  1.00  0.00    -0.038 A 
ATOM     18  C   UNL A   1      29.627  28.346  22.868  1.00  0.00     0.060 A 
ATOM     19  C   UNL A   1      30.930  27.995  22.507  1.00  0.00     0.016 A 
ATOM     20  C   UNL A   1      28.831  27.419  23.548  1.00  0.00     0.016 A 
ATOM     21  C   UNL A   1      31.420  26.726  22.810  1.00  0.00     0.005 A 
ATOM     22  C   UNL A   1      29.346  26.165  23.897  1.00  0.00     0.005 A 
BRANCH  18  23
ATOM     23  C   UNL A   1      29.152  29.706  22.507  1.00  0.00     0.337 C 
ATOM     24  O   UNL A   1      29.212  30.660  23.265  1.00  0.00    -0.246 OA
BRANCH  23  25
ATOM     25  O   UNL A   1      28.642  29.717  21.251  1.00  0.00    -0.465 OA
ATOM     26  C   UNL A   1      28.029  30.956  20.892  1.00  0.00     0.282 C 
ENDBRANCH  23  25
ENDBRANCH  18  23
ENDBRANCH   7  17
BRANCH  12  27
ATOM     27  C   UNL A   1      33.046  26.396  25.820  1.00  0.00     0.045 A 
ATOM     28  C   UNL A   1      31.877  26.204  26.563  1.00  0.00     0.026 A 
ATOM     29  C   UNL A   1      33.711  27.628  25.850  1.00  0.00     0.026 A 
ATOM     30  C   UNL A   1      31.339  27.264  27.290  1.00  0.00     0.002 A 
ATOM     31  C   UNL A   1      33.146  28.693  26.552  1.00  0.00     0.002 A 
ATOM     32  C   UNL A   1      31.959  28.513  27.263  1.00  0.00     0.000 A 
ENDBRANCH  12  27
ENDBRANCH   3   6
ENDBRANCH   1   2
BRANCH   1  33
ATOM     33  C   UNL A   1      38.875  24.368  26.431  1.00  0.00     0.042 C 
BRANCH  33  34
ATOM     34  C   UNL A   1      39.773  23.581  27.366  1.00  0.00     0.118 C 
BRANCH  34  35
ATOM     35  N   UNL A   1      41.004  23.148  26.687  1.00  0.00    -0.352 N 
ATOM     36  C   UNL A   1      42.018  23.908  26.126  1.00  0.00     0.251 C 
ATOM     37  H   UNL A   1      41.125  22.174  26.620  1.00  0.00     0.163 HD
ATOM     38  O   UNL A   1      42.787  23.442  25.310  1.00  0.00    -0.269 OA
BRANCH  36  39
ATOM     39  C   UNL A   1      42.140  25.308  26.556  1.00  0.00     0.039 A 
ATOM     40  C   UNL A   1      41.588  26.363  25.823  1.00  0.00     0.014 A 
ATOM     41  C   UNL A   1      42.740  25.522  27.786  1.00  0.00     0.014 A 
ATOM     42  C   UNL A   1      41.572  27.631  26.400  1.00  0.00     0.010 A 
ATOM     43  C   UNL A   1      42.483  26.685  28.443  1.00  0.00     0.010 A 
ATOM     44  C   UNL A   1      42.005  27.772  27.725  1.00  0.00    -0.014 A 
BRANCH  44  45
ATOM     45  C   UNL A   1      41.897  29.022  28.459  1.00  0.00     0.031 A 
ATOM     46  C   UNL A   1      42.941  30.020  28.116  1.00  0.00     0.074 A 
ATOM     47  C   UNL A   1      40.777  29.329  29.151  1.00  0.00     0.049 A 
ATOM     48  N   UNL A   1      43.903  30.443  28.865  1.00  0.00    -0.248 NA
ATOM     49  C   UNL A   1      43.028  30.483  26.720  1.00  0.00     0.031 C 
ATOM     50  C   UNL A   1      39.533  28.549  29.260  1.00  0.00     0.029 A 
ATOM     51  N   UNL A   1      40.457  30.474  29.809  1.00  0.00    -0.354 N 
ATOM     52  C   UNL A   1      44.572  31.406  28.112  1.00  0.00     0.074 A 
ATOM     53  C   UNL A   1      44.151  31.205  26.752  1.00  0.00     0.031 C 
ATOM     54  C   UNL A   1      38.536  29.337  29.716  1.00  0.00     0.029 A 
ATOM     55  C   UNL A   1      39.104  30.609  30.110  1.00  0.00     0.049 A 
ATOM     56  H   UNL A   1      41.126  31.153  30.053  1.00  0.00     0.167 HD
ATOM     57  C   UNL A   1      45.157  32.473  28.726  1.00  0.00     0.037 A 
ATOM     58  C   UNL A   1      38.499  31.706  30.625  1.00  0.00     0.037 A 
ATOM     59  C   UNL A   1      45.287  32.223  30.146  1.00  0.00     0.049 A 
ATOM     60  C   UNL A   1      39.565  32.546  31.222  1.00  0.00     0.074 A 
ATOM     61  C   UNL A   1      45.917  31.272  30.925  1.00  0.00     0.029 A 
ATOM     62  N   UNL A   1      44.367  32.826  30.968  1.00  0.00    -0.354 N 
ATOM     63  N   UNL A   1      40.263  32.197  32.267  1.00  0.00    -0.248 NA
ATOM     64  C   UNL A   1      40.171  33.565  30.380  1.00  0.00     0.031 C 
ATOM     65  C   UNL A   1      45.034  31.045  32.024  1.00  0.00     0.029 A 
ATOM     66  C   UNL A   1      43.951  31.917  31.901  1.00  0.00     0.049 A 
ATOM     67  H   UNL A   1      44.057  33.758  30.898  1.00  0.00     0.167 HD
ATOM     68  C   UNL A   1      41.556  32.609  31.981  1.00  0.00     0.074 A 
ATOM     69  C   UNL A   1      41.416  33.536  30.860  1.00  0.00     0.031 C 
ATOM     70  C   UNL A   1      42.628  31.924  32.480  1.00  0.00     0.037 A 
BRANCH  57  71
ATOM     71  C   UNL A   1      45.170  33.892  28.176  1.00  0.00     0.064 A 
ATOM     72  C   UNL A   1      46.403  34.583  28.161  1.00  0.00     0.173 A 
ATOM     73  C   UNL A   1      44.030  34.705  27.995  1.00  0.00     0.173 A 
ATOM     74  F   UNL A   1      47.561  33.921  28.293  1.00  0.00    -0.203 F 
ATOM     75  C   UNL A   1      46.472  35.978  28.132  1.00  0.00     0.198 A 
ATOM     76  C   UNL A   1      44.108  36.096  27.917  1.00  0.00     0.198 A 
ATOM     77  F   UNL A   1      42.786  34.222  27.985  1.00  0.00    -0.203 F 
ATOM     78  F   UNL A   1      47.655  36.588  28.288  1.00  0.00    -0.200 F 
ATOM     79  C   UNL A   1      45.322  36.734  28.032  1.00  0.00     0.200 A 
ATOM     80  F   UNL A   1      42.977  36.811  27.820  1.00  0.00    -0.200 F 
ATOM     81  F   UNL A   1      45.375  38.071  28.089  1.00  0.00    -0.200 F 
ENDBRANCH  57  71
BRANCH  58  82
ATOM     82  C   UNL A   1      37.129  32.216  30.380  1.00  0.00     0.064 A 
ATOM     83  C   UNL A   1      36.125  32.080  31.352  1.00  0.00     0.173 A 
ATOM     84  C   UNL A   1      36.855  33.098  29.316  1.00  0.00     0.173 A 
ATOM     85  F   UNL A   1      36.322  31.292  32.418  1.00  0.00    -0.203 F 
ATOM     86  C   UNL A   1      34.932  32.810  31.284  1.00  0.00     0.198 A 
ATOM     87  C   UNL A   1      35.663  33.822  29.247  1.00  0.00     0.198 A 
ATOM     88  F   UNL A   1      37.779  33.351  28.378  1.00  0.00    -0.203 F 
ATOM     89  F   UNL A   1      34.028  32.705  32.267  1.00  0.00    -0.200 F 
ATOM     90  C   UNL A   1      34.709  33.689  30.238  1.00  0.00     0.200 A 
ATOM     91  F   UNL A   1      35.474  34.698  28.249  1.00  0.00    -0.200 F 
ATOM     92  F   UNL A   1      33.598  34.439  30.209  1.00  0.00    -0.200 F 
ENDBRANCH  58  82
BRANCH  70  93
ATOM     93  C   UNL A   1      42.370  30.941  33.588  1.00  0.00     0.064 A 
ATOM     94  C   UNL A   1      42.292  31.280  34.951  1.00  0.00     0.173 A 
ATOM     95  C   UNL A   1      42.059  29.622  33.234  1.00  0.00     0.173 A 
ATOM     96  F   UNL A   1      42.481  32.538  35.362  1.00  0.00    -0.203 F 
ATOM     97  C   UNL A   1      41.960  30.328  35.915  1.00  0.00     0.198 A 
ATOM     98  C   UNL A   1      41.692  28.684  34.194  1.00  0.00     0.198 A 
ATOM     99  F   UNL A   1      42.067  29.255  31.944  1.00  0.00    -0.203 F 
ATOM    100  F   UNL A   1      41.906  30.673  37.209  1.00  0.00    -0.200 F 
ATOM    101  C   UNL A   1      41.653  29.033  35.534  1.00  0.00     0.200 A 
ATOM    102  F   UNL A   1      41.349  27.444  33.814  1.00  0.00    -0.200 F 
ATOM    103  F   UNL A   1      41.296  28.127  36.455  1.00  0.00    -0.200 F 
ENDBRANCH  70  93
ENDBRANCH  44  45
ENDBRANCH  36  39
ENDBRANCH  34  35
ENDBRANCH  33  34
ENDBRANCH   1  33
TORSDOF 14
ENDMDL
MODEL 3
REMARK VINA RESULT:     -13.6      1.849      2.717
REMARK SMILES COC(=O)c1ccc([C@H]2CC(=O)Nc3c(C(=O)NCCCNC(=O)c4ccc(-c5c6nc(c(-c7c(F)c(F)c(F)c(F)c7F)c7ccc([nH]7)c(-c7c(F)c(F)c(F)c(F)c7F)c7nc(c(-c8c(F)c(F)c(F)c(F)c8F)c8ccc5[nH]8)C=C7)C=C6)cc4)cn(-c4ccccc4)c32)cc1
REMARK SMILES IDX 19 1 18 2 16 3 17 4 15 6 9 7 10 8 96 9 11 10 14 11 89 12
REMARK SMILES IDX 12 13 13 14 88 15 8 17 5 18 6 19 98 20 7 21 97 22 3 23 4 24
REMARK SMILES IDX 2 25 1 26 90 27 91 28 95 29 92 30 94 31 93 32 20 33 21 34
REMARK SMILES IDX 22 35 23 36 24 38 25 39 26 40 87 41 27 42 86 43 28 44 29 45
REMARK SMILES IDX 30 46 80 47 31 48 85 49 79 50 81 51 32 52 84 53 78 54 77 55
REMARK SMILES IDX 33 57 65 58 45 59 64 60 46 61 49 62 63 63 82 64 47 65 48 66
REMARK SMILES IDX 62 68 83 69 50 70 34 71 35 72 43 73 36 74 37 75 41 76 44 77
REMARK SMILES IDX 38 78 39 79 42 80 40 81 66 82 67 83 75 84 68 85 69 86 73 87
REMARK SMILES IDX 76 88 70 89 71 90 74 91 72 92 51 93 52 94 60 95 53 96 54 97
REMARK SMILES IDX 58 98 61 99 55 100 56 101 59 102 57 103
REMARK H PARENT 18 5 13 16 22 37 81 56 49 67
REMARK Flexibility Score: inf
ROOT
ATOM      1  C   UNL A   1      37.563  23.422  26.164  1.00  0.00     0.118 C 
ENDROOT
BRANCH   1   2
ATOM      2  N   UNL A   1      37.441  23.123  24.754  1.00  0.00    -0.352 N 
ATOM      3  C   UNL A   1      36.472  23.329  23.809  1.00  0.00     0.254 C 
ATOM      4  O   UNL A   1      36.813  23.013  22.664  1.00  0.00    -0.269 OA
ATOM      5  H   UNL A   1      38.235  22.669  24.392  1.00  0.00     0.163 HD
BRANCH   3   6
ATOM      6  C   UNL A   1      35.115  23.844  24.059  1.00  0.00     0.081 A 
ATOM      7  C   UNL A   1      31.418  24.463  23.930  1.00  0.00     0.078 C 
ATOM      8  C   UNL A   1      31.090  23.430  22.832  1.00  0.00     0.115 C 
ATOM      9  C   UNL A   1      32.908  24.470  24.183  1.00  0.00     0.055 A 
ATOM     10  C   UNL A   1      31.915  22.181  22.906  1.00  0.00     0.225 C 
ATOM     11  C   UNL A   1      33.767  23.456  23.801  1.00  0.00     0.076 A 
ATOM     12  N   UNL A   1      33.651  25.377  24.913  1.00  0.00    -0.317 N 
ATOM     13  O   UNL A   1      31.499  21.093  22.512  1.00  0.00    -0.275 OA
ATOM     14  N   UNL A   1      33.212  22.310  23.300  1.00  0.00    -0.324 N 
ATOM     15  C   UNL A   1      34.976  25.077  24.703  1.00  0.00     0.107 A 
ATOM     16  H   UNL A   1      33.793  21.520  23.217  1.00  0.00     0.170 HD
BRANCH   7  17
ATOM     17  C   UNL A   1      30.736  25.756  23.479  1.00  0.00    -0.038 A 
ATOM     18  C   UNL A   1      29.722  28.286  22.727  1.00  0.00     0.060 A 
ATOM     19  C   UNL A   1      30.979  27.873  22.281  1.00  0.00     0.016 A 
ATOM     20  C   UNL A   1      28.970  27.435  23.543  1.00  0.00     0.016 A 
ATOM     21  C   UNL A   1      31.467  26.615  22.634  1.00  0.00     0.005 A 
ATOM     22  C   UNL A   1      29.487  26.195  23.939  1.00  0.00     0.005 A 
BRANCH  18  23
ATOM     23  C   UNL A   1      29.246  29.629  22.308  1.00  0.00     0.337 C 
ATOM     24  O   UNL A   1      29.189  29.987  21.143  1.00  0.00    -0.246 OA
BRANCH  23  25
ATOM     25  O   UNL A   1      28.913  30.377  23.389  1.00  0.00    -0.465 OA
ATOM     26  C   UNL A   1      27.654  31.038  23.262  1.00  0.00     0.282 C 
ENDBRANCH  23  25
ENDBRANCH  18  23
ENDBRANCH   7  17
BRANCH  12  27
ATOM     27  C   UNL A   1      33.179  26.444  25.714  1.00  0.00     0.045 A 
ATOM     28  C   UNL A   1      33.845  27.673  25.704  1.00  0.00     0.026 A 
ATOM     29  C   UNL A   1      32.077  26.241  26.554  1.00  0.00     0.026 A 
ATOM     30  C   UNL A   1      33.446  28.681  26.579  1.00  0.00     0.002 A 
ATOM     31  C   UNL A   1      31.708  27.243  27.451  1.00  0.00     0.002 A 
ATOM     32  C   UNL A   1      32.396  28.457  27.468  1.00  0.00     0.000 A 
ENDBRANCH  12  27
ENDBRANCH   3   6
ENDBRANCH   1   2
BRANCH   1  33
ATOM     33  C   UNL A   1      38.704  24.405  26.471  1.00  0.00     0.042 C 
BRANCH  33  34
ATOM     34  C   UNL A   1      39.792  23.800  27.338  1.00  0.00     0.118 C 
BRANCH  34  35
ATOM     35  N   UNL A   1      40.959  23.405  26.534  1.00  0.00    -0.352 N 
ATOM     36  C   UNL A   1      41.925  24.194  25.932  1.00  0.00     0.251 C 
ATOM     37  H   UNL A   1      41.069  22.436  26.404  1.00  0.00     0.163 HD
ATOM     38  O   UNL A   1      42.620  23.773  25.029  1.00  0.00    -0.269 OA
BRANCH  36  39
ATOM     39  C   UNL A   1      42.090  25.569  26.426  1.00  0.00     0.039 A 
ATOM     40  C   UNL A   1      41.479  26.662  25.805  1.00  0.00     0.014 A 
ATOM     41  C   UNL A   1      42.798  25.714  27.607  1.00  0.00     0.014 A 
ATOM     42  C   UNL A   1      41.519  27.896  26.450  1.00  0.00     0.010 A 
ATOM     43  C   UNL A   1      42.605  26.839  28.348  1.00  0.00     0.010 A 
ATOM     44  C   UNL A   1      42.069  27.963  27.737  1.00  0.00    -0.014 A 
BRANCH  44  45
ATOM     45  C   UNL A   1      42.033  29.171  28.545  1.00  0.00     0.031 A 
ATOM     46  C   UNL A   1      43.166  30.098  28.305  1.00  0.00     0.074 A 
ATOM     47  C   UNL A   1      40.913  29.527  29.216  1.00  0.00     0.049 A 
ATOM     48  N   UNL A   1      44.127  30.394  29.113  1.00  0.00    -0.248 NA
ATOM     49  C   UNL A   1      43.347  30.638  26.946  1.00  0.00     0.031 C 
ATOM     50  C   UNL A   1      39.608  28.847  29.229  1.00  0.00     0.029 A 
ATOM     51  N   UNL A   1      40.659  30.651  29.934  1.00  0.00    -0.354 N 
ATOM     52  C   UNL A   1      44.901  31.343  28.448  1.00  0.00     0.074 A 
ATOM     53  C   UNL A   1      44.521  31.261  27.064  1.00  0.00     0.031 C 
ATOM     54  C   UNL A   1      38.659  29.684  29.700  1.00  0.00     0.029 A 
ATOM     55  C   UNL A   1      39.311  30.879  30.195  1.00  0.00     0.049 A 
ATOM     56  H   UNL A   1      41.370  31.257  30.245  1.00  0.00     0.167 HD
ATOM     57  C   UNL A   1      45.545  32.319  29.151  1.00  0.00     0.037 A 
ATOM     58  C   UNL A   1      38.774  31.988  30.757  1.00  0.00     0.037 A 
ATOM     59  C   UNL A   1      45.596  31.972  30.555  1.00  0.00     0.049 A 
ATOM     60  C   UNL A   1      39.880  32.699  31.445  1.00  0.00     0.074 A 
ATOM     61  C   UNL A   1      46.115  30.926  31.293  1.00  0.00     0.029 A 
ATOM     62  N   UNL A   1      44.695  32.597  31.381  1.00  0.00    -0.354 N 
ATOM     63  N   UNL A   1      40.504  32.231  32.490  1.00  0.00    -0.248 NA
ATOM     64  C   UNL A   1      40.598  33.715  30.692  1.00  0.00     0.031 C 
ATOM     65  C   UNL A   1      45.173  30.706  32.343  1.00  0.00     0.029 A 
ATOM     66  C   UNL A   1      44.169  31.670  32.238  1.00  0.00     0.049 A 
ATOM     67  H   UNL A   1      44.464  33.554  31.360  1.00  0.00     0.167 HD
ATOM     68  C   UNL A   1      41.836  32.551  32.277  1.00  0.00     0.074 A 
ATOM     69  C   UNL A   1      41.817  33.554  31.214  1.00  0.00     0.031 C 
ATOM     70  C   UNL A   1      42.829  31.751  32.768  1.00  0.00     0.037 A 
BRANCH  57  71
ATOM     71  C   UNL A   1      45.694  33.763  28.694  1.00  0.00     0.064 A 
ATOM     72  C   UNL A   1      44.541  34.426  28.216  1.00  0.00     0.173 A 
ATOM     73  C   UNL A   1      46.917  34.395  28.381  1.00  0.00     0.173 A 
ATOM     74  F   UNL A   1      43.317  33.942  28.472  1.00  0.00    -0.203 F 
ATOM     75  C   UNL A   1      44.619  35.531  27.364  1.00  0.00     0.198 A 
ATOM     76  C   UNL A   1      46.987  35.529  27.571  1.00  0.00     0.198 A 
ATOM     77  F   UNL A   1      48.103  33.907  28.750  1.00  0.00    -0.203 F 
ATOM     78  F   UNL A   1      43.503  36.019  26.806  1.00  0.00    -0.200 F 
ATOM     79  C   UNL A   1      45.844  36.068  27.026  1.00  0.00     0.200 A 
ATOM     80  F   UNL A   1      48.188  36.033  27.253  1.00  0.00    -0.200 F 
ATOM     81  F   UNL A   1      45.930  37.072  26.144  1.00  0.00    -0.200 F 
ENDBRANCH  57  71
BRANCH  58  82
ATOM     82  C   UNL A   1      37.461  32.623  30.497  1.00  0.00     0.064 A 
ATOM     83  C   UNL A   1      37.176  33.204  29.251  1.00  0.00     0.173 A 
ATOM     84  C   UNL A   1      36.364  32.418  31.357  1.00  0.00     0.173 A 
ATOM     85  F   UNL A   1      38.157  33.397  28.358  1.00  0.00    -0.203 F 
ATOM     86  C   UNL A   1      35.868  33.528  28.872  1.00  0.00     0.198 A 
ATOM     87  C   UNL A   1      35.060  32.745  30.981  1.00  0.00     0.198 A 
ATOM     88  F   UNL A   1      36.523  31.803  32.538  1.00  0.00    -0.203 F 
ATOM     89  F   UNL A   1      35.628  34.017  27.648  1.00  0.00    -0.200 F 
ATOM     90  C   UNL A   1      34.810  33.286  29.733  1.00  0.00     0.200 A 
ATOM     91  F   UNL A   1      34.040  32.472  31.807  1.00  0.00    -0.200 F 
ATOM     92  F   UNL A   1      33.551  33.532  29.345  1.00  0.00    -0.200 F 
ENDBRANCH  58  82
BRANCH  70  93
ATOM     93  C   UNL A   1      42.448  30.726  33.801  1.00  0.00     0.064 A 
ATOM     94  C   UNL A   1      42.035  29.414  33.506  1.00  0.00     0.173 A 
ATOM     95  C   UNL A   1      42.638  31.052  35.149  1.00  0.00     0.173 A 
ATOM     96  F   UNL A   1      41.921  28.994  32.241  1.00  0.00    -0.203 F 
ATOM     97  C   UNL A   1      41.784  28.490  34.519  1.00  0.00     0.198 A 
ATOM     98  C   UNL A   1      42.422  30.117  36.157  1.00  0.00     0.198 A 
ATOM     99  F   UNL A   1      43.080  32.273  35.487  1.00  0.00    -0.203 F 
ATOM    100  F   UNL A   1      41.378  27.249  34.212  1.00  0.00    -0.200 F 
ATOM    101  C   UNL A   1      41.985  28.841  35.843  1.00  0.00     0.200 A 
ATOM    102  F   UNL A   1      42.665  30.448  37.433  1.00  0.00    -0.200 F 
ATOM    103  F   UNL A   1      41.782  27.941  36.816  1.00  0.00    -0.200 F 
ENDBRANCH  70  93
ENDBRANCH  44  45
ENDBRANCH  36  39
ENDBRANCH  34  35
ENDBRANCH  33  34
ENDBRANCH   1  33
TORSDOF 14
ENDMDL
