MODEL 1
REMARK VINA RESULT:     -12.6      0.000      0.000
REMARK SMILES Cc1cc(=O)n(Cc2cc(C(=O)NCCCNC(=O)c3ccc(-c4c5nc(c(-c6c(F)c(F)c(F)c(F)c6F)c6ccc([nH]6)c(-c6c(F)c(F)c(F)c(F)c6F)c6nc(c(-c7c(F)c(F)c(F)c(F)c7F)c7ccc4[nH]7)C=C6)C=C5)cc3)oc2C)cc1[N+](=O)[O-]
REMARK SMILES IDX 14 1 13 2 11 3 12 4 10 6 8 7 9 8 84 9 83 10 85 11 7 12 6 13
REMARK SMILES IDX 1 14 2 15 3 16 87 17 4 18 86 19 5 20 88 21 89 22 90 23 15 24
REMARK SMILES IDX 16 25 17 26 18 27 19 29 20 30 21 31 82 32 22 33 81 34 23 35
REMARK SMILES IDX 24 36 25 37 75 38 26 39 80 40 74 41 76 42 27 43 79 44 73 45
REMARK SMILES IDX 72 46 28 48 60 49 40 50 59 51 41 52 44 53 58 54 77 55 42 56
REMARK SMILES IDX 43 57 57 59 78 60 45 61 29 62 30 63 38 64 31 65 32 66 36 67
REMARK SMILES IDX 39 68 33 69 34 70 37 71 35 72 61 73 62 74 70 75 63 76 64 77
REMARK SMILES IDX 68 78 71 79 65 80 66 81 69 82 67 83 46 84 47 85 55 86 48 87
REMARK SMILES IDX 49 88 53 89 56 90 50 91 51 92 54 93 52 94
REMARK H PARENT 13 5 17 28 76 47 44 58
REMARK Flexibility Score: inf
ROOT
ATOM      1  C   UNL A   1      37.402  21.081  24.522  1.00  0.00     0.118 C 
ENDROOT
BRANCH   1   2
ATOM      2  N   UNL A   1      37.986  22.274  25.109  1.00  0.00    -0.349 N 
ATOM      3  C   UNL A   1      37.410  23.384  25.686  1.00  0.00     0.287 C 
ATOM      4  O   UNL A   1      38.202  24.196  26.179  1.00  0.00    -0.266 OA
ATOM      5  H   UNL A   1      38.970  22.293  25.092  1.00  0.00     0.163 HD
BRANCH   3   6
ATOM      6  C   UNL A   1      35.972  23.551  25.734  1.00  0.00     0.191 A 
ATOM      7  C   UNL A   1      33.742  23.860  25.420  1.00  0.00     0.014 A 
ATOM      8  C   UNL A   1      35.045  24.222  24.963  1.00  0.00     0.062 A 
ATOM      9  C   UNL A   1      33.963  23.143  26.581  1.00  0.00     0.106 A 
ATOM     10  O   UNL A   1      35.299  22.941  26.762  1.00  0.00    -0.456 OA
ATOM     11  C   UNL A   1      33.097  22.569  27.631  1.00  0.00     0.088 C 
BRANCH   7  12
ATOM     12  C   UNL A   1      32.451  24.233  24.762  1.00  0.00     0.164 C 
BRANCH  12  13
ATOM     13  N   UNL A   1      32.192  25.666  24.974  1.00  0.00    -0.304 N 
ATOM     14  C   UNL A   1      31.746  29.888  25.747  1.00  0.00     0.052 C 
ATOM     15  C   UNL A   1      31.825  28.420  25.430  1.00  0.00     0.034 A 
ATOM     16  C   UNL A   1      31.408  27.525  26.348  1.00  0.00     0.082 A 
ATOM     17  C   UNL A   1      32.392  27.916  24.178  1.00  0.00     0.288 A 
ATOM     18  C   UNL A   1      31.520  26.058  26.131  1.00  0.00     0.251 A 
ATOM     19  C   UNL A   1      32.588  26.593  24.011  1.00  0.00     0.175 A 
ATOM     20  O   UNL A   1      31.048  25.302  26.973  1.00  0.00    -0.269 OA
BRANCH  17  21
ATOM     21  N   UNL A   1      32.748  28.773  23.029  1.00  0.00     0.064 N 
ATOM     22  O   UNL A   1      33.950  28.930  22.769  1.00  0.00    -0.258 OA
ATOM     23  O   UNL A   1      31.831  29.276  22.368  1.00  0.00    -0.258 OA
ENDBRANCH  17  21
ENDBRANCH  12  13
ENDBRANCH   7  12
ENDBRANCH   3   6
ENDBRANCH   1   2
BRANCH   1  24
ATOM     24  C   UNL A   1      38.107  19.817  25.005  1.00  0.00     0.042 C 
BRANCH  24  25
ATOM     25  C   UNL A   1      39.254  20.101  25.972  1.00  0.00     0.118 C 
BRANCH  25  26
ATOM     26  N   UNL A   1      40.316  19.100  25.902  1.00  0.00    -0.352 N 
ATOM     27  C   UNL A   1      41.677  19.225  26.047  1.00  0.00     0.251 C 
ATOM     28  H   UNL A   1      40.005  18.184  25.721  1.00  0.00     0.163 HD
ATOM     29  O   UNL A   1      42.406  18.275  25.773  1.00  0.00    -0.269 OA
BRANCH  27  30
ATOM     30  C   UNL A   1      42.274  20.500  26.500  1.00  0.00     0.039 A 
ATOM     31  C   UNL A   1      42.292  20.841  27.851  1.00  0.00     0.014 A 
ATOM     32  C   UNL A   1      42.834  21.369  25.557  1.00  0.00     0.014 A 
ATOM     33  C   UNL A   1      42.677  22.121  28.234  1.00  0.00     0.010 A 
ATOM     34  C   UNL A   1      43.323  22.616  25.960  1.00  0.00     0.010 A 
ATOM     35  C   UNL A   1      43.192  23.029  27.293  1.00  0.00    -0.014 A 
BRANCH  35  36
ATOM     36  C   UNL A   1      43.563  24.398  27.744  1.00  0.00     0.031 A 
ATOM     37  C   UNL A   1      44.999  24.854  27.730  1.00  0.00     0.074 A 
ATOM     38  C   UNL A   1      42.587  25.265  28.080  1.00  0.00     0.049 A 
ATOM     39  N   UNL A   1      45.489  26.043  27.986  1.00  0.00    -0.248 NA
ATOM     40  C   UNL A   1      46.022  23.852  27.392  1.00  0.00     0.031 C 
ATOM     41  C   UNL A   1      41.161  24.940  28.135  1.00  0.00     0.029 A 
ATOM     42  N   UNL A   1      42.636  26.601  28.395  1.00  0.00    -0.354 N 
ATOM     43  C   UNL A   1      46.866  25.928  27.844  1.00  0.00     0.074 A 
ATOM     44  C   UNL A   1      47.144  24.545  27.529  1.00  0.00     0.031 C 
ATOM     45  C   UNL A   1      40.465  26.057  28.389  1.00  0.00     0.029 A 
ATOM     46  C   UNL A   1      41.397  27.164  28.579  1.00  0.00     0.049 A 
ATOM     47  H   UNL A   1      43.477  27.105  28.480  1.00  0.00     0.167 HD
ATOM     48  C   UNL A   1      47.809  26.895  27.942  1.00  0.00     0.037 A 
ATOM     49  C   UNL A   1      41.044  28.432  28.872  1.00  0.00     0.037 A 
ATOM     50  C   UNL A   1      47.528  28.276  28.233  1.00  0.00     0.049 A 
ATOM     51  C   UNL A   1      42.117  29.473  29.026  1.00  0.00     0.074 A 
ATOM     52  C   UNL A   1      48.416  29.334  28.323  1.00  0.00     0.029 A 
ATOM     53  N   UNL A   1      46.265  28.792  28.483  1.00  0.00    -0.354 N 
ATOM     54  N   UNL A   1      43.411  29.358  28.847  1.00  0.00    -0.248 NA
ATOM     55  C   UNL A   1      41.685  30.819  29.430  1.00  0.00     0.031 C 
ATOM     56  C   UNL A   1      47.699  30.477  28.682  1.00  0.00     0.029 A 
ATOM     57  C   UNL A   1      46.355  30.146  28.759  1.00  0.00     0.049 A 
ATOM     58  H   UNL A   1      45.428  28.273  28.466  1.00  0.00     0.167 HD
ATOM     59  C   UNL A   1      43.944  30.614  29.100  1.00  0.00     0.074 A 
ATOM     60  C   UNL A   1      42.834  31.483  29.426  1.00  0.00     0.031 C 
ATOM     61  C   UNL A   1      45.241  31.005  29.072  1.00  0.00     0.037 A 
BRANCH  48  62
ATOM     62  C   UNL A   1      49.245  26.506  27.727  1.00  0.00     0.064 A 
ATOM     63  C   UNL A   1      49.790  26.395  26.439  1.00  0.00     0.173 A 
ATOM     64  C   UNL A   1      50.107  26.329  28.821  1.00  0.00     0.173 A 
ATOM     65  F   UNL A   1      49.008  26.548  25.359  1.00  0.00    -0.203 F 
ATOM     66  C   UNL A   1      51.140  26.107  26.254  1.00  0.00     0.198 A 
ATOM     67  C   UNL A   1      51.463  26.072  28.632  1.00  0.00     0.198 A 
ATOM     68  F   UNL A   1      49.641  26.435  30.074  1.00  0.00    -0.203 F 
ATOM     69  F   UNL A   1      51.631  25.973  25.014  1.00  0.00    -0.200 F 
ATOM     70  C   UNL A   1      51.977  25.957  27.350  1.00  0.00     0.200 A 
ATOM     71  F   UNL A   1      52.274  25.946  29.692  1.00  0.00    -0.200 F 
ATOM     72  F   UNL A   1      53.280  25.701  27.169  1.00  0.00    -0.200 F 
ENDBRANCH  48  62
BRANCH  49  73
ATOM     73  C   UNL A   1      39.606  28.778  29.021  1.00  0.00     0.064 A 
ATOM     74  C   UNL A   1      38.962  28.673  30.260  1.00  0.00     0.173 A 
ATOM     75  C   UNL A   1      38.855  29.252  27.934  1.00  0.00     0.173 A 
ATOM     76  F   UNL A   1      39.630  28.206  31.325  1.00  0.00    -0.203 F 
ATOM     77  C   UNL A   1      37.621  29.024  30.408  1.00  0.00     0.198 A 
ATOM     78  C   UNL A   1      37.524  29.633  28.090  1.00  0.00     0.198 A 
ATOM     79  F   UNL A   1      39.424  29.375  26.726  1.00  0.00    -0.203 F 
ATOM     80  F   UNL A   1      37.020  28.882  31.596  1.00  0.00    -0.200 F 
ATOM     81  C   UNL A   1      36.907  29.513  29.324  1.00  0.00     0.200 A 
ATOM     82  F   UNL A   1      36.844  30.124  27.045  1.00  0.00    -0.200 F 
ATOM     83  F   UNL A   1      35.622  29.867  29.470  1.00  0.00    -0.200 F 
ENDBRANCH  49  73
BRANCH  61  84
ATOM     84  C   UNL A   1      45.549  32.438  29.390  1.00  0.00     0.064 A 
ATOM     85  C   UNL A   1      45.492  33.432  28.404  1.00  0.00     0.173 A 
ATOM     86  C   UNL A   1      45.794  32.836  30.714  1.00  0.00     0.173 A 
ATOM     87  F   UNL A   1      45.274  33.101  27.123  1.00  0.00    -0.203 F 
ATOM     88  C   UNL A   1      45.668  34.774  28.731  1.00  0.00     0.198 A 
ATOM     89  C   UNL A   1      45.940  34.181  31.042  1.00  0.00     0.198 A 
ATOM     90  F   UNL A   1      45.850  31.923  31.695  1.00  0.00    -0.203 F 
ATOM     91  F   UNL A   1      45.629  35.707  27.769  1.00  0.00    -0.200 F 
ATOM     92  C   UNL A   1      45.877  35.149  30.051  1.00  0.00     0.200 A 
ATOM     93  F   UNL A   1      46.123  34.542  32.320  1.00  0.00    -0.200 F 
ATOM     94  F   UNL A   1      46.016  36.443  30.367  1.00  0.00    -0.200 F 
ENDBRANCH  61  84
ENDBRANCH  35  36
ENDBRANCH  27  30
ENDBRANCH  25  26
ENDBRANCH  24  25
ENDBRANCH   1  24
TORSDOF 13
ENDMDL
MODEL 2
REMARK VINA RESULT:     -12.5      5.248     10.757
REMARK SMILES Cc1cc(=O)n(Cc2cc(C(=O)NCCCNC(=O)c3ccc(-c4c5nc(c(-c6c(F)c(F)c(F)c(F)c6F)c6ccc([nH]6)c(-c6c(F)c(F)c(F)c(F)c6F)c6nc(c(-c7c(F)c(F)c(F)c(F)c7F)c7ccc4[nH]7)C=C6)C=C5)cc3)oc2C)cc1[N+](=O)[O-]
REMARK SMILES IDX 14 1 13 2 11 3 12 4 10 6 8 7 9 8 84 9 83 10 85 11 7 12 6 13
REMARK SMILES IDX 1 14 2 15 3 16 87 17 4 18 86 19 5 20 88 21 89 22 90 23 15 24
REMARK SMILES IDX 16 25 17 26 18 27 19 29 20 30 21 31 82 32 22 33 81 34 23 35
REMARK SMILES IDX 24 36 25 37 75 38 26 39 80 40 74 41 76 42 27 43 79 44 73 45
REMARK SMILES IDX 72 46 28 48 60 49 40 50 59 51 41 52 44 53 58 54 77 55 42 56
REMARK SMILES IDX 43 57 57 59 78 60 45 61 29 62 30 63 38 64 31 65 32 66 36 67
REMARK SMILES IDX 39 68 33 69 34 70 37 71 35 72 61 73 62 74 70 75 63 76 64 77
REMARK SMILES IDX 68 78 71 79 65 80 66 81 69 82 67 83 46 84 47 85 55 86 48 87
REMARK SMILES IDX 49 88 53 89 56 90 50 91 51 92 54 93 52 94
REMARK H PARENT 13 5 17 28 76 47 44 58
REMARK Flexibility Score: inf
ROOT
ATOM      1  C   UNL A   1      31.785  30.554  26.819  1.00  0.00     0.118 C 
ENDROOT
BRANCH   1   2
ATOM      2  N   UNL A   1      33.076  30.196  27.378  1.00  0.00    -0.349 N 
ATOM      3  C   UNL A   1      33.973  29.205  27.045  1.00  0.00     0.287 C 
ATOM      4  O   UNL A   1      35.040  29.225  27.669  1.00  0.00    -0.266 OA
ATOM      5  H   UNL A   1      33.362  30.763  28.131  1.00  0.00     0.163 HD
BRANCH   3   6
ATOM      6  C   UNL A   1      33.681  28.240  26.006  1.00  0.00     0.191 A 
ATOM      7  C   UNL A   1      32.963  26.576  24.632  1.00  0.00     0.014 A 
ATOM      8  C   UNL A   1      33.215  26.940  25.989  1.00  0.00     0.062 A 
ATOM      9  C   UNL A   1      33.489  27.615  23.886  1.00  0.00     0.106 A 
ATOM     10  O   UNL A   1      33.903  28.621  24.707  1.00  0.00    -0.456 OA
ATOM     11  C   UNL A   1      33.692  27.863  22.444  1.00  0.00     0.088 C 
BRANCH   7  12
ATOM     12  C   UNL A   1      32.301  25.315  24.175  1.00  0.00     0.164 C 
BRANCH  12  13
ATOM     13  N   UNL A   1      33.247  24.195  24.301  1.00  0.00    -0.304 N 
ATOM     14  C   UNL A   1      36.236  21.129  24.832  1.00  0.00     0.052 C 
ATOM     15  C   UNL A   1      35.139  22.134  24.617  1.00  0.00     0.034 A 
ATOM     16  C   UNL A   1      35.152  22.893  23.504  1.00  0.00     0.082 A 
ATOM     17  C   UNL A   1      34.077  22.361  25.599  1.00  0.00     0.288 A 
ATOM     18  C   UNL A   1      34.139  23.953  23.257  1.00  0.00     0.251 A 
ATOM     19  C   UNL A   1      33.213  23.383  25.434  1.00  0.00     0.175 A 
ATOM     20  O   UNL A   1      34.162  24.553  22.187  1.00  0.00    -0.269 OA
BRANCH  17  21
ATOM     21  N   UNL A   1      33.852  21.509  26.784  1.00  0.00     0.064 N 
ATOM     22  O   UNL A   1      33.453  20.350  26.601  1.00  0.00    -0.258 OA
ATOM     23  O   UNL A   1      34.092  21.984  27.901  1.00  0.00    -0.258 OA
ENDBRANCH  17  21
ENDBRANCH  12  13
ENDBRANCH   7  12
ENDBRANCH   3   6
ENDBRANCH   1   2
BRANCH   1  24
ATOM     24  C   UNL A   1      31.548  32.060  26.876  1.00  0.00     0.042 C 
BRANCH  24  25
ATOM     25  C   UNL A   1      32.801  32.852  27.242  1.00  0.00     0.118 C 
BRANCH  25  26
ATOM     26  N   UNL A   1      32.504  34.211  27.688  1.00  0.00    -0.352 N 
ATOM     27  C   UNL A   1      33.062  34.967  28.691  1.00  0.00     0.251 C 
ATOM     28  H   UNL A   1      31.785  34.658  27.187  1.00  0.00     0.163 HD
ATOM     29  O   UNL A   1      32.537  36.030  29.012  1.00  0.00    -0.269 OA
BRANCH  27  30
ATOM     30  C   UNL A   1      34.269  34.501  29.406  1.00  0.00     0.039 A 
ATOM     31  C   UNL A   1      35.542  34.723  28.884  1.00  0.00     0.014 A 
ATOM     32  C   UNL A   1      34.127  33.834  30.628  1.00  0.00     0.014 A 
ATOM     33  C   UNL A   1      36.644  34.110  29.468  1.00  0.00     0.010 A 
ATOM     34  C   UNL A   1      35.253  33.309  31.274  1.00  0.00     0.010 A 
ATOM     35  C   UNL A   1      36.514  33.389  30.667  1.00  0.00    -0.014 A 
BRANCH  35  36
ATOM     36  C   UNL A   1      37.716  32.724  31.240  1.00  0.00     0.031 A 
ATOM     37  C   UNL A   1      38.204  33.064  32.624  1.00  0.00     0.074 A 
ATOM     38  C   UNL A   1      38.317  31.740  30.541  1.00  0.00     0.049 A 
ATOM     39  N   UNL A   1      39.166  32.509  33.320  1.00  0.00    -0.248 NA
ATOM     40  C   UNL A   1      37.532  34.172  33.322  1.00  0.00     0.031 C 
ATOM     41  C   UNL A   1      37.940  31.322  29.190  1.00  0.00     0.029 A 
ATOM     42  N   UNL A   1      39.337  30.886  30.880  1.00  0.00    -0.354 N 
ATOM     43  C   UNL A   1      39.216  33.200  34.524  1.00  0.00     0.074 A 
ATOM     44  C   UNL A   1      38.223  34.247  34.451  1.00  0.00     0.031 C 
ATOM     45  C   UNL A   1      38.662  30.248  28.844  1.00  0.00     0.029 A 
ATOM     46  C   UNL A   1      39.600  29.939  29.919  1.00  0.00     0.049 A 
ATOM     47  H   UNL A   1      39.833  30.946  31.728  1.00  0.00     0.167 HD
ATOM     48  C   UNL A   1      40.000  32.963  35.602  1.00  0.00     0.037 A 
ATOM     49  C   UNL A   1      40.497  28.933  29.900  1.00  0.00     0.037 A 
ATOM     50  C   UNL A   1      40.973  31.904  35.681  1.00  0.00     0.049 A 
ATOM     51  C   UNL A   1      41.391  28.727  31.091  1.00  0.00     0.074 A 
ATOM     52  C   UNL A   1      41.793  31.568  36.744  1.00  0.00     0.029 A 
ATOM     53  N   UNL A   1      41.256  31.011  34.659  1.00  0.00    -0.354 N 
ATOM     54  N   UNL A   1      41.396  29.361  32.238  1.00  0.00    -0.248 NA
ATOM     55  C   UNL A   1      42.408  27.672  30.985  1.00  0.00     0.031 C 
ATOM     56  C   UNL A   1      42.613  30.510  36.346  1.00  0.00     0.029 A 
ATOM     57  C   UNL A   1      42.262  30.146  35.055  1.00  0.00     0.049 A 
ATOM     58  H   UNL A   1      40.809  30.995  33.782  1.00  0.00     0.167 HD
ATOM     59  C   UNL A   1      42.402  28.775  32.994  1.00  0.00     0.074 A 
ATOM     60  C   UNL A   1      42.973  27.720  32.184  1.00  0.00     0.031 C 
ATOM     61  C   UNL A   1      42.817  29.092  34.243  1.00  0.00     0.037 A 
BRANCH  48  62
ATOM     62  C   UNL A   1      39.846  33.858  36.799  1.00  0.00     0.064 A 
ATOM     63  C   UNL A   1      40.485  35.105  36.870  1.00  0.00     0.173 A 
ATOM     64  C   UNL A   1      38.980  33.505  37.846  1.00  0.00     0.173 A 
ATOM     65  F   UNL A   1      41.328  35.489  35.899  1.00  0.00    -0.203 F 
ATOM     66  C   UNL A   1      40.275  35.958  37.951  1.00  0.00     0.198 A 
ATOM     67  C   UNL A   1      38.749  34.373  38.910  1.00  0.00     0.198 A 
ATOM     68  F   UNL A   1      38.336  32.330  37.824  1.00  0.00    -0.203 F 
ATOM     69  F   UNL A   1      40.922  37.131  38.012  1.00  0.00    -0.200 F 
ATOM     70  C   UNL A   1      39.399  35.597  38.964  1.00  0.00     0.200 A 
ATOM     71  F   UNL A   1      37.889  34.031  39.879  1.00  0.00    -0.200 F 
ATOM     72  F   UNL A   1      39.183  36.428  39.992  1.00  0.00    -0.200 F 
ENDBRANCH  48  62
BRANCH  49  73
ATOM     73  C   UNL A   1      40.573  28.040  28.714  1.00  0.00     0.064 A 
ATOM     74  C   UNL A   1      39.853  26.840  28.667  1.00  0.00     0.173 A 
ATOM     75  C   UNL A   1      41.343  28.384  27.592  1.00  0.00     0.173 A 
ATOM     76  F   UNL A   1      39.118  26.457  29.721  1.00  0.00    -0.203 F 
ATOM     77  C   UNL A   1      39.901  26.014  27.544  1.00  0.00     0.198 A 
ATOM     78  C   UNL A   1      41.366  27.574  26.458  1.00  0.00     0.198 A 
ATOM     79  F   UNL A   1      42.050  29.524  27.585  1.00  0.00    -0.203 F 
ATOM     80  F   UNL A   1      39.229  24.856  27.537  1.00  0.00    -0.200 F 
ATOM     81  C   UNL A   1      40.650  26.388  26.437  1.00  0.00     0.200 A 
ATOM     82  F   UNL A   1      42.074  27.949  25.385  1.00  0.00    -0.200 F 
ATOM     83  F   UNL A   1      40.682  25.603  25.352  1.00  0.00    -0.200 F 
ENDBRANCH  49  73
BRANCH  61  84
ATOM     84  C   UNL A   1      43.938  28.290  34.836  1.00  0.00     0.064 A 
ATOM     85  C   UNL A   1      43.696  27.087  35.513  1.00  0.00     0.173 A 
ATOM     86  C   UNL A   1      45.273  28.671  34.625  1.00  0.00     0.173 A 
ATOM     87  F   UNL A   1      42.438  26.686  35.749  1.00  0.00    -0.203 F 
ATOM     88  C   UNL A   1      44.749  26.293  35.959  1.00  0.00     0.198 A 
ATOM     89  C   UNL A   1      46.323  27.860  35.047  1.00  0.00     0.198 A 
ATOM     90  F   UNL A   1      45.557  29.809  33.975  1.00  0.00    -0.203 F 
ATOM     91  F   UNL A   1      44.495  25.156  36.622  1.00  0.00    -0.200 F 
ATOM     92  C   UNL A   1      46.061  26.673  35.713  1.00  0.00     0.200 A 
ATOM     93  F   UNL A   1      47.589  28.220  34.791  1.00  0.00    -0.200 F 
ATOM     94  F   UNL A   1      47.073  25.893  36.116  1.00  0.00    -0.200 F 
ENDBRANCH  61  84
ENDBRANCH  35  36
ENDBRANCH  27  30
ENDBRANCH  25  26
ENDBRANCH  24  25
ENDBRANCH   1  24
TORSDOF 13
ENDMDL
MODEL 3
REMARK VINA RESULT:     -12.5      0.803      2.142
REMARK SMILES Cc1cc(=O)n(Cc2cc(C(=O)NCCCNC(=O)c3ccc(-c4c5nc(c(-c6c(F)c(F)c(F)c(F)c6F)c6ccc([nH]6)c(-c6c(F)c(F)c(F)c(F)c6F)c6nc(c(-c7c(F)c(F)c(F)c(F)c7F)c7ccc4[nH]7)C=C6)C=C5)cc3)oc2C)cc1[N+](=O)[O-]
REMARK SMILES IDX 14 1 13 2 11 3 12 4 10 6 8 7 9 8 84 9 83 10 85 11 7 12 6 13
REMARK SMILES IDX 1 14 2 15 3 16 87 17 4 18 86 19 5 20 88 21 89 22 90 23 15 24
REMARK SMILES IDX 16 25 17 26 18 27 19 29 20 30 21 31 82 32 22 33 81 34 23 35
REMARK SMILES IDX 24 36 25 37 75 38 26 39 80 40 74 41 76 42 27 43 79 44 73 45
REMARK SMILES IDX 72 46 28 48 60 49 40 50 59 51 41 52 44 53 58 54 77 55 42 56
REMARK SMILES IDX 43 57 57 59 78 60 45 61 29 62 30 63 38 64 31 65 32 66 36 67
REMARK SMILES IDX 39 68 33 69 34 70 37 71 35 72 61 73 62 74 70 75 63 76 64 77
REMARK SMILES IDX 68 78 71 79 65 80 66 81 69 82 67 83 46 84 47 85 55 86 48 87
REMARK SMILES IDX 49 88 53 89 56 90 50 91 51 92 54 93 52 94
REMARK H PARENT 13 5 17 28 76 47 44 58
REMARK Flexibility Score: inf
ROOT
ATOM      1  C   UNL A   1      37.432  21.096  24.573  1.00  0.00     0.118 C 
ENDROOT
BRANCH   1   2
ATOM      2  N   UNL A   1      38.010  22.286  25.172  1.00  0.00    -0.349 N 
ATOM      3  C   UNL A   1      37.428  23.392  25.750  1.00  0.00     0.287 C 
ATOM      4  O   UNL A   1      38.215  24.201  26.255  1.00  0.00    -0.266 OA
ATOM      5  H   UNL A   1      38.994  22.306  25.164  1.00  0.00     0.163 HD
BRANCH   3   6
ATOM      6  C   UNL A   1      35.990  23.558  25.786  1.00  0.00     0.191 A 
ATOM      7  C   UNL A   1      33.761  23.862  25.453  1.00  0.00     0.014 A 
ATOM      8  C   UNL A   1      35.067  24.221  25.002  1.00  0.00     0.062 A 
ATOM      9  C   UNL A   1      33.975  23.155  26.622  1.00  0.00     0.106 A 
ATOM     10  O   UNL A   1      35.309  22.957  26.814  1.00  0.00    -0.456 OA
ATOM     11  C   UNL A   1      33.102  22.590  27.671  1.00  0.00     0.088 C 
BRANCH   7  12
ATOM     12  C   UNL A   1      32.475  24.228  24.782  1.00  0.00     0.164 C 
BRANCH  12  13
ATOM     13  N   UNL A   1      32.212  25.662  24.981  1.00  0.00    -0.304 N 
ATOM     14  C   UNL A   1      31.754  29.889  25.716  1.00  0.00     0.052 C 
ATOM     15  C   UNL A   1      31.838  28.419  25.412  1.00  0.00     0.034 A 
ATOM     16  C   UNL A   1      31.421  27.531  26.337  1.00  0.00     0.082 A 
ATOM     17  C   UNL A   1      32.407  27.905  24.165  1.00  0.00     0.288 A 
ATOM     18  C   UNL A   1      31.538  26.063  26.133  1.00  0.00     0.251 A 
ATOM     19  C   UNL A   1      32.607  26.581  24.010  1.00  0.00     0.175 A 
ATOM     20  O   UNL A   1      31.066  25.312  26.981  1.00  0.00    -0.269 OA
BRANCH  17  21
ATOM     21  N   UNL A   1      32.763  28.753  23.009  1.00  0.00     0.064 N 
ATOM     22  O   UNL A   1      31.842  29.266  22.357  1.00  0.00    -0.258 OA
ATOM     23  O   UNL A   1      33.961  28.927  22.758  1.00  0.00    -0.258 OA
ENDBRANCH  17  21
ENDBRANCH  12  13
ENDBRANCH   7  12
ENDBRANCH   3   6
ENDBRANCH   1   2
BRANCH   1  24
ATOM     24  C   UNL A   1      38.167  19.834  25.014  1.00  0.00     0.042 C 
BRANCH  24  25
ATOM     25  C   UNL A   1      39.300  20.111  25.999  1.00  0.00     0.118 C 
BRANCH  25  26
ATOM     26  N   UNL A   1      40.354  19.101  25.951  1.00  0.00    -0.352 N 
ATOM     27  C   UNL A   1      41.719  19.225  26.047  1.00  0.00     0.251 C 
ATOM     28  H   UNL A   1      40.033  18.179  25.829  1.00  0.00     0.163 HD
ATOM     29  O   UNL A   1      42.434  18.257  25.803  1.00  0.00    -0.269 OA
BRANCH  27  30
ATOM     30  C   UNL A   1      42.337  20.518  26.413  1.00  0.00     0.039 A 
ATOM     31  C   UNL A   1      42.403  20.928  27.743  1.00  0.00     0.014 A 
ATOM     32  C   UNL A   1      42.867  21.334  25.408  1.00  0.00     0.014 A 
ATOM     33  C   UNL A   1      42.806  22.224  28.046  1.00  0.00     0.010 A 
ATOM     34  C   UNL A   1      43.374  22.598  25.728  1.00  0.00     0.010 A 
ATOM     35  C   UNL A   1      43.291  23.079  27.042  1.00  0.00    -0.014 A 
BRANCH  35  36
ATOM     36  C   UNL A   1      43.683  24.468  27.408  1.00  0.00     0.031 A 
ATOM     37  C   UNL A   1      45.068  24.983  27.116  1.00  0.00     0.074 A 
ATOM     38  C   UNL A   1      42.754  25.297  27.923  1.00  0.00     0.049 A 
ATOM     39  N   UNL A   1      45.546  26.194  27.268  1.00  0.00    -0.248 NA
ATOM     40  C   UNL A   1      46.049  24.021  26.590  1.00  0.00     0.031 C 
ATOM     41  C   UNL A   1      41.380  24.914  28.253  1.00  0.00     0.029 A 
ATOM     42  N   UNL A   1      42.805  26.638  28.218  1.00  0.00    -0.354 N 
ATOM     43  C   UNL A   1      46.874  26.135  26.864  1.00  0.00     0.074 A 
ATOM     44  C   UNL A   1      47.146  24.761  26.505  1.00  0.00     0.031 C 
ATOM     45  C   UNL A   1      40.699  26.004  28.633  1.00  0.00     0.029 A 
ATOM     46  C   UNL A   1      41.601  27.152  28.636  1.00  0.00     0.049 A 
ATOM     47  H   UNL A   1      43.624  27.177  28.138  1.00  0.00     0.167 HD
ATOM     48  C   UNL A   1      47.776  27.141  26.775  1.00  0.00     0.037 A 
ATOM     49  C   UNL A   1      41.257  28.406  28.987  1.00  0.00     0.037 A 
ATOM     50  C   UNL A   1      47.497  28.513  27.110  1.00  0.00     0.049 A 
ATOM     51  C   UNL A   1      42.294  29.493  28.928  1.00  0.00     0.074 A 
ATOM     52  C   UNL A   1      48.339  29.608  27.023  1.00  0.00     0.029 A 
ATOM     53  N   UNL A   1      46.285  28.978  27.597  1.00  0.00    -0.354 N 
ATOM     54  N   UNL A   1      43.532  29.430  28.503  1.00  0.00    -0.248 NA
ATOM     55  C   UNL A   1      41.890  30.824  29.402  1.00  0.00     0.031 C 
ATOM     56  C   UNL A   1      47.656  30.724  27.510  1.00  0.00     0.029 A 
ATOM     57  C   UNL A   1      46.368  30.338  27.846  1.00  0.00     0.049 A 
ATOM     58  H   UNL A   1      45.484  28.425  27.744  1.00  0.00     0.167 HD
ATOM     59  C   UNL A   1      44.050  30.710  28.644  1.00  0.00     0.074 A 
ATOM     60  C   UNL A   1      42.987  31.535  29.175  1.00  0.00     0.031 C 
ATOM     61  C   UNL A   1      45.299  31.154  28.365  1.00  0.00     0.037 A 
BRANCH  48  62
ATOM     62  C   UNL A   1      49.159  26.810  26.288  1.00  0.00     0.064 A 
ATOM     63  C   UNL A   1      50.111  26.219  27.132  1.00  0.00     0.173 A 
ATOM     64  C   UNL A   1      49.507  27.003  24.943  1.00  0.00     0.173 A 
ATOM     65  F   UNL A   1      49.833  26.018  28.430  1.00  0.00    -0.203 F 
ATOM     66  C   UNL A   1      51.365  25.849  26.651  1.00  0.00     0.198 A 
ATOM     67  C   UNL A   1      50.750  26.604  24.457  1.00  0.00     0.198 A 
ATOM     68  F   UNL A   1      48.631  27.554  24.090  1.00  0.00    -0.203 F 
ATOM     69  F   UNL A   1      52.270  25.316  27.484  1.00  0.00    -0.200 F 
ATOM     70  C   UNL A   1      51.679  26.031  25.312  1.00  0.00     0.200 A 
ATOM     71  F   UNL A   1      51.045  26.764  23.160  1.00  0.00    -0.200 F 
ATOM     72  F   UNL A   1      52.877  25.654  24.847  1.00  0.00    -0.200 F 
ENDBRANCH  48  62
BRANCH  49  73
ATOM     73  C   UNL A   1      39.861  28.695  29.409  1.00  0.00     0.064 A 
ATOM     74  C   UNL A   1      38.905  29.138  28.486  1.00  0.00     0.173 A 
ATOM     75  C   UNL A   1      39.446  28.502  30.736  1.00  0.00     0.173 A 
ATOM     76  F   UNL A   1      39.256  29.357  27.210  1.00  0.00    -0.203 F 
ATOM     77  C   UNL A   1      37.588  29.382  28.874  1.00  0.00     0.198 A 
ATOM     78  C   UNL A   1      38.122  28.715  31.115  1.00  0.00     0.198 A 
ATOM     79  F   UNL A   1      40.321  28.075  31.658  1.00  0.00    -0.203 F 
ATOM     80  F   UNL A   1      36.702  29.838  27.979  1.00  0.00    -0.200 F 
ATOM     81  C   UNL A   1      37.196  29.160  30.186  1.00  0.00     0.200 A 
ATOM     82  F   UNL A   1      37.745  28.479  32.379  1.00  0.00    -0.200 F 
ATOM     83  F   UNL A   1      35.927  29.378  30.554  1.00  0.00    -0.200 F 
ENDBRANCH  49  73
BRANCH  61  84
ATOM     84  C   UNL A   1      45.601  32.602  28.613  1.00  0.00     0.064 A 
ATOM     85  C   UNL A   1      46.226  33.026  29.793  1.00  0.00     0.173 A 
ATOM     86  C   UNL A   1      45.365  33.558  27.612  1.00  0.00     0.173 A 
ATOM     87  F   UNL A   1      46.461  32.153  30.784  1.00  0.00    -0.203 F 
ATOM     88  C   UNL A   1      46.605  34.355  29.965  1.00  0.00     0.198 A 
ATOM     89  C   UNL A   1      45.772  34.879  27.774  1.00  0.00     0.198 A 
ATOM     90  F   UNL A   1      44.777  33.201  26.460  1.00  0.00    -0.203 F 
ATOM     91  F   UNL A   1      47.183  34.742  31.109  1.00  0.00    -0.200 F 
ATOM     92  C   UNL A   1      46.391  35.277  28.950  1.00  0.00     0.200 A 
ATOM     93  F   UNL A   1      45.582  35.764  26.785  1.00  0.00    -0.200 F 
ATOM     94  F   UNL A   1      46.784  36.548  29.105  1.00  0.00    -0.200 F 
ENDBRANCH  61  84
ENDBRANCH  35  36
ENDBRANCH  27  30
ENDBRANCH  25  26
ENDBRANCH  24  25
ENDBRANCH   1  24
TORSDOF 13
ENDMDL
