MODEL 1
REMARK VINA RESULT:     -12.7      0.000      0.000
REMARK SMILES O=C(CC[NH+]1CCN(C(=O)c2n[nH]c3ccccc23)CC1)NCCCNC(=O)c1ccc(-c2c3nc(c(-c4c(F)c(F)c(F)c(F)c4F)c4ccc([nH]4)c(-c4c(F)c(F)c(F)c(F)c4F)c4nc(c(-c5c(F)c(F)c(F)c(F)c5F)c5ccc2[nH]5)C=C4)C=C3)cc1
REMARK SMILES IDX 23 1 22 2 1 3 2 4 3 6 4 7 5 8 6 9 21 10 7 12 20 13 8 14 9 15
REMARK SMILES IDX 10 16 11 17 12 18 19 19 13 20 14 21 18 22 15 24 17 25 16 26
REMARK SMILES IDX 24 27 25 28 26 29 27 30 28 32 29 33 30 34 91 35 31 36 90 37
REMARK SMILES IDX 32 38 33 39 34 40 84 41 35 42 89 43 83 44 85 45 36 46 88 47
REMARK SMILES IDX 82 48 81 49 37 51 69 52 49 53 68 54 50 55 53 56 67 57 86 58
REMARK SMILES IDX 51 59 52 60 66 62 87 63 54 64 38 65 39 66 47 67 40 68 41 69
REMARK SMILES IDX 45 70 48 71 42 72 43 73 46 74 44 75 70 76 71 77 79 78 72 79
REMARK SMILES IDX 73 80 77 81 80 82 74 83 75 84 78 85 76 86 55 87 56 88 64 89
REMARK SMILES IDX 57 90 58 91 62 92 65 93 59 94 60 95 63 96 61 97
REMARK H PARENT 22 5 5 11 13 23 26 31 85 50 53 61
REMARK Flexibility Score: inf
ROOT
ATOM      1  C   UNL A   1      31.444  30.270  26.782  1.00  0.00     0.117 C 
ENDROOT
BRANCH   1   2
ATOM      2  N   UNL A   1      31.823  29.501  25.615  1.00  0.00    -0.356 N 
ATOM      3  O   UNL A   1      33.968  29.097  26.291  1.00  0.00    -0.275 OA
ATOM      4  C   UNL A   1      33.080  28.981  25.448  1.00  0.00     0.225 C 
ATOM      5  H   UNL A   1      31.149  29.345  24.914  1.00  0.00     0.163 HD
BRANCH   4   6
ATOM      6  C   UNL A   1      33.374  28.359  24.096  1.00  0.00     0.161 C 
BRANCH   6   7
ATOM      7  C   UNL A   1      33.391  26.831  24.000  1.00  0.00     0.272 C 
BRANCH   7   8
ATOM      8  N   UNL A   1      33.456  26.061  25.262  1.00  0.00    -0.332 N 
ATOM      9  C   UNL A   1      32.164  25.482  25.706  1.00  0.00     0.284 C 
ATOM     10  C   UNL A   1      34.453  24.956  25.132  1.00  0.00     0.284 C 
ATOM     11  H   UNL A   1      33.731  26.738  25.974  1.00  0.00     0.348 HD
ATOM     12  C   UNL A   1      31.651  24.311  24.859  1.00  0.00     0.181 C 
ATOM     13  C   UNL A   1      33.971  23.720  24.323  1.00  0.00     0.181 C 
ATOM     14  N   UNL A   1      32.661  23.261  24.799  1.00  0.00    -0.326 N 
ATOM     15  C   UNL A   1      32.297  21.958  25.141  1.00  0.00     0.275 C 
ATOM     16  O   UNL A   1      31.144  21.689  25.500  1.00  0.00    -0.267 OA
BRANCH  15  17
ATOM     17  C   UNL A   1      33.317  20.907  25.070  1.00  0.00     0.157 A 
ATOM     18  N   UNL A   1      34.505  21.050  25.689  1.00  0.00    -0.169 NA
ATOM     19  C   UNL A   1      33.246  19.665  24.369  1.00  0.00     0.033 A 
ATOM     20  N   UNL A   1      35.173  19.931  25.376  1.00  0.00    -0.277 N 
ATOM     21  C   UNL A   1      34.460  19.038  24.626  1.00  0.00     0.066 A 
ATOM     22  C   UNL A   1      32.297  19.002  23.566  1.00  0.00     0.013 A 
ATOM     23  H   UNL A   1      36.101  19.766  25.663  1.00  0.00     0.190 HD
ATOM     24  C   UNL A   1      34.778  17.763  24.151  1.00  0.00     0.028 A 
ATOM     25  C   UNL A   1      32.587  17.716  23.095  1.00  0.00     0.001 A 
ATOM     26  C   UNL A   1      33.807  17.107  23.389  1.00  0.00     0.002 A 
ENDBRANCH  15  17
ENDBRANCH   7   8
ENDBRANCH   6   7
ENDBRANCH   4   6
ENDBRANCH   1   2
BRANCH   1  27
ATOM     27  C   UNL A   1      31.403  31.771  26.504  1.00  0.00     0.042 C 
BRANCH  27  28
ATOM     28  C   UNL A   1      32.677  32.526  26.876  1.00  0.00     0.118 C 
BRANCH  28  29
ATOM     29  N   UNL A   1      32.426  33.866  27.388  1.00  0.00    -0.352 N 
ATOM     30  C   UNL A   1      33.016  34.568  28.408  1.00  0.00     0.251 C 
ATOM     31  H   UNL A   1      31.709  34.351  26.921  1.00  0.00     0.163 HD
ATOM     32  O   UNL A   1      32.535  35.646  28.751  1.00  0.00    -0.269 OA
BRANCH  30  33
ATOM     33  C   UNL A   1      34.207  34.048  29.119  1.00  0.00     0.039 A 
ATOM     34  C   UNL A   1      34.008  33.214  30.225  1.00  0.00     0.014 A 
ATOM     35  C   UNL A   1      35.505  34.408  28.752  1.00  0.00     0.014 A 
ATOM     36  C   UNL A   1      35.105  32.689  30.915  1.00  0.00     0.010 A 
ATOM     37  C   UNL A   1      36.600  33.832  29.399  1.00  0.00     0.010 A 
ATOM     38  C   UNL A   1      36.413  32.962  30.485  1.00  0.00    -0.014 A 
BRANCH  38  39
ATOM     39  C   UNL A   1      37.586  32.330  31.145  1.00  0.00     0.031 A 
ATOM     40  C   UNL A   1      38.332  31.209  30.477  1.00  0.00     0.074 A 
ATOM     41  C   UNL A   1      37.946  32.727  32.382  1.00  0.00     0.049 A 
ATOM     42  N   UNL A   1      39.332  30.493  30.929  1.00  0.00    -0.248 NA
ATOM     43  C   UNL A   1      37.881  30.826  29.130  1.00  0.00     0.031 C 
ATOM     44  C   UNL A   1      37.283  33.777  33.158  1.00  0.00     0.029 A 
ATOM     45  N   UNL A   1      38.949  32.286  33.210  1.00  0.00    -0.354 N 
ATOM     46  C   UNL A   1      39.619  29.570  29.932  1.00  0.00     0.074 A 
ATOM     47  C   UNL A   1      38.661  29.786  28.870  1.00  0.00     0.031 C 
ATOM     48  C   UNL A   1      37.907  33.911  34.339  1.00  0.00     0.029 A 
ATOM     49  C   UNL A   1      38.986  32.930  34.423  1.00  0.00     0.049 A 
ATOM     50  H   UNL A   1      39.582  31.576  32.958  1.00  0.00     0.167 HD
ATOM     51  C   UNL A   1      40.606  28.641  29.897  1.00  0.00     0.037 A 
ATOM     52  C   UNL A   1      39.789  32.744  35.488  1.00  0.00     0.037 A 
ATOM     53  C   UNL A   1      41.573  28.439  30.944  1.00  0.00     0.049 A 
ATOM     54  C   UNL A   1      40.863  31.693  35.431  1.00  0.00     0.074 A 
ATOM     55  C   UNL A   1      42.647  27.566  30.970  1.00  0.00     0.029 A 
ATOM     56  N   UNL A   1      41.582  29.117  32.156  1.00  0.00    -0.354 N 
ATOM     57  N   UNL A   1      41.168  30.874  34.455  1.00  0.00    -0.248 NA
ATOM     58  C   UNL A   1      41.706  31.541  36.626  1.00  0.00     0.031 C 
ATOM     59  C   UNL A   1      43.275  27.678  32.216  1.00  0.00     0.029 A 
ATOM     60  C   UNL A   1      42.625  28.660  32.946  1.00  0.00     0.049 A 
ATOM     61  H   UNL A   1      40.941  29.817  32.415  1.00  0.00     0.167 HD
ATOM     62  C   UNL A   1      42.252  30.131  34.905  1.00  0.00     0.074 A 
ATOM     63  C   UNL A   1      42.561  30.607  36.236  1.00  0.00     0.031 C 
ATOM     64  C   UNL A   1      42.928  29.144  34.269  1.00  0.00     0.037 A 
BRANCH  51  65
ATOM     65  C   UNL A   1      40.692  27.765  28.680  1.00  0.00     0.064 A 
ATOM     66  C   UNL A   1      41.514  28.095  27.592  1.00  0.00     0.173 A 
ATOM     67  C   UNL A   1      39.981  26.556  28.621  1.00  0.00     0.173 A 
ATOM     68  F   UNL A   1      42.210  29.242  27.595  1.00  0.00    -0.203 F 
ATOM     69  C   UNL A   1      41.598  27.264  26.478  1.00  0.00     0.198 A 
ATOM     70  C   UNL A   1      40.091  25.713  27.518  1.00  0.00     0.198 A 
ATOM     71  F   UNL A   1      39.189  26.186  29.639  1.00  0.00    -0.203 F 
ATOM     72  F   UNL A   1      42.354  27.623  25.432  1.00  0.00    -0.200 F 
ATOM     73  C   UNL A   1      40.892  26.070  26.445  1.00  0.00     0.200 A 
ATOM     74  F   UNL A   1      39.422  24.552  27.495  1.00  0.00    -0.200 F 
ATOM     75  F   UNL A   1      40.982  25.267  25.376  1.00  0.00    -0.200 F 
ENDBRANCH  51  65
BRANCH  52  76
ATOM     76  C   UNL A   1      39.616  33.587  36.702  1.00  0.00     0.064 A 
ATOM     77  C   UNL A   1      38.802  33.164  37.761  1.00  0.00     0.173 A 
ATOM     78  C   UNL A   1      40.253  34.831  36.823  1.00  0.00     0.173 A 
ATOM     79  F   UNL A   1      38.155  31.991  37.681  1.00  0.00    -0.203 F 
ATOM     80  C   UNL A   1      38.614  33.961  38.887  1.00  0.00     0.198 A 
ATOM     81  C   UNL A   1      40.086  35.615  37.963  1.00  0.00     0.198 A 
ATOM     82  F   UNL A   1      41.044  35.280  35.839  1.00  0.00    -0.203 F 
ATOM     83  F   UNL A   1      37.792  33.553  39.864  1.00  0.00    -0.200 F 
ATOM     84  C   UNL A   1      39.261  35.183  38.990  1.00  0.00     0.200 A 
ATOM     85  F   UNL A   1      40.723  36.790  38.065  1.00  0.00    -0.200 F 
ATOM     86  F   UNL A   1      39.082  35.949  40.076  1.00  0.00    -0.200 F 
ENDBRANCH  52  76
BRANCH  64  87
ATOM     87  C   UNL A   1      44.092  28.528  34.992  1.00  0.00     0.064 A 
ATOM     88  C   UNL A   1      43.941  27.387  35.793  1.00  0.00     0.173 A 
ATOM     89  C   UNL A   1      45.381  29.066  34.850  1.00  0.00     0.173 A 
ATOM     90  F   UNL A   1      42.728  26.845  35.974  1.00  0.00    -0.203 F 
ATOM     91  C   UNL A   1      45.034  26.819  36.443  1.00  0.00     0.198 A 
ATOM     92  C   UNL A   1      46.476  28.478  35.477  1.00  0.00     0.198 A 
ATOM     93  F   UNL A   1      45.580  30.154  34.091  1.00  0.00    -0.203 F 
ATOM     94  F   UNL A   1      44.859  25.756  37.240  1.00  0.00    -0.200 F 
ATOM     95  C   UNL A   1      46.301  27.360  36.278  1.00  0.00     0.200 A 
ATOM     96  F   UNL A   1      47.700  28.994  35.306  1.00  0.00    -0.200 F 
ATOM     97  F   UNL A   1      47.353  26.807  36.898  1.00  0.00    -0.200 F 
ENDBRANCH  64  87
ENDBRANCH  38  39
ENDBRANCH  30  33
ENDBRANCH  28  29
ENDBRANCH  27  28
ENDBRANCH   1  27
TORSDOF 13
ENDMDL
MODEL 2
REMARK VINA RESULT:     -12.7      4.908     10.918
REMARK SMILES O=C(CC[NH+]1CCN(C(=O)c2n[nH]c3ccccc23)CC1)NCCCNC(=O)c1ccc(-c2c3nc(c(-c4c(F)c(F)c(F)c(F)c4F)c4ccc([nH]4)c(-c4c(F)c(F)c(F)c(F)c4F)c4nc(c(-c5c(F)c(F)c(F)c(F)c5F)c5ccc2[nH]5)C=C4)C=C3)cc1
REMARK SMILES IDX 23 1 22 2 1 3 2 4 3 6 4 7 5 8 6 9 21 10 7 12 20 13 8 14 9 15
REMARK SMILES IDX 10 16 11 17 12 18 19 19 13 20 14 21 18 22 15 24 17 25 16 26
REMARK SMILES IDX 24 27 25 28 26 29 27 30 28 32 29 33 30 34 91 35 31 36 90 37
REMARK SMILES IDX 32 38 33 39 34 40 84 41 35 42 89 43 83 44 85 45 36 46 88 47
REMARK SMILES IDX 82 48 81 49 37 51 69 52 49 53 68 54 50 55 53 56 67 57 86 58
REMARK SMILES IDX 51 59 52 60 66 62 87 63 54 64 38 65 39 66 47 67 40 68 41 69
REMARK SMILES IDX 45 70 48 71 42 72 43 73 46 74 44 75 70 76 71 77 79 78 72 79
REMARK SMILES IDX 73 80 77 81 80 82 74 83 75 84 78 85 76 86 55 87 56 88 64 89
REMARK SMILES IDX 57 90 58 91 62 92 65 93 59 94 60 95 63 96 61 97
REMARK H PARENT 22 5 5 11 13 23 26 31 85 50 53 61
REMARK Flexibility Score: inf
ROOT
ATOM      1  C   UNL A   1      33.266  34.694  28.921  1.00  0.00     0.117 C 
ENDROOT
BRANCH   1   2
ATOM      2  N   UNL A   1      33.325  34.912  30.351  1.00  0.00    -0.356 N 
ATOM      3  O   UNL A   1      32.879  37.152  30.262  1.00  0.00    -0.275 OA
ATOM      4  C   UNL A   1      33.143  36.147  30.919  1.00  0.00     0.225 C 
ATOM      5  H   UNL A   1      33.504  34.143  30.939  1.00  0.00     0.163 HD
BRANCH   4   6
ATOM      6  C   UNL A   1      33.416  36.246  32.408  1.00  0.00     0.161 C 
BRANCH   6   7
ATOM      7  C   UNL A   1      34.645  35.519  32.961  1.00  0.00     0.272 C 
BRANCH   7   8
ATOM      8  N   UNL A   1      34.418  34.374  33.871  1.00  0.00    -0.332 N 
ATOM      9  C   UNL A   1      34.145  33.083  33.192  1.00  0.00     0.284 C 
ATOM     10  C   UNL A   1      35.598  34.199  34.770  1.00  0.00     0.284 C 
ATOM     11  H   UNL A   1      33.575  34.612  34.393  1.00  0.00     0.348 HD
ATOM     12  C   UNL A   1      35.350  32.455  32.481  1.00  0.00     0.181 C 
ATOM     13  C   UNL A   1      36.834  33.523  34.116  1.00  0.00     0.181 C 
ATOM     14  N   UNL A   1      36.450  32.288  33.422  1.00  0.00    -0.326 N 
ATOM     15  C   UNL A   1      37.048  31.032  33.542  1.00  0.00     0.275 C 
ATOM     16  O   UNL A   1      36.651  30.069  32.874  1.00  0.00    -0.267 OA
BRANCH  15  17
ATOM     17  C   UNL A   1      38.159  30.875  34.485  1.00  0.00     0.157 A 
ATOM     18  N   UNL A   1      38.116  31.437  35.708  1.00  0.00    -0.169 NA
ATOM     19  C   UNL A   1      39.389  30.180  34.279  1.00  0.00     0.033 A 
ATOM     20  N   UNL A   1      39.296  31.116  36.258  1.00  0.00    -0.277 N 
ATOM     21  C   UNL A   1      40.088  30.326  35.472  1.00  0.00     0.066 A 
ATOM     22  C   UNL A   1      39.980  29.442  33.233  1.00  0.00     0.013 A 
ATOM     23  H   UNL A   1      39.569  31.424  37.152  1.00  0.00     0.190 HD
ATOM     24  C   UNL A   1      41.339  29.748  35.702  1.00  0.00     0.028 A 
ATOM     25  C   UNL A   1      41.224  28.839  33.448  1.00  0.00     0.001 A 
ATOM     26  C   UNL A   1      41.888  28.987  34.665  1.00  0.00     0.002 A 
ENDBRANCH  15  17
ENDBRANCH   7   8
ENDBRANCH   6   7
ENDBRANCH   4   6
ENDBRANCH   1   2
BRANCH   1  27
ATOM     27  C   UNL A   1      34.584  34.169  28.355  1.00  0.00     0.042 C 
BRANCH  27  28
ATOM     28  C   UNL A   1      35.027  32.818  28.912  1.00  0.00     0.118 C 
BRANCH  28  29
ATOM     29  N   UNL A   1      34.290  31.693  28.354  1.00  0.00    -0.352 N 
ATOM     30  C   UNL A   1      34.700  30.437  27.988  1.00  0.00     0.251 C 
ATOM     31  H   UNL A   1      33.331  31.865  28.214  1.00  0.00     0.163 HD
ATOM     32  O   UNL A   1      33.914  29.695  27.403  1.00  0.00    -0.269 OA
BRANCH  30  33
ATOM     33  C   UNL A   1      36.076  29.960  28.264  1.00  0.00     0.039 A 
ATOM     34  C   UNL A   1      37.042  30.105  27.263  1.00  0.00     0.014 A 
ATOM     35  C   UNL A   1      36.414  29.328  29.462  1.00  0.00     0.014 A 
ATOM     36  C   UNL A   1      38.356  29.683  27.488  1.00  0.00     0.010 A 
ATOM     37  C   UNL A   1      37.740  28.966  29.712  1.00  0.00     0.010 A 
ATOM     38  C   UNL A   1      38.726  29.144  28.730  1.00  0.00    -0.014 A 
BRANCH  38  39
ATOM     39  C   UNL A   1      40.140  28.785  29.019  1.00  0.00     0.031 A 
ATOM     40  C   UNL A   1      41.055  29.760  29.708  1.00  0.00     0.074 A 
ATOM     41  C   UNL A   1      40.622  27.596  28.606  1.00  0.00     0.049 A 
ATOM     42  N   UNL A   1      42.332  29.648  29.980  1.00  0.00    -0.248 NA
ATOM     43  C   UNL A   1      40.462  31.038  30.128  1.00  0.00     0.031 C 
ATOM     44  C   UNL A   1      39.852  26.575  27.893  1.00  0.00     0.029 A 
ATOM     45  N   UNL A   1      41.877  27.049  28.713  1.00  0.00    -0.354 N 
ATOM     46  C   UNL A   1      42.696  30.842  30.588  1.00  0.00     0.074 A 
ATOM     47  C   UNL A   1      41.518  31.682  30.605  1.00  0.00     0.031 C 
ATOM     48  C   UNL A   1      40.645  25.521  27.643  1.00  0.00     0.029 A 
ATOM     49  C   UNL A   1      41.989  25.807  28.138  1.00  0.00     0.049 A 
ATOM     50  H   UNL A   1      42.627  27.505  29.159  1.00  0.00     0.167 HD
ATOM     51  C   UNL A   1      43.898  31.197  31.104  1.00  0.00     0.037 A 
ATOM     52  C   UNL A   1      43.054  24.993  28.012  1.00  0.00     0.037 A 
ATOM     53  C   UNL A   1      45.066  30.354  31.106  1.00  0.00     0.049 A 
ATOM     54  C   UNL A   1      44.382  25.420  28.575  1.00  0.00     0.074 A 
ATOM     55  C   UNL A   1      46.309  30.604  31.661  1.00  0.00     0.029 A 
ATOM     56  N   UNL A   1      45.137  29.099  30.520  1.00  0.00    -0.354 N 
ATOM     57  N   UNL A   1      44.696  26.522  29.209  1.00  0.00    -0.248 NA
ATOM     58  C   UNL A   1      45.505  24.486  28.406  1.00  0.00     0.031 C 
ATOM     59  C   UNL A   1      47.147  29.523  31.368  1.00  0.00     0.029 A 
ATOM     60  C   UNL A   1      46.410  28.574  30.676  1.00  0.00     0.049 A 
ATOM     61  H   UNL A   1      44.392  28.647  30.061  1.00  0.00     0.167 HD
ATOM     62  C   UNL A   1      46.040  26.405  29.538  1.00  0.00     0.074 A 
ATOM     63  C   UNL A   1      46.479  25.116  29.046  1.00  0.00     0.031 C 
ATOM     64  C   UNL A   1      46.837  27.287  30.187  1.00  0.00     0.037 A 
BRANCH  51  65
ATOM     65  C   UNL A   1      44.016  32.565  31.713  1.00  0.00     0.064 A 
ATOM     66  C   UNL A   1      43.708  32.799  33.062  1.00  0.00     0.173 A 
ATOM     67  C   UNL A   1      44.487  33.646  30.952  1.00  0.00     0.173 A 
ATOM     68  F   UNL A   1      43.248  31.802  33.832  1.00  0.00    -0.203 F 
ATOM     69  C   UNL A   1      43.839  34.068  33.618  1.00  0.00     0.198 A 
ATOM     70  C   UNL A   1      44.646  34.908  31.519  1.00  0.00     0.198 A 
ATOM     71  F   UNL A   1      44.806  33.476  29.660  1.00  0.00    -0.203 F 
ATOM     72  F   UNL A   1      43.496  34.277  34.896  1.00  0.00    -0.200 F 
ATOM     73  C   UNL A   1      44.315  35.120  32.849  1.00  0.00     0.200 A 
ATOM     74  F   UNL A   1      45.121  35.919  30.779  1.00  0.00    -0.200 F 
ATOM     75  F   UNL A   1      44.449  36.339  33.388  1.00  0.00    -0.200 F 
ENDBRANCH  51  65
BRANCH  52  76
ATOM     76  C   UNL A   1      42.907  23.678  27.333  1.00  0.00     0.064 A 
ATOM     77  C   UNL A   1      43.329  23.502  26.008  1.00  0.00     0.173 A 
ATOM     78  C   UNL A   1      42.334  22.578  27.988  1.00  0.00     0.173 A 
ATOM     79  F   UNL A   1      43.861  24.531  25.333  1.00  0.00    -0.203 F 
ATOM     80  C   UNL A   1      43.167  22.281  25.357  1.00  0.00     0.198 A 
ATOM     81  C   UNL A   1      42.199  21.349  27.345  1.00  0.00     0.198 A 
ATOM     82  F   UNL A   1      41.916  22.694  29.257  1.00  0.00    -0.203 F 
ATOM     83  F   UNL A   1      43.536  22.154  24.076  1.00  0.00    -0.200 F 
ATOM     84  C   UNL A   1      42.607  21.204  26.028  1.00  0.00     0.200 A 
ATOM     85  F   UNL A   1      41.670  20.307  28.001  1.00  0.00    -0.200 F 
ATOM     86  F   UNL A   1      42.454  20.029  25.402  1.00  0.00    -0.200 F 
ENDBRANCH  52  76
BRANCH  64  87
ATOM     87  C   UNL A   1      48.261  26.879  30.436  1.00  0.00     0.064 A 
ATOM     88  C   UNL A   1      48.629  26.152  31.577  1.00  0.00     0.173 A 
ATOM     89  C   UNL A   1      49.261  27.187  29.501  1.00  0.00     0.173 A 
ATOM     90  F   UNL A   1      47.714  25.847  32.508  1.00  0.00    -0.203 F 
ATOM     91  C   UNL A   1      49.951  25.767  31.784  1.00  0.00     0.198 A 
ATOM     92  C   UNL A   1      50.577  26.775  29.696  1.00  0.00     0.198 A 
ATOM     93  F   UNL A   1      48.960  27.877  28.390  1.00  0.00    -0.203 F 
ATOM     94  F   UNL A   1      50.290  25.113  32.903  1.00  0.00    -0.200 F 
ATOM     95  C   UNL A   1      50.922  26.072  30.840  1.00  0.00     0.200 A 
ATOM     96  F   UNL A   1      51.510  27.058  28.778  1.00  0.00    -0.200 F 
ATOM     97  F   UNL A   1      52.192  25.693  31.038  1.00  0.00    -0.200 F 
ENDBRANCH  64  87
ENDBRANCH  38  39
ENDBRANCH  30  33
ENDBRANCH  28  29
ENDBRANCH  27  28
ENDBRANCH   1  27
TORSDOF 13
ENDMDL
MODEL 3
REMARK VINA RESULT:     -12.7      2.057      3.068
REMARK SMILES O=C(CC[NH+]1CCN(C(=O)c2n[nH]c3ccccc23)CC1)NCCCNC(=O)c1ccc(-c2c3nc(c(-c4c(F)c(F)c(F)c(F)c4F)c4ccc([nH]4)c(-c4c(F)c(F)c(F)c(F)c4F)c4nc(c(-c5c(F)c(F)c(F)c(F)c5F)c5ccc2[nH]5)C=C4)C=C3)cc1
REMARK SMILES IDX 23 1 22 2 1 3 2 4 3 6 4 7 5 8 6 9 21 10 7 12 20 13 8 14 9 15
REMARK SMILES IDX 10 16 11 17 12 18 19 19 13 20 14 21 18 22 15 24 17 25 16 26
REMARK SMILES IDX 24 27 25 28 26 29 27 30 28 32 29 33 30 34 91 35 31 36 90 37
REMARK SMILES IDX 32 38 33 39 34 40 84 41 35 42 89 43 83 44 85 45 36 46 88 47
REMARK SMILES IDX 82 48 81 49 37 51 69 52 49 53 68 54 50 55 53 56 67 57 86 58
REMARK SMILES IDX 51 59 52 60 66 62 87 63 54 64 38 65 39 66 47 67 40 68 41 69
REMARK SMILES IDX 45 70 48 71 42 72 43 73 46 74 44 75 70 76 71 77 79 78 72 79
REMARK SMILES IDX 73 80 77 81 80 82 74 83 75 84 78 85 76 86 55 87 56 88 64 89
REMARK SMILES IDX 57 90 58 91 62 92 65 93 59 94 60 95 63 96 61 97
REMARK H PARENT 22 5 5 11 13 23 26 31 85 50 53 61
REMARK Flexibility Score: inf
ROOT
ATOM      1  C   UNL A   1      32.613  29.336  22.543  1.00  0.00     0.117 C 
ENDROOT
BRANCH   1   2
ATOM      2  N   UNL A   1      31.589  28.312  22.528  1.00  0.00    -0.356 N 
ATOM      3  O   UNL A   1      30.127  29.429  23.883  1.00  0.00    -0.275 OA
ATOM      4  C   UNL A   1      30.414  28.431  23.225  1.00  0.00     0.225 C 
ATOM      5  H   UNL A   1      31.743  27.499  21.996  1.00  0.00     0.163 HD
BRANCH   4   6
ATOM      6  C   UNL A   1      29.526  27.202  23.256  1.00  0.00     0.161 C 
BRANCH   6   7
ATOM      7  C   UNL A   1      30.070  25.942  23.936  1.00  0.00     0.272 C 
BRANCH   7   8
ATOM      8  N   UNL A   1      31.355  26.050  24.662  1.00  0.00    -0.332 N 
ATOM      9  C   UNL A   1      31.267  25.807  26.124  1.00  0.00     0.284 C 
ATOM     10  C   UNL A   1      32.349  25.100  24.080  1.00  0.00     0.284 C 
ATOM     11  H   UNL A   1      31.646  27.021  24.547  1.00  0.00     0.348 HD
ATOM     12  C   UNL A   1      31.007  24.350  26.525  1.00  0.00     0.181 C 
ATOM     13  C   UNL A   1      32.164  23.613  24.491  1.00  0.00     0.181 C 
ATOM     14  N   UNL A   1      32.028  23.485  25.947  1.00  0.00    -0.326 N 
ATOM     15  C   UNL A   1      32.726  22.615  26.786  1.00  0.00     0.275 C 
ATOM     16  O   UNL A   1      32.498  22.577  28.001  1.00  0.00    -0.267 OA
BRANCH  15  17
ATOM     17  C   UNL A   1      33.746  21.744  26.195  1.00  0.00     0.157 A 
ATOM     18  N   UNL A   1      33.454  20.480  25.831  1.00  0.00    -0.169 NA
ATOM     19  C   UNL A   1      35.119  22.048  25.946  1.00  0.00     0.033 A 
ATOM     20  N   UNL A   1      34.616  19.992  25.376  1.00  0.00    -0.277 N 
ATOM     21  C   UNL A   1      35.644  20.894  25.374  1.00  0.00     0.066 A 
ATOM     22  C   UNL A   1      35.965  23.160  26.126  1.00  0.00     0.013 A 
ATOM     23  H   UNL A   1      34.721  19.063  25.069  1.00  0.00     0.190 HD
ATOM     24  C   UNL A   1      36.967  20.790  24.937  1.00  0.00     0.028 A 
ATOM     25  C   UNL A   1      37.289  23.084  25.679  1.00  0.00     0.001 A 
ATOM     26  C   UNL A   1      37.778  21.919  25.090  1.00  0.00     0.002 A 
ENDBRANCH  15  17
ENDBRANCH   7   8
ENDBRANCH   6   7
ENDBRANCH   4   6
ENDBRANCH   1   2
BRANCH   1  27
ATOM     27  C   UNL A   1      33.826  28.935  23.380  1.00  0.00     0.042 C 
BRANCH  27  28
ATOM     28  C   UNL A   1      33.572  28.869  24.884  1.00  0.00     0.118 C 
BRANCH  28  29
ATOM     29  N   UNL A   1      32.864  30.032  25.403  1.00  0.00    -0.352 N 
ATOM     30  C   UNL A   1      33.082  30.797  26.520  1.00  0.00     0.251 C 
ATOM     31  H   UNL A   1      32.097  30.317  24.857  1.00  0.00     0.163 HD
ATOM     32  O   UNL A   1      32.257  31.655  26.829  1.00  0.00    -0.269 OA
BRANCH  30  33
ATOM     33  C   UNL A   1      34.277  30.601  27.373  1.00  0.00     0.039 A 
ATOM     34  C   UNL A   1      34.460  29.355  27.982  1.00  0.00     0.014 A 
ATOM     35  C   UNL A   1      35.184  31.631  27.625  1.00  0.00     0.014 A 
ATOM     36  C   UNL A   1      35.582  29.122  28.783  1.00  0.00     0.010 A 
ATOM     37  C   UNL A   1      36.339  31.380  28.371  1.00  0.00     0.010 A 
ATOM     38  C   UNL A   1      36.553  30.121  28.954  1.00  0.00    -0.014 A 
BRANCH  38  39
ATOM     39  C   UNL A   1      37.801  29.856  29.718  1.00  0.00     0.031 A 
ATOM     40  C   UNL A   1      38.852  28.928  29.175  1.00  0.00     0.074 A 
ATOM     41  C   UNL A   1      37.964  30.407  30.937  1.00  0.00     0.049 A 
ATOM     42  N   UNL A   1      39.969  28.525  29.730  1.00  0.00    -0.248 NA
ATOM     43  C   UNL A   1      38.606  28.361  27.841  1.00  0.00     0.031 C 
ATOM     44  C   UNL A   1      37.004  31.294  31.597  1.00  0.00     0.029 A 
ATOM     45  N   UNL A   1      38.987  30.293  31.845  1.00  0.00    -0.354 N 
ATOM     46  C   UNL A   1      40.549  27.649  28.821  1.00  0.00     0.074 A 
ATOM     47  C   UNL A   1      39.641  27.544  27.699  1.00  0.00     0.031 C 
ATOM     48  C   UNL A   1      37.491  31.657  32.794  1.00  0.00     0.029 A 
ATOM     49  C   UNL A   1      38.777  30.996  33.006  1.00  0.00     0.049 A 
ATOM     50  H   UNL A   1      39.797  29.757  31.680  1.00  0.00     0.167 HD
ATOM     51  C   UNL A   1      41.740  27.007  28.906  1.00  0.00     0.037 A 
ATOM     52  C   UNL A   1      39.526  31.091  34.121  1.00  0.00     0.037 A 
ATOM     53  C   UNL A   1      42.653  27.127  30.013  1.00  0.00     0.049 A 
ATOM     54  C   UNL A   1      40.834  30.352  34.198  1.00  0.00     0.074 A 
ATOM     55  C   UNL A   1      43.910  26.565  30.159  1.00  0.00     0.029 A 
ATOM     56  N   UNL A   1      42.407  27.856  31.168  1.00  0.00    -0.354 N 
ATOM     57  N   UNL A   1      41.404  29.583  33.303  1.00  0.00    -0.248 NA
ATOM     58  C   UNL A   1      41.605  30.497  35.441  1.00  0.00     0.031 C 
ATOM     59  C   UNL A   1      44.402  26.912  31.422  1.00  0.00     0.029 A 
ATOM     60  C   UNL A   1      43.476  27.734  32.042  1.00  0.00     0.049 A 
ATOM     61  H   UNL A   1      41.592  28.381  31.341  1.00  0.00     0.167 HD
ATOM     62  C   UNL A   1      42.608  29.175  33.862  1.00  0.00     0.074 A 
ATOM     63  C   UNL A   1      42.694  29.794  35.167  1.00  0.00     0.031 C 
ATOM     64  C   UNL A   1      43.555  28.359  33.338  1.00  0.00     0.037 A 
BRANCH  51  65
ATOM     65  C   UNL A   1      42.128  26.111  27.766  1.00  0.00     0.064 A 
ATOM     66  C   UNL A   1      42.982  26.550  26.743  1.00  0.00     0.173 A 
ATOM     67  C   UNL A   1      41.681  24.781  27.720  1.00  0.00     0.173 A 
ATOM     68  F   UNL A   1      43.433  27.813  26.736  1.00  0.00    -0.203 F 
ATOM     69  C   UNL A   1      43.349  25.703  25.701  1.00  0.00     0.198 A 
ATOM     70  C   UNL A   1      42.075  23.927  26.693  1.00  0.00     0.198 A 
ATOM     71  F   UNL A   1      40.872  24.306  28.679  1.00  0.00    -0.203 F 
ATOM     72  F   UNL A   1      44.128  26.158  24.711  1.00  0.00    -0.200 F 
ATOM     73  C   UNL A   1      42.901  24.390  25.680  1.00  0.00     0.200 A 
ATOM     74  F   UNL A   1      41.654  22.654  26.683  1.00  0.00    -0.200 F 
ATOM     75  F   UNL A   1      43.263  23.573  24.682  1.00  0.00    -0.200 F 
ENDBRANCH  51  65
BRANCH  52  76
ATOM     76  C   UNL A   1      39.063  31.931  35.257  1.00  0.00     0.064 A 
ATOM     77  C   UNL A   1      39.353  33.302  35.302  1.00  0.00     0.173 A 
ATOM     78  C   UNL A   1      38.331  31.383  36.321  1.00  0.00     0.173 A 
ATOM     79  F   UNL A   1      40.068  33.867  34.318  1.00  0.00    -0.203 F 
ATOM     80  C   UNL A   1      38.947  34.089  36.377  1.00  0.00     0.198 A 
ATOM     81  C   UNL A   1      37.901  32.177  37.382  1.00  0.00     0.198 A 
ATOM     82  F   UNL A   1      38.026  30.078  36.325  1.00  0.00    -0.203 F 
ATOM     83  F   UNL A   1      39.278  35.386  36.417  1.00  0.00    -0.200 F 
ATOM     84  C   UNL A   1      38.216  33.528  37.413  1.00  0.00     0.200 A 
ATOM     85  F   UNL A   1      37.184  31.634  38.375  1.00  0.00    -0.200 F 
ATOM     86  F   UNL A   1      37.823  34.286  38.446  1.00  0.00    -0.200 F 
ENDBRANCH  52  76
BRANCH  64  87
ATOM     87  C   UNL A   1      44.786  28.112  34.162  1.00  0.00     0.064 A 
ATOM     88  C   UNL A   1      44.877  27.022  35.040  1.00  0.00     0.173 A 
ATOM     89  C   UNL A   1      45.902  28.955  34.043  1.00  0.00     0.173 A 
ATOM     90  F   UNL A   1      43.832  26.196  35.202  1.00  0.00    -0.203 F 
ATOM     91  C   UNL A   1      46.032  26.797  35.785  1.00  0.00     0.198 A 
ATOM     92  C   UNL A   1      47.066  28.711  34.767  1.00  0.00     0.198 A 
ATOM     93  F   UNL A   1      45.868  30.009  33.214  1.00  0.00    -0.203 F 
ATOM     94  F   UNL A   1      46.080  25.776  36.651  1.00  0.00    -0.200 F 
ATOM     95  C   UNL A   1      47.127  27.637  35.643  1.00  0.00     0.200 A 
ATOM     96  F   UNL A   1      48.127  29.514  34.618  1.00  0.00    -0.200 F 
ATOM     97  F   UNL A   1      48.241  27.414  36.354  1.00  0.00    -0.200 F 
ENDBRANCH  64  87
ENDBRANCH  38  39
ENDBRANCH  30  33
ENDBRANCH  28  29
ENDBRANCH  27  28
ENDBRANCH   1  27
TORSDOF 13
ENDMDL
