MODEL 1
REMARK VINA RESULT:     -13.3      0.000      0.000
REMARK SMILES O=C(NCCCNC(=O)c1csc(CNc2ccc(-n3cccn3)nc2)c1)c1ccc(-c2c3nc(c(-c4c(F)c(F)c(F)c(F)c4F)c4ccc([nH]4)c(-c4c(F)c(F)c(F)c(F)c4F)c4nc(c(-c5c(F)c(F)c(F)c(F)c5F)c5ccc2[nH]5)C=C4)C=C3)cc1
REMARK SMILES IDX 6 1 5 2 4 3 3 4 1 5 2 6 28 8 29 9 90 10 30 11 89 12 31 13
REMARK SMILES IDX 32 14 33 15 83 16 34 17 88 18 82 19 84 20 35 21 87 22 81 23
REMARK SMILES IDX 80 24 36 26 68 27 48 28 67 29 49 30 52 31 66 32 85 33 50 34
REMARK SMILES IDX 51 35 65 37 86 38 53 39 37 40 38 41 46 42 39 43 40 44 44 45
REMARK SMILES IDX 47 46 41 47 42 48 45 49 43 50 69 51 70 52 78 53 71 54 72 55
REMARK SMILES IDX 76 56 79 57 73 58 74 59 77 60 75 61 54 62 55 63 63 64 56 65
REMARK SMILES IDX 57 66 61 67 64 68 58 69 59 70 62 71 60 72 7 73 8 74 9 76
REMARK SMILES IDX 10 77 11 78 27 79 12 80 13 81 14 82 15 83 16 85 17 86 26 87
REMARK SMILES IDX 18 88 25 89 19 90 20 91 21 92 24 93 22 94 23 95
REMARK H PARENT 3 7 84 25 52 36 7 75 15 84
REMARK Flexibility Score: inf
ROOT
ATOM      1  C   UNL A   1      32.575  29.345  24.721  1.00  0.00     0.118 C 
ENDROOT
BRANCH   1   2
ATOM      2  C   UNL A   1      32.400  30.156  26.005  1.00  0.00     0.042 C 
BRANCH   2   3
ATOM      3  C   UNL A   1      33.433  29.874  27.098  1.00  0.00     0.118 C 
BRANCH   3   4
ATOM      4  N   UNL A   1      33.696  30.985  27.990  1.00  0.00    -0.352 N 
ATOM      5  O   UNL A   1      34.660  32.595  29.147  1.00  0.00    -0.269 OA
ATOM      6  C   UNL A   1      34.811  31.508  28.583  1.00  0.00     0.251 C 
ATOM      7  H   UNL A   1      32.878  31.480  28.223  1.00  0.00     0.163 HD
BRANCH   6   8
ATOM      8  C   UNL A   1      36.146  30.851  28.650  1.00  0.00     0.039 A 
ATOM      9  C   UNL A   1      36.393  29.482  28.546  1.00  0.00     0.014 A 
ATOM     10  C   UNL A   1      37.237  31.710  28.888  1.00  0.00     0.014 A 
ATOM     11  C   UNL A   1      37.673  28.974  28.761  1.00  0.00     0.010 A 
ATOM     12  C   UNL A   1      38.521  31.211  29.082  1.00  0.00     0.010 A 
ATOM     13  C   UNL A   1      38.731  29.835  29.057  1.00  0.00    -0.014 A 
BRANCH  13  14
ATOM     14  C   UNL A   1      40.068  29.265  29.220  1.00  0.00     0.031 A 
ATOM     15  C   UNL A   1      40.542  29.102  30.629  1.00  0.00     0.074 A 
ATOM     16  C   UNL A   1      40.774  28.749  28.194  1.00  0.00     0.049 A 
ATOM     17  N   UNL A   1      41.658  29.489  31.161  1.00  0.00    -0.248 NA
ATOM     18  C   UNL A   1      39.623  28.456  31.580  1.00  0.00     0.031 C 
ATOM     19  C   UNL A   1      40.330  28.545  26.813  1.00  0.00     0.029 A 
ATOM     20  N   UNL A   1      42.017  28.183  28.207  1.00  0.00    -0.354 N 
ATOM     21  C   UNL A   1      41.653  29.008  32.473  1.00  0.00     0.074 A 
ATOM     22  C   UNL A   1      40.337  28.472  32.704  1.00  0.00     0.031 C 
ATOM     23  C   UNL A   1      41.193  27.715  26.187  1.00  0.00     0.029 A 
ATOM     24  C   UNL A   1      42.306  27.432  27.077  1.00  0.00     0.049 A 
ATOM     25  H   UNL A   1      42.652  28.299  28.951  1.00  0.00     0.167 HD
ATOM     26  C   UNL A   1      42.791  28.920  33.217  1.00  0.00     0.037 A 
ATOM     27  C   UNL A   1      43.345  26.577  26.912  1.00  0.00     0.037 A 
ATOM     28  C   UNL A   1      43.808  29.815  32.736  1.00  0.00     0.049 A 
ATOM     29  C   UNL A   1      44.374  26.898  27.929  1.00  0.00     0.074 A 
ATOM     30  C   UNL A   1      43.907  31.185  32.580  1.00  0.00     0.029 A 
ATOM     31  N   UNL A   1      44.874  29.297  32.046  1.00  0.00    -0.354 N 
ATOM     32  N   UNL A   1      45.104  27.977  27.924  1.00  0.00    -0.248 NA
ATOM     33  C   UNL A   1      44.326  26.181  29.194  1.00  0.00     0.031 C 
ATOM     34  C   UNL A   1      44.707  31.368  31.412  1.00  0.00     0.029 A 
ATOM     35  C   UNL A   1      45.064  30.100  30.955  1.00  0.00     0.049 A 
ATOM     36  H   UNL A   1      45.400  28.501  32.289  1.00  0.00     0.167 HD
ATOM     37  C   UNL A   1      45.256  28.303  29.261  1.00  0.00     0.074 A 
ATOM     38  C   UNL A   1      44.854  27.107  29.995  1.00  0.00     0.031 C 
ATOM     39  C   UNL A   1      45.425  29.599  29.653  1.00  0.00     0.037 A 
BRANCH  26  40
ATOM     40  C   UNL A   1      43.106  27.778  34.163  1.00  0.00     0.064 A 
ATOM     41  C   UNL A   1      43.477  26.526  33.627  1.00  0.00     0.173 A 
ATOM     42  C   UNL A   1      42.746  27.766  35.527  1.00  0.00     0.173 A 
ATOM     43  F   UNL A   1      43.846  26.412  32.341  1.00  0.00    -0.203 F 
ATOM     44  C   UNL A   1      43.376  25.343  34.365  1.00  0.00     0.198 A 
ATOM     45  C   UNL A   1      42.697  26.590  36.276  1.00  0.00     0.198 A 
ATOM     46  F   UNL A   1      42.323  28.862  36.165  1.00  0.00    -0.203 F 
ATOM     47  F   UNL A   1      43.597  24.165  33.767  1.00  0.00    -0.200 F 
ATOM     48  C   UNL A   1      42.971  25.374  35.685  1.00  0.00     0.200 A 
ATOM     49  F   UNL A   1      42.295  26.639  37.554  1.00  0.00    -0.200 F 
ATOM     50  F   UNL A   1      42.798  24.239  36.373  1.00  0.00    -0.200 F 
ENDBRANCH  26  40
BRANCH  27  51
ATOM     51  C   UNL A   1      43.381  25.322  26.126  1.00  0.00     0.064 A 
ATOM     52  C   UNL A   1      44.422  25.058  25.222  1.00  0.00     0.173 A 
ATOM     53  C   UNL A   1      42.539  24.238  26.447  1.00  0.00     0.173 A 
ATOM     54  F   UNL A   1      45.299  26.019  24.903  1.00  0.00    -0.203 F 
ATOM     55  C   UNL A   1      44.617  23.781  24.682  1.00  0.00     0.198 A 
ATOM     56  C   UNL A   1      42.728  22.970  25.900  1.00  0.00     0.198 A 
ATOM     57  F   UNL A   1      41.576  24.366  27.371  1.00  0.00    -0.203 F 
ATOM     58  F   UNL A   1      45.657  23.551  23.870  1.00  0.00    -0.200 F 
ATOM     59  C   UNL A   1      43.774  22.738  25.028  1.00  0.00     0.200 A 
ATOM     60  F   UNL A   1      41.928  21.960  26.273  1.00  0.00    -0.200 F 
ATOM     61  F   UNL A   1      43.995  21.502  24.557  1.00  0.00    -0.200 F 
ENDBRANCH  27  51
BRANCH  39  62
ATOM     62  C   UNL A   1      45.735  30.616  28.595  1.00  0.00     0.064 A 
ATOM     63  C   UNL A   1      44.755  31.246  27.810  1.00  0.00     0.173 A 
ATOM     64  C   UNL A   1      47.054  31.069  28.471  1.00  0.00     0.173 A 
ATOM     65  F   UNL A   1      43.458  30.946  27.951  1.00  0.00    -0.203 F 
ATOM     66  C   UNL A   1      45.093  32.249  26.903  1.00  0.00     0.198 A 
ATOM     67  C   UNL A   1      47.383  32.097  27.592  1.00  0.00     0.198 A 
ATOM     68  F   UNL A   1      48.021  30.546  29.242  1.00  0.00    -0.203 F 
ATOM     69  F   UNL A   1      44.142  32.827  26.154  1.00  0.00    -0.200 F 
ATOM     70  C   UNL A   1      46.407  32.677  26.800  1.00  0.00     0.200 A 
ATOM     71  F   UNL A   1      48.645  32.544  27.535  1.00  0.00    -0.200 F 
ATOM     72  F   UNL A   1      46.725  33.670  25.959  1.00  0.00    -0.200 F 
ENDBRANCH  39  62
ENDBRANCH  13  14
ENDBRANCH   6   8
ENDBRANCH   3   4
ENDBRANCH   2   3
ENDBRANCH   1   2
BRANCH   1  73
ATOM     73  N   UNL A   1      31.508  29.580  23.765  1.00  0.00    -0.352 N 
ATOM     74  C   UNL A   1      30.875  28.732  22.894  1.00  0.00     0.252 C 
ATOM     75  H   UNL A   1      31.183  30.509  23.739  1.00  0.00     0.163 HD
ATOM     76  O   UNL A   1      30.181  29.224  22.009  1.00  0.00    -0.269 OA
BRANCH  74  77
ATOM     77  C   UNL A   1      31.041  27.286  23.010  1.00  0.00     0.050 A 
ATOM     78  C   UNL A   1      30.130  26.419  23.584  1.00  0.00     0.079 A 
ATOM     79  C   UNL A   1      32.129  26.551  22.426  1.00  0.00     0.031 A 
ATOM     80  S   UNL A   1      30.617  24.784  23.494  1.00  0.00    -0.146 S 
ATOM     81  C   UNL A   1      32.040  25.189  22.630  1.00  0.00     0.024 A 
BRANCH  81  82
ATOM     82  C   UNL A   1      32.993  24.106  22.200  1.00  0.00     0.159 C 
BRANCH  82  83
ATOM     83  N   UNL A   1      33.751  23.554  23.316  1.00  0.00    -0.379 N 
ATOM     84  H   UNL A   1      34.352  24.138  23.833  1.00  0.00     0.160 HD
BRANCH  83  85
ATOM     85  C   UNL A   1      33.635  22.218  23.657  1.00  0.00     0.053 A 
ATOM     86  C   UNL A   1      32.585  21.415  23.218  1.00  0.00     0.031 A 
ATOM     87  C   UNL A   1      34.542  21.616  24.529  1.00  0.00     0.139 A 
ATOM     88  C   UNL A   1      32.512  20.071  23.596  1.00  0.00     0.051 A 
ATOM     89  N   UNL A   1      34.476  20.335  24.964  1.00  0.00    -0.235 NA
ATOM     90  C   UNL A   1      33.474  19.566  24.470  1.00  0.00     0.153 A 
BRANCH  90  91
ATOM     91  N   UNL A   1      33.409  18.192  24.861  1.00  0.00    -0.223 N 
ATOM     92  C   UNL A   1      34.324  17.196  24.569  1.00  0.00     0.117 A 
ATOM     93  N   UNL A   1      32.377  17.702  25.601  1.00  0.00    -0.175 NA
ATOM     94  C   UNL A   1      33.838  16.029  25.106  1.00  0.00     0.042 A 
ATOM     95  C   UNL A   1      32.621  16.396  25.697  1.00  0.00     0.135 A 
ENDBRANCH  90  91
ENDBRANCH  83  85
ENDBRANCH  82  83
ENDBRANCH  81  82
ENDBRANCH  74  77
ENDBRANCH   1  73
TORSDOF 14
ENDMDL
MODEL 2
REMARK VINA RESULT:     -13.3      3.256      9.184
REMARK SMILES O=C(NCCCNC(=O)c1csc(CNc2ccc(-n3cccn3)nc2)c1)c1ccc(-c2c3nc(c(-c4c(F)c(F)c(F)c(F)c4F)c4ccc([nH]4)c(-c4c(F)c(F)c(F)c(F)c4F)c4nc(c(-c5c(F)c(F)c(F)c(F)c5F)c5ccc2[nH]5)C=C4)C=C3)cc1
REMARK SMILES IDX 6 1 5 2 4 3 3 4 1 5 2 6 28 8 29 9 90 10 30 11 89 12 31 13
REMARK SMILES IDX 32 14 33 15 83 16 34 17 88 18 82 19 84 20 35 21 87 22 81 23
REMARK SMILES IDX 80 24 36 26 68 27 48 28 67 29 49 30 52 31 66 32 85 33 50 34
REMARK SMILES IDX 51 35 65 37 86 38 53 39 37 40 38 41 46 42 39 43 40 44 44 45
REMARK SMILES IDX 47 46 41 47 42 48 45 49 43 50 69 51 70 52 78 53 71 54 72 55
REMARK SMILES IDX 76 56 79 57 73 58 74 59 77 60 75 61 54 62 55 63 63 64 56 65
REMARK SMILES IDX 57 66 61 67 64 68 58 69 59 70 62 71 60 72 7 73 8 74 9 76
REMARK SMILES IDX 10 77 11 78 27 79 12 80 13 81 14 82 15 83 16 85 17 86 26 87
REMARK SMILES IDX 18 88 25 89 19 90 20 91 21 92 24 93 22 94 23 95
REMARK H PARENT 3 7 84 25 52 36 7 75 15 84
REMARK Flexibility Score: inf
ROOT
ATOM      1  C   UNL A   1      35.754  20.144  24.679  1.00  0.00     0.118 C 
ENDROOT
BRANCH   1   2
ATOM      2  C   UNL A   1      36.160  21.176  25.732  1.00  0.00     0.042 C 
BRANCH   2   3
ATOM      3  C   UNL A   1      37.375  22.032  25.367  1.00  0.00     0.118 C 
BRANCH   3   4
ATOM      4  N   UNL A   1      38.658  21.428  25.663  1.00  0.00    -0.352 N 
ATOM      5  O   UNL A   1      40.588  20.890  26.584  1.00  0.00    -0.269 OA
ATOM      6  C   UNL A   1      39.731  21.766  26.440  1.00  0.00     0.251 C 
ATOM      7  H   UNL A   1      38.787  20.571  25.195  1.00  0.00     0.163 HD
BRANCH   6   8
ATOM      8  C   UNL A   1      39.966  23.100  27.060  1.00  0.00     0.039 A 
ATOM      9  C   UNL A   1      39.188  24.242  26.869  1.00  0.00     0.014 A 
ATOM     10  C   UNL A   1      41.114  23.201  27.871  1.00  0.00     0.014 A 
ATOM     11  C   UNL A   1      39.588  25.469  27.397  1.00  0.00     0.010 A 
ATOM     12  C   UNL A   1      41.507  24.418  28.418  1.00  0.00     0.010 A 
ATOM     13  C   UNL A   1      40.762  25.562  28.148  1.00  0.00    -0.014 A 
BRANCH  13  14
ATOM     14  C   UNL A   1      41.115  26.857  28.729  1.00  0.00     0.031 A 
ATOM     15  C   UNL A   1      42.346  27.506  28.182  1.00  0.00     0.074 A 
ATOM     16  C   UNL A   1      40.305  27.525  29.575  1.00  0.00     0.049 A 
ATOM     17  N   UNL A   1      43.362  27.991  28.822  1.00  0.00    -0.248 NA
ATOM     18  C   UNL A   1      42.474  27.583  26.717  1.00  0.00     0.031 C 
ATOM     19  C   UNL A   1      38.936  27.180  29.964  1.00  0.00     0.029 A 
ATOM     20  N   UNL A   1      40.504  28.734  30.179  1.00  0.00    -0.354 N 
ATOM     21  C   UNL A   1      44.192  28.569  27.858  1.00  0.00     0.074 A 
ATOM     22  C   UNL A   1      43.648  28.199  26.578  1.00  0.00     0.031 C 
ATOM     23  C   UNL A   1      38.359  28.251  30.554  1.00  0.00     0.029 A 
ATOM     24  C   UNL A   1      39.349  29.305  30.692  1.00  0.00     0.049 A 
ATOM     25  H   UNL A   1      41.390  29.161  30.245  1.00  0.00     0.167 HD
ATOM     26  C   UNL A   1      45.165  29.466  28.183  1.00  0.00     0.037 A 
ATOM     27  C   UNL A   1      39.196  30.579  31.127  1.00  0.00     0.037 A 
ATOM     28  C   UNL A   1      45.568  29.334  29.557  1.00  0.00     0.049 A 
ATOM     29  C   UNL A   1      40.540  31.138  31.402  1.00  0.00     0.074 A 
ATOM     30  C   UNL A   1      46.118  28.322  30.320  1.00  0.00     0.029 A 
ATOM     31  N   UNL A   1      45.159  30.282  30.460  1.00  0.00    -0.354 N 
ATOM     32  N   UNL A   1      41.306  30.766  32.388  1.00  0.00    -0.248 NA
ATOM     33  C   UNL A   1      41.206  31.864  30.331  1.00  0.00     0.031 C 
ATOM     34  C   UNL A   1      45.556  28.489  31.620  1.00  0.00     0.029 A 
ATOM     35  C   UNL A   1      44.726  29.608  31.569  1.00  0.00     0.049 A 
ATOM     36  H   UNL A   1      45.175  31.259  30.335  1.00  0.00     0.167 HD
ATOM     37  C   UNL A   1      42.591  30.828  31.874  1.00  0.00     0.074 A 
ATOM     38  C   UNL A   1      42.476  31.613  30.649  1.00  0.00     0.031 C 
ATOM     39  C   UNL A   1      43.574  30.004  32.340  1.00  0.00     0.037 A 
BRANCH  26  40
ATOM     40  C   UNL A   1      45.508  30.690  27.358  1.00  0.00     0.064 A 
ATOM     41  C   UNL A   1      46.861  30.950  27.046  1.00  0.00     0.173 A 
ATOM     42  C   UNL A   1      44.624  31.769  27.147  1.00  0.00     0.173 A 
ATOM     43  F   UNL A   1      47.795  29.998  27.199  1.00  0.00    -0.203 F 
ATOM     44  C   UNL A   1      47.306  32.222  26.674  1.00  0.00     0.198 A 
ATOM     45  C   UNL A   1      45.065  33.024  26.724  1.00  0.00     0.198 A 
ATOM     46  F   UNL A   1      43.322  31.695  27.442  1.00  0.00    -0.203 F 
ATOM     47  F   UNL A   1      48.618  32.453  26.535  1.00  0.00    -0.200 F 
ATOM     48  C   UNL A   1      46.409  33.262  26.529  1.00  0.00     0.200 A 
ATOM     49  F   UNL A   1      44.181  34.022  26.595  1.00  0.00    -0.200 F 
ATOM     50  F   UNL A   1      46.838  34.499  26.248  1.00  0.00    -0.200 F 
ENDBRANCH  26  40
BRANCH  27  51
ATOM     51  C   UNL A   1      37.990  31.435  31.047  1.00  0.00     0.064 A 
ATOM     52  C   UNL A   1      37.459  31.834  29.810  1.00  0.00     0.173 A 
ATOM     53  C   UNL A   1      37.178  31.656  32.178  1.00  0.00     0.173 A 
ATOM     54  F   UNL A   1      38.144  31.613  28.679  1.00  0.00    -0.203 F 
ATOM     55  C   UNL A   1      36.185  32.405  29.709  1.00  0.00     0.198 A 
ATOM     56  C   UNL A   1      35.914  32.235  32.077  1.00  0.00     0.198 A 
ATOM     57  F   UNL A   1      37.556  31.226  33.390  1.00  0.00    -0.203 F 
ATOM     58  F   UNL A   1      35.686  32.716  28.505  1.00  0.00    -0.200 F 
ATOM     59  C   UNL A   1      35.412  32.598  30.842  1.00  0.00     0.200 A 
ATOM     60  F   UNL A   1      35.161  32.381  33.177  1.00  0.00    -0.200 F 
ATOM     61  F   UNL A   1      34.170  33.091  30.740  1.00  0.00    -0.200 F 
ENDBRANCH  27  51
BRANCH  39  62
ATOM     62  C   UNL A   1      43.311  29.247  33.607  1.00  0.00     0.064 A 
ATOM     63  C   UNL A   1      43.608  29.743  34.887  1.00  0.00     0.173 A 
ATOM     64  C   UNL A   1      42.606  28.039  33.529  1.00  0.00     0.173 A 
ATOM     65  F   UNL A   1      44.182  30.943  35.047  1.00  0.00    -0.203 F 
ATOM     66  C   UNL A   1      43.260  29.033  36.035  1.00  0.00     0.198 A 
ATOM     67  C   UNL A   1      42.226  27.351  34.677  1.00  0.00     0.198 A 
ATOM     68  F   UNL A   1      42.241  27.549  32.333  1.00  0.00    -0.203 F 
ATOM     69  F   UNL A   1      43.567  29.521  37.246  1.00  0.00    -0.200 F 
ATOM     70  C   UNL A   1      42.564  27.840  35.928  1.00  0.00     0.200 A 
ATOM     71  F   UNL A   1      41.505  26.226  34.571  1.00  0.00    -0.200 F 
ATOM     72  F   UNL A   1      42.191  27.179  37.032  1.00  0.00    -0.200 F 
ENDBRANCH  39  62
ENDBRANCH  13  14
ENDBRANCH   6   8
ENDBRANCH   3   4
ENDBRANCH   2   3
ENDBRANCH   1   2
BRANCH   1  73
ATOM     73  N   UNL A   1      34.507  19.476  25.008  1.00  0.00    -0.352 N 
ATOM     74  C   UNL A   1      33.225  19.953  25.097  1.00  0.00     0.252 C 
ATOM     75  H   UNL A   1      34.599  18.515  25.200  1.00  0.00     0.163 HD
ATOM     76  O   UNL A   1      32.382  19.246  25.641  1.00  0.00    -0.269 OA
BRANCH  74  77
ATOM     77  C   UNL A   1      32.884  21.271  24.573  1.00  0.00     0.050 A 
ATOM     78  C   UNL A   1      32.576  21.555  23.255  1.00  0.00     0.079 A 
ATOM     79  C   UNL A   1      32.698  22.440  25.390  1.00  0.00     0.031 A 
ATOM     80  S   UNL A   1      32.163  23.193  23.003  1.00  0.00    -0.146 S 
ATOM     81  C   UNL A   1      32.328  23.557  24.669  1.00  0.00     0.024 A 
BRANCH  81  82
ATOM     82  C   UNL A   1      32.075  24.957  25.162  1.00  0.00     0.159 C 
BRANCH  82  83
ATOM     83  N   UNL A   1      32.602  25.972  24.260  1.00  0.00    -0.379 N 
ATOM     84  H   UNL A   1      33.530  25.900  23.935  1.00  0.00     0.160 HD
BRANCH  83  85
ATOM     85  C   UNL A   1      31.816  27.035  23.853  1.00  0.00     0.053 A 
ATOM     86  C   UNL A   1      31.599  28.160  24.646  1.00  0.00     0.031 A 
ATOM     87  C   UNL A   1      31.133  27.003  22.637  1.00  0.00     0.139 A 
ATOM     88  C   UNL A   1      30.791  29.205  24.190  1.00  0.00     0.051 A 
ATOM     89  N   UNL A   1      30.299  27.968  22.184  1.00  0.00    -0.235 NA
ATOM     90  C   UNL A   1      30.157  29.075  22.955  1.00  0.00     0.153 A 
BRANCH  90  91
ATOM     91  N   UNL A   1      29.331  30.140  22.479  1.00  0.00    -0.223 N 
ATOM     92  C   UNL A   1      28.851  31.215  23.206  1.00  0.00     0.117 A 
ATOM     93  N   UNL A   1      28.910  30.202  21.186  1.00  0.00    -0.175 NA
ATOM     94  C   UNL A   1      28.068  31.961  22.358  1.00  0.00     0.042 A 
ATOM     95  C   UNL A   1      28.114  31.268  21.140  1.00  0.00     0.135 A 
ENDBRANCH  90  91
ENDBRANCH  83  85
ENDBRANCH  82  83
ENDBRANCH  81  82
ENDBRANCH  74  77
ENDBRANCH   1  73
TORSDOF 14
ENDMDL
MODEL 3
REMARK VINA RESULT:     -13.2      5.016      7.835
REMARK SMILES O=C(NCCCNC(=O)c1csc(CNc2ccc(-n3cccn3)nc2)c1)c1ccc(-c2c3nc(c(-c4c(F)c(F)c(F)c(F)c4F)c4ccc([nH]4)c(-c4c(F)c(F)c(F)c(F)c4F)c4nc(c(-c5c(F)c(F)c(F)c(F)c5F)c5ccc2[nH]5)C=C4)C=C3)cc1
REMARK SMILES IDX 6 1 5 2 4 3 3 4 1 5 2 6 28 8 29 9 90 10 30 11 89 12 31 13
REMARK SMILES IDX 32 14 33 15 83 16 34 17 88 18 82 19 84 20 35 21 87 22 81 23
REMARK SMILES IDX 80 24 36 26 68 27 48 28 67 29 49 30 52 31 66 32 85 33 50 34
REMARK SMILES IDX 51 35 65 37 86 38 53 39 37 40 38 41 46 42 39 43 40 44 44 45
REMARK SMILES IDX 47 46 41 47 42 48 45 49 43 50 69 51 70 52 78 53 71 54 72 55
REMARK SMILES IDX 76 56 79 57 73 58 74 59 77 60 75 61 54 62 55 63 63 64 56 65
REMARK SMILES IDX 57 66 61 67 64 68 58 69 59 70 62 71 60 72 7 73 8 74 9 76
REMARK SMILES IDX 10 77 11 78 27 79 12 80 13 81 14 82 15 83 16 85 17 86 26 87
REMARK SMILES IDX 18 88 25 89 19 90 20 91 21 92 24 93 22 94 23 95
REMARK H PARENT 3 7 84 25 52 36 7 75 15 84
REMARK Flexibility Score: inf
ROOT
ATOM      1  C   UNL A   1      33.022  35.179  29.175  1.00  0.00     0.118 C 
ENDROOT
BRANCH   1   2
ATOM      2  C   UNL A   1      34.120  35.163  28.112  1.00  0.00     0.042 C 
BRANCH   2   3
ATOM      3  C   UNL A   1      35.063  33.959  28.169  1.00  0.00     0.118 C 
BRANCH   3   4
ATOM      4  N   UNL A   1      34.468  32.701  27.765  1.00  0.00    -0.352 N 
ATOM      5  O   UNL A   1      33.944  30.568  27.567  1.00  0.00    -0.269 OA
ATOM      6  C   UNL A   1      34.814  31.384  27.888  1.00  0.00     0.251 C 
ATOM      7  H   UNL A   1      33.615  32.824  27.290  1.00  0.00     0.163 HD
BRANCH   6   8
ATOM      8  C   UNL A   1      36.147  30.872  28.310  1.00  0.00     0.039 A 
ATOM      9  C   UNL A   1      37.190  31.637  28.833  1.00  0.00     0.014 A 
ATOM     10  C   UNL A   1      36.364  29.495  28.108  1.00  0.00     0.014 A 
ATOM     11  C   UNL A   1      38.441  31.066  29.065  1.00  0.00     0.010 A 
ATOM     12  C   UNL A   1      37.604  28.915  28.357  1.00  0.00     0.010 A 
ATOM     13  C   UNL A   1      38.655  29.712  28.801  1.00  0.00    -0.014 A 
BRANCH  13  14
ATOM     14  C   UNL A   1      39.966  29.141  29.111  1.00  0.00     0.031 A 
ATOM     15  C   UNL A   1      40.287  28.990  30.563  1.00  0.00     0.074 A 
ATOM     16  C   UNL A   1      40.777  28.616  28.170  1.00  0.00     0.049 A 
ATOM     17  N   UNL A   1      41.340  29.380  31.208  1.00  0.00    -0.248 NA
ATOM     18  C   UNL A   1      39.270  28.353  31.416  1.00  0.00     0.031 C 
ATOM     19  C   UNL A   1      40.482  28.401  26.752  1.00  0.00     0.029 A 
ATOM     20  N   UNL A   1      42.010  28.049  28.320  1.00  0.00    -0.354 N 
ATOM     21  C   UNL A   1      41.193  28.910  32.516  1.00  0.00     0.074 A 
ATOM     22  C   UNL A   1      39.860  28.377  32.610  1.00  0.00     0.031 C 
ATOM     23  C   UNL A   1      41.406  27.566  26.228  1.00  0.00     0.029 A 
ATOM     24  C   UNL A   1      42.417  27.288  27.234  1.00  0.00     0.049 A 
ATOM     25  H   UNL A   1      42.562  28.171  29.128  1.00  0.00     0.167 HD
ATOM     26  C   UNL A   1      42.245  28.827  33.378  1.00  0.00     0.037 A 
ATOM     27  C   UNL A   1      43.466  26.431  27.188  1.00  0.00     0.037 A 
ATOM     28  C   UNL A   1      43.310  29.717  33.002  1.00  0.00     0.049 A 
ATOM     29  C   UNL A   1      44.381  26.760  28.306  1.00  0.00     0.074 A 
ATOM     30  C   UNL A   1      43.427  31.085  32.846  1.00  0.00     0.029 A 
ATOM     31  N   UNL A   1      44.442  29.192  32.434  1.00  0.00    -0.354 N 
ATOM     32  N   UNL A   1      45.110  27.838  28.370  1.00  0.00    -0.248 NA
ATOM     33  C   UNL A   1      44.197  26.054  29.565  1.00  0.00     0.031 C 
ATOM     34  C   UNL A   1      44.348  31.258  31.769  1.00  0.00     0.029 A 
ATOM     35  C   UNL A   1      44.749  29.987  31.363  1.00  0.00     0.049 A 
ATOM     36  H   UNL A   1      44.938  28.398  32.738  1.00  0.00     0.167 HD
ATOM     37  C   UNL A   1      45.118  28.175  29.714  1.00  0.00     0.074 A 
ATOM     38  C   UNL A   1      44.638  26.986  30.410  1.00  0.00     0.031 C 
ATOM     39  C   UNL A   1      45.246  29.474  30.111  1.00  0.00     0.037 A 
BRANCH  26  40
ATOM     40  C   UNL A   1      42.455  27.693  34.362  1.00  0.00     0.064 A 
ATOM     41  C   UNL A   1      42.986  26.470  33.896  1.00  0.00     0.173 A 
ATOM     42  C   UNL A   1      41.865  27.643  35.642  1.00  0.00     0.173 A 
ATOM     43  F   UNL A   1      43.579  26.393  32.694  1.00  0.00    -0.203 F 
ATOM     44  C   UNL A   1      42.826  25.274  34.602  1.00  0.00     0.198 A 
ATOM     45  C   UNL A   1      41.753  26.457  36.368  1.00  0.00     0.198 A 
ATOM     46  F   UNL A   1      41.275  28.706  36.199  1.00  0.00    -0.203 F 
ATOM     47  F   UNL A   1      43.214  24.118  34.048  1.00  0.00    -0.200 F 
ATOM     48  C   UNL A   1      42.195  25.266  35.831  1.00  0.00     0.200 A 
ATOM     49  F   UNL A   1      41.132  26.467  37.556  1.00  0.00    -0.200 F 
ATOM     50  F   UNL A   1      41.971  24.114  36.474  1.00  0.00    -0.200 F 
ENDBRANCH  26  40
BRANCH  27  51
ATOM     51  C   UNL A   1      43.584  25.170  26.421  1.00  0.00     0.064 A 
ATOM     52  C   UNL A   1      44.548  25.017  25.412  1.00  0.00     0.173 A 
ATOM     53  C   UNL A   1      42.931  23.996  26.846  1.00  0.00     0.173 A 
ATOM     54  F   UNL A   1      45.253  26.075  24.987  1.00  0.00    -0.203 F 
ATOM     55  C   UNL A   1      44.852  23.762  24.873  1.00  0.00     0.198 A 
ATOM     56  C   UNL A   1      43.226  22.747  26.301  1.00  0.00     0.198 A 
ATOM     57  F   UNL A   1      42.062  24.024  27.868  1.00  0.00    -0.203 F 
ATOM     58  F   UNL A   1      45.821  23.645  23.955  1.00  0.00    -0.200 F 
ATOM     59  C   UNL A   1      44.195  22.628  25.323  1.00  0.00     0.200 A 
ATOM     60  F   UNL A   1      42.610  21.654  26.773  1.00  0.00    -0.200 F 
ATOM     61  F   UNL A   1      44.526  21.419  24.849  1.00  0.00    -0.200 F 
ENDBRANCH  27  51
BRANCH  39  62
ATOM     62  C   UNL A   1      45.670  30.482  29.084  1.00  0.00     0.064 A 
ATOM     63  C   UNL A   1      47.012  30.767  28.779  1.00  0.00     0.173 A 
ATOM     64  C   UNL A   1      44.685  31.075  28.285  1.00  0.00     0.173 A 
ATOM     65  F   UNL A   1      48.012  30.154  29.426  1.00  0.00    -0.203 F 
ATOM     66  C   UNL A   1      47.347  31.648  27.753  1.00  0.00     0.198 A 
ATOM     67  C   UNL A   1      45.023  31.925  27.236  1.00  0.00     0.198 A 
ATOM     68  F   UNL A   1      43.389  30.790  28.490  1.00  0.00    -0.203 F 
ATOM     69  F   UNL A   1      48.634  31.915  27.490  1.00  0.00    -0.200 F 
ATOM     70  C   UNL A   1      46.351  32.221  26.979  1.00  0.00     0.200 A 
ATOM     71  F   UNL A   1      44.060  32.434  26.455  1.00  0.00    -0.200 F 
ATOM     72  F   UNL A   1      46.674  33.035  25.964  1.00  0.00    -0.200 F 
ENDBRANCH  39  62
ENDBRANCH  13  14
ENDBRANCH   6   8
ENDBRANCH   3   4
ENDBRANCH   2   3
ENDBRANCH   1   2
BRANCH   1  73
ATOM     73  N   UNL A   1      32.927  36.456  29.858  1.00  0.00    -0.352 N 
ATOM     74  C   UNL A   1      33.211  36.809  31.153  1.00  0.00     0.252 C 
ATOM     75  H   UNL A   1      32.604  37.196  29.295  1.00  0.00     0.163 HD
ATOM     76  O   UNL A   1      32.807  37.895  31.557  1.00  0.00    -0.269 OA
BRANCH  74  77
ATOM     77  C   UNL A   1      33.958  35.907  32.023  1.00  0.00     0.050 A 
ATOM     78  C   UNL A   1      34.232  36.127  33.359  1.00  0.00     0.079 A 
ATOM     79  C   UNL A   1      34.405  34.598  31.632  1.00  0.00     0.031 A 
ATOM     80  S   UNL A   1      35.075  34.833  34.090  1.00  0.00    -0.146 S 
ATOM     81  C   UNL A   1      35.045  33.913  32.645  1.00  0.00     0.024 A 
BRANCH  81  82
ATOM     82  C   UNL A   1      35.671  32.545  32.611  1.00  0.00     0.159 C 
BRANCH  82  83
ATOM     83  N   UNL A   1      37.035  32.541  33.124  1.00  0.00    -0.379 N 
ATOM     84  H   UNL A   1      37.206  32.250  34.049  1.00  0.00     0.160 HD
BRANCH  83  85
ATOM     85  C   UNL A   1      38.092  32.942  32.325  1.00  0.00     0.053 A 
ATOM     86  C   UNL A   1      39.340  32.323  32.359  1.00  0.00     0.031 A 
ATOM     87  C   UNL A   1      37.980  34.048  31.483  1.00  0.00     0.139 A 
ATOM     88  C   UNL A   1      40.376  32.770  31.534  1.00  0.00     0.051 A 
ATOM     89  N   UNL A   1      38.974  34.547  30.712  1.00  0.00    -0.235 NA
ATOM     90  C   UNL A   1      40.158  33.884  30.725  1.00  0.00     0.153 A 
BRANCH  90  91
ATOM     91  N   UNL A   1      41.212  34.347  29.876  1.00  0.00    -0.223 N 
ATOM     92  C   UNL A   1      42.509  33.870  29.819  1.00  0.00     0.117 A 
ATOM     93  N   UNL A   1      41.027  35.364  28.990  1.00  0.00    -0.175 NA
ATOM     94  C   UNL A   1      43.182  34.636  28.897  1.00  0.00     0.042 A 
ATOM     95  C   UNL A   1      42.228  35.561  28.447  1.00  0.00     0.135 A 
ENDBRANCH  90  91
ENDBRANCH  83  85
ENDBRANCH  82  83
ENDBRANCH  81  82
ENDBRANCH  74  77
ENDBRANCH   1  73
TORSDOF 14
ENDMDL
