MODEL 1
REMARK VINA RESULT:     -13.1      0.000      0.000
REMARK SMILES CC(C)COc1cccc(C(=O)Nc2ccc(O)c(C(=O)NCCCNC(=O)c3ccc(-c4c5nc(c(-c6c(F)c(F)c(F)c(F)c6F)c6ccc([nH]6)c(-c6c(F)c(F)c(F)c(F)c6F)c6nc(c(-c7c(F)c(F)c(F)c(F)c7F)c7ccc4[nH]7)C=C6)C=C5)cc3)c2)c1
REMARK SMILES IDX 20 1 21 2 22 3 19 5 14 6 15 7 92 8 16 9 17 10 13 11 11 12
REMARK SMILES IDX 12 13 10 15 6 16 7 17 93 18 8 19 9 20 5 21 4 22 2 23 1 24
REMARK SMILES IDX 3 25 18 26 23 28 24 29 25 30 26 31 27 32 28 34 29 35 30 36
REMARK SMILES IDX 91 37 31 38 90 39 32 40 33 41 34 42 84 43 35 44 89 45 83 46
REMARK SMILES IDX 85 47 36 48 88 49 82 50 81 51 37 53 69 54 49 55 68 56 50 57
REMARK SMILES IDX 53 58 67 59 86 60 51 61 52 62 66 64 87 65 54 66 38 67 39 68
REMARK SMILES IDX 47 69 40 70 41 71 45 72 48 73 42 74 43 75 46 76 44 77 70 78
REMARK SMILES IDX 71 79 79 80 72 81 73 82 77 83 80 84 74 85 75 86 78 87 76 88
REMARK SMILES IDX 55 89 56 90 64 91 57 92 58 93 62 94 65 95 59 96 60 97 63 98
REMARK SMILES IDX 61 99
REMARK H PARENT 22 4 13 14 18 27 26 33 85 52 53 63
REMARK Flexibility Score: inf
ROOT
ATOM      1  C   UNL A   1      33.454  28.940  26.696  1.00  0.00     0.255 C 
ATOM      2  O   UNL A   1      34.545  28.751  27.244  1.00  0.00    -0.269 OA
ATOM      3  N   UNL A   1      32.970  30.221  26.714  1.00  0.00    -0.352 N 
ATOM      4  H   UNL A   1      33.549  30.855  27.195  1.00  0.00     0.163 HD
ENDROOT
BRANCH   1   5
ATOM      5  C   UNL A   1      32.813  27.792  25.983  1.00  0.00     0.083 A 
ATOM      6  C   UNL A   1      32.906  25.922  24.425  1.00  0.00     0.042 A 
ATOM      7  C   UNL A   1      31.739  25.388  24.971  1.00  0.00     0.030 A 
ATOM      8  C   UNL A   1      33.344  27.184  24.838  1.00  0.00     0.043 A 
ATOM      9  C   UNL A   1      31.115  26.039  26.036  1.00  0.00     0.049 A 
ATOM     10  C   UNL A   1      31.671  27.205  26.562  1.00  0.00     0.128 A 
BRANCH   6  11
ATOM     11  N   UNL A   1      33.642  25.135  23.520  1.00  0.00    -0.322 N 
ATOM     12  C   UNL A   1      34.367  23.959  23.680  1.00  0.00     0.255 C 
ATOM     13  O   UNL A   1      35.185  23.666  22.805  1.00  0.00    -0.269 OA
ATOM     14  H   UNL A   1      33.645  25.483  22.599  1.00  0.00     0.170 HD
BRANCH  12  15
ATOM     15  C   UNL A   1      34.105  22.942  24.759  1.00  0.00     0.043 A 
ATOM     16  C   UNL A   1      33.240  20.774  25.509  1.00  0.00     0.120 A 
ATOM     17  C   UNL A   1      33.646  21.040  26.808  1.00  0.00     0.046 A 
ATOM     18  C   UNL A   1      33.489  21.719  24.514  1.00  0.00     0.060 A 
ATOM     19  C   UNL A   1      34.327  22.231  27.082  1.00  0.00     0.005 A 
ATOM     20  C   UNL A   1      34.552  23.176  26.066  1.00  0.00     0.014 A 
BRANCH  16  21
ATOM     21  O   UNL A   1      32.386  19.734  25.269  1.00  0.00    -0.493 OA
BRANCH  21  22
ATOM     22  C   UNL A   1      32.536  19.036  24.017  1.00  0.00     0.232 C 
BRANCH  22  23
ATOM     23  C   UNL A   1      32.697  17.502  24.124  1.00  0.00     0.020 C 
ATOM     24  C   UNL A   1      33.892  16.992  23.302  1.00  0.00     0.011 C 
ATOM     25  C   UNL A   1      32.897  17.034  25.567  1.00  0.00     0.011 C 
ENDBRANCH  22  23
ENDBRANCH  21  22
ENDBRANCH  16  21
ENDBRANCH  12  15
ENDBRANCH   6  11
BRANCH  10  26
ATOM     26  O   UNL A   1      31.067  27.683  27.698  1.00  0.00    -0.507 OA
ATOM     27  H   UNL A   1      31.591  27.995  28.410  1.00  0.00     0.293 HD
ENDBRANCH  10  26
ENDBRANCH   1   5
BRANCH   3  28
ATOM     28  C   UNL A   1      31.776  30.825  26.165  1.00  0.00     0.118 C 
BRANCH  28  29
ATOM     29  C   UNL A   1      31.448  32.134  26.858  1.00  0.00     0.042 C 
BRANCH  29  30
ATOM     30  C   UNL A   1      32.710  32.813  27.352  1.00  0.00     0.118 C 
BRANCH  30  31
ATOM     31  N   UNL A   1      32.477  34.223  27.643  1.00  0.00    -0.352 N 
ATOM     32  C   UNL A   1      33.014  35.015  28.628  1.00  0.00     0.251 C 
ATOM     33  H   UNL A   1      31.840  34.676  27.044  1.00  0.00     0.163 HD
ATOM     34  O   UNL A   1      32.525  36.108  28.878  1.00  0.00    -0.269 OA
BRANCH  32  35
ATOM     35  C   UNL A   1      34.173  34.523  29.397  1.00  0.00     0.039 A 
ATOM     36  C   UNL A   1      33.963  33.936  30.646  1.00  0.00     0.014 A 
ATOM     37  C   UNL A   1      35.463  34.619  28.871  1.00  0.00     0.014 A 
ATOM     38  C   UNL A   1      35.043  33.383  31.332  1.00  0.00     0.010 A 
ATOM     39  C   UNL A   1      36.509  33.957  29.492  1.00  0.00     0.010 A 
ATOM     40  C   UNL A   1      36.316  33.348  30.739  1.00  0.00    -0.014 A 
BRANCH  40  41
ATOM     41  C   UNL A   1      37.465  32.694  31.406  1.00  0.00     0.031 A 
ATOM     42  C   UNL A   1      38.151  31.531  30.746  1.00  0.00     0.074 A 
ATOM     43  C   UNL A   1      37.831  33.093  32.639  1.00  0.00     0.049 A 
ATOM     44  N   UNL A   1      39.123  30.778  31.196  1.00  0.00    -0.248 NA
ATOM     45  C   UNL A   1      37.654  31.134  29.419  1.00  0.00     0.031 C 
ATOM     46  C   UNL A   1      37.188  34.161  33.408  1.00  0.00     0.029 A 
ATOM     47  N   UNL A   1      38.824  32.640  33.468  1.00  0.00    -0.354 N 
ATOM     48  C   UNL A   1      39.330  29.811  30.222  1.00  0.00     0.074 A 
ATOM     49  C   UNL A   1      38.343  30.027  29.190  1.00  0.00     0.031 C 
ATOM     50  C   UNL A   1      37.819  34.298  34.583  1.00  0.00     0.029 A 
ATOM     51  C   UNL A   1      38.880  33.301  34.671  1.00  0.00     0.049 A 
ATOM     52  H   UNL A   1      39.438  31.910  33.225  1.00  0.00     0.167 HD
ATOM     53  C   UNL A   1      40.279  28.846  30.182  1.00  0.00     0.037 A 
ATOM     54  C   UNL A   1      39.691  33.114  35.728  1.00  0.00     0.037 A 
ATOM     55  C   UNL A   1      41.275  28.661  31.204  1.00  0.00     0.049 A 
ATOM     56  C   UNL A   1      40.749  32.048  35.654  1.00  0.00     0.074 A 
ATOM     57  C   UNL A   1      42.337  27.776  31.221  1.00  0.00     0.029 A 
ATOM     58  N   UNL A   1      41.323  29.371  32.395  1.00  0.00    -0.354 N 
ATOM     59  N   UNL A   1      41.002  31.199  34.686  1.00  0.00    -0.248 NA
ATOM     60  C   UNL A   1      41.640  31.918  36.813  1.00  0.00     0.031 C 
ATOM     61  C   UNL A   1      42.987  27.903  32.454  1.00  0.00     0.029 A 
ATOM     62  C   UNL A   1      42.375  28.916  33.174  1.00  0.00     0.049 A 
ATOM     63  H   UNL A   1      40.701  30.091  32.650  1.00  0.00     0.167 HD
ATOM     64  C   UNL A   1      42.090  30.450  35.108  1.00  0.00     0.074 A 
ATOM     65  C   UNL A   1      42.463  30.958  36.413  1.00  0.00     0.031 C 
ATOM     66  C   UNL A   1      42.723  29.430  34.475  1.00  0.00     0.037 A 
BRANCH  53  67
ATOM     67  C   UNL A   1      40.273  27.915  29.002  1.00  0.00     0.064 A 
ATOM     68  C   UNL A   1      40.985  28.199  27.827  1.00  0.00     0.173 A 
ATOM     69  C   UNL A   1      39.553  26.710  29.054  1.00  0.00     0.173 A 
ATOM     70  F   UNL A   1      41.681  29.341  27.716  1.00  0.00    -0.203 F 
ATOM     71  C   UNL A   1      40.943  27.335  26.734  1.00  0.00     0.198 A 
ATOM     72  C   UNL A   1      39.545  25.831  27.975  1.00  0.00     0.198 A 
ATOM     73  F   UNL A   1      38.858  26.384  30.154  1.00  0.00    -0.203 F 
ATOM     74  F   UNL A   1      41.577  27.662  25.599  1.00  0.00    -0.200 F 
ATOM     75  C   UNL A   1      40.229  26.149  26.811  1.00  0.00     0.200 A 
ATOM     76  F   UNL A   1      38.866  24.679  28.057  1.00  0.00    -0.200 F 
ATOM     77  F   UNL A   1      40.193  25.318  25.761  1.00  0.00    -0.200 F 
ENDBRANCH  53  67
BRANCH  54  78
ATOM     78  C   UNL A   1      39.538  33.972  36.932  1.00  0.00     0.064 A 
ATOM     79  C   UNL A   1      40.104  35.252  36.986  1.00  0.00     0.173 A 
ATOM     80  C   UNL A   1      38.798  33.539  38.043  1.00  0.00     0.173 A 
ATOM     81  F   UNL A   1      40.834  35.705  35.956  1.00  0.00    -0.203 F 
ATOM     82  C   UNL A   1      39.950  36.061  38.110  1.00  0.00     0.198 A 
ATOM     83  C   UNL A   1      38.619  34.361  39.153  1.00  0.00     0.198 A 
ATOM     84  F   UNL A   1      38.227  32.326  38.040  1.00  0.00    -0.203 F 
ATOM     85  F   UNL A   1      40.535  37.266  38.150  1.00  0.00    -0.200 F 
ATOM     86  C   UNL A   1      39.201  35.618  39.189  1.00  0.00     0.200 A 
ATOM     87  F   UNL A   1      37.878  33.936  40.186  1.00  0.00    -0.200 F 
ATOM     88  F   UNL A   1      39.043  36.402  40.265  1.00  0.00    -0.200 F 
ENDBRANCH  54  78
BRANCH  66  89
ATOM     89  C   UNL A   1      43.898  28.811  35.177  1.00  0.00     0.064 A 
ATOM     90  C   UNL A   1      45.203  29.295  35.000  1.00  0.00     0.173 A 
ATOM     91  C   UNL A   1      43.709  27.746  36.072  1.00  0.00     0.173 A 
ATOM     92  F   UNL A   1      45.439  30.303  34.147  1.00  0.00    -0.203 F 
ATOM     93  C   UNL A   1      46.277  28.719  35.671  1.00  0.00     0.198 A 
ATOM     94  C   UNL A   1      44.781  27.195  36.768  1.00  0.00     0.198 A 
ATOM     95  F   UNL A   1      42.480  27.251  36.284  1.00  0.00    -0.203 F 
ATOM     96  F   UNL A   1      47.522  29.162  35.447  1.00  0.00    -0.200 F 
ATOM     97  C   UNL A   1      46.064  27.675  36.561  1.00  0.00     0.200 A 
ATOM     98  F   UNL A   1      44.570  26.201  37.640  1.00  0.00    -0.200 F 
ATOM     99  F   UNL A   1      47.099  27.127  37.213  1.00  0.00    -0.200 F 
ENDBRANCH  66  89
ENDBRANCH  40  41
ENDBRANCH  32  35
ENDBRANCH  30  31
ENDBRANCH  29  30
ENDBRANCH  28  29
ENDBRANCH   3  28
TORSDOF 16
ENDMDL
MODEL 2
REMARK VINA RESULT:     -12.9      1.610      7.499
REMARK SMILES CC(C)COc1cccc(C(=O)Nc2ccc(O)c(C(=O)NCCCNC(=O)c3ccc(-c4c5nc(c(-c6c(F)c(F)c(F)c(F)c6F)c6ccc([nH]6)c(-c6c(F)c(F)c(F)c(F)c6F)c6nc(c(-c7c(F)c(F)c(F)c(F)c7F)c7ccc4[nH]7)C=C6)C=C5)cc3)c2)c1
REMARK SMILES IDX 20 1 21 2 22 3 19 5 14 6 15 7 92 8 16 9 17 10 13 11 11 12
REMARK SMILES IDX 12 13 10 15 6 16 7 17 93 18 8 19 9 20 5 21 4 22 2 23 1 24
REMARK SMILES IDX 3 25 18 26 23 28 24 29 25 30 26 31 27 32 28 34 29 35 30 36
REMARK SMILES IDX 91 37 31 38 90 39 32 40 33 41 34 42 84 43 35 44 89 45 83 46
REMARK SMILES IDX 85 47 36 48 88 49 82 50 81 51 37 53 69 54 49 55 68 56 50 57
REMARK SMILES IDX 53 58 67 59 86 60 51 61 52 62 66 64 87 65 54 66 38 67 39 68
REMARK SMILES IDX 47 69 40 70 41 71 45 72 48 73 42 74 43 75 46 76 44 77 70 78
REMARK SMILES IDX 71 79 79 80 72 81 73 82 77 83 80 84 74 85 75 86 78 87 76 88
REMARK SMILES IDX 55 89 56 90 64 91 57 92 58 93 62 94 65 95 59 96 60 97 63 98
REMARK SMILES IDX 61 99
REMARK H PARENT 22 4 13 14 18 27 26 33 85 52 53 63
REMARK Flexibility Score: inf
ROOT
ATOM      1  C   UNL A   1      30.341  29.344  23.809  1.00  0.00     0.255 C 
ATOM      2  O   UNL A   1      29.534  29.660  22.928  1.00  0.00    -0.269 OA
ATOM      3  N   UNL A   1      30.810  30.354  24.605  1.00  0.00    -0.352 N 
ATOM      4  H   UNL A   1      30.462  31.243  24.363  1.00  0.00     0.163 HD
ENDROOT
BRANCH   1   5
ATOM      5  C   UNL A   1      30.653  27.893  23.993  1.00  0.00     0.083 A 
ATOM      6  C   UNL A   1      30.457  25.804  25.230  1.00  0.00     0.042 A 
ATOM      7  C   UNL A   1      30.881  25.084  24.114  1.00  0.00     0.030 A 
ATOM      8  C   UNL A   1      30.488  27.201  25.200  1.00  0.00     0.043 A 
ATOM      9  C   UNL A   1      31.173  25.759  22.928  1.00  0.00     0.049 A 
ATOM     10  C   UNL A   1      31.019  27.144  22.858  1.00  0.00     0.128 A 
BRANCH   6  11
ATOM     11  N   UNL A   1      29.946  25.092  26.331  1.00  0.00    -0.322 N 
ATOM     12  C   UNL A   1      30.124  23.781  26.760  1.00  0.00     0.255 C 
ATOM     13  O   UNL A   1      29.303  23.322  27.557  1.00  0.00    -0.269 OA
ATOM     14  H   UNL A   1      29.348  25.622  26.906  1.00  0.00     0.170 HD
BRANCH  12  15
ATOM     15  C   UNL A   1      31.337  22.945  26.447  1.00  0.00     0.043 A 
ATOM     16  C   UNL A   1      32.389  20.975  25.436  1.00  0.00     0.120 A 
ATOM     17  C   UNL A   1      33.640  21.406  25.853  1.00  0.00     0.046 A 
ATOM     18  C   UNL A   1      31.271  21.755  25.727  1.00  0.00     0.060 A 
ATOM     19  C   UNL A   1      33.755  22.629  26.521  1.00  0.00     0.005 A 
ATOM     20  C   UNL A   1      32.611  23.391  26.818  1.00  0.00     0.014 A 
BRANCH  16  21
ATOM     21  O   UNL A   1      32.232  19.692  24.989  1.00  0.00    -0.493 OA
BRANCH  21  22
ATOM     22  C   UNL A   1      33.235  19.185  24.086  1.00  0.00     0.232 C 
BRANCH  22  23
ATOM     23  C   UNL A   1      32.881  17.862  23.370  1.00  0.00     0.020 C 
ATOM     24  C   UNL A   1      32.304  18.106  21.966  1.00  0.00     0.011 C 
ATOM     25  C   UNL A   1      34.091  16.938  23.217  1.00  0.00     0.011 C 
ENDBRANCH  22  23
ENDBRANCH  21  22
ENDBRANCH  16  21
ENDBRANCH  12  15
ENDBRANCH   6  11
BRANCH  10  26
ATOM     26  O   UNL A   1      31.187  27.691  21.611  1.00  0.00    -0.507 OA
ATOM     27  H   UNL A   1      30.443  27.836  21.060  1.00  0.00     0.293 HD
ENDBRANCH  10  26
ENDBRANCH   1   5
BRANCH   3  28
ATOM     28  C   UNL A   1      31.716  30.373  25.733  1.00  0.00     0.118 C 
BRANCH  28  29
ATOM     29  C   UNL A   1      31.457  31.567  26.632  1.00  0.00     0.042 C 
BRANCH  29  30
ATOM     30  C   UNL A   1      32.759  32.199  27.078  1.00  0.00     0.118 C 
BRANCH  30  31
ATOM     31  N   UNL A   1      32.589  33.616  27.380  1.00  0.00    -0.352 N 
ATOM     32  C   UNL A   1      33.165  34.377  28.367  1.00  0.00     0.251 C 
ATOM     33  H   UNL A   1      31.967  34.099  26.789  1.00  0.00     0.163 HD
ATOM     34  O   UNL A   1      32.725  35.488  28.628  1.00  0.00    -0.269 OA
BRANCH  32  35
ATOM     35  C   UNL A   1      34.309  33.831  29.124  1.00  0.00     0.039 A 
ATOM     36  C   UNL A   1      34.067  32.960  30.188  1.00  0.00     0.014 A 
ATOM     37  C   UNL A   1      35.617  34.160  28.764  1.00  0.00     0.014 A 
ATOM     38  C   UNL A   1      35.144  32.366  30.843  1.00  0.00     0.010 A 
ATOM     39  C   UNL A   1      36.678  33.473  29.329  1.00  0.00     0.010 A 
ATOM     40  C   UNL A   1      36.456  32.583  30.388  1.00  0.00    -0.014 A 
BRANCH  40  41
ATOM     41  C   UNL A   1      37.615  31.901  31.010  1.00  0.00     0.031 A 
ATOM     42  C   UNL A   1      38.075  32.308  32.381  1.00  0.00     0.074 A 
ATOM     43  C   UNL A   1      38.298  30.978  30.306  1.00  0.00     0.049 A 
ATOM     44  N   UNL A   1      39.107  31.888  33.068  1.00  0.00    -0.248 NA
ATOM     45  C   UNL A   1      37.296  33.358  33.058  1.00  0.00     0.031 C 
ATOM     46  C   UNL A   1      37.987  30.558  28.938  1.00  0.00     0.029 A 
ATOM     47  N   UNL A   1      39.402  30.236  30.638  1.00  0.00    -0.354 N 
ATOM     48  C   UNL A   1      39.113  32.638  34.235  1.00  0.00     0.074 A 
ATOM     49  C   UNL A   1      38.025  33.584  34.139  1.00  0.00     0.031 C 
ATOM     50  C   UNL A   1      38.863  29.615  28.558  1.00  0.00     0.029 A 
ATOM     51  C   UNL A   1      39.822  29.397  29.635  1.00  0.00     0.049 A 
ATOM     52  H   UNL A   1      39.852  30.301  31.511  1.00  0.00     0.167 HD
ATOM     53  C   UNL A   1      39.936  32.526  35.305  1.00  0.00     0.037 A 
ATOM     54  C   UNL A   1      40.870  28.554  29.589  1.00  0.00     0.037 A 
ATOM     55  C   UNL A   1      40.996  31.559  35.400  1.00  0.00     0.049 A 
ATOM     56  C   UNL A   1      41.759  28.433  30.795  1.00  0.00     0.074 A 
ATOM     57  C   UNL A   1      41.831  31.297  36.471  1.00  0.00     0.029 A 
ATOM     58  N   UNL A   1      41.374  30.700  34.377  1.00  0.00    -0.354 N 
ATOM     59  N   UNL A   1      41.698  29.078  31.936  1.00  0.00    -0.248 NA
ATOM     60  C   UNL A   1      42.858  27.464  30.712  1.00  0.00     0.031 C 
ATOM     61  C   UNL A   1      42.757  30.327  36.072  1.00  0.00     0.029 A 
ATOM     62  C   UNL A   1      42.456  29.934  34.778  1.00  0.00     0.049 A 
ATOM     63  H   UNL A   1      40.937  30.643  33.496  1.00  0.00     0.167 HD
ATOM     64  C   UNL A   1      42.734  28.580  32.713  1.00  0.00     0.074 A 
ATOM     65  C   UNL A   1      43.396  27.563  31.920  1.00  0.00     0.031 C 
ATOM     66  C   UNL A   1      43.106  28.932  33.969  1.00  0.00     0.037 A 
BRANCH  53  67
ATOM     67  C   UNL A   1      39.725  33.481  36.447  1.00  0.00     0.064 A 
ATOM     68  C   UNL A   1      38.907  33.161  37.542  1.00  0.00     0.173 A 
ATOM     69  C   UNL A   1      40.363  34.731  36.451  1.00  0.00     0.173 A 
ATOM     70  F   UNL A   1      38.262  31.986  37.585  1.00  0.00    -0.203 F 
ATOM     71  C   UNL A   1      38.703  34.072  38.576  1.00  0.00     0.198 A 
ATOM     72  C   UNL A   1      40.187  35.623  37.506  1.00  0.00     0.198 A 
ATOM     73  F   UNL A   1      41.160  35.088  35.433  1.00  0.00    -0.203 F 
ATOM     74  F   UNL A   1      37.864  33.770  39.577  1.00  0.00    -0.200 F 
ATOM     75  C   UNL A   1      39.348  35.299  38.561  1.00  0.00     0.200 A 
ATOM     76  F   UNL A   1      40.823  36.802  37.495  1.00  0.00    -0.200 F 
ATOM     77  F   UNL A   1      39.154  36.173  39.558  1.00  0.00    -0.200 F 
ENDBRANCH  53  67
BRANCH  54  78
ATOM     78  C   UNL A   1      41.113  27.751  28.362  1.00  0.00     0.064 A 
ATOM     79  C   UNL A   1      40.473  26.520  28.163  1.00  0.00     0.173 A 
ATOM     80  C   UNL A   1      41.970  28.211  27.351  1.00  0.00     0.173 A 
ATOM     81  F   UNL A   1      39.658  26.030  29.108  1.00  0.00    -0.203 F 
ATOM     82  C   UNL A   1      40.692  25.774  27.007  1.00  0.00     0.198 A 
ATOM     83  C   UNL A   1      42.163  27.478  26.182  1.00  0.00     0.198 A 
ATOM     84  F   UNL A   1      42.600  29.387  27.487  1.00  0.00    -0.203 F 
ATOM     85  F   UNL A   1      40.097  24.582  26.860  1.00  0.00    -0.200 F 
ATOM     86  C   UNL A   1      41.531  26.257  26.014  1.00  0.00     0.200 A 
ATOM     87  F   UNL A   1      42.960  27.959  25.217  1.00  0.00    -0.200 F 
ATOM     88  F   UNL A   1      41.731  25.544  24.898  1.00  0.00    -0.200 F 
ENDBRANCH  54  78
BRANCH  66  89
ATOM     89  C   UNL A   1      44.270  28.199  34.572  1.00  0.00     0.064 A 
ATOM     90  C   UNL A   1      45.579  28.697  34.490  1.00  0.00     0.173 A 
ATOM     91  C   UNL A   1      44.066  27.003  35.278  1.00  0.00     0.173 A 
ATOM     92  F   UNL A   1      45.829  29.830  33.815  1.00  0.00    -0.203 F 
ATOM     93  C   UNL A   1      46.643  28.011  35.068  1.00  0.00     0.198 A 
ATOM     94  C   UNL A   1      45.128  26.338  35.885  1.00  0.00     0.198 A 
ATOM     95  F   UNL A   1      42.833  26.487  35.394  1.00  0.00    -0.203 F 
ATOM     96  F   UNL A   1      47.892  28.478  34.931  1.00  0.00    -0.200 F 
ATOM     97  C   UNL A   1      46.416  26.837  35.771  1.00  0.00     0.200 A 
ATOM     98  F   UNL A   1      44.903  25.215  36.580  1.00  0.00    -0.200 F 
ATOM     99  F   UNL A   1      47.441  26.184  36.336  1.00  0.00    -0.200 F 
ENDBRANCH  66  89
ENDBRANCH  40  41
ENDBRANCH  32  35
ENDBRANCH  30  31
ENDBRANCH  29  30
ENDBRANCH  28  29
ENDBRANCH   3  28
TORSDOF 16
ENDMDL
MODEL 3
REMARK VINA RESULT:     -12.7      1.494      2.869
REMARK SMILES CC(C)COc1cccc(C(=O)Nc2ccc(O)c(C(=O)NCCCNC(=O)c3ccc(-c4c5nc(c(-c6c(F)c(F)c(F)c(F)c6F)c6ccc([nH]6)c(-c6c(F)c(F)c(F)c(F)c6F)c6nc(c(-c7c(F)c(F)c(F)c(F)c7F)c7ccc4[nH]7)C=C6)C=C5)cc3)c2)c1
REMARK SMILES IDX 20 1 21 2 22 3 19 5 14 6 15 7 92 8 16 9 17 10 13 11 11 12
REMARK SMILES IDX 12 13 10 15 6 16 7 17 93 18 8 19 9 20 5 21 4 22 2 23 1 24
REMARK SMILES IDX 3 25 18 26 23 28 24 29 25 30 26 31 27 32 28 34 29 35 30 36
REMARK SMILES IDX 91 37 31 38 90 39 32 40 33 41 34 42 84 43 35 44 89 45 83 46
REMARK SMILES IDX 85 47 36 48 88 49 82 50 81 51 37 53 69 54 49 55 68 56 50 57
REMARK SMILES IDX 53 58 67 59 86 60 51 61 52 62 66 64 87 65 54 66 38 67 39 68
REMARK SMILES IDX 47 69 40 70 41 71 45 72 48 73 42 74 43 75 46 76 44 77 70 78
REMARK SMILES IDX 71 79 79 80 72 81 73 82 77 83 80 84 74 85 75 86 78 87 76 88
REMARK SMILES IDX 55 89 56 90 64 91 57 92 58 93 62 94 65 95 59 96 60 97 63 98
REMARK SMILES IDX 61 99
REMARK H PARENT 22 4 13 14 18 27 26 33 85 52 53 63
REMARK Flexibility Score: inf
ROOT
ATOM      1  C   UNL A   1      30.794  29.154  24.090  1.00  0.00     0.255 C 
ATOM      2  O   UNL A   1      29.957  29.236  23.186  1.00  0.00    -0.269 OA
ATOM      3  N   UNL A   1      31.011  30.285  24.832  1.00  0.00    -0.352 N 
ATOM      4  H   UNL A   1      30.481  31.060  24.536  1.00  0.00     0.163 HD
ENDROOT
BRANCH   1   5
ATOM      5  C   UNL A   1      31.415  27.821  24.361  1.00  0.00     0.083 A 
ATOM      6  C   UNL A   1      31.531  25.729  25.603  1.00  0.00     0.042 A 
ATOM      7  C   UNL A   1      32.296  25.151  24.590  1.00  0.00     0.030 A 
ATOM      8  C   UNL A   1      31.226  27.092  25.542  1.00  0.00     0.043 A 
ATOM      9  C   UNL A   1      32.607  25.895  23.451  1.00  0.00     0.049 A 
ATOM     10  C   UNL A   1      32.135  27.201  23.321  1.00  0.00     0.128 A 
BRANCH   6  11
ATOM     11  N   UNL A   1      31.034  24.897  26.623  1.00  0.00    -0.322 N 
ATOM     12  C   UNL A   1      31.012  23.515  26.774  1.00  0.00     0.255 C 
ATOM     13  O   UNL A   1      30.224  23.040  27.594  1.00  0.00    -0.269 OA
ATOM     14  H   UNL A   1      30.624  25.386  27.372  1.00  0.00     0.170 HD
BRANCH  12  15
ATOM     15  C   UNL A   1      31.996  22.576  26.125  1.00  0.00     0.043 A 
ATOM     16  C   UNL A   1      34.177  21.461  26.050  1.00  0.00     0.120 A 
ATOM     17  C   UNL A   1      33.813  20.787  24.894  1.00  0.00     0.046 A 
ATOM     18  C   UNL A   1      33.261  22.326  26.646  1.00  0.00     0.060 A 
ATOM     19  C   UNL A   1      32.526  20.961  24.376  1.00  0.00     0.005 A 
ATOM     20  C   UNL A   1      31.625  21.851  24.986  1.00  0.00     0.014 A 
BRANCH  16  21
ATOM     21  O   UNL A   1      35.489  21.477  26.436  1.00  0.00    -0.493 OA
BRANCH  21  22
ATOM     22  C   UNL A   1      36.374  22.357  25.715  1.00  0.00     0.232 C 
BRANCH  22  23
ATOM     23  C   UNL A   1      37.603  21.682  25.065  1.00  0.00     0.020 C 
ATOM     24  C   UNL A   1      38.878  21.885  25.900  1.00  0.00     0.011 C 
ATOM     25  C   UNL A   1      37.411  20.175  24.878  1.00  0.00     0.011 C 
ENDBRANCH  22  23
ENDBRANCH  21  22
ENDBRANCH  16  21
ENDBRANCH  12  15
ENDBRANCH   6  11
BRANCH  10  26
ATOM     26  O   UNL A   1      32.368  27.792  22.105  1.00  0.00    -0.507 OA
ATOM     27  H   UNL A   1      32.770  28.638  22.065  1.00  0.00     0.293 HD
ENDBRANCH  10  26
ENDBRANCH   1   5
BRANCH   3  28
ATOM     28  C   UNL A   1      31.865  30.565  25.965  1.00  0.00     0.118 C 
BRANCH  28  29
ATOM     29  C   UNL A   1      31.474  31.863  26.647  1.00  0.00     0.042 C 
BRANCH  29  30
ATOM     30  C   UNL A   1      32.671  32.497  27.325  1.00  0.00     0.118 C 
BRANCH  30  31
ATOM     31  N   UNL A   1      32.458  33.922  27.559  1.00  0.00    -0.352 N 
ATOM     32  C   UNL A   1      33.009  34.746  28.509  1.00  0.00     0.251 C 
ATOM     33  H   UNL A   1      31.824  34.357  26.944  1.00  0.00     0.163 HD
ATOM     34  O   UNL A   1      32.536  35.855  28.715  1.00  0.00    -0.269 OA
BRANCH  32  35
ATOM     35  C   UNL A   1      34.166  34.270  29.293  1.00  0.00     0.039 A 
ATOM     36  C   UNL A   1      33.943  33.505  30.439  1.00  0.00     0.014 A 
ATOM     37  C   UNL A   1      35.468  34.560  28.879  1.00  0.00     0.014 A 
ATOM     38  C   UNL A   1      35.032  32.972  31.127  1.00  0.00     0.010 A 
ATOM     39  C   UNL A   1      36.539  33.926  29.487  1.00  0.00     0.010 A 
ATOM     40  C   UNL A   1      36.335  33.141  30.629  1.00  0.00    -0.014 A 
BRANCH  40  41
ATOM     41  C   UNL A   1      37.505  32.517  31.292  1.00  0.00     0.031 A 
ATOM     42  C   UNL A   1      38.200  31.354  30.643  1.00  0.00     0.074 A 
ATOM     43  C   UNL A   1      37.882  32.946  32.511  1.00  0.00     0.049 A 
ATOM     44  N   UNL A   1      39.190  30.625  31.092  1.00  0.00    -0.248 NA
ATOM     45  C   UNL A   1      37.689  30.923  29.331  1.00  0.00     0.031 C 
ATOM     46  C   UNL A   1      37.233  34.018  33.269  1.00  0.00     0.029 A 
ATOM     47  N   UNL A   1      38.895  32.524  33.334  1.00  0.00    -0.354 N 
ATOM     48  C   UNL A   1      39.399  29.643  30.134  1.00  0.00     0.074 A 
ATOM     49  C   UNL A   1      38.393  29.824  29.113  1.00  0.00     0.031 C 
ATOM     50  C   UNL A   1      37.879  34.186  34.433  1.00  0.00     0.029 A 
ATOM     51  C   UNL A   1      38.957  33.208  34.523  1.00  0.00     0.049 A 
ATOM     52  H   UNL A   1      39.516  31.800  33.095  1.00  0.00     0.167 HD
ATOM     53  C   UNL A   1      40.363  28.693  30.098  1.00  0.00     0.037 A 
ATOM     54  C   UNL A   1      39.787  33.055  35.572  1.00  0.00     0.037 A 
ATOM     55  C   UNL A   1      41.376  28.543  31.108  1.00  0.00     0.049 A 
ATOM     56  C   UNL A   1      40.861  32.005  35.501  1.00  0.00     0.074 A 
ATOM     57  C   UNL A   1      42.453  27.676  31.126  1.00  0.00     0.029 A 
ATOM     58  N   UNL A   1      41.430  29.276  32.285  1.00  0.00    -0.354 N 
ATOM     59  N   UNL A   1      41.113  31.142  34.545  1.00  0.00    -0.248 NA
ATOM     60  C   UNL A   1      41.770  31.911  36.649  1.00  0.00     0.031 C 
ATOM     61  C   UNL A   1      43.119  27.836  32.346  1.00  0.00     0.029 A 
ATOM     62  C   UNL A   1      42.501  28.853  33.056  1.00  0.00     0.049 A 
ATOM     63  H   UNL A   1      40.801  29.991  32.535  1.00  0.00     0.167 HD
ATOM     64  C   UNL A   1      42.219  30.418  34.966  1.00  0.00     0.074 A 
ATOM     65  C   UNL A   1      42.603  30.957  36.255  1.00  0.00     0.031 C 
ATOM     66  C   UNL A   1      42.860  29.398  34.342  1.00  0.00     0.037 A 
BRANCH  53  67
ATOM     67  C   UNL A   1      40.354  27.739  28.935  1.00  0.00     0.064 A 
ATOM     68  C   UNL A   1      39.630  26.538  28.964  1.00  0.00     0.173 A 
ATOM     69  C   UNL A   1      41.073  28.041  27.767  1.00  0.00     0.173 A 
ATOM     70  F   UNL A   1      38.934  26.192  30.058  1.00  0.00    -0.203 F 
ATOM     71  C   UNL A   1      39.658  25.655  27.886  1.00  0.00     0.198 A 
ATOM     72  C   UNL A   1      41.068  27.174  26.678  1.00  0.00     0.198 A 
ATOM     73  F   UNL A   1      41.779  29.177  27.682  1.00  0.00    -0.203 F 
ATOM     74  F   UNL A   1      39.013  24.484  27.965  1.00  0.00    -0.200 F 
ATOM     75  C   UNL A   1      40.372  25.977  26.742  1.00  0.00     0.200 A 
ATOM     76  F   UNL A   1      41.746  27.495  25.567  1.00  0.00    -0.200 F 
ATOM     77  F   UNL A   1      40.395  25.129  25.705  1.00  0.00    -0.200 F 
ENDBRANCH  53  67
BRANCH  54  78
ATOM     78  C   UNL A   1      39.637  33.933  36.761  1.00  0.00     0.064 A 
ATOM     79  C   UNL A   1      38.855  33.542  37.856  1.00  0.00     0.173 A 
ATOM     80  C   UNL A   1      40.298  35.168  36.840  1.00  0.00     0.173 A 
ATOM     81  F   UNL A   1      38.190  32.378  37.822  1.00  0.00    -0.203 F 
ATOM     82  C   UNL A   1      38.725  34.360  38.977  1.00  0.00     0.198 A 
ATOM     83  C   UNL A   1      40.192  35.970  37.974  1.00  0.00     0.198 A 
ATOM     84  F   UNL A   1      41.068  35.585  35.824  1.00  0.00    -0.203 F 
ATOM     85  F   UNL A   1      37.938  33.980  39.992  1.00  0.00    -0.200 F 
ATOM     86  C   UNL A   1      39.400  35.569  39.038  1.00  0.00     0.200 A 
ATOM     87  F   UNL A   1      40.863  37.129  38.037  1.00  0.00    -0.200 F 
ATOM     88  F   UNL A   1      39.285  36.349  40.122  1.00  0.00    -0.200 F 
ENDBRANCH  54  78
BRANCH  66  89
ATOM     89  C   UNL A   1      44.055  28.811  35.037  1.00  0.00     0.064 A 
ATOM     90  C   UNL A   1      43.941  27.711  35.900  1.00  0.00     0.173 A 
ATOM     91  C   UNL A   1      45.338  29.330  34.803  1.00  0.00     0.173 A 
ATOM     92  F   UNL A   1      42.735  27.185  36.167  1.00  0.00    -0.203 F 
ATOM     93  C   UNL A   1      45.061  27.171  36.523  1.00  0.00     0.198 A 
ATOM     94  C   UNL A   1      46.461  28.765  35.400  1.00  0.00     0.198 A 
ATOM     95  F   UNL A   1      45.504  30.376  33.980  1.00  0.00    -0.203 F 
ATOM     96  F   UNL A   1      44.922  26.153  37.385  1.00  0.00    -0.200 F 
ATOM     97  C   UNL A   1      46.321  27.692  36.267  1.00  0.00     0.200 A 
ATOM     98  F   UNL A   1      47.678  29.259  35.136  1.00  0.00    -0.200 F 
ATOM     99  F   UNL A   1      47.401  27.164  36.861  1.00  0.00    -0.200 F 
ENDBRANCH  66  89
ENDBRANCH  40  41
ENDBRANCH  32  35
ENDBRANCH  30  31
ENDBRANCH  29  30
ENDBRANCH  28  29
ENDBRANCH   3  28
TORSDOF 16
ENDMDL
