MODEL 1
REMARK VINA RESULT:     -14.2      0.000      0.000
REMARK SMILES Cc1ccc(-c2cc3cccnc3n2CCC(=O)NCCCNC(=O)c2ccc(-c3c4nc(c(-c5c(F)c(F)c(F)c(F)c5F)c5ccc([nH]5)c(-c5c(F)c(F)c(F)c(F)c5F)c5nc(c(-c6c(F)c(F)c(F)c(F)c6F)c6ccc3[nH]6)C=C5)C=C4)cc2)cn1
REMARK SMILES IDX 20 1 19 2 17 3 18 4 16 6 15 7 14 8 6 9 7 10 8 11 13 12 9 13
REMARK SMILES IDX 12 14 10 15 11 16 5 17 1 18 2 19 3 20 90 21 4 22 89 23 21 24
REMARK SMILES IDX 22 25 23 26 24 27 25 29 26 30 27 31 88 32 28 33 87 34 29 35
REMARK SMILES IDX 30 36 31 37 81 38 32 39 86 40 80 41 82 42 33 43 85 44 79 45
REMARK SMILES IDX 78 46 34 48 66 49 46 50 65 51 47 52 50 53 64 54 83 55 48 56
REMARK SMILES IDX 49 57 63 59 84 60 51 61 35 62 36 63 44 64 37 65 38 66 42 67
REMARK SMILES IDX 45 68 39 69 40 70 43 71 41 72 67 73 68 74 76 75 69 76 70 77
REMARK SMILES IDX 74 78 77 79 71 80 72 81 75 82 73 83 52 84 53 85 61 86 54 87
REMARK SMILES IDX 55 88 59 89 62 90 56 91 57 92 60 93 58 94
REMARK H PARENT 19 5 23 28 82 47 50 58
REMARK Flexibility Score: inf
ROOT
ATOM      1  C   UNL A   1      32.202  29.700  25.548  1.00  0.00     0.117 C 
ENDROOT
BRANCH   1   2
ATOM      2  N   UNL A   1      33.265  29.624  24.555  1.00  0.00    -0.356 N 
ATOM      3  C   UNL A   1      33.535  28.687  23.605  1.00  0.00     0.221 C 
ATOM      4  O   UNL A   1      34.397  28.956  22.764  1.00  0.00    -0.275 OA
ATOM      5  H   UNL A   1      33.895  30.380  24.573  1.00  0.00     0.163 HD
BRANCH   3   6
ATOM      6  C   UNL A   1      32.844  27.343  23.580  1.00  0.00     0.122 C 
BRANCH   6   7
ATOM      7  C   UNL A   1      31.792  27.186  22.468  1.00  0.00     0.134 C 
BRANCH   7   8
ATOM      8  N   UNL A   1      30.408  27.204  22.925  1.00  0.00    -0.325 N 
ATOM      9  C   UNL A   1      29.732  26.350  23.806  1.00  0.00     0.052 A 
ATOM     10  C   UNL A   1      28.428  26.863  23.876  1.00  0.00     0.039 A 
ATOM     11  C   UNL A   1      28.366  28.102  23.192  1.00  0.00     0.020 A 
ATOM     12  C   UNL A   1      29.580  28.249  22.543  1.00  0.00     0.140 A 
ATOM     13  C   UNL A   1      27.457  29.171  23.125  1.00  0.00     0.013 A 
ATOM     14  N   UNL A   1      29.961  29.295  21.777  1.00  0.00    -0.238 NA
ATOM     15  C   UNL A   1      27.831  30.296  22.390  1.00  0.00     0.021 A 
ATOM     16  C   UNL A   1      29.051  30.291  21.732  1.00  0.00     0.113 A 
BRANCH   9  17
ATOM     17  C   UNL A   1      30.285  25.285  24.688  1.00  0.00     0.017 A 
ATOM     18  C   UNL A   1      32.525  22.644  27.241  1.00  0.00     0.066 C 
ATOM     19  C   UNL A   1      31.721  23.545  26.354  1.00  0.00     0.037 A 
ATOM     20  C   UNL A   1      31.473  23.184  25.044  1.00  0.00     0.024 A 
ATOM     21  N   UNL A   1      31.239  24.695  26.876  1.00  0.00    -0.261 NA
ATOM     22  C   UNL A   1      30.748  24.056  24.232  1.00  0.00     0.014 A 
ATOM     23  C   UNL A   1      30.541  25.519  26.041  1.00  0.00     0.121 A 
ENDBRANCH   9  17
ENDBRANCH   7   8
ENDBRANCH   6   7
ENDBRANCH   3   6
ENDBRANCH   1   2
BRANCH   1  24
ATOM     24  C   UNL A   1      32.469  30.710  26.645  1.00  0.00     0.042 C 
BRANCH  24  25
ATOM     25  C   UNL A   1      33.766  30.555  27.403  1.00  0.00     0.118 C 
BRANCH  25  26
ATOM     26  N   UNL A   1      34.024  31.647  28.322  1.00  0.00    -0.352 N 
ATOM     27  C   UNL A   1      35.098  31.865  29.161  1.00  0.00     0.251 C 
ATOM     28  H   UNL A   1      33.326  32.339  28.352  1.00  0.00     0.163 HD
ATOM     29  O   UNL A   1      34.999  32.712  30.034  1.00  0.00    -0.269 OA
BRANCH  27  30
ATOM     30  C   UNL A   1      36.379  31.121  28.998  1.00  0.00     0.039 A 
ATOM     31  C   UNL A   1      36.332  29.772  28.612  1.00  0.00     0.014 A 
ATOM     32  C   UNL A   1      37.609  31.690  29.330  1.00  0.00     0.014 A 
ATOM     33  C   UNL A   1      37.493  29.005  28.661  1.00  0.00     0.010 A 
ATOM     34  C   UNL A   1      38.776  30.986  29.209  1.00  0.00     0.010 A 
ATOM     35  C   UNL A   1      38.695  29.623  29.016  1.00  0.00    -0.014 A 
BRANCH  35  36
ATOM     36  C   UNL A   1      39.911  28.872  29.246  1.00  0.00     0.031 A 
ATOM     37  C   UNL A   1      40.220  28.646  30.666  1.00  0.00     0.074 A 
ATOM     38  C   UNL A   1      40.575  28.255  28.245  1.00  0.00     0.049 A 
ATOM     39  N   UNL A   1      41.150  29.214  31.353  1.00  0.00    -0.248 NA
ATOM     40  C   UNL A   1      39.315  27.797  31.456  1.00  0.00     0.031 C 
ATOM     41  C   UNL A   1      40.157  28.096  26.844  1.00  0.00     0.029 A 
ATOM     42  N   UNL A   1      41.738  27.548  28.295  1.00  0.00    -0.354 N 
ATOM     43  C   UNL A   1      41.086  28.636  32.612  1.00  0.00     0.074 A 
ATOM     44  C   UNL A   1      39.832  27.930  32.680  1.00  0.00     0.031 C 
ATOM     45  C   UNL A   1      40.934  27.167  26.242  1.00  0.00     0.029 A 
ATOM     46  C   UNL A   1      42.005  26.806  27.152  1.00  0.00     0.049 A 
ATOM     47  H   UNL A   1      42.338  27.561  29.075  1.00  0.00     0.167 HD
ATOM     48  C   UNL A   1      42.204  28.545  33.382  1.00  0.00     0.037 A 
ATOM     49  C   UNL A   1      43.034  25.944  26.982  1.00  0.00     0.037 A 
ATOM     50  C   UNL A   1      43.297  29.282  32.803  1.00  0.00     0.049 A 
ATOM     51  C   UNL A   1      44.094  26.331  27.941  1.00  0.00     0.074 A 
ATOM     52  C   UNL A   1      43.706  30.596  32.760  1.00  0.00     0.029 A 
ATOM     53  N   UNL A   1      43.925  28.624  31.778  1.00  0.00    -0.354 N 
ATOM     54  N   UNL A   1      44.744  27.462  27.879  1.00  0.00    -0.248 NA
ATOM     55  C   UNL A   1      44.218  25.608  29.203  1.00  0.00     0.031 C 
ATOM     56  C   UNL A   1      44.500  30.731  31.581  1.00  0.00     0.029 A 
ATOM     57  C   UNL A   1      44.582  29.494  30.948  1.00  0.00     0.049 A 
ATOM     58  H   UNL A   1      43.908  27.647  31.655  1.00  0.00     0.167 HD
ATOM     59  C   UNL A   1      44.983  27.787  29.198  1.00  0.00     0.074 A 
ATOM     60  C   UNL A   1      44.813  26.547  29.943  1.00  0.00     0.031 C 
ATOM     61  C   UNL A   1      44.966  29.085  29.614  1.00  0.00     0.037 A 
BRANCH  48  62
ATOM     62  C   UNL A   1      42.460  27.458  34.385  1.00  0.00     0.064 A 
ATOM     63  C   UNL A   1      43.024  26.240  33.961  1.00  0.00     0.173 A 
ATOM     64  C   UNL A   1      41.916  27.466  35.686  1.00  0.00     0.173 A 
ATOM     65  F   UNL A   1      43.520  26.115  32.721  1.00  0.00    -0.203 F 
ATOM     66  C   UNL A   1      43.028  25.109  34.782  1.00  0.00     0.198 A 
ATOM     67  C   UNL A   1      41.972  26.354  36.523  1.00  0.00     0.198 A 
ATOM     68  F   UNL A   1      41.215  28.509  36.149  1.00  0.00    -0.203 F 
ATOM     69  F   UNL A   1      43.490  23.943  34.309  1.00  0.00    -0.200 F 
ATOM     70  C   UNL A   1      42.509  25.169  36.064  1.00  0.00     0.200 A 
ATOM     71  F   UNL A   1      41.436  26.423  37.749  1.00  0.00    -0.200 F 
ATOM     72  F   UNL A   1      42.481  24.078  36.839  1.00  0.00    -0.200 F 
ENDBRANCH  48  62
BRANCH  49  73
ATOM     73  C   UNL A   1      43.048  24.643  26.276  1.00  0.00     0.064 A 
ATOM     74  C   UNL A   1      43.932  24.420  25.207  1.00  0.00     0.173 A 
ATOM     75  C   UNL A   1      42.439  23.505  26.839  1.00  0.00     0.173 A 
ATOM     76  F   UNL A   1      44.568  25.450  24.633  1.00  0.00    -0.203 F 
ATOM     77  C   UNL A   1      44.243  23.128  24.772  1.00  0.00     0.198 A 
ATOM     78  C   UNL A   1      42.748  22.217  26.401  1.00  0.00     0.198 A 
ATOM     79  F   UNL A   1      41.614  23.616  27.889  1.00  0.00    -0.203 F 
ATOM     80  F   UNL A   1      45.155  22.950  23.806  1.00  0.00    -0.200 F 
ATOM     81  C   UNL A   1      43.666  22.027  25.384  1.00  0.00     0.200 A 
ATOM     82  F   UNL A   1      42.208  21.158  27.020  1.00  0.00    -0.200 F 
ATOM     83  F   UNL A   1      44.026  20.787  25.024  1.00  0.00    -0.200 F 
ENDBRANCH  49  73
BRANCH  61  84
ATOM     84  C   UNL A   1      45.210  30.141  28.581  1.00  0.00     0.064 A 
ATOM     85  C   UNL A   1      44.203  30.780  27.838  1.00  0.00     0.173 A 
ATOM     86  C   UNL A   1      46.529  30.569  28.383  1.00  0.00     0.173 A 
ATOM     87  F   UNL A   1      42.913  30.474  28.020  1.00  0.00    -0.203 F 
ATOM     88  C   UNL A   1      44.513  31.776  26.914  1.00  0.00     0.198 A 
ATOM     89  C   UNL A   1      46.832  31.588  27.486  1.00  0.00     0.198 A 
ATOM     90  F   UNL A   1      47.527  30.016  29.091  1.00  0.00    -0.203 F 
ATOM     91  F   UNL A   1      43.538  32.359  26.200  1.00  0.00    -0.200 F 
ATOM     92  C   UNL A   1      45.826  32.184  26.744  1.00  0.00     0.200 A 
ATOM     93  F   UNL A   1      48.099  32.003  27.354  1.00  0.00    -0.200 F 
ATOM     94  F   UNL A   1      46.122  33.164  25.879  1.00  0.00    -0.200 F 
ENDBRANCH  61  84
ENDBRANCH  35  36
ENDBRANCH  27  30
ENDBRANCH  25  26
ENDBRANCH  24  25
ENDBRANCH   1  24
TORSDOF 13
ENDMDL
MODEL 2
REMARK VINA RESULT:     -14.1      0.874      1.456
REMARK SMILES Cc1ccc(-c2cc3cccnc3n2CCC(=O)NCCCNC(=O)c2ccc(-c3c4nc(c(-c5c(F)c(F)c(F)c(F)c5F)c5ccc([nH]5)c(-c5c(F)c(F)c(F)c(F)c5F)c5nc(c(-c6c(F)c(F)c(F)c(F)c6F)c6ccc3[nH]6)C=C5)C=C4)cc2)cn1
REMARK SMILES IDX 20 1 19 2 17 3 18 4 16 6 15 7 14 8 6 9 7 10 8 11 13 12 9 13
REMARK SMILES IDX 12 14 10 15 11 16 5 17 1 18 2 19 3 20 90 21 4 22 89 23 21 24
REMARK SMILES IDX 22 25 23 26 24 27 25 29 26 30 27 31 88 32 28 33 87 34 29 35
REMARK SMILES IDX 30 36 31 37 81 38 32 39 86 40 80 41 82 42 33 43 85 44 79 45
REMARK SMILES IDX 78 46 34 48 66 49 46 50 65 51 47 52 50 53 64 54 83 55 48 56
REMARK SMILES IDX 49 57 63 59 84 60 51 61 35 62 36 63 44 64 37 65 38 66 42 67
REMARK SMILES IDX 45 68 39 69 40 70 43 71 41 72 67 73 68 74 76 75 69 76 70 77
REMARK SMILES IDX 74 78 77 79 71 80 72 81 75 82 73 83 52 84 53 85 61 86 54 87
REMARK SMILES IDX 55 88 59 89 62 90 56 91 57 92 60 93 58 94
REMARK H PARENT 19 5 23 28 82 47 50 58
REMARK Flexibility Score: inf
ROOT
ATOM      1  C   UNL A   1      32.538  29.859  25.752  1.00  0.00     0.117 C 
ENDROOT
BRANCH   1   2
ATOM      2  N   UNL A   1      33.475  29.703  24.647  1.00  0.00    -0.356 N 
ATOM      3  C   UNL A   1      33.575  28.739  23.690  1.00  0.00     0.221 C 
ATOM      4  O   UNL A   1      34.352  28.942  22.753  1.00  0.00    -0.275 OA
ATOM      5  H   UNL A   1      34.150  30.416  24.581  1.00  0.00     0.163 HD
BRANCH   3   6
ATOM      6  C   UNL A   1      32.801  27.444  23.767  1.00  0.00     0.122 C 
BRANCH   6   7
ATOM      7  C   UNL A   1      31.805  27.225  22.614  1.00  0.00     0.134 C 
BRANCH   7   8
ATOM      8  N   UNL A   1      30.404  27.165  23.016  1.00  0.00    -0.325 N 
ATOM      9  C   UNL A   1      29.736  26.257  23.847  1.00  0.00     0.052 A 
ATOM     10  C   UNL A   1      28.407  26.706  23.877  1.00  0.00     0.039 A 
ATOM     11  C   UNL A   1      28.313  27.960  23.223  1.00  0.00     0.020 A 
ATOM     12  C   UNL A   1      29.542  28.180  22.627  1.00  0.00     0.140 A 
ATOM     13  C   UNL A   1      27.356  28.985  23.146  1.00  0.00     0.013 A 
ATOM     14  N   UNL A   1      29.903  29.264  21.903  1.00  0.00    -0.238 NA
ATOM     15  C   UNL A   1      27.705  30.147  22.455  1.00  0.00     0.021 A 
ATOM     16  C   UNL A   1      28.948  30.217  21.847  1.00  0.00     0.113 A 
BRANCH   9  17
ATOM     17  C   UNL A   1      30.305  25.195  24.722  1.00  0.00     0.017 A 
ATOM     18  C   UNL A   1      32.580  22.579  27.270  1.00  0.00     0.066 C 
ATOM     19  C   UNL A   1      31.764  23.471  26.385  1.00  0.00     0.037 A 
ATOM     20  C   UNL A   1      31.537  23.119  25.069  1.00  0.00     0.024 A 
ATOM     21  N   UNL A   1      31.251  24.604  26.914  1.00  0.00    -0.261 NA
ATOM     22  C   UNL A   1      30.801  23.982  24.258  1.00  0.00     0.014 A 
ATOM     23  C   UNL A   1      30.542  25.421  26.080  1.00  0.00     0.121 A 
ENDBRANCH   9  17
ENDBRANCH   7   8
ENDBRANCH   6   7
ENDBRANCH   3   6
ENDBRANCH   1   2
BRANCH   1  24
ATOM     24  C   UNL A   1      33.121  29.477  27.097  1.00  0.00     0.042 C 
BRANCH  24  25
ATOM     25  C   UNL A   1      34.484  30.039  27.427  1.00  0.00     0.118 C 
BRANCH  25  26
ATOM     26  N   UNL A   1      34.424  31.294  28.152  1.00  0.00    -0.352 N 
ATOM     27  C   UNL A   1      35.171  31.734  29.225  1.00  0.00     0.251 C 
ATOM     28  H   UNL A   1      33.746  31.930  27.827  1.00  0.00     0.163 HD
ATOM     29  O   UNL A   1      34.790  32.716  29.842  1.00  0.00    -0.269 OA
BRANCH  27  30
ATOM     30  C   UNL A   1      36.443  31.066  29.617  1.00  0.00     0.039 A 
ATOM     31  C   UNL A   1      37.659  31.710  29.337  1.00  0.00     0.014 A 
ATOM     32  C   UNL A   1      36.466  29.773  30.144  1.00  0.00     0.014 A 
ATOM     33  C   UNL A   1      38.855  31.017  29.498  1.00  0.00     0.010 A 
ATOM     34  C   UNL A   1      37.643  29.156  30.468  1.00  0.00     0.010 A 
ATOM     35  C   UNL A   1      38.817  29.718  30.014  1.00  0.00    -0.014 A 
BRANCH  35  36
ATOM     36  C   UNL A   1      39.992  28.873  30.063  1.00  0.00     0.031 A 
ATOM     37  C   UNL A   1      40.489  28.611  31.423  1.00  0.00     0.074 A 
ATOM     38  C   UNL A   1      40.451  28.216  28.976  1.00  0.00     0.049 A 
ATOM     39  N   UNL A   1      41.552  29.099  31.962  1.00  0.00    -0.248 NA
ATOM     40  C   UNL A   1      39.647  27.827  32.339  1.00  0.00     0.031 C 
ATOM     41  C   UNL A   1      39.820  28.103  27.653  1.00  0.00     0.029 A 
ATOM     42  N   UNL A   1      41.550  27.421  28.855  1.00  0.00    -0.354 N 
ATOM     43  C   UNL A   1      41.630  28.517  33.218  1.00  0.00     0.074 A 
ATOM     44  C   UNL A   1      40.349  27.909  33.473  1.00  0.00     0.031 C 
ATOM     45  C   UNL A   1      40.424  27.123  26.945  1.00  0.00     0.029 A 
ATOM     46  C   UNL A   1      41.586  26.671  27.687  1.00  0.00     0.049 A 
ATOM     47  H   UNL A   1      42.258  27.381  29.538  1.00  0.00     0.167 HD
ATOM     48  C   UNL A   1      42.839  28.332  33.815  1.00  0.00     0.037 A 
ATOM     49  C   UNL A   1      42.509  25.734  27.368  1.00  0.00     0.037 A 
ATOM     50  C   UNL A   1      43.888  28.988  33.078  1.00  0.00     0.049 A 
ATOM     51  C   UNL A   1      43.726  26.030  28.159  1.00  0.00     0.074 A 
ATOM     52  C   UNL A   1      44.387  30.267  32.972  1.00  0.00     0.029 A 
ATOM     53  N   UNL A   1      44.305  28.293  31.974  1.00  0.00    -0.354 N 
ATOM     54  N   UNL A   1      44.445  27.107  27.998  1.00  0.00    -0.248 NA
ATOM     55  C   UNL A   1      43.979  25.288  29.390  1.00  0.00     0.031 C 
ATOM     56  C   UNL A   1      45.006  30.352  31.688  1.00  0.00     0.029 A 
ATOM     57  C   UNL A   1      44.897  29.117  31.053  1.00  0.00     0.049 A 
ATOM     58  H   UNL A   1      44.194  27.321  31.856  1.00  0.00     0.167 HD
ATOM     59  C   UNL A   1      44.902  27.400  29.267  1.00  0.00     0.074 A 
ATOM     60  C   UNL A   1      44.748  26.171  30.031  1.00  0.00     0.031 C 
ATOM     61  C   UNL A   1      45.047  28.692  29.678  1.00  0.00     0.037 A 
BRANCH  48  62
ATOM     62  C   UNL A   1      43.155  27.219  34.771  1.00  0.00     0.064 A 
ATOM     63  C   UNL A   1      43.430  27.517  36.118  1.00  0.00     0.173 A 
ATOM     64  C   UNL A   1      43.471  25.910  34.351  1.00  0.00     0.173 A 
ATOM     65  F   UNL A   1      43.214  28.750  36.599  1.00  0.00    -0.203 F 
ATOM     66  C   UNL A   1      43.995  26.572  36.978  1.00  0.00     0.198 A 
ATOM     67  C   UNL A   1      43.981  24.952  35.225  1.00  0.00     0.198 A 
ATOM     68  F   UNL A   1      43.404  25.548  33.063  1.00  0.00    -0.203 F 
ATOM     69  F   UNL A   1      44.329  26.921  38.228  1.00  0.00    -0.200 F 
ATOM     70  C   UNL A   1      44.263  25.288  36.532  1.00  0.00     0.200 A 
ATOM     71  F   UNL A   1      44.263  23.725  34.766  1.00  0.00    -0.200 F 
ATOM     72  F   UNL A   1      44.836  24.391  37.345  1.00  0.00    -0.200 F 
ENDBRANCH  48  62
BRANCH  49  73
ATOM     73  C   UNL A   1      42.317  24.442  26.671  1.00  0.00     0.064 A 
ATOM     74  C   UNL A   1      43.090  24.118  25.544  1.00  0.00     0.173 A 
ATOM     75  C   UNL A   1      41.618  23.384  27.282  1.00  0.00     0.173 A 
ATOM     76  F   UNL A   1      43.802  25.067  24.919  1.00  0.00    -0.203 F 
ATOM     77  C   UNL A   1      43.213  22.799  25.096  1.00  0.00     0.198 A 
ATOM     78  C   UNL A   1      41.739  22.069  26.831  1.00  0.00     0.198 A 
ATOM     79  F   UNL A   1      40.889  23.591  28.388  1.00  0.00    -0.203 F 
ATOM     80  F   UNL A   1      44.026  22.516  24.069  1.00  0.00    -0.200 F 
ATOM     81  C   UNL A   1      42.554  21.774  25.753  1.00  0.00     0.200 A 
ATOM     82  F   UNL A   1      41.122  21.081  27.493  1.00  0.00    -0.200 F 
ATOM     83  F   UNL A   1      42.737  20.501  25.376  1.00  0.00    -0.200 F 
ENDBRANCH  49  73
BRANCH  61  84
ATOM     84  C   UNL A   1      45.217  29.736  28.618  1.00  0.00     0.064 A 
ATOM     85  C   UNL A   1      44.171  30.502  28.076  1.00  0.00     0.173 A 
ATOM     86  C   UNL A   1      46.517  30.014  28.177  1.00  0.00     0.173 A 
ATOM     87  F   UNL A   1      42.911  30.342  28.496  1.00  0.00    -0.203 F 
ATOM     88  C   UNL A   1      44.418  31.477  27.110  1.00  0.00     0.198 A 
ATOM     89  C   UNL A   1      46.765  31.011  27.239  1.00  0.00     0.198 A 
ATOM     90  F   UNL A   1      47.558  29.335  28.686  1.00  0.00    -0.203 F 
ATOM     91  F   UNL A   1      43.403  32.183  26.591  1.00  0.00    -0.200 F 
ATOM     92  C   UNL A   1      45.716  31.735  26.698  1.00  0.00     0.200 A 
ATOM     93  F   UNL A   1      48.026  31.281  26.873  1.00  0.00    -0.200 F 
ATOM     94  F   UNL A   1      45.959  32.693  25.793  1.00  0.00    -0.200 F 
ENDBRANCH  61  84
ENDBRANCH  35  36
ENDBRANCH  27  30
ENDBRANCH  25  26
ENDBRANCH  24  25
ENDBRANCH   1  24
TORSDOF 13
ENDMDL
MODEL 3
REMARK VINA RESULT:     -14.0      3.740      9.461
REMARK SMILES Cc1ccc(-c2cc3cccnc3n2CCC(=O)NCCCNC(=O)c2ccc(-c3c4nc(c(-c5c(F)c(F)c(F)c(F)c5F)c5ccc([nH]5)c(-c5c(F)c(F)c(F)c(F)c5F)c5nc(c(-c6c(F)c(F)c(F)c(F)c6F)c6ccc3[nH]6)C=C5)C=C4)cc2)cn1
REMARK SMILES IDX 20 1 19 2 17 3 18 4 16 6 15 7 14 8 6 9 7 10 8 11 13 12 9 13
REMARK SMILES IDX 12 14 10 15 11 16 5 17 1 18 2 19 3 20 90 21 4 22 89 23 21 24
REMARK SMILES IDX 22 25 23 26 24 27 25 29 26 30 27 31 88 32 28 33 87 34 29 35
REMARK SMILES IDX 30 36 31 37 81 38 32 39 86 40 80 41 82 42 33 43 85 44 79 45
REMARK SMILES IDX 78 46 34 48 66 49 46 50 65 51 47 52 50 53 64 54 83 55 48 56
REMARK SMILES IDX 49 57 63 59 84 60 51 61 35 62 36 63 44 64 37 65 38 66 42 67
REMARK SMILES IDX 45 68 39 69 40 70 43 71 41 72 67 73 68 74 76 75 69 76 70 77
REMARK SMILES IDX 74 78 77 79 71 80 72 81 75 82 73 83 52 84 53 85 61 86 54 87
REMARK SMILES IDX 55 88 59 89 62 90 56 91 57 92 60 93 58 94
REMARK H PARENT 19 5 23 28 82 47 50 58
REMARK Flexibility Score: inf
ROOT
ATOM      1  C   UNL A   1      39.336  21.819  26.115  1.00  0.00     0.117 C 
ENDROOT
BRANCH   1   2
ATOM      2  N   UNL A   1      38.466  22.874  25.611  1.00  0.00    -0.356 N 
ATOM      3  C   UNL A   1      37.238  22.814  25.025  1.00  0.00     0.221 C 
ATOM      4  O   UNL A   1      36.633  23.877  24.856  1.00  0.00    -0.275 OA
ATOM      5  H   UNL A   1      38.826  23.784  25.713  1.00  0.00     0.163 HD
BRANCH   3   6
ATOM      6  C   UNL A   1      36.631  21.512  24.556  1.00  0.00     0.122 C 
BRANCH   6   7
ATOM      7  C   UNL A   1      35.497  20.979  25.449  1.00  0.00     0.134 C 
BRANCH   7   8
ATOM      8  N   UNL A   1      34.278  20.610  24.738  1.00  0.00    -0.325 N 
ATOM      9  C   UNL A   1      33.265  21.411  24.197  1.00  0.00     0.052 A 
ATOM     10  C   UNL A   1      32.358  20.507  23.624  1.00  0.00     0.039 A 
ATOM     11  C   UNL A   1      32.901  19.199  23.662  1.00  0.00     0.020 A 
ATOM     12  C   UNL A   1      34.049  19.277  24.430  1.00  0.00     0.140 A 
ATOM     13  C   UNL A   1      32.606  17.968  23.051  1.00  0.00     0.013 A 
ATOM     14  N   UNL A   1      34.892  18.261  24.722  1.00  0.00    -0.238 NA
ATOM     15  C   UNL A   1      33.480  16.905  23.280  1.00  0.00     0.021 A 
ATOM     16  C   UNL A   1      34.563  17.097  24.124  1.00  0.00     0.113 A 
BRANCH   9  17
ATOM     17  C   UNL A   1      33.234  22.889  24.018  1.00  0.00     0.017 A 
ATOM     18  C   UNL A   1      33.920  27.106  23.510  1.00  0.00     0.066 C 
ATOM     19  C   UNL A   1      33.652  25.643  23.686  1.00  0.00     0.037 A 
ATOM     20  C   UNL A   1      33.186  25.165  24.895  1.00  0.00     0.024 A 
ATOM     21  N   UNL A   1      33.859  24.822  22.632  1.00  0.00    -0.261 NA
ATOM     22  C   UNL A   1      32.974  23.794  25.041  1.00  0.00     0.014 A 
ATOM     23  C   UNL A   1      33.643  23.487  22.824  1.00  0.00     0.121 A 
ENDBRANCH   9  17
ENDBRANCH   7   8
ENDBRANCH   6   7
ENDBRANCH   3   6
ENDBRANCH   1   2
BRANCH   1  24
ATOM     24  C   UNL A   1      40.074  22.198  27.383  1.00  0.00     0.042 C 
BRANCH  24  25
ATOM     25  C   UNL A   1      41.475  21.654  27.536  1.00  0.00     0.118 C 
BRANCH  25  26
ATOM     26  N   UNL A   1      42.388  22.131  26.515  1.00  0.00    -0.352 N 
ATOM     27  C   UNL A   1      42.602  23.411  26.046  1.00  0.00     0.251 C 
ATOM     28  H   UNL A   1      42.939  21.435  26.092  1.00  0.00     0.163 HD
ATOM     29  O   UNL A   1      43.231  23.559  25.010  1.00  0.00    -0.269 OA
BRANCH  27  30
ATOM     30  C   UNL A   1      42.122  24.607  26.793  1.00  0.00     0.039 A 
ATOM     31  C   UNL A   1      41.119  25.404  26.219  1.00  0.00     0.014 A 
ATOM     32  C   UNL A   1      42.719  25.022  27.984  1.00  0.00     0.014 A 
ATOM     33  C   UNL A   1      40.807  26.634  26.793  1.00  0.00     0.010 A 
ATOM     34  C   UNL A   1      42.292  26.142  28.643  1.00  0.00     0.010 A 
ATOM     35  C   UNL A   1      41.449  27.005  27.977  1.00  0.00    -0.014 A 
BRANCH  35  36
ATOM     36  C   UNL A   1      41.304  28.327  28.551  1.00  0.00     0.031 A 
ATOM     37  C   UNL A   1      42.326  29.289  28.112  1.00  0.00     0.074 A 
ATOM     38  C   UNL A   1      40.208  28.691  29.250  1.00  0.00     0.049 A 
ATOM     39  N   UNL A   1      43.307  29.745  28.812  1.00  0.00    -0.248 NA
ATOM     40  C   UNL A   1      42.350  29.693  26.698  1.00  0.00     0.031 C 
ATOM     41  C   UNL A   1      38.959  27.938  29.434  1.00  0.00     0.029 A 
ATOM     42  N   UNL A   1      39.942  29.872  29.875  1.00  0.00    -0.354 N 
ATOM     43  C   UNL A   1      43.952  30.660  27.993  1.00  0.00     0.074 A 
ATOM     44  C   UNL A   1      43.454  30.444  26.658  1.00  0.00     0.031 C 
ATOM     45  C   UNL A   1      38.003  28.756  29.927  1.00  0.00     0.029 A 
ATOM     46  C   UNL A   1      38.617  30.028  30.261  1.00  0.00     0.049 A 
ATOM     47  H   UNL A   1      40.630  30.557  30.039  1.00  0.00     0.167 HD
ATOM     48  C   UNL A   1      44.622  31.712  28.535  1.00  0.00     0.037 A 
ATOM     49  C   UNL A   1      38.070  31.139  30.805  1.00  0.00     0.037 A 
ATOM     50  C   UNL A   1      44.718  31.587  29.966  1.00  0.00     0.049 A 
ATOM     51  C   UNL A   1      39.172  31.915  31.421  1.00  0.00     0.074 A 
ATOM     52  C   UNL A   1      45.515  30.909  30.860  1.00  0.00     0.029 A 
ATOM     53  N   UNL A   1      43.574  31.948  30.629  1.00  0.00    -0.354 N 
ATOM     54  N   UNL A   1      39.868  31.492  32.441  1.00  0.00    -0.248 NA
ATOM     55  C   UNL A   1      39.751  33.039  30.692  1.00  0.00     0.031 C 
ATOM     56  C   UNL A   1      44.743  30.755  32.051  1.00  0.00     0.029 A 
ATOM     57  C   UNL A   1      43.505  31.368  31.869  1.00  0.00     0.049 A 
ATOM     58  H   UNL A   1      42.888  32.551  30.261  1.00  0.00     0.167 HD
ATOM     59  C   UNL A   1      41.134  31.993  32.217  1.00  0.00     0.074 A 
ATOM     60  C   UNL A   1      40.963  33.071  31.253  1.00  0.00     0.031 C 
ATOM     61  C   UNL A   1      42.242  31.280  32.567  1.00  0.00     0.037 A 
BRANCH  48  62
ATOM     62  C   UNL A   1      44.791  33.048  27.871  1.00  0.00     0.064 A 
ATOM     63  C   UNL A   1      46.047  33.413  27.354  1.00  0.00     0.173 A 
ATOM     64  C   UNL A   1      43.840  34.085  27.974  1.00  0.00     0.173 A 
ATOM     65  F   UNL A   1      47.035  32.511  27.265  1.00  0.00    -0.203 F 
ATOM     66  C   UNL A   1      46.332  34.730  26.981  1.00  0.00     0.198 A 
ATOM     67  C   UNL A   1      44.108  35.384  27.549  1.00  0.00     0.198 A 
ATOM     68  F   UNL A   1      42.665  33.903  28.592  1.00  0.00    -0.203 F 
ATOM     69  F   UNL A   1      47.568  35.058  26.581  1.00  0.00    -0.200 F 
ATOM     70  C   UNL A   1      45.360  35.712  27.072  1.00  0.00     0.200 A 
ATOM     71  F   UNL A   1      43.164  36.327  27.675  1.00  0.00    -0.200 F 
ATOM     72  F   UNL A   1      45.641  36.981  26.748  1.00  0.00    -0.200 F 
ENDBRANCH  48  62
BRANCH  49  73
ATOM     73  C   UNL A   1      36.730  31.724  30.572  1.00  0.00     0.064 A 
ATOM     74  C   UNL A   1      35.885  32.025  31.653  1.00  0.00     0.173 A 
ATOM     75  C   UNL A   1      36.393  32.294  29.330  1.00  0.00     0.173 A 
ATOM     76  F   UNL A   1      36.151  31.539  32.873  1.00  0.00    -0.203 F 
ATOM     77  C   UNL A   1      34.805  32.902  31.514  1.00  0.00     0.198 A 
ATOM     78  C   UNL A   1      35.313  33.166  29.193  1.00  0.00     0.198 A 
ATOM     79  F   UNL A   1      37.165  32.096  28.252  1.00  0.00    -0.203 F 
ATOM     80  F   UNL A   1      34.071  33.232  32.586  1.00  0.00    -0.200 F 
ATOM     81  C   UNL A   1      34.533  33.487  30.289  1.00  0.00     0.200 A 
ATOM     82  F   UNL A   1      35.077  33.750  28.010  1.00  0.00    -0.200 F 
ATOM     83  F   UNL A   1      33.550  34.392  30.174  1.00  0.00    -0.200 F 
ENDBRANCH  49  73
BRANCH  61  84
ATOM     84  C   UNL A   1      42.082  30.243  33.636  1.00  0.00     0.064 A 
ATOM     85  C   UNL A   1      41.781  28.892  33.399  1.00  0.00     0.173 A 
ATOM     86  C   UNL A   1      42.309  30.631  34.962  1.00  0.00     0.173 A 
ATOM     87  F   UNL A   1      41.618  28.430  32.153  1.00  0.00    -0.203 F 
ATOM     88  C   UNL A   1      41.678  27.982  34.450  1.00  0.00     0.198 A 
ATOM     89  C   UNL A   1      42.240  29.714  36.007  1.00  0.00     0.198 A 
ATOM     90  F   UNL A   1      42.633  31.904  35.243  1.00  0.00    -0.203 F 
ATOM     91  F   UNL A   1      41.369  26.700  34.203  1.00  0.00    -0.200 F 
ATOM     92  C   UNL A   1      41.915  28.393  35.752  1.00  0.00     0.200 A 
ATOM     93  F   UNL A   1      42.507  30.111  37.258  1.00  0.00    -0.200 F 
ATOM     94  F   UNL A   1      41.847  27.512  36.760  1.00  0.00    -0.200 F 
ENDBRANCH  61  84
ENDBRANCH  35  36
ENDBRANCH  27  30
ENDBRANCH  25  26
ENDBRANCH  24  25
ENDBRANCH   1  24
TORSDOF 13
ENDMDL
