MODEL 1
REMARK VINA RESULT:     -13.2      0.000      0.000
REMARK SMILES CC[C@H](C)N1C(=O)c2ccccc2[C@@H](C(=O)NCCCNC(=O)c2ccc(-c3c4nc(c(-c5c(F)c(F)c(F)c(F)c5F)c5ccc([nH]5)c(-c5c(F)c(F)c(F)c(F)c5F)c5nc(c(-c6c(F)c(F)c(F)c(F)c6F)c6ccc3[nH]6)C=C5)C=C4)cc2)C12CCCCC2
REMARK SMILES IDX 19 1 18 2 17 3 15 4 16 5 14 7 5 8 6 9 87 10 7 11 8 12 88 13
REMARK SMILES IDX 92 14 9 15 13 16 89 17 91 18 10 19 12 20 90 21 11 22 3 23
REMARK SMILES IDX 4 24 2 25 1 26 20 27 21 28 22 29 23 31 24 32 25 33 86 34
REMARK SMILES IDX 26 35 85 36 27 37 28 38 29 39 79 40 30 41 84 42 78 43 80 44
REMARK SMILES IDX 31 45 83 46 77 47 76 48 32 50 64 51 44 52 63 53 45 54 48 55
REMARK SMILES IDX 62 56 81 57 46 58 47 59 61 61 82 62 49 63 33 64 34 65 42 66
REMARK SMILES IDX 35 67 36 68 40 69 43 70 37 71 38 72 41 73 39 74 65 75 66 76
REMARK SMILES IDX 74 77 67 78 68 79 72 80 75 81 69 82 70 83 73 84 71 85 50 86
REMARK SMILES IDX 51 87 59 88 52 89 53 90 57 91 60 92 54 93 55 94 58 95 56 96
REMARK H PARENT 17 6 21 30 80 49 48 60
REMARK Flexibility Score: inf
ROOT
ATOM      1  C   UNL A   1      32.499  28.571  25.390  1.00  0.00     0.042 C 
ENDROOT
BRANCH   1   2
ATOM      2  C   UNL A   1      33.410  27.341  25.410  1.00  0.00     0.117 C 
BRANCH   2   3
ATOM      3  N   UNL A   1      33.911  26.921  24.102  1.00  0.00    -0.355 N 
ATOM      4  C   UNL A   1      33.694  25.846  23.290  1.00  0.00     0.229 C 
ATOM      5  O   UNL A   1      34.245  25.898  22.183  1.00  0.00    -0.274 OA
ATOM      6  H   UNL A   1      34.553  27.562  23.719  1.00  0.00     0.163 HD
BRANCH   4   7
ATOM      7  C   UNL A   1      32.799  24.636  23.652  1.00  0.00     0.135 C 
ATOM      8  N   UNL A   1      32.326  22.905  25.508  1.00  0.00    -0.329 N 
ATOM      9  C   UNL A   1      31.385  23.781  26.082  1.00  0.00     0.254 C 
ATOM     10  C   UNL A   1      33.427  23.535  24.627  1.00  0.00     0.059 C 
ATOM     11  O   UNL A   1      30.942  23.691  27.223  1.00  0.00    -0.269 OA
ATOM     12  C   UNL A   1      30.817  24.830  25.201  1.00  0.00     0.044 A 
ATOM     13  C   UNL A   1      34.473  24.126  25.608  1.00  0.00     0.030 C 
ATOM     14  C   UNL A   1      34.158  22.469  23.752  1.00  0.00     0.030 C 
ATOM     15  C   UNL A   1      29.650  25.511  25.590  1.00  0.00     0.014 A 
ATOM     16  C   UNL A   1      31.419  25.150  23.991  1.00  0.00    -0.020 A 
ATOM     17  C   UNL A   1      35.834  24.544  25.055  1.00  0.00     0.002 C 
ATOM     18  C   UNL A   1      35.473  22.942  23.125  1.00  0.00     0.002 C 
ATOM     19  C   UNL A   1      29.078  26.482  24.763  1.00  0.00     0.001 A 
ATOM     20  C   UNL A   1      30.789  26.075  23.127  1.00  0.00     0.005 A 
ATOM     21  C   UNL A   1      36.449  23.478  24.166  1.00  0.00     0.000 C 
ATOM     22  C   UNL A   1      29.637  26.749  23.518  1.00  0.00     0.000 A 
BRANCH   8  23
ATOM     23  C   UNL A   1      32.377  21.463  26.000  1.00  0.00     0.082 C 
ATOM     24  C   UNL A   1      32.153  20.385  24.924  1.00  0.00     0.031 C 
BRANCH  23  25
ATOM     25  C   UNL A   1      33.651  21.103  26.827  1.00  0.00     0.021 C 
ATOM     26  C   UNL A   1      33.955  22.034  28.001  1.00  0.00     0.006 C 
ENDBRANCH  23  25
ENDBRANCH   8  23
ENDBRANCH   4   7
ENDBRANCH   2   3
ENDBRANCH   1   2
BRANCH   1  27
ATOM     27  C   UNL A   1      32.313  29.265  26.728  1.00  0.00     0.118 C 
BRANCH  27  28
ATOM     28  N   UNL A   1      32.251  30.706  26.576  1.00  0.00    -0.352 N 
ATOM     29  C   UNL A   1      33.058  31.655  27.150  1.00  0.00     0.251 C 
ATOM     30  H   UNL A   1      31.540  31.046  25.985  1.00  0.00     0.163 HD
ATOM     31  O   UNL A   1      32.713  32.840  27.152  1.00  0.00    -0.269 OA
BRANCH  29  32
ATOM     32  C   UNL A   1      34.329  31.257  27.793  1.00  0.00     0.039 A 
ATOM     33  C   UNL A   1      34.577  29.921  28.126  1.00  0.00     0.014 A 
ATOM     34  C   UNL A   1      35.287  32.234  28.069  1.00  0.00     0.014 A 
ATOM     35  C   UNL A   1      35.710  29.587  28.864  1.00  0.00     0.010 A 
ATOM     36  C   UNL A   1      36.463  31.882  28.738  1.00  0.00     0.010 A 
ATOM     37  C   UNL A   1      36.668  30.563  29.176  1.00  0.00    -0.014 A 
BRANCH  37  38
ATOM     38  C   UNL A   1      37.876  30.213  29.968  1.00  0.00     0.031 A 
ATOM     39  C   UNL A   1      38.934  29.317  29.383  1.00  0.00     0.074 A 
ATOM     40  C   UNL A   1      38.028  30.701  31.215  1.00  0.00     0.049 A 
ATOM     41  N   UNL A   1      39.994  28.800  29.954  1.00  0.00    -0.248 NA
ATOM     42  C   UNL A   1      38.778  28.949  27.967  1.00  0.00     0.031 C 
ATOM     43  C   UNL A   1      37.098  31.610  31.885  1.00  0.00     0.029 A 
ATOM     44  N   UNL A   1      39.021  30.498  32.141  1.00  0.00    -0.354 N 
ATOM     45  C   UNL A   1      40.615  28.030  28.979  1.00  0.00     0.074 A 
ATOM     46  C   UNL A   1      39.799  28.122  27.787  1.00  0.00     0.031 C 
ATOM     47  C   UNL A   1      37.574  31.905  33.103  1.00  0.00     0.029 A 
ATOM     48  C   UNL A   1      38.803  31.152  33.328  1.00  0.00     0.049 A 
ATOM     49  H   UNL A   1      39.813  29.938  31.969  1.00  0.00     0.167 HD
ATOM     50  C   UNL A   1      41.766  27.320  29.069  1.00  0.00     0.037 A 
ATOM     51  C   UNL A   1      39.495  31.120  34.483  1.00  0.00     0.037 A 
ATOM     52  C   UNL A   1      42.584  27.243  30.252  1.00  0.00     0.049 A 
ATOM     53  C   UNL A   1      40.726  30.262  34.580  1.00  0.00     0.074 A 
ATOM     54  C   UNL A   1      43.772  26.558  30.437  1.00  0.00     0.029 A 
ATOM     55  N   UNL A   1      42.300  27.878  31.453  1.00  0.00    -0.354 N 
ATOM     56  N   UNL A   1      41.296  29.524  33.659  1.00  0.00    -0.248 NA
ATOM     57  C   UNL A   1      41.404  30.227  35.882  1.00  0.00     0.031 C 
ATOM     58  C   UNL A   1      44.180  26.735  31.764  1.00  0.00     0.029 A 
ATOM     59  C   UNL A   1      43.278  27.579  32.391  1.00  0.00     0.049 A 
ATOM     60  H   UNL A   1      41.519  28.454  31.617  1.00  0.00     0.167 HD
ATOM     61  C   UNL A   1      42.403  28.945  34.265  1.00  0.00     0.074 A 
ATOM     62  C   UNL A   1      42.442  29.446  35.624  1.00  0.00     0.031 C 
ATOM     63  C   UNL A   1      43.301  28.072  33.745  1.00  0.00     0.037 A 
BRANCH  50  64
ATOM     64  C   UNL A   1      42.209  26.552  27.855  1.00  0.00     0.064 A 
ATOM     65  C   UNL A   1      43.160  27.068  26.962  1.00  0.00     0.173 A 
ATOM     66  C   UNL A   1      41.717  25.260  27.612  1.00  0.00     0.173 A 
ATOM     67  F   UNL A   1      43.653  28.303  27.140  1.00  0.00    -0.203 F 
ATOM     68  C   UNL A   1      43.587  26.327  25.862  1.00  0.00     0.198 A 
ATOM     69  C   UNL A   1      42.171  24.510  26.529  1.00  0.00     0.198 A 
ATOM     70  F   UNL A   1      40.811  24.714  28.438  1.00  0.00    -0.203 F 
ATOM     71  F   UNL A   1      44.467  26.857  25.001  1.00  0.00    -0.200 F 
ATOM     72  C   UNL A   1      43.100  25.046  25.653  1.00  0.00     0.200 A 
ATOM     73  F   UNL A   1      41.710  23.266  26.338  1.00  0.00    -0.200 F 
ATOM     74  F   UNL A   1      43.524  24.329  24.603  1.00  0.00    -0.200 F 
ENDBRANCH  50  64
BRANCH  51  75
ATOM     75  C   UNL A   1      39.028  31.924  35.642  1.00  0.00     0.064 A 
ATOM     76  C   UNL A   1      38.215  31.353  36.630  1.00  0.00     0.173 A 
ATOM     77  C   UNL A   1      39.396  33.270  35.797  1.00  0.00     0.173 A 
ATOM     78  F   UNL A   1      37.816  30.078  36.514  1.00  0.00    -0.203 F 
ATOM     79  C   UNL A   1      37.784  32.098  37.726  1.00  0.00     0.198 A 
ATOM     80  C   UNL A   1      38.990  34.004  36.909  1.00  0.00     0.198 A 
ATOM     81  F   UNL A   1      40.173  33.864  34.879  1.00  0.00    -0.203 F 
ATOM     82  F   UNL A   1      36.977  31.537  38.637  1.00  0.00    -0.200 F 
ATOM     83  C   UNL A   1      38.180  33.419  37.870  1.00  0.00     0.200 A 
ATOM     84  F   UNL A   1      39.389  35.274  37.052  1.00  0.00    -0.200 F 
ATOM     85  F   UNL A   1      37.777  34.130  38.932  1.00  0.00    -0.200 F 
ENDBRANCH  51  75
BRANCH  63  86
ATOM     86  C   UNL A   1      44.408  27.608  34.648  1.00  0.00     0.064 A 
ATOM     87  C   UNL A   1      45.611  28.324  34.761  1.00  0.00     0.173 A 
ATOM     88  C   UNL A   1      44.259  26.452  35.429  1.00  0.00     0.173 A 
ATOM     89  F   UNL A   1      45.811  29.428  34.024  1.00  0.00    -0.203 F 
ATOM     90  C   UNL A   1      46.632  27.882  35.597  1.00  0.00     0.198 A 
ATOM     91  C   UNL A   1      45.269  26.033  36.291  1.00  0.00     0.198 A 
ATOM     92  F   UNL A   1      43.128  25.734  35.366  1.00  0.00    -0.203 F 
ATOM     93  F   UNL A   1      47.792  28.550  35.645  1.00  0.00    -0.200 F 
ATOM     94  C   UNL A   1      46.457  26.742  36.367  1.00  0.00     0.200 A 
ATOM     95  F   UNL A   1      45.092  24.939  37.046  1.00  0.00    -0.200 F 
ATOM     96  F   UNL A   1      47.440  26.321  37.176  1.00  0.00    -0.200 F 
ENDBRANCH  63  86
ENDBRANCH  37  38
ENDBRANCH  29  32
ENDBRANCH  27  28
ENDBRANCH   1  27
TORSDOF 12
ENDMDL
MODEL 2
REMARK VINA RESULT:     -13.0      4.152      9.566
REMARK SMILES CC[C@H](C)N1C(=O)c2ccccc2[C@@H](C(=O)NCCCNC(=O)c2ccc(-c3c4nc(c(-c5c(F)c(F)c(F)c(F)c5F)c5ccc([nH]5)c(-c5c(F)c(F)c(F)c(F)c5F)c5nc(c(-c6c(F)c(F)c(F)c(F)c6F)c6ccc3[nH]6)C=C5)C=C4)cc2)C12CCCCC2
REMARK SMILES IDX 19 1 18 2 17 3 15 4 16 5 14 7 5 8 6 9 87 10 7 11 8 12 88 13
REMARK SMILES IDX 92 14 9 15 13 16 89 17 91 18 10 19 12 20 90 21 11 22 3 23
REMARK SMILES IDX 4 24 2 25 1 26 20 27 21 28 22 29 23 31 24 32 25 33 86 34
REMARK SMILES IDX 26 35 85 36 27 37 28 38 29 39 79 40 30 41 84 42 78 43 80 44
REMARK SMILES IDX 31 45 83 46 77 47 76 48 32 50 64 51 44 52 63 53 45 54 48 55
REMARK SMILES IDX 62 56 81 57 46 58 47 59 61 61 82 62 49 63 33 64 34 65 42 66
REMARK SMILES IDX 35 67 36 68 40 69 43 70 37 71 38 72 41 73 39 74 65 75 66 76
REMARK SMILES IDX 74 77 67 78 68 79 72 80 75 81 69 82 70 83 73 84 71 85 50 86
REMARK SMILES IDX 51 87 59 88 52 89 53 90 57 91 60 92 54 93 55 94 58 95 56 96
REMARK H PARENT 17 6 21 30 80 49 48 60
REMARK Flexibility Score: inf
ROOT
ATOM      1  C   UNL A   1      35.680  22.409  25.956  1.00  0.00     0.042 C 
ENDROOT
BRANCH   1   2
ATOM      2  C   UNL A   1      34.802  23.613  25.605  1.00  0.00     0.117 C 
BRANCH   2   3
ATOM      3  N   UNL A   1      33.715  23.881  26.545  1.00  0.00    -0.355 N 
ATOM      4  C   UNL A   1      32.438  24.348  26.430  1.00  0.00     0.229 C 
ATOM      5  O   UNL A   1      31.776  24.343  27.475  1.00  0.00    -0.274 OA
ATOM      6  H   UNL A   1      33.962  23.677  27.477  1.00  0.00     0.163 HD
BRANCH   4   7
ATOM      7  C   UNL A   1      31.792  24.827  25.108  1.00  0.00     0.135 C 
ATOM      8  N   UNL A   1      32.150  26.396  23.089  1.00  0.00    -0.329 N 
ATOM      9  C   UNL A   1      32.805  25.357  22.400  1.00  0.00     0.254 C 
ATOM     10  C   UNL A   1      32.131  26.315  24.631  1.00  0.00     0.059 C 
ATOM     11  O   UNL A   1      33.517  25.506  21.412  1.00  0.00    -0.269 OA
ATOM     12  C   UNL A   1      32.530  23.971  22.851  1.00  0.00     0.044 A 
ATOM     13  C   UNL A   1      33.530  26.795  25.101  1.00  0.00     0.030 C 
ATOM     14  C   UNL A   1      31.074  27.279  25.255  1.00  0.00     0.030 C 
ATOM     15  C   UNL A   1      32.867  22.888  22.022  1.00  0.00     0.014 A 
ATOM     16  C   UNL A   1      31.936  23.726  24.083  1.00  0.00    -0.020 A 
ATOM     17  C   UNL A   1      33.726  27.126  26.579  1.00  0.00     0.002 C 
ATOM     18  C   UNL A   1      31.230  27.520  26.759  1.00  0.00     0.002 C 
ATOM     19  C   UNL A   1      32.588  21.574  22.411  1.00  0.00     0.001 A 
ATOM     20  C   UNL A   1      31.586  22.401  24.431  1.00  0.00     0.005 A 
ATOM     21  C   UNL A   1      32.624  28.017  27.123  1.00  0.00     0.000 C 
ATOM     22  C   UNL A   1      31.927  21.331  23.609  1.00  0.00     0.000 A 
BRANCH   8  23
ATOM     23  C   UNL A   1      31.754  27.649  22.316  1.00  0.00     0.082 C 
ATOM     24  C   UNL A   1      30.256  28.002  22.344  1.00  0.00     0.031 C 
BRANCH  23  25
ATOM     25  C   UNL A   1      32.586  28.921  22.671  1.00  0.00     0.021 C 
ATOM     26  C   UNL A   1      34.098  28.784  22.500  1.00  0.00     0.006 C 
ENDBRANCH  23  25
ENDBRANCH   8  23
ENDBRANCH   4   7
ENDBRANCH   2   3
ENDBRANCH   1   2
BRANCH   1  27
ATOM     27  C   UNL A   1      36.909  22.223  25.083  1.00  0.00     0.118 C 
BRANCH  27  28
ATOM     28  N   UNL A   1      37.707  21.094  25.522  1.00  0.00    -0.352 N 
ATOM     29  C   UNL A   1      38.973  21.105  26.050  1.00  0.00     0.251 C 
ATOM     30  H   UNL A   1      37.287  20.208  25.429  1.00  0.00     0.163 HD
ATOM     31  O   UNL A   1      39.625  20.060  26.112  1.00  0.00    -0.269 OA
BRANCH  29  32
ATOM     32  C   UNL A   1      39.570  22.375  26.517  1.00  0.00     0.039 A 
ATOM     33  C   UNL A   1      39.062  23.608  26.092  1.00  0.00     0.014 A 
ATOM     34  C   UNL A   1      40.656  22.334  27.394  1.00  0.00     0.014 A 
ATOM     35  C   UNL A   1      39.727  24.786  26.422  1.00  0.00     0.010 A 
ATOM     36  C   UNL A   1      41.272  23.524  27.791  1.00  0.00     0.010 A 
ATOM     37  C   UNL A   1      40.839  24.758  27.278  1.00  0.00    -0.014 A 
BRANCH  37  38
ATOM     38  C   UNL A   1      41.556  26.012  27.629  1.00  0.00     0.031 A 
ATOM     39  C   UNL A   1      40.872  27.074  28.447  1.00  0.00     0.074 A 
ATOM     40  C   UNL A   1      42.824  26.200  27.215  1.00  0.00     0.049 A 
ATOM     41  N   UNL A   1      41.282  28.280  28.752  1.00  0.00    -0.248 NA
ATOM     42  C   UNL A   1      39.549  26.736  28.993  1.00  0.00     0.031 C 
ATOM     43  C   UNL A   1      43.614  25.236  26.449  1.00  0.00     0.029 A 
ATOM     44  N   UNL A   1      43.670  27.268  27.379  1.00  0.00    -0.354 N 
ATOM     45  C   UNL A   1      40.262  28.851  29.502  1.00  0.00     0.074 A 
ATOM     46  C   UNL A   1      39.199  27.872  29.582  1.00  0.00     0.031 C 
ATOM     47  C   UNL A   1      44.835  25.744  26.231  1.00  0.00     0.029 A 
ATOM     48  C   UNL A   1      44.891  27.097  26.776  1.00  0.00     0.049 A 
ATOM     49  H   UNL A   1      43.425  28.079  27.881  1.00  0.00     0.167 HD
ATOM     50  C   UNL A   1      40.221  30.078  30.078  1.00  0.00     0.037 A 
ATOM     51  C   UNL A   1      45.928  27.946  26.643  1.00  0.00     0.037 A 
ATOM     52  C   UNL A   1      41.287  31.044  30.009  1.00  0.00     0.049 A 
ATOM     53  C   UNL A   1      45.826  29.328  27.225  1.00  0.00     0.074 A 
ATOM     54  C   UNL A   1      41.342  32.309  30.569  1.00  0.00     0.029 A 
ATOM     55  N   UNL A   1      42.488  30.852  29.341  1.00  0.00    -0.354 N 
ATOM     56  N   UNL A   1      44.851  29.866  27.916  1.00  0.00    -0.248 NA
ATOM     57  C   UNL A   1      46.967  30.225  26.998  1.00  0.00     0.031 C 
ATOM     58  C   UNL A   1      42.555  32.901  30.197  1.00  0.00     0.029 A 
ATOM     59  C   UNL A   1      43.281  31.985  29.455  1.00  0.00     0.049 A 
ATOM     60  H   UNL A   1      42.741  30.033  28.858  1.00  0.00     0.167 HD
ATOM     61  C   UNL A   1      45.262  31.157  28.216  1.00  0.00     0.074 A 
ATOM     62  C   UNL A   1      46.591  31.310  27.659  1.00  0.00     0.031 C 
ATOM     63  C   UNL A   1      44.597  32.131  28.885  1.00  0.00     0.037 A 
BRANCH  50  64
ATOM     64  C   UNL A   1      38.974  30.456  30.826  1.00  0.00     0.064 A 
ATOM     65  C   UNL A   1      38.878  30.317  32.219  1.00  0.00     0.173 A 
ATOM     66  C   UNL A   1      37.880  31.017  30.149  1.00  0.00     0.173 A 
ATOM     67  F   UNL A   1      39.890  29.774  32.915  1.00  0.00    -0.203 F 
ATOM     68  C   UNL A   1      37.729  30.707  32.902  1.00  0.00     0.198 A 
ATOM     69  C   UNL A   1      36.745  31.436  30.840  1.00  0.00     0.198 A 
ATOM     70  F   UNL A   1      37.920  31.181  28.818  1.00  0.00    -0.203 F 
ATOM     71  F   UNL A   1      37.646  30.527  34.228  1.00  0.00    -0.200 F 
ATOM     72  C   UNL A   1      36.668  31.274  32.214  1.00  0.00     0.200 A 
ATOM     73  F   UNL A   1      35.728  31.999  30.173  1.00  0.00    -0.200 F 
ATOM     74  F   UNL A   1      35.569  31.664  32.875  1.00  0.00    -0.200 F 
ENDBRANCH  50  64
BRANCH  51  75
ATOM     75  C   UNL A   1      47.149  27.508  25.919  1.00  0.00     0.064 A 
ATOM     76  C   UNL A   1      47.252  27.657  24.530  1.00  0.00     0.173 A 
ATOM     77  C   UNL A   1      48.244  26.949  26.598  1.00  0.00     0.173 A 
ATOM     78  F   UNL A   1      46.223  28.162  23.833  1.00  0.00    -0.203 F 
ATOM     79  C   UNL A   1      48.399  27.260  23.846  1.00  0.00     0.198 A 
ATOM     80  C   UNL A   1      49.402  26.582  25.917  1.00  0.00     0.198 A 
ATOM     81  F   UNL A   1      48.196  26.784  27.928  1.00  0.00    -0.203 F 
ATOM     82  F   UNL A   1      48.456  27.380  22.512  1.00  0.00    -0.200 F 
ATOM     83  C   UNL A   1      49.477  26.732  24.541  1.00  0.00     0.200 A 
ATOM     84  F   UNL A   1      50.446  26.088  26.595  1.00  0.00    -0.200 F 
ATOM     85  F   UNL A   1      50.586  26.365  23.884  1.00  0.00    -0.200 F 
ENDBRANCH  51  75
BRANCH  63  86
ATOM     86  C   UNL A   1      45.300  33.448  29.059  1.00  0.00     0.064 A 
ATOM     87  C   UNL A   1      45.133  34.495  28.139  1.00  0.00     0.173 A 
ATOM     88  C   UNL A   1      46.126  33.677  30.170  1.00  0.00     0.173 A 
ATOM     89  F   UNL A   1      44.365  34.323  27.053  1.00  0.00    -0.203 F 
ATOM     90  C   UNL A   1      45.793  35.710  28.309  1.00  0.00     0.198 A 
ATOM     91  C   UNL A   1      46.756  34.905  30.354  1.00  0.00     0.198 A 
ATOM     92  F   UNL A   1      46.315  32.714  31.083  1.00  0.00    -0.203 F 
ATOM     93  F   UNL A   1      45.663  36.674  27.387  1.00  0.00    -0.200 F 
ATOM     94  C   UNL A   1      46.597  35.916  29.419  1.00  0.00     0.200 A 
ATOM     95  F   UNL A   1      47.521  35.108  31.436  1.00  0.00    -0.200 F 
ATOM     96  F   UNL A   1      47.227  37.088  29.582  1.00  0.00    -0.200 F 
ENDBRANCH  63  86
ENDBRANCH  37  38
ENDBRANCH  29  32
ENDBRANCH  27  28
ENDBRANCH   1  27
TORSDOF 12
ENDMDL
MODEL 3
REMARK VINA RESULT:     -13.0      1.191      2.782
REMARK SMILES CC[C@H](C)N1C(=O)c2ccccc2[C@@H](C(=O)NCCCNC(=O)c2ccc(-c3c4nc(c(-c5c(F)c(F)c(F)c(F)c5F)c5ccc([nH]5)c(-c5c(F)c(F)c(F)c(F)c5F)c5nc(c(-c6c(F)c(F)c(F)c(F)c6F)c6ccc3[nH]6)C=C5)C=C4)cc2)C12CCCCC2
REMARK SMILES IDX 19 1 18 2 17 3 15 4 16 5 14 7 5 8 6 9 87 10 7 11 8 12 88 13
REMARK SMILES IDX 92 14 9 15 13 16 89 17 91 18 10 19 12 20 90 21 11 22 3 23
REMARK SMILES IDX 4 24 2 25 1 26 20 27 21 28 22 29 23 31 24 32 25 33 86 34
REMARK SMILES IDX 26 35 85 36 27 37 28 38 29 39 79 40 30 41 84 42 78 43 80 44
REMARK SMILES IDX 31 45 83 46 77 47 76 48 32 50 64 51 44 52 63 53 45 54 48 55
REMARK SMILES IDX 62 56 81 57 46 58 47 59 61 61 82 62 49 63 33 64 34 65 42 66
REMARK SMILES IDX 35 67 36 68 40 69 43 70 37 71 38 72 41 73 39 74 65 75 66 76
REMARK SMILES IDX 74 77 67 78 68 79 72 80 75 81 69 82 70 83 73 84 71 85 50 86
REMARK SMILES IDX 51 87 59 88 52 89 53 90 57 91 60 92 54 93 55 94 58 95 56 96
REMARK H PARENT 17 6 21 30 80 49 48 60
REMARK Flexibility Score: inf
ROOT
ATOM      1  C   UNL A   1      32.349  27.972  25.831  1.00  0.00     0.042 C 
ENDROOT
BRANCH   1   2
ATOM      2  C   UNL A   1      33.050  26.624  26.013  1.00  0.00     0.117 C 
BRANCH   2   3
ATOM      3  N   UNL A   1      33.814  26.162  24.856  1.00  0.00    -0.355 N 
ATOM      4  C   UNL A   1      34.266  24.949  24.425  1.00  0.00     0.229 C 
ATOM      5  O   UNL A   1      34.809  24.950  23.313  1.00  0.00    -0.274 OA
ATOM      6  H   UNL A   1      34.060  26.897  24.247  1.00  0.00     0.163 HD
BRANCH   4   7
ATOM      7  C   UNL A   1      34.106  23.622  25.206  1.00  0.00     0.135 C 
ATOM      8  N   UNL A   1      33.545  21.118  24.921  1.00  0.00    -0.329 N 
ATOM      9  C   UNL A   1      34.909  20.839  24.714  1.00  0.00     0.254 C 
ATOM     10  C   UNL A   1      33.069  22.556  24.619  1.00  0.00     0.059 C 
ATOM     11  O   UNL A   1      35.351  19.805  24.223  1.00  0.00    -0.269 OA
ATOM     12  C   UNL A   1      35.885  21.834  25.221  1.00  0.00     0.044 A 
ATOM     13  C   UNL A   1      32.922  22.642  23.077  1.00  0.00     0.030 C 
ATOM     14  C   UNL A   1      31.665  22.849  25.238  1.00  0.00     0.030 C 
ATOM     15  C   UNL A   1      37.238  21.478  25.357  1.00  0.00     0.014 A 
ATOM     16  C   UNL A   1      35.482  23.116  25.571  1.00  0.00    -0.020 A 
ATOM     17  C   UNL A   1      32.173  23.834  22.484  1.00  0.00     0.002 C 
ATOM     18  C   UNL A   1      30.974  24.104  24.699  1.00  0.00     0.002 C 
ATOM     19  C   UNL A   1      38.172  22.388  25.862  1.00  0.00     0.001 A 
ATOM     20  C   UNL A   1      36.416  24.001  26.155  1.00  0.00     0.005 A 
ATOM     21  C   UNL A   1      30.848  24.089  23.180  1.00  0.00     0.000 C 
ATOM     22  C   UNL A   1      37.755  23.646  26.283  1.00  0.00     0.000 A 
BRANCH   8  23
ATOM     23  C   UNL A   1      32.588  19.954  25.151  1.00  0.00     0.082 C 
ATOM     24  C   UNL A   1      32.108  19.227  23.881  1.00  0.00     0.031 C 
BRANCH  23  25
ATOM     25  C   UNL A   1      33.084  18.899  26.187  1.00  0.00     0.021 C 
ATOM     26  C   UNL A   1      32.828  17.440  25.811  1.00  0.00     0.006 C 
ENDBRANCH  23  25
ENDBRANCH   8  23
ENDBRANCH   4   7
ENDBRANCH   2   3
ENDBRANCH   1   2
BRANCH   1  27
ATOM     27  C   UNL A   1      33.236  29.109  25.354  1.00  0.00     0.118 C 
BRANCH  27  28
ATOM     28  N   UNL A   1      32.752  30.394  25.820  1.00  0.00    -0.352 N 
ATOM     29  C   UNL A   1      33.194  31.130  26.890  1.00  0.00     0.251 C 
ATOM     30  H   UNL A   1      32.012  30.788  25.303  1.00  0.00     0.163 HD
ATOM     31  O   UNL A   1      32.507  32.057  27.328  1.00  0.00    -0.269 OA
BRANCH  29  32
ATOM     32  C   UNL A   1      34.480  30.795  27.539  1.00  0.00     0.039 A 
ATOM     33  C   UNL A   1      34.730  29.503  28.014  1.00  0.00     0.014 A 
ATOM     34  C   UNL A   1      35.452  31.788  27.675  1.00  0.00     0.014 A 
ATOM     35  C   UNL A   1      35.882  29.244  28.753  1.00  0.00     0.010 A 
ATOM     36  C   UNL A   1      36.645  31.503  28.346  1.00  0.00     0.010 A 
ATOM     37  C   UNL A   1      36.854  30.240  28.925  1.00  0.00    -0.014 A 
BRANCH  37  38
ATOM     38  C   UNL A   1      38.083  29.971  29.718  1.00  0.00     0.031 A 
ATOM     39  C   UNL A   1      39.154  29.064  29.174  1.00  0.00     0.074 A 
ATOM     40  C   UNL A   1      38.241  30.542  30.928  1.00  0.00     0.049 A 
ATOM     41  N   UNL A   1      40.234  28.610  29.759  1.00  0.00    -0.248 NA
ATOM     42  C   UNL A   1      38.985  28.602  27.787  1.00  0.00     0.031 C 
ATOM     43  C   UNL A   1      37.299  31.469  31.554  1.00  0.00     0.029 A 
ATOM     44  N   UNL A   1      39.253  30.423  31.848  1.00  0.00    -0.354 N 
ATOM     45  C   UNL A   1      40.859  27.794  28.825  1.00  0.00     0.074 A 
ATOM     46  C   UNL A   1      40.023  27.789  27.643  1.00  0.00     0.031 C 
ATOM     47  C   UNL A   1      37.786  31.854  32.742  1.00  0.00     0.029 A 
ATOM     48  C   UNL A   1      39.037  31.146  32.994  1.00  0.00     0.049 A 
ATOM     49  H   UNL A   1      40.056  29.872  31.699  1.00  0.00     0.167 HD
ATOM     50  C   UNL A   1      42.029  27.119  28.941  1.00  0.00     0.037 A 
ATOM     51  C   UNL A   1      39.747  31.206  34.137  1.00  0.00     0.037 A 
ATOM     52  C   UNL A   1      42.866  27.138  30.113  1.00  0.00     0.049 A 
ATOM     53  C   UNL A   1      41.000  30.385  34.269  1.00  0.00     0.074 A 
ATOM     54  C   UNL A   1      44.074  26.494  30.321  1.00  0.00     0.029 A 
ATOM     55  N   UNL A   1      42.585  27.842  31.276  1.00  0.00    -0.354 N 
ATOM     56  N   UNL A   1      41.574  29.602  33.388  1.00  0.00    -0.248 NA
ATOM     57  C   UNL A   1      41.698  30.450  35.559  1.00  0.00     0.031 C 
ATOM     58  C   UNL A   1      44.497  26.767  31.627  1.00  0.00     0.029 A 
ATOM     59  C   UNL A   1      43.584  27.628  32.213  1.00  0.00     0.049 A 
ATOM     60  H   UNL A   1      41.792  28.409  31.415  1.00  0.00     0.167 HD
ATOM     61  C   UNL A   1      42.704  29.091  34.011  1.00  0.00     0.074 A 
ATOM     62  C   UNL A   1      42.751  29.679  35.334  1.00  0.00     0.031 C 
ATOM     63  C   UNL A   1      43.615  28.207  33.533  1.00  0.00     0.037 A 
BRANCH  50  64
ATOM     64  C   UNL A   1      42.472  26.285  27.772  1.00  0.00     0.064 A 
ATOM     65  C   UNL A   1      41.904  25.030  27.503  1.00  0.00     0.173 A 
ATOM     66  C   UNL A   1      43.436  26.772  26.875  1.00  0.00     0.173 A 
ATOM     67  F   UNL A   1      40.987  24.512  28.335  1.00  0.00    -0.203 F 
ATOM     68  C   UNL A   1      42.299  24.286  26.394  1.00  0.00     0.198 A 
ATOM     69  C   UNL A   1      43.805  26.039  25.749  1.00  0.00     0.198 A 
ATOM     70  F   UNL A   1      44.006  27.969  27.079  1.00  0.00    -0.203 F 
ATOM     71  F   UNL A   1      41.771  23.073  26.181  1.00  0.00    -0.200 F 
ATOM     72  C   UNL A   1      43.241  24.795  25.513  1.00  0.00     0.200 A 
ATOM     73  F   UNL A   1      44.705  26.540  24.891  1.00  0.00    -0.200 F 
ATOM     74  F   UNL A   1      43.609  24.085  24.437  1.00  0.00    -0.200 F 
ENDBRANCH  50  64
BRANCH  51  75
ATOM     75  C   UNL A   1      39.277  32.071  35.250  1.00  0.00     0.064 A 
ATOM     76  C   UNL A   1      38.485  31.548  36.280  1.00  0.00     0.173 A 
ATOM     77  C   UNL A   1      39.623  33.430  35.318  1.00  0.00     0.173 A 
ATOM     78  F   UNL A   1      38.107  30.262  36.247  1.00  0.00    -0.203 F 
ATOM     79  C   UNL A   1      38.052  32.351  37.333  1.00  0.00     0.198 A 
ATOM     80  C   UNL A   1      39.216  34.224  36.387  1.00  0.00     0.198 A 
ATOM     81  F   UNL A   1      40.380  33.980  34.357  1.00  0.00    -0.203 F 
ATOM     82  F   UNL A   1      37.264  31.834  38.287  1.00  0.00    -0.200 F 
ATOM     83  C   UNL A   1      38.426  33.686  37.391  1.00  0.00     0.200 A 
ATOM     84  F   UNL A   1      39.594  35.507  36.448  1.00  0.00    -0.200 F 
ATOM     85  F   UNL A   1      38.022  34.454  38.413  1.00  0.00    -0.200 F 
ENDBRANCH  51  75
BRANCH  63  86
ATOM     86  C   UNL A   1      44.747  27.829  34.445  1.00  0.00     0.064 A 
ATOM     87  C   UNL A   1      45.939  28.571  34.481  1.00  0.00     0.173 A 
ATOM     88  C   UNL A   1      44.633  26.731  35.312  1.00  0.00     0.173 A 
ATOM     89  F   UNL A   1      46.105  29.620  33.662  1.00  0.00    -0.203 F 
ATOM     90  C   UNL A   1      46.984  28.208  35.327  1.00  0.00     0.198 A 
ATOM     91  C   UNL A   1      45.666  26.393  36.181  1.00  0.00     0.198 A 
ATOM     92  F   UNL A   1      43.514  25.992  35.324  1.00  0.00    -0.203 F 
ATOM     93  F   UNL A   1      48.132  28.897  35.302  1.00  0.00    -0.200 F 
ATOM     94  C   UNL A   1      46.843  27.125  36.181  1.00  0.00     0.200 A 
ATOM     95  F   UNL A   1      45.523  25.355  37.018  1.00  0.00    -0.200 F 
ATOM     96  F   UNL A   1      47.848  26.781  36.999  1.00  0.00    -0.200 F 
ENDBRANCH  63  86
ENDBRANCH  37  38
ENDBRANCH  29  32
ENDBRANCH  27  28
ENDBRANCH   1  27
TORSDOF 12
ENDMDL
