MODEL 1
REMARK VINA RESULT:     -11.4      0.000      0.000
REMARK SMILES O=C(C[N@@H+]1CCC[C@H]1C(=O)NCCCNC(=O)c1ccc(-c2c3nc(c(-c4c(F)c(F)c(F)c(F)c4F)c4ccc([nH]4)c(-c4c(F)c(F)c(F)c(F)c4F)c4nc(c(-c5c(F)c(F)c(F)c(F)c5F)c5ccc2[nH]5)C=C4)C=C3)cc1)Nc1ccc(F)c(F)c1F
REMARK SMILES IDX 12 1 11 2 9 3 10 4 8 6 4 7 5 8 6 10 7 11 3 12 2 13 1 14
REMARK SMILES IDX 81 15 82 17 83 18 89 19 84 20 87 21 90 22 85 23 88 24 86 25
REMARK SMILES IDX 13 26 14 27 15 28 16 29 17 31 18 32 19 33 80 34 20 35 79 36
REMARK SMILES IDX 21 37 22 38 23 39 73 40 24 41 78 42 72 43 74 44 25 45 77 46
REMARK SMILES IDX 71 47 70 48 26 50 58 51 38 52 57 53 39 54 42 55 56 56 75 57
REMARK SMILES IDX 40 58 41 59 55 61 76 62 43 63 27 64 28 65 36 66 29 67 30 68
REMARK SMILES IDX 34 69 37 70 31 71 32 72 35 73 33 74 59 75 60 76 68 77 61 78
REMARK SMILES IDX 62 79 66 80 69 81 63 82 64 83 67 84 65 85 44 86 45 87 53 88
REMARK SMILES IDX 46 89 47 90 51 91 54 92 48 93 49 94 52 95 50 96
REMARK H PARENT 11 5 4 9 81 16 15 30 74 49 42 60
REMARK Flexibility Score: inf
ROOT
ATOM      1  C   UNL A   1      33.146  34.313  28.279  1.00  0.00     0.118 C 
ENDROOT
BRANCH   1   2
ATOM      2  N   UNL A   1      33.265  35.721  28.617  1.00  0.00    -0.351 N 
ATOM      3  C   UNL A   1      33.186  36.394  29.797  1.00  0.00     0.278 C 
ATOM      4  O   UNL A   1      33.278  37.626  29.711  1.00  0.00    -0.268 OA
ATOM      5  H   UNL A   1      33.435  36.301  27.839  1.00  0.00     0.163 HD
BRANCH   3   6
ATOM      6  C   UNL A   1      32.924  35.703  31.163  1.00  0.00     0.274 C 
ATOM      7  N   UNL A   1      34.144  35.068  31.694  1.00  0.00    -0.317 N 
ATOM      8  C   UNL A   1      34.785  36.031  32.570  1.00  0.00     0.263 C 
ATOM      9  H   UNL A   1      34.824  34.869  30.960  1.00  0.00     0.349 HD
ATOM     10  C   UNL A   1      33.639  36.736  33.262  1.00  0.00     0.068 C 
ATOM     11  C   UNL A   1      32.533  36.757  32.215  1.00  0.00     0.081 C 
BRANCH   7  12
ATOM     12  C   UNL A   1      33.972  33.672  32.133  1.00  0.00     0.364 C 
BRANCH  12  13
ATOM     13  C   UNL A   1      35.090  33.113  33.005  1.00  0.00     0.279 C 
ATOM     14  O   UNL A   1      35.046  33.149  34.230  1.00  0.00    -0.268 OA
ATOM     15  N   UNL A   1      36.164  32.669  32.248  1.00  0.00    -0.319 N 
ATOM     16  H   UNL A   1      36.078  32.685  31.267  1.00  0.00     0.170 HD
BRANCH  15  17
ATOM     17  C   UNL A   1      37.363  32.199  32.798  1.00  0.00     0.080 A 
ATOM     18  C   UNL A   1      37.451  30.823  33.047  1.00  0.00     0.032 A 
ATOM     19  C   UNL A   1      38.438  33.037  33.113  1.00  0.00     0.185 A 
ATOM     20  C   UNL A   1      38.634  30.282  33.546  1.00  0.00     0.045 A 
ATOM     21  C   UNL A   1      39.598  32.499  33.654  1.00  0.00     0.196 A 
ATOM     22  F   UNL A   1      38.321  34.369  32.997  1.00  0.00    -0.201 F 
ATOM     23  C   UNL A   1      39.698  31.127  33.851  1.00  0.00     0.162 A 
ATOM     24  F   UNL A   1      40.610  33.303  34.012  1.00  0.00    -0.200 F 
ATOM     25  F   UNL A   1      40.822  30.598  34.353  1.00  0.00    -0.204 F 
ENDBRANCH  15  17
ENDBRANCH  12  13
ENDBRANCH   7  12
ENDBRANCH   3   6
ENDBRANCH   1   2
BRANCH   1  26
ATOM     26  C   UNL A   1      34.500  33.672  28.039  1.00  0.00     0.042 C 
BRANCH  26  27
ATOM     27  C   UNL A   1      34.747  32.460  28.918  1.00  0.00     0.118 C 
BRANCH  27  28
ATOM     28  N   UNL A   1      34.136  31.249  28.379  1.00  0.00    -0.352 N 
ATOM     29  C   UNL A   1      34.712  30.072  27.979  1.00  0.00     0.251 C 
ATOM     30  H   UNL A   1      33.157  31.283  28.288  1.00  0.00     0.163 HD
ATOM     31  O   UNL A   1      34.051  29.250  27.346  1.00  0.00    -0.269 OA
BRANCH  29  32
ATOM     32  C   UNL A   1      36.129  29.796  28.290  1.00  0.00     0.039 A 
ATOM     33  C   UNL A   1      36.464  29.286  29.547  1.00  0.00     0.014 A 
ATOM     34  C   UNL A   1      37.129  30.048  27.348  1.00  0.00     0.014 A 
ATOM     35  C   UNL A   1      37.792  28.971  29.833  1.00  0.00     0.010 A 
ATOM     36  C   UNL A   1      38.431  29.634  27.592  1.00  0.00     0.010 A 
ATOM     37  C   UNL A   1      38.781  29.107  28.844  1.00  0.00    -0.014 A 
BRANCH  37  38
ATOM     38  C   UNL A   1      40.194  28.736  29.102  1.00  0.00     0.031 A 
ATOM     39  C   UNL A   1      41.108  29.706  29.800  1.00  0.00     0.074 A 
ATOM     40  C   UNL A   1      40.670  27.560  28.650  1.00  0.00     0.049 A 
ATOM     41  N   UNL A   1      42.390  29.609  30.043  1.00  0.00    -0.248 NA
ATOM     42  C   UNL A   1      40.507  30.971  30.255  1.00  0.00     0.031 C 
ATOM     43  C   UNL A   1      39.895  26.558  27.917  1.00  0.00     0.029 A 
ATOM     44  N   UNL A   1      41.926  27.014  28.731  1.00  0.00    -0.354 N 
ATOM     45  C   UNL A   1      42.749  30.801  30.660  1.00  0.00     0.074 A 
ATOM     46  C   UNL A   1      41.566  31.633  30.695  1.00  0.00     0.031 C 
ATOM     47  C   UNL A   1      40.685  25.508  27.639  1.00  0.00     0.029 A 
ATOM     48  C   UNL A   1      42.031  25.781  28.133  1.00  0.00     0.049 A 
ATOM     49  H   UNL A   1      42.682  27.463  29.175  1.00  0.00     0.167 HD
ATOM     50  C   UNL A   1      43.948  31.159  31.176  1.00  0.00     0.037 A 
ATOM     51  C   UNL A   1      43.095  24.969  27.992  1.00  0.00     0.037 A 
ATOM     52  C   UNL A   1      45.114  30.316  31.161  1.00  0.00     0.049 A 
ATOM     53  C   UNL A   1      44.420  25.395  28.566  1.00  0.00     0.074 A 
ATOM     54  C   UNL A   1      46.361  30.560  31.707  1.00  0.00     0.029 A 
ATOM     55  N   UNL A   1      45.174  29.065  30.564  1.00  0.00    -0.354 N 
ATOM     56  N   UNL A   1      44.731  26.495  29.209  1.00  0.00    -0.248 NA
ATOM     57  C   UNL A   1      45.543  24.462  28.400  1.00  0.00     0.031 C 
ATOM     58  C   UNL A   1      47.193  29.480  31.393  1.00  0.00     0.029 A 
ATOM     59  C   UNL A   1      46.447  28.535  30.709  1.00  0.00     0.049 A 
ATOM     60  H   UNL A   1      44.425  28.620  30.106  1.00  0.00     0.167 HD
ATOM     61  C   UNL A   1      46.069  26.370  29.556  1.00  0.00     0.074 A 
ATOM     62  C   UNL A   1      46.509  25.082  29.063  1.00  0.00     0.031 C 
ATOM     63  C   UNL A   1      46.863  27.244  30.223  1.00  0.00     0.037 A 
BRANCH  50  64
ATOM     64  C   UNL A   1      44.058  32.521  31.802  1.00  0.00     0.064 A 
ATOM     65  C   UNL A   1      43.808  32.727  33.168  1.00  0.00     0.173 A 
ATOM     66  C   UNL A   1      44.447  33.629  31.034  1.00  0.00     0.173 A 
ATOM     67  F   UNL A   1      43.421  31.705  33.947  1.00  0.00    -0.203 F 
ATOM     68  C   UNL A   1      43.911  33.996  33.733  1.00  0.00     0.198 A 
ATOM     69  C   UNL A   1      44.584  34.889  31.610  1.00  0.00     0.198 A 
ATOM     70  F   UNL A   1      44.702  33.488  29.724  1.00  0.00    -0.203 F 
ATOM     71  F   UNL A   1      43.613  34.177  35.026  1.00  0.00    -0.200 F 
ATOM     72  C   UNL A   1      44.307  35.074  32.955  1.00  0.00     0.200 A 
ATOM     73  F   UNL A   1      44.981  35.926  30.860  1.00  0.00    -0.200 F 
ATOM     74  F   UNL A   1      44.415  36.292  33.502  1.00  0.00    -0.200 F 
ENDBRANCH  50  64
BRANCH  51  75
ATOM     75  C   UNL A   1      42.949  23.661  27.301  1.00  0.00     0.064 A 
ATOM     76  C   UNL A   1      42.389  22.557  27.959  1.00  0.00     0.173 A 
ATOM     77  C   UNL A   1      43.371  23.483  25.976  1.00  0.00     0.173 A 
ATOM     78  F   UNL A   1      41.986  22.672  29.234  1.00  0.00    -0.203 F 
ATOM     79  C   UNL A   1      42.282  21.319  27.329  1.00  0.00     0.198 A 
ATOM     80  C   UNL A   1      43.235  22.253  25.334  1.00  0.00     0.198 A 
ATOM     81  F   UNL A   1      43.906  24.509  25.296  1.00  0.00    -0.203 F 
ATOM     82  F   UNL A   1      41.792  20.268  28.000  1.00  0.00    -0.200 F 
ATOM     83  C   UNL A   1      42.700  21.169  26.015  1.00  0.00     0.200 A 
ATOM     84  F   UNL A   1      43.623  22.117  24.060  1.00  0.00    -0.200 F 
ATOM     85  F   UNL A   1      42.595  19.979  25.409  1.00  0.00    -0.200 F 
ENDBRANCH  51  75
BRANCH  63  86
ATOM     86  C   UNL A   1      48.275  26.815  30.505  1.00  0.00     0.064 A 
ATOM     87  C   UNL A   1      48.597  25.997  31.598  1.00  0.00     0.173 A 
ATOM     88  C   UNL A   1      49.314  27.196  29.641  1.00  0.00     0.173 A 
ATOM     89  F   UNL A   1      47.644  25.617  32.461  1.00  0.00    -0.203 F 
ATOM     90  C   UNL A   1      49.912  25.601  31.831  1.00  0.00     0.198 A 
ATOM     91  C   UNL A   1      50.621  26.769  29.858  1.00  0.00     0.198 A 
ATOM     92  F   UNL A   1      49.059  27.971  28.576  1.00  0.00    -0.203 F 
ATOM     93  F   UNL A   1      50.204  24.864  32.912  1.00  0.00    -0.200 F 
ATOM     94  C   UNL A   1      50.920  25.980  30.958  1.00  0.00     0.200 A 
ATOM     95  F   UNL A   1      51.590  27.121  29.003  1.00  0.00    -0.200 F 
ATOM     96  F   UNL A   1      52.183  25.589  31.179  1.00  0.00    -0.200 F 
ENDBRANCH  63  86
ENDBRANCH  37  38
ENDBRANCH  29  32
ENDBRANCH  27  28
ENDBRANCH  26  27
ENDBRANCH   1  26
TORSDOF 13
ENDMDL
MODEL 2
REMARK VINA RESULT:     -11.3      3.963      7.666
REMARK SMILES O=C(C[N@@H+]1CCC[C@H]1C(=O)NCCCNC(=O)c1ccc(-c2c3nc(c(-c4c(F)c(F)c(F)c(F)c4F)c4ccc([nH]4)c(-c4c(F)c(F)c(F)c(F)c4F)c4nc(c(-c5c(F)c(F)c(F)c(F)c5F)c5ccc2[nH]5)C=C4)C=C3)cc1)Nc1ccc(F)c(F)c1F
REMARK SMILES IDX 12 1 11 2 9 3 10 4 8 6 4 7 5 8 6 10 7 11 3 12 2 13 1 14
REMARK SMILES IDX 81 15 82 17 83 18 89 19 84 20 87 21 90 22 85 23 88 24 86 25
REMARK SMILES IDX 13 26 14 27 15 28 16 29 17 31 18 32 19 33 80 34 20 35 79 36
REMARK SMILES IDX 21 37 22 38 23 39 73 40 24 41 78 42 72 43 74 44 25 45 77 46
REMARK SMILES IDX 71 47 70 48 26 50 58 51 38 52 57 53 39 54 42 55 56 56 75 57
REMARK SMILES IDX 40 58 41 59 55 61 76 62 43 63 27 64 28 65 36 66 29 67 30 68
REMARK SMILES IDX 34 69 37 70 31 71 32 72 35 73 33 74 59 75 60 76 68 77 61 78
REMARK SMILES IDX 62 79 66 80 69 81 63 82 64 83 67 84 65 85 44 86 45 87 53 88
REMARK SMILES IDX 46 89 47 90 51 91 54 92 48 93 49 94 52 95 50 96
REMARK H PARENT 11 5 4 9 81 16 15 30 74 49 42 60
REMARK Flexibility Score: inf
ROOT
ATOM      1  C   UNL A   1      33.984  28.380  22.952  1.00  0.00     0.118 C 
ENDROOT
BRANCH   1   2
ATOM      2  N   UNL A   1      33.457  27.532  21.896  1.00  0.00    -0.351 N 
ATOM      3  C   UNL A   1      33.298  26.185  21.792  1.00  0.00     0.278 C 
ATOM      4  O   UNL A   1      32.864  25.786  20.703  1.00  0.00    -0.268 OA
ATOM      5  H   UNL A   1      33.158  28.031  21.101  1.00  0.00     0.163 HD
BRANCH   3   6
ATOM      6  C   UNL A   1      33.696  25.185  22.912  1.00  0.00     0.274 C 
ATOM      7  N   UNL A   1      32.849  25.346  24.109  1.00  0.00    -0.317 N 
ATOM      8  C   UNL A   1      31.749  24.408  23.986  1.00  0.00     0.263 C 
ATOM      9  H   UNL A   1      32.420  26.269  24.155  1.00  0.00     0.349 HD
ATOM     10  C   UNL A   1      32.364  23.180  23.350  1.00  0.00     0.068 C 
ATOM     11  C   UNL A   1      33.446  23.742  22.437  1.00  0.00     0.081 C 
BRANCH   7  12
ATOM     12  C   UNL A   1      33.590  25.451  25.378  1.00  0.00     0.364 C 
BRANCH  12  13
ATOM     13  C   UNL A   1      34.489  24.267  25.716  1.00  0.00     0.279 C 
ATOM     14  O   UNL A   1      34.124  23.357  26.453  1.00  0.00    -0.268 OA
ATOM     15  N   UNL A   1      35.757  24.409  25.175  1.00  0.00    -0.319 N 
ATOM     16  H   UNL A   1      35.929  25.183  24.591  1.00  0.00     0.170 HD
BRANCH  15  17
ATOM     17  C   UNL A   1      36.809  23.513  25.411  1.00  0.00     0.080 A 
ATOM     18  C   UNL A   1      37.883  23.985  26.176  1.00  0.00     0.032 A 
ATOM     19  C   UNL A   1      36.826  22.208  24.909  1.00  0.00     0.185 A 
ATOM     20  C   UNL A   1      38.938  23.130  26.492  1.00  0.00     0.045 A 
ATOM     21  C   UNL A   1      37.901  21.376  25.187  1.00  0.00     0.196 A 
ATOM     22  F   UNL A   1      35.865  21.787  24.072  1.00  0.00    -0.201 F 
ATOM     23  C   UNL A   1      38.940  21.831  25.989  1.00  0.00     0.162 A 
ATOM     24  F   UNL A   1      37.953  20.143  24.661  1.00  0.00    -0.200 F 
ATOM     25  F   UNL A   1      39.971  21.027  26.280  1.00  0.00    -0.204 F 
ENDBRANCH  15  17
ENDBRANCH  12  13
ENDBRANCH   7  12
ENDBRANCH   3   6
ENDBRANCH   1   2
BRANCH   1  26
ATOM     26  C   UNL A   1      32.878  28.972  23.806  1.00  0.00     0.042 C 
BRANCH  26  27
ATOM     27  C   UNL A   1      33.284  29.161  25.256  1.00  0.00     0.118 C 
BRANCH  27  28
ATOM     28  N   UNL A   1      32.857  30.451  25.790  1.00  0.00    -0.352 N 
ATOM     29  C   UNL A   1      33.325  31.159  26.865  1.00  0.00     0.251 C 
ATOM     30  H   UNL A   1      32.117  30.878  25.301  1.00  0.00     0.163 HD
ATOM     31  O   UNL A   1      32.688  32.124  27.287  1.00  0.00    -0.269 OA
BRANCH  29  32
ATOM     32  C   UNL A   1      34.581  30.759  27.530  1.00  0.00     0.039 A 
ATOM     33  C   UNL A   1      35.597  31.705  27.694  1.00  0.00     0.014 A 
ATOM     34  C   UNL A   1      34.764  29.450  27.981  1.00  0.00     0.014 A 
ATOM     35  C   UNL A   1      36.766  31.352  28.367  1.00  0.00     0.010 A 
ATOM     36  C   UNL A   1      35.878  29.130  28.744  1.00  0.00     0.010 A 
ATOM     37  C   UNL A   1      36.900  30.072  28.930  1.00  0.00    -0.014 A 
BRANCH  37  38
ATOM     38  C   UNL A   1      38.112  29.683  29.693  1.00  0.00     0.031 A 
ATOM     39  C   UNL A   1      38.345  30.249  31.068  1.00  0.00     0.074 A 
ATOM     40  C   UNL A   1      39.031  28.879  29.125  1.00  0.00     0.049 A 
ATOM     41  N   UNL A   1      39.376  30.103  31.861  1.00  0.00    -0.248 NA
ATOM     42  C   UNL A   1      37.292  31.123  31.610  1.00  0.00     0.031 C 
ATOM     43  C   UNL A   1      38.942  28.308  27.781  1.00  0.00     0.029 A 
ATOM     44  N   UNL A   1      40.230  28.414  29.605  1.00  0.00    -0.354 N 
ATOM     45  C   UNL A   1      39.103  30.878  32.981  1.00  0.00     0.074 A 
ATOM     46  C   UNL A   1      37.843  31.544  32.739  1.00  0.00     0.031 C 
ATOM     47  C   UNL A   1      40.025  27.548  27.553  1.00  0.00     0.029 A 
ATOM     48  C   UNL A   1      40.905  27.613  28.715  1.00  0.00     0.049 A 
ATOM     49  H   UNL A   1      40.574  28.632  30.501  1.00  0.00     0.167 HD
ATOM     50  C   UNL A   1      39.825  31.002  34.120  1.00  0.00     0.037 A 
ATOM     51  C   UNL A   1      42.103  27.009  28.824  1.00  0.00     0.037 A 
ATOM     52  C   UNL A   1      41.065  30.314  34.365  1.00  0.00     0.049 A 
ATOM     53  C   UNL A   1      42.890  27.171  30.097  1.00  0.00     0.074 A 
ATOM     54  C   UNL A   1      41.845  30.325  35.506  1.00  0.00     0.029 A 
ATOM     55  N   UNL A   1      41.707  29.496  33.447  1.00  0.00    -0.354 N 
ATOM     56  N   UNL A   1      42.590  27.849  31.178  1.00  0.00    -0.248 NA
ATOM     57  C   UNL A   1      44.182  26.473  30.169  1.00  0.00     0.031 C 
ATOM     58  C   UNL A   1      42.988  29.557  35.261  1.00  0.00     0.029 A 
ATOM     59  C   UNL A   1      42.888  29.014  33.990  1.00  0.00     0.049 A 
ATOM     60  H   UNL A   1      41.374  29.288  32.545  1.00  0.00     0.167 HD
ATOM     61  C   UNL A   1      43.633  27.633  32.068  1.00  0.00     0.074 A 
ATOM     62  C   UNL A   1      44.569  26.749  31.406  1.00  0.00     0.031 C 
ATOM     63  C   UNL A   1      43.801  28.123  33.321  1.00  0.00     0.037 A 
BRANCH  50  64
ATOM     64  C   UNL A   1      39.288  31.911  35.188  1.00  0.00     0.064 A 
ATOM     65  C   UNL A   1      38.513  31.423  36.253  1.00  0.00     0.173 A 
ATOM     66  C   UNL A   1      39.575  33.284  35.165  1.00  0.00     0.173 A 
ATOM     67  F   UNL A   1      38.199  30.120  36.318  1.00  0.00    -0.203 F 
ATOM     68  C   UNL A   1      38.021  32.279  37.235  1.00  0.00     0.198 A 
ATOM     69  C   UNL A   1      39.110  34.132  36.168  1.00  0.00     0.198 A 
ATOM     70  F   UNL A   1      40.314  33.804  34.173  1.00  0.00    -0.203 F 
ATOM     71  F   UNL A   1      37.238  31.798  38.209  1.00  0.00    -0.200 F 
ATOM     72  C   UNL A   1      38.326  33.632  37.195  1.00  0.00     0.200 A 
ATOM     73  F   UNL A   1      39.419  35.436  36.136  1.00  0.00    -0.200 F 
ATOM     74  F   UNL A   1      37.859  34.452  38.145  1.00  0.00    -0.200 F 
ENDBRANCH  50  64
BRANCH  51  75
ATOM     75  C   UNL A   1      42.622  26.176  27.708  1.00  0.00     0.064 A 
ATOM     76  C   UNL A   1      42.238  24.834  27.572  1.00  0.00     0.173 A 
ATOM     77  C   UNL A   1      43.516  26.695  26.760  1.00  0.00     0.173 A 
ATOM     78  F   UNL A   1      41.398  24.284  28.462  1.00  0.00    -0.203 F 
ATOM     79  C   UNL A   1      42.748  24.038  26.548  1.00  0.00     0.198 A 
ATOM     80  C   UNL A   1      44.001  25.908  25.718  1.00  0.00     0.198 A 
ATOM     81  F   UNL A   1      43.910  27.975  26.839  1.00  0.00    -0.203 F 
ATOM     82  F   UNL A   1      42.405  22.745  26.474  1.00  0.00    -0.200 F 
ATOM     83  C   UNL A   1      43.626  24.576  25.619  1.00  0.00     0.200 A 
ATOM     84  F   UNL A   1      44.835  26.436  24.813  1.00  0.00    -0.200 F 
ATOM     85  F   UNL A   1      44.114  23.810  24.634  1.00  0.00    -0.200 F 
ENDBRANCH  51  75
BRANCH  63  86
ATOM     86  C   UNL A   1      45.017  27.672  34.081  1.00  0.00     0.064 A 
ATOM     87  C   UNL A   1      46.219  28.393  34.049  1.00  0.00     0.173 A 
ATOM     88  C   UNL A   1      44.960  26.524  34.886  1.00  0.00     0.173 A 
ATOM     89  F   UNL A   1      46.330  29.490  33.285  1.00  0.00    -0.203 F 
ATOM     90  C   UNL A   1      47.329  27.964  34.773  1.00  0.00     0.198 A 
ATOM     91  C   UNL A   1      46.060  26.118  35.636  1.00  0.00     0.198 A 
ATOM     92  F   UNL A   1      43.831  25.803  34.958  1.00  0.00    -0.203 F 
ATOM     93  F   UNL A   1      48.484  28.638  34.685  1.00  0.00    -0.200 F 
ATOM     94  C   UNL A   1      47.246  26.833  35.571  1.00  0.00     0.200 A 
ATOM     95  F   UNL A   1      45.972  25.035  36.420  1.00  0.00    -0.200 F 
ATOM     96  F   UNL A   1      48.312  26.428  36.275  1.00  0.00    -0.200 F 
ENDBRANCH  63  86
ENDBRANCH  37  38
ENDBRANCH  29  32
ENDBRANCH  27  28
ENDBRANCH  26  27
ENDBRANCH   1  26
TORSDOF 13
ENDMDL
MODEL 3
REMARK VINA RESULT:     -11.2      3.351      6.741
REMARK SMILES O=C(C[N@@H+]1CCC[C@H]1C(=O)NCCCNC(=O)c1ccc(-c2c3nc(c(-c4c(F)c(F)c(F)c(F)c4F)c4ccc([nH]4)c(-c4c(F)c(F)c(F)c(F)c4F)c4nc(c(-c5c(F)c(F)c(F)c(F)c5F)c5ccc2[nH]5)C=C4)C=C3)cc1)Nc1ccc(F)c(F)c1F
REMARK SMILES IDX 12 1 11 2 9 3 10 4 8 6 4 7 5 8 6 10 7 11 3 12 2 13 1 14
REMARK SMILES IDX 81 15 82 17 83 18 89 19 84 20 87 21 90 22 85 23 88 24 86 25
REMARK SMILES IDX 13 26 14 27 15 28 16 29 17 31 18 32 19 33 80 34 20 35 79 36
REMARK SMILES IDX 21 37 22 38 23 39 73 40 24 41 78 42 72 43 74 44 25 45 77 46
REMARK SMILES IDX 71 47 70 48 26 50 58 51 38 52 57 53 39 54 42 55 56 56 75 57
REMARK SMILES IDX 40 58 41 59 55 61 76 62 43 63 27 64 28 65 36 66 29 67 30 68
REMARK SMILES IDX 34 69 37 70 31 71 32 72 35 73 33 74 59 75 60 76 68 77 61 78
REMARK SMILES IDX 62 79 66 80 69 81 63 82 64 83 67 84 65 85 44 86 45 87 53 88
REMARK SMILES IDX 46 89 47 90 51 91 54 92 48 93 49 94 52 95 50 96
REMARK H PARENT 11 5 4 9 81 16 15 30 74 49 42 60
REMARK Flexibility Score: inf
ROOT
ATOM      1  C   UNL A   1      31.821  28.219  26.997  1.00  0.00     0.118 C 
ENDROOT
BRANCH   1   2
ATOM      2  N   UNL A   1      31.002  27.023  27.097  1.00  0.00    -0.351 N 
ATOM      3  C   UNL A   1      30.705  26.034  26.210  1.00  0.00     0.278 C 
ATOM      4  O   UNL A   1      29.908  25.180  26.618  1.00  0.00    -0.268 OA
ATOM      5  H   UNL A   1      30.578  26.907  27.978  1.00  0.00     0.163 HD
BRANCH   3   6
ATOM      6  C   UNL A   1      31.251  25.994  24.757  1.00  0.00     0.274 C 
ATOM      7  N   UNL A   1      32.325  24.995  24.607  1.00  0.00    -0.317 N 
ATOM      8  C   UNL A   1      31.707  23.761  24.159  1.00  0.00     0.263 C 
ATOM      9  H   UNL A   1      32.770  24.772  25.498  1.00  0.00     0.349 HD
ATOM     10  C   UNL A   1      30.612  24.206  23.214  1.00  0.00     0.068 C 
ATOM     11  C   UNL A   1      30.141  25.533  23.794  1.00  0.00     0.081 C 
BRANCH   7  12
ATOM     12  C   UNL A   1      33.543  25.493  23.942  1.00  0.00     0.364 C 
BRANCH  12  13
ATOM     13  C   UNL A   1      34.674  24.481  23.798  1.00  0.00     0.279 C 
ATOM     14  O   UNL A   1      34.974  23.984  22.717  1.00  0.00    -0.268 OA
ATOM     15  N   UNL A   1      35.226  24.143  25.024  1.00  0.00    -0.319 N 
ATOM     16  H   UNL A   1      34.905  24.618  25.824  1.00  0.00     0.170 HD
BRANCH  15  17
ATOM     17  C   UNL A   1      36.215  23.165  25.189  1.00  0.00     0.080 A 
ATOM     18  C   UNL A   1      37.488  23.608  25.568  1.00  0.00     0.032 A 
ATOM     19  C   UNL A   1      35.981  21.802  24.979  1.00  0.00     0.185 A 
ATOM     20  C   UNL A   1      38.504  22.683  25.799  1.00  0.00     0.045 A 
ATOM     21  C   UNL A   1      37.010  20.888  25.165  1.00  0.00     0.196 A 
ATOM     22  F   UNL A   1      34.803  21.379  24.495  1.00  0.00    -0.201 F 
ATOM     23  C   UNL A   1      38.257  21.328  25.591  1.00  0.00     0.162 A 
ATOM     24  F   UNL A   1      36.810  19.587  24.908  1.00  0.00    -0.200 F 
ATOM     25  F   UNL A   1      39.249  20.450  25.793  1.00  0.00    -0.204 F 
ENDBRANCH  15  17
ENDBRANCH  12  13
ENDBRANCH   7  12
ENDBRANCH   3   6
ENDBRANCH   1   2
BRANCH   1  26
ATOM     26  C   UNL A   1      33.291  27.884  26.819  1.00  0.00     0.042 C 
BRANCH  26  27
ATOM     27  C   UNL A   1      34.059  28.959  26.072  1.00  0.00     0.118 C 
BRANCH  27  28
ATOM     28  N   UNL A   1      33.910  30.275  26.685  1.00  0.00    -0.352 N 
ATOM     29  C   UNL A   1      34.648  30.878  27.670  1.00  0.00     0.251 C 
ATOM     30  H   UNL A   1      33.163  30.813  26.338  1.00  0.00     0.163 HD
ATOM     31  O   UNL A   1      34.231  31.904  28.206  1.00  0.00    -0.269 OA
BRANCH  29  32
ATOM     32  C   UNL A   1      35.932  30.291  28.101  1.00  0.00     0.039 A 
ATOM     33  C   UNL A   1      37.057  30.437  27.283  1.00  0.00     0.014 A 
ATOM     34  C   UNL A   1      36.028  29.588  29.304  1.00  0.00     0.014 A 
ATOM     35  C   UNL A   1      38.287  29.933  27.705  1.00  0.00     0.010 A 
ATOM     36  C   UNL A   1      37.271  29.184  29.772  1.00  0.00     0.010 A 
ATOM     37  C   UNL A   1      38.411  29.336  28.970  1.00  0.00    -0.014 A 
BRANCH  37  38
ATOM     38  C   UNL A   1      39.716  28.833  29.467  1.00  0.00     0.031 A 
ATOM     39  C   UNL A   1      40.513  29.657  30.442  1.00  0.00     0.074 A 
ATOM     40  C   UNL A   1      40.213  27.676  28.990  1.00  0.00     0.049 A 
ATOM     41  N   UNL A   1      41.708  29.439  30.930  1.00  0.00    -0.248 NA
ATOM     42  C   UNL A   1      39.898  30.911  30.906  1.00  0.00     0.031 C 
ATOM     43  C   UNL A   1      39.558  26.815  28.005  1.00  0.00     0.029 A 
ATOM     44  N   UNL A   1      41.393  27.031  29.263  1.00  0.00    -0.354 N 
ATOM     45  C   UNL A   1      41.991  30.532  31.738  1.00  0.00     0.074 A 
ATOM     46  C   UNL A   1      40.874  31.443  31.626  1.00  0.00     0.031 C 
ATOM     47  C   UNL A   1      40.332  25.742  27.776  1.00  0.00     0.029 A 
ATOM     48  C   UNL A   1      41.556  25.860  28.561  1.00  0.00     0.049 A 
ATOM     49  H   UNL A   1      42.062  27.374  29.900  1.00  0.00     0.167 HD
ATOM     50  C   UNL A   1      43.073  30.744  32.525  1.00  0.00     0.037 A 
ATOM     51  C   UNL A   1      42.580  24.988  28.549  1.00  0.00     0.037 A 
ATOM     52  C   UNL A   1      44.168  29.820  32.652  1.00  0.00     0.049 A 
ATOM     53  C   UNL A   1      43.776  25.253  29.426  1.00  0.00     0.074 A 
ATOM     54  C   UNL A   1      45.283  29.913  33.465  1.00  0.00     0.029 A 
ATOM     55  N   UNL A   1      44.286  28.635  31.941  1.00  0.00    -0.354 N 
ATOM     56  N   UNL A   1      44.002  26.255  30.240  1.00  0.00    -0.248 NA
ATOM     57  C   UNL A   1      44.857  24.258  29.387  1.00  0.00     0.031 C 
ATOM     58  C   UNL A   1      46.104  28.810  33.207  1.00  0.00     0.029 A 
ATOM     59  C   UNL A   1      45.470  27.998  32.281  1.00  0.00     0.049 A 
ATOM     60  H   UNL A   1      43.628  28.297  31.293  1.00  0.00     0.167 HD
ATOM     61  C   UNL A   1      45.228  25.994  30.836  1.00  0.00     0.074 A 
ATOM     62  C   UNL A   1      45.693  24.733  30.299  1.00  0.00     0.031 C 
ATOM     63  C   UNL A   1      45.909  26.734  31.746  1.00  0.00     0.037 A 
BRANCH  50  64
ATOM     64  C   UNL A   1      43.121  32.023  33.311  1.00  0.00     0.064 A 
ATOM     65  C   UNL A   1      42.526  32.133  34.579  1.00  0.00     0.173 A 
ATOM     66  C   UNL A   1      43.794  33.146  32.806  1.00  0.00     0.173 A 
ATOM     67  F   UNL A   1      41.859  31.095  35.105  1.00  0.00    -0.203 F 
ATOM     68  C   UNL A   1      42.577  33.327  35.295  1.00  0.00     0.198 A 
ATOM     69  C   UNL A   1      43.873  34.326  33.540  1.00  0.00     0.198 A 
ATOM     70  F   UNL A   1      44.383  33.095  31.602  1.00  0.00    -0.203 F 
ATOM     71  F   UNL A   1      41.954  33.424  36.477  1.00  0.00    -0.200 F 
ATOM     72  C   UNL A   1      43.257  34.420  34.778  1.00  0.00     0.200 A 
ATOM     73  F   UNL A   1      44.543  35.376  33.046  1.00  0.00    -0.200 F 
ATOM     74  F   UNL A   1      43.313  35.564  35.471  1.00  0.00    -0.200 F 
ENDBRANCH  50  64
BRANCH  51  75
ATOM     75  C   UNL A   1      42.514  23.771  27.698  1.00  0.00     0.064 A 
ATOM     76  C   UNL A   1      42.961  23.797  26.370  1.00  0.00     0.173 A 
ATOM     77  C   UNL A   1      41.997  22.563  28.187  1.00  0.00     0.173 A 
ATOM     78  F   UNL A   1      43.448  24.933  25.849  1.00  0.00    -0.203 F 
ATOM     79  C   UNL A   1      42.869  22.670  25.555  1.00  0.00     0.198 A 
ATOM     80  C   UNL A   1      41.934  21.427  27.383  1.00  0.00     0.198 A 
ATOM     81  F   UNL A   1      41.562  22.481  29.454  1.00  0.00    -0.203 F 
ATOM     82  F   UNL A   1      43.255  22.738  24.274  1.00  0.00    -0.200 F 
ATOM     83  C   UNL A   1      42.360  21.484  26.064  1.00  0.00     0.200 A 
ATOM     84  F   UNL A   1      41.458  20.279  27.882  1.00  0.00    -0.200 F 
ATOM     85  F   UNL A   1      42.274  20.400  25.281  1.00  0.00    -0.200 F 
ENDBRANCH  51  75
BRANCH  63  86
ATOM     86  C   UNL A   1      47.205  26.173  32.260  1.00  0.00     0.064 A 
ATOM     87  C   UNL A   1      47.258  25.341  33.387  1.00  0.00     0.173 A 
ATOM     88  C   UNL A   1      48.407  26.440  31.584  1.00  0.00     0.173 A 
ATOM     89  F   UNL A   1      46.140  25.065  34.076  1.00  0.00    -0.203 F 
ATOM     90  C   UNL A   1      48.469  24.821  33.836  1.00  0.00     0.198 A 
ATOM     91  C   UNL A   1      49.610  25.891  32.015  1.00  0.00     0.198 A 
ATOM     92  F   UNL A   1      48.411  27.224  30.495  1.00  0.00    -0.203 F 
ATOM     93  F   UNL A   1      48.502  24.072  34.947  1.00  0.00    -0.200 F 
ATOM     94  C   UNL A   1      49.641  25.090  33.147  1.00  0.00     0.200 A 
ATOM     95  F   UNL A   1      50.739  26.137  31.337  1.00  0.00    -0.200 F 
ATOM     96  F   UNL A   1      50.805  24.580  33.575  1.00  0.00    -0.200 F 
ENDBRANCH  63  86
ENDBRANCH  37  38
ENDBRANCH  29  32
ENDBRANCH  27  28
ENDBRANCH  26  27
ENDBRANCH   1  26
TORSDOF 13
ENDMDL
