MODEL 1
REMARK VINA RESULT:     -12.4      0.000      0.000
REMARK SMILES CC(C)(C)C1CN(c2cccc(Cl)c2C(=O)NCCCNC(=O)c2ccc(-c3c4nc(c(-c5c(F)c(F)c(F)c(F)c5F)c5ccc([nH]5)c(-c5c(F)c(F)c(F)c(F)c5F)c5nc(c(-c6c(F)c(F)c(F)c(F)c6F)c6ccc3[nH]6)C=C5)C=C4)cc2)C1
REMARK SMILES IDX 19 1 18 2 17 3 15 4 16 5 14 7 8 8 9 9 10 10 12 11 11 12
REMARK SMILES IDX 13 13 7 14 5 15 6 16 87 17 2 18 1 19 3 20 4 21 20 22 21 23
REMARK SMILES IDX 22 24 23 26 24 27 25 28 86 29 26 30 85 31 27 32 28 33 29 34
REMARK SMILES IDX 79 35 30 36 84 37 78 38 80 39 31 40 83 41 77 42 76 43 32 45
REMARK SMILES IDX 64 46 44 47 63 48 45 49 48 50 62 51 81 52 46 53 47 54 61 56
REMARK SMILES IDX 82 57 49 58 33 59 34 60 42 61 35 62 36 63 40 64 43 65 37 66
REMARK SMILES IDX 38 67 41 68 39 69 65 70 66 71 74 72 67 73 68 74 72 75 75 76
REMARK SMILES IDX 69 77 70 78 73 79 71 80 50 81 51 82 59 83 52 84 53 85 57 86
REMARK SMILES IDX 60 87 54 88 55 89 58 90 56 91
REMARK H PARENT 17 6 21 25 80 44 48 55
REMARK Flexibility Score: inf
ROOT
ATOM      1  C   UNL A   1      31.517  31.758  26.294  1.00  0.00     0.042 C 
ENDROOT
BRANCH   1   2
ATOM      2  C   UNL A   1      31.541  30.239  26.217  1.00  0.00     0.118 C 
BRANCH   2   3
ATOM      3  N   UNL A   1      32.381  29.671  25.174  1.00  0.00    -0.352 N 
ATOM      4  C   UNL A   1      32.056  28.988  24.013  1.00  0.00     0.254 C 
ATOM      5  O   UNL A   1      32.942  28.900  23.164  1.00  0.00    -0.269 OA
ATOM      6  H   UNL A   1      33.347  29.793  25.317  1.00  0.00     0.163 HD
BRANCH   4   7
ATOM      7  C   UNL A   1      30.739  28.309  23.821  1.00  0.00     0.081 A 
ATOM      8  C   UNL A   1      30.565  26.982  24.298  1.00  0.00     0.051 A 
ATOM      9  C   UNL A   1      29.286  26.393  24.255  1.00  0.00     0.027 A 
ATOM     10  C   UNL A   1      28.195  27.073  23.724  1.00  0.00     0.004 A 
ATOM     11  C   UNL A   1      29.672  28.892  23.118  1.00  0.00     0.055 A 
ATOM     12  C   UNL A   1      28.397  28.309  23.126  1.00  0.00     0.021 A 
ATOM     13  Cl  UNL A   1      29.869  30.227  22.026  1.00  0.00    -0.083 Cl
BRANCH   8  14
ATOM     14  N   UNL A   1      31.643  26.162  24.673  1.00  0.00    -0.370 N 
ATOM     15  C   UNL A   1      32.616  24.407  25.198  1.00  0.00     0.033 C 
ATOM     16  C   UNL A   1      32.073  25.666  25.932  1.00  0.00     0.122 C 
ATOM     17  C   UNL A   1      32.335  25.188  23.894  1.00  0.00     0.122 C 
BRANCH  15  18
ATOM     18  C   UNL A   1      34.014  23.789  25.482  1.00  0.00    -0.032 C 
ATOM     19  C   UNL A   1      34.059  23.148  26.875  1.00  0.00     0.011 C 
ATOM     20  C   UNL A   1      35.143  24.827  25.374  1.00  0.00     0.011 C 
ATOM     21  C   UNL A   1      34.284  22.689  24.434  1.00  0.00     0.011 C 
ENDBRANCH  15  18
ENDBRANCH   8  14
ENDBRANCH   4   7
ENDBRANCH   2   3
ENDBRANCH   1   2
BRANCH   1  22
ATOM     22  C   UNL A   1      32.624  32.406  27.111  1.00  0.00     0.118 C 
BRANCH  22  23
ATOM     23  N   UNL A   1      32.375  33.797  27.473  1.00  0.00    -0.352 N 
ATOM     24  C   UNL A   1      32.985  34.629  28.385  1.00  0.00     0.251 C 
ATOM     25  H   UNL A   1      31.637  34.217  26.975  1.00  0.00     0.163 HD
ATOM     26  O   UNL A   1      32.529  35.754  28.579  1.00  0.00    -0.269 OA
BRANCH  24  27
ATOM     27  C   UNL A   1      34.156  34.181  29.172  1.00  0.00     0.039 A 
ATOM     28  C   UNL A   1      33.946  33.486  30.369  1.00  0.00     0.014 A 
ATOM     29  C   UNL A   1      35.459  34.443  28.752  1.00  0.00     0.014 A 
ATOM     30  C   UNL A   1      35.035  32.970  31.079  1.00  0.00     0.010 A 
ATOM     31  C   UNL A   1      36.532  33.828  29.390  1.00  0.00     0.010 A 
ATOM     32  C   UNL A   1      36.335  33.088  30.564  1.00  0.00    -0.014 A 
BRANCH  32  33
ATOM     33  C   UNL A   1      37.508  32.464  31.234  1.00  0.00     0.031 A 
ATOM     34  C   UNL A   1      38.223  31.310  30.584  1.00  0.00     0.074 A 
ATOM     35  C   UNL A   1      37.870  32.867  32.468  1.00  0.00     0.049 A 
ATOM     36  N   UNL A   1      39.183  30.555  31.054  1.00  0.00    -0.248 NA
ATOM     37  C   UNL A   1      37.766  30.927  29.239  1.00  0.00     0.031 C 
ATOM     38  C   UNL A   1      37.222  33.933  33.234  1.00  0.00     0.029 A 
ATOM     39  N   UNL A   1      38.862  32.415  33.304  1.00  0.00    -0.354 N 
ATOM     40  C   UNL A   1      39.424  29.598  30.076  1.00  0.00     0.074 A 
ATOM     41  C   UNL A   1      38.463  29.824  29.019  1.00  0.00     0.031 C 
ATOM     42  C   UNL A   1      37.847  34.069  34.415  1.00  0.00     0.029 A 
ATOM     43  C   UNL A   1      38.908  33.071  34.509  1.00  0.00     0.049 A 
ATOM     44  H   UNL A   1      39.481  31.689  33.062  1.00  0.00     0.167 HD
ATOM     45  C   UNL A   1      40.379  28.638  30.045  1.00  0.00     0.037 A 
ATOM     46  C   UNL A   1      39.707  32.883  35.577  1.00  0.00     0.037 A 
ATOM     47  C   UNL A   1      41.351  28.435  31.088  1.00  0.00     0.049 A 
ATOM     48  C   UNL A   1      40.763  31.812  35.524  1.00  0.00     0.074 A 
ATOM     49  C   UNL A   1      42.402  27.536  31.126  1.00  0.00     0.029 A 
ATOM     50  N   UNL A   1      41.385  29.143  32.281  1.00  0.00    -0.354 N 
ATOM     51  N   UNL A   1      41.029  30.961  34.563  1.00  0.00    -0.248 NA
ATOM     52  C   UNL A   1      41.633  31.681  36.700  1.00  0.00     0.031 C 
ATOM     53  C   UNL A   1      43.038  27.661  32.366  1.00  0.00     0.029 A 
ATOM     54  C   UNL A   1      42.424  28.681  33.075  1.00  0.00     0.049 A 
ATOM     55  H   UNL A   1      40.764  29.865  32.527  1.00  0.00     0.167 HD
ATOM     56  C   UNL A   1      42.113  30.213  35.004  1.00  0.00     0.074 A 
ATOM     57  C   UNL A   1      42.463  30.721  36.314  1.00  0.00     0.031 C 
ATOM     58  C   UNL A   1      42.760  29.198  34.378  1.00  0.00     0.037 A 
BRANCH  45  59
ATOM     59  C   UNL A   1      40.411  27.734  28.843  1.00  0.00     0.064 A 
ATOM     60  C   UNL A   1      41.186  28.035  27.710  1.00  0.00     0.173 A 
ATOM     61  C   UNL A   1      39.657  26.550  28.821  1.00  0.00     0.173 A 
ATOM     62  F   UNL A   1      41.918  29.159  27.673  1.00  0.00    -0.203 F 
ATOM     63  C   UNL A   1      41.166  27.214  26.587  1.00  0.00     0.198 A 
ATOM     64  C   UNL A   1      39.671  25.712  27.709  1.00  0.00     0.198 A 
ATOM     65  F   UNL A   1      38.905  26.206  29.876  1.00  0.00    -0.203 F 
ATOM     66  F   UNL A   1      41.857  27.563  25.492  1.00  0.00    -0.200 F 
ATOM     67  C   UNL A   1      40.413  26.050  26.588  1.00  0.00     0.200 A 
ATOM     68  F   UNL A   1      38.954  24.578  27.719  1.00  0.00    -0.200 F 
ATOM     69  F   UNL A   1      40.394  25.261  25.505  1.00  0.00    -0.200 F 
ENDBRANCH  45  59
BRANCH  46  70
ATOM     70  C   UNL A   1      39.553  33.752  36.774  1.00  0.00     0.064 A 
ATOM     71  C   UNL A   1      40.190  34.999  36.845  1.00  0.00     0.173 A 
ATOM     72  C   UNL A   1      38.752  33.367  37.859  1.00  0.00     0.173 A 
ATOM     73  F   UNL A   1      40.983  35.403  35.842  1.00  0.00    -0.203 F 
ATOM     74  C   UNL A   1      40.041  35.822  37.960  1.00  0.00     0.198 A 
ATOM     75  C   UNL A   1      38.581  34.204  38.960  1.00  0.00     0.198 A 
ATOM     76  F   UNL A   1      38.116  32.186  37.839  1.00  0.00    -0.203 F 
ATOM     77  F   UNL A   1      40.691  36.993  38.016  1.00  0.00    -0.200 F 
ATOM     78  C   UNL A   1      39.230  35.428  39.012  1.00  0.00     0.200 A 
ATOM     79  F   UNL A   1      37.781  33.826  39.968  1.00  0.00    -0.200 F 
ATOM     80  F   UNL A   1      39.076  36.225  40.078  1.00  0.00    -0.200 F 
ENDBRANCH  46  70
BRANCH  58  81
ATOM     81  C   UNL A   1      43.937  28.590  35.086  1.00  0.00     0.064 A 
ATOM     82  C   UNL A   1      43.799  27.481  35.932  1.00  0.00     0.173 A 
ATOM     83  C   UNL A   1      45.228  29.100  34.877  1.00  0.00     0.173 A 
ATOM     84  F   UNL A   1      42.585  26.964  36.176  1.00  0.00    -0.203 F 
ATOM     85  C   UNL A   1      44.907  26.919  36.563  1.00  0.00     0.198 A 
ATOM     86  C   UNL A   1      46.337  28.516  35.483  1.00  0.00     0.198 A 
ATOM     87  F   UNL A   1      45.418  30.156  34.072  1.00  0.00    -0.203 F 
ATOM     88  F   UNL A   1      44.745  25.890  37.406  1.00  0.00    -0.200 F 
ATOM     89  C   UNL A   1      46.175  27.432  36.331  1.00  0.00     0.200 A 
ATOM     90  F   UNL A   1      47.564  29.002  35.244  1.00  0.00    -0.200 F 
ATOM     91  F   UNL A   1      47.241  26.883  36.931  1.00  0.00    -0.200 F 
ENDBRANCH  58  81
ENDBRANCH  32  33
ENDBRANCH  24  27
ENDBRANCH  22  23
ENDBRANCH   1  22
TORSDOF 12
ENDMDL
MODEL 2
REMARK VINA RESULT:     -12.4      2.062      8.131
REMARK SMILES CC(C)(C)C1CN(c2cccc(Cl)c2C(=O)NCCCNC(=O)c2ccc(-c3c4nc(c(-c5c(F)c(F)c(F)c(F)c5F)c5ccc([nH]5)c(-c5c(F)c(F)c(F)c(F)c5F)c5nc(c(-c6c(F)c(F)c(F)c(F)c6F)c6ccc3[nH]6)C=C5)C=C4)cc2)C1
REMARK SMILES IDX 19 1 18 2 17 3 15 4 16 5 14 7 8 8 9 9 10 10 12 11 11 12
REMARK SMILES IDX 13 13 7 14 5 15 6 16 87 17 2 18 1 19 3 20 4 21 20 22 21 23
REMARK SMILES IDX 22 24 23 26 24 27 25 28 86 29 26 30 85 31 27 32 28 33 29 34
REMARK SMILES IDX 79 35 30 36 84 37 78 38 80 39 31 40 83 41 77 42 76 43 32 45
REMARK SMILES IDX 64 46 44 47 63 48 45 49 48 50 62 51 81 52 46 53 47 54 61 56
REMARK SMILES IDX 82 57 49 58 33 59 34 60 42 61 35 62 36 63 40 64 43 65 37 66
REMARK SMILES IDX 38 67 41 68 39 69 65 70 66 71 74 72 67 73 68 74 72 75 75 76
REMARK SMILES IDX 69 77 70 78 73 79 71 80 50 81 51 82 59 83 52 84 53 85 57 86
REMARK SMILES IDX 60 87 54 88 55 89 58 90 56 91
REMARK H PARENT 17 6 21 25 80 44 48 55
REMARK Flexibility Score: inf
ROOT
ATOM      1  C   UNL A   1      31.756  29.683  27.284  1.00  0.00     0.042 C 
ENDROOT
BRANCH   1   2
ATOM      2  C   UNL A   1      32.096  28.204  27.369  1.00  0.00     0.118 C 
BRANCH   2   3
ATOM      3  N   UNL A   1      31.029  27.286  27.004  1.00  0.00    -0.352 N 
ATOM      4  C   UNL A   1      31.003  26.225  26.114  1.00  0.00     0.254 C 
ATOM      5  O   UNL A   1      30.072  25.430  26.237  1.00  0.00    -0.269 OA
ATOM      6  H   UNL A   1      30.178  27.445  27.472  1.00  0.00     0.163 HD
BRANCH   4   7
ATOM      7  C   UNL A   1      31.990  26.085  25.000  1.00  0.00     0.081 A 
ATOM      8  C   UNL A   1      31.955  27.009  23.922  1.00  0.00     0.051 A 
ATOM      9  C   UNL A   1      32.973  26.974  22.948  1.00  0.00     0.027 A 
ATOM     10  C   UNL A   1      33.994  26.032  23.003  1.00  0.00     0.004 A 
ATOM     11  C   UNL A   1      32.914  25.030  24.924  1.00  0.00     0.055 A 
ATOM     12  C   UNL A   1      33.944  25.040  23.973  1.00  0.00     0.021 A 
ATOM     13  Cl  UNL A   1      32.748  23.553  25.821  1.00  0.00    -0.083 Cl
BRANCH   8  14
ATOM     14  N   UNL A   1      30.864  27.863  23.687  1.00  0.00    -0.370 N 
ATOM     15  C   UNL A   1      29.709  29.252  22.667  1.00  0.00     0.033 C 
ATOM     16  C   UNL A   1      30.688  29.260  23.876  1.00  0.00     0.122 C 
ATOM     17  C   UNL A   1      29.796  27.711  22.755  1.00  0.00     0.122 C 
BRANCH  15  18
ATOM     18  C   UNL A   1      28.338  29.983  22.673  1.00  0.00    -0.032 C 
ATOM     19  C   UNL A   1      28.376  31.217  23.585  1.00  0.00     0.011 C 
ATOM     20  C   UNL A   1      27.190  29.066  23.124  1.00  0.00     0.011 C 
ATOM     21  C   UNL A   1      28.028  30.453  21.236  1.00  0.00     0.011 C 
ENDBRANCH  15  18
ENDBRANCH   8  14
ENDBRANCH   4   7
ENDBRANCH   2   3
ENDBRANCH   1   2
BRANCH   1  22
ATOM     22  C   UNL A   1      32.696  30.541  26.449  1.00  0.00     0.118 C 
BRANCH  22  23
ATOM     23  N   UNL A   1      32.751  31.943  26.848  1.00  0.00    -0.352 N 
ATOM     24  C   UNL A   1      33.650  32.638  27.625  1.00  0.00     0.251 C 
ATOM     25  H   UNL A   1      32.012  32.491  26.499  1.00  0.00     0.163 HD
ATOM     26  O   UNL A   1      33.431  33.817  27.899  1.00  0.00    -0.269 OA
BRANCH  24  27
ATOM     27  C   UNL A   1      34.860  31.984  28.176  1.00  0.00     0.039 A 
ATOM     28  C   UNL A   1      36.023  32.742  28.350  1.00  0.00     0.014 A 
ATOM     29  C   UNL A   1      34.865  30.633  28.516  1.00  0.00     0.014 A 
ATOM     30  C   UNL A   1      37.146  32.170  28.956  1.00  0.00     0.010 A 
ATOM     31  C   UNL A   1      35.936  30.100  29.227  1.00  0.00     0.010 A 
ATOM     32  C   UNL A   1      37.092  30.860  29.453  1.00  0.00    -0.014 A 
BRANCH  32  33
ATOM     33  C   UNL A   1      38.227  30.250  30.197  1.00  0.00     0.031 A 
ATOM     34  C   UNL A   1      38.507  30.664  31.617  1.00  0.00     0.074 A 
ATOM     35  C   UNL A   1      39.064  29.401  29.569  1.00  0.00     0.049 A 
ATOM     36  N   UNL A   1      39.511  30.344  32.394  1.00  0.00    -0.248 NA
ATOM     37  C   UNL A   1      37.550  31.597  32.231  1.00  0.00     0.031 C 
ATOM     38  C   UNL A   1      38.939  28.966  28.177  1.00  0.00     0.029 A 
ATOM     39  N   UNL A   1      40.196  28.764  30.015  1.00  0.00    -0.354 N 
ATOM     40  C   UNL A   1      39.318  31.055  33.572  1.00  0.00     0.074 A 
ATOM     41  C   UNL A   1      38.143  31.876  33.382  1.00  0.00     0.031 C 
ATOM     42  C   UNL A   1      39.939  28.118  27.890  1.00  0.00     0.029 A 
ATOM     43  C   UNL A   1      40.801  27.984  29.061  1.00  0.00     0.049 A 
ATOM     44  H   UNL A   1      40.542  28.860  30.931  1.00  0.00     0.167 HD
ATOM     45  C   UNL A   1      40.036  31.006  34.719  1.00  0.00     0.037 A 
ATOM     46  C   UNL A   1      41.930  27.251  29.117  1.00  0.00     0.037 A 
ATOM     47  C   UNL A   1      41.190  30.167  34.913  1.00  0.00     0.049 A 
ATOM     48  C   UNL A   1      42.713  27.209  30.401  1.00  0.00     0.074 A 
ATOM     49  C   UNL A   1      41.949  29.992  36.056  1.00  0.00     0.029 A 
ATOM     50  N   UNL A   1      41.753  29.364  33.931  1.00  0.00    -0.354 N 
ATOM     51  N   UNL A   1      42.480  27.828  31.533  1.00  0.00    -0.248 NA
ATOM     52  C   UNL A   1      43.912  26.359  30.418  1.00  0.00     0.031 C 
ATOM     53  C   UNL A   1      43.004  29.126  35.750  1.00  0.00     0.029 A 
ATOM     54  C   UNL A   1      42.868  28.712  34.435  1.00  0.00     0.049 A 
ATOM     55  H   UNL A   1      41.412  29.272  33.012  1.00  0.00     0.167 HD
ATOM     56  C   UNL A   1      43.483  27.424  32.404  1.00  0.00     0.074 A 
ATOM     57  C   UNL A   1      44.319  26.494  31.672  1.00  0.00     0.031 C 
ATOM     58  C   UNL A   1      43.690  27.789  33.694  1.00  0.00     0.037 A 
BRANCH  45  59
ATOM     59  C   UNL A   1      39.590  31.891  35.851  1.00  0.00     0.064 A 
ATOM     60  C   UNL A   1      40.206  33.126  36.114  1.00  0.00     0.173 A 
ATOM     61  C   UNL A   1      38.530  31.502  36.685  1.00  0.00     0.173 A 
ATOM     62  F   UNL A   1      41.231  33.544  35.354  1.00  0.00    -0.203 F 
ATOM     63  C   UNL A   1      39.814  33.910  37.195  1.00  0.00     0.198 A 
ATOM     64  C   UNL A   1      38.115  32.308  37.741  1.00  0.00     0.198 A 
ATOM     65  F   UNL A   1      37.897  30.338  36.477  1.00  0.00    -0.203 F 
ATOM     66  F   UNL A   1      40.468  35.048  37.467  1.00  0.00    -0.200 F 
ATOM     67  C   UNL A   1      38.765  33.504  38.005  1.00  0.00     0.200 A 
ATOM     68  F   UNL A   1      37.089  31.921  38.514  1.00  0.00    -0.200 F 
ATOM     69  F   UNL A   1      38.389  34.259  39.046  1.00  0.00    -0.200 F 
ENDBRANCH  45  59
BRANCH  46  70
ATOM     70  C   UNL A   1      42.366  26.477  27.924  1.00  0.00     0.064 A 
ATOM     71  C   UNL A   1      43.270  27.024  27.003  1.00  0.00     0.173 A 
ATOM     72  C   UNL A   1      41.907  25.172  27.692  1.00  0.00     0.173 A 
ATOM     73  F   UNL A   1      43.721  28.276  27.170  1.00  0.00    -0.203 F 
ATOM     74  C   UNL A   1      43.690  26.299  25.888  1.00  0.00     0.198 A 
ATOM     75  C   UNL A   1      42.351  24.438  26.594  1.00  0.00     0.198 A 
ATOM     76  F   UNL A   1      41.046  24.600  28.547  1.00  0.00    -0.203 F 
ATOM     77  F   UNL A   1      44.526  26.860  25.004  1.00  0.00    -0.200 F 
ATOM     78  C   UNL A   1      43.237  25.005  25.690  1.00  0.00     0.200 A 
ATOM     79  F   UNL A   1      41.923  23.180  26.414  1.00  0.00    -0.200 F 
ATOM     80  F   UNL A   1      43.651  24.303  24.626  1.00  0.00    -0.200 F 
ENDBRANCH  46  70
BRANCH  58  81
ATOM     81  C   UNL A   1      44.848  27.155  34.412  1.00  0.00     0.064 A 
ATOM     82  C   UNL A   1      46.113  27.759  34.452  1.00  0.00     0.173 A 
ATOM     83  C   UNL A   1      44.673  25.949  35.109  1.00  0.00     0.173 A 
ATOM     84  F   UNL A   1      46.336  28.905  33.790  1.00  0.00    -0.203 F 
ATOM     85  C   UNL A   1      47.168  27.165  35.141  1.00  0.00     0.198 A 
ATOM     86  C   UNL A   1      45.721  25.376  35.825  1.00  0.00     0.198 A 
ATOM     87  F   UNL A   1      43.482  25.334  35.110  1.00  0.00    -0.203 F 
ATOM     88  F   UNL A   1      48.381  27.734  35.123  1.00  0.00    -0.200 F 
ATOM     89  C   UNL A   1      46.968  25.980  35.833  1.00  0.00     0.200 A 
ATOM     90  F   UNL A   1      45.521  24.239  36.507  1.00  0.00    -0.200 F 
ATOM     91  F   UNL A   1      47.982  25.415  36.504  1.00  0.00    -0.200 F 
ENDBRANCH  58  81
ENDBRANCH  32  33
ENDBRANCH  24  27
ENDBRANCH  22  23
ENDBRANCH   1  22
TORSDOF 12
ENDMDL
MODEL 3
REMARK VINA RESULT:     -12.3      5.884     11.130
REMARK SMILES CC(C)(C)C1CN(c2cccc(Cl)c2C(=O)NCCCNC(=O)c2ccc(-c3c4nc(c(-c5c(F)c(F)c(F)c(F)c5F)c5ccc([nH]5)c(-c5c(F)c(F)c(F)c(F)c5F)c5nc(c(-c6c(F)c(F)c(F)c(F)c6F)c6ccc3[nH]6)C=C5)C=C4)cc2)C1
REMARK SMILES IDX 19 1 18 2 17 3 15 4 16 5 14 7 8 8 9 9 10 10 12 11 11 12
REMARK SMILES IDX 13 13 7 14 5 15 6 16 87 17 2 18 1 19 3 20 4 21 20 22 21 23
REMARK SMILES IDX 22 24 23 26 24 27 25 28 86 29 26 30 85 31 27 32 28 33 29 34
REMARK SMILES IDX 79 35 30 36 84 37 78 38 80 39 31 40 83 41 77 42 76 43 32 45
REMARK SMILES IDX 64 46 44 47 63 48 45 49 48 50 62 51 81 52 46 53 47 54 61 56
REMARK SMILES IDX 82 57 49 58 33 59 34 60 42 61 35 62 36 63 40 64 43 65 37 66
REMARK SMILES IDX 38 67 41 68 39 69 65 70 66 71 74 72 67 73 68 74 72 75 75 76
REMARK SMILES IDX 69 77 70 78 73 79 71 80 50 81 51 82 59 83 52 84 53 85 57 86
REMARK SMILES IDX 60 87 54 88 55 89 58 90 56 91
REMARK H PARENT 17 6 21 25 80 44 48 55
REMARK Flexibility Score: inf
ROOT
ATOM      1  C   UNL A   1      37.681  19.999  24.970  1.00  0.00     0.042 C 
ENDROOT
BRANCH   1   2
ATOM      2  C   UNL A   1      36.735  21.144  24.644  1.00  0.00     0.118 C 
BRANCH   2   3
ATOM      3  N   UNL A   1      35.815  21.527  25.703  1.00  0.00    -0.352 N 
ATOM      4  C   UNL A   1      34.457  21.302  25.857  1.00  0.00     0.254 C 
ATOM      5  O   UNL A   1      34.001  21.461  26.989  1.00  0.00    -0.269 OA
ATOM      6  H   UNL A   1      36.229  22.034  26.438  1.00  0.00     0.163 HD
BRANCH   4   7
ATOM      7  C   UNL A   1      33.560  20.973  24.707  1.00  0.00     0.081 A 
ATOM      8  C   UNL A   1      33.113  22.017  23.855  1.00  0.00     0.051 A 
ATOM      9  C   UNL A   1      32.393  21.695  22.687  1.00  0.00     0.027 A 
ATOM     10  C   UNL A   1      32.084  20.378  22.368  1.00  0.00     0.004 A 
ATOM     11  C   UNL A   1      33.070  19.679  24.465  1.00  0.00     0.055 A 
ATOM     12  C   UNL A   1      32.394  19.375  23.275  1.00  0.00     0.021 A 
ATOM     13  Cl  UNL A   1      33.055  18.427  25.667  1.00  0.00    -0.083 Cl
BRANCH   8  14
ATOM     14  N   UNL A   1      33.216  23.376  24.198  1.00  0.00    -0.370 N 
ATOM     15  C   UNL A   1      32.884  25.417  24.040  1.00  0.00     0.033 C 
ATOM     16  C   UNL A   1      34.034  24.426  23.701  1.00  0.00     0.122 C 
ATOM     17  C   UNL A   1      32.231  24.227  24.779  1.00  0.00     0.122 C 
BRANCH  15  18
ATOM     18  C   UNL A   1      33.113  26.780  24.752  1.00  0.00    -0.032 C 
ATOM     19  C   UNL A   1      33.855  27.762  23.835  1.00  0.00     0.011 C 
ATOM     20  C   UNL A   1      33.902  26.628  26.062  1.00  0.00     0.011 C 
ATOM     21  C   UNL A   1      31.737  27.387  25.099  1.00  0.00     0.011 C 
ENDBRANCH  15  18
ENDBRANCH   8  14
ENDBRANCH   4   7
ENDBRANCH   2   3
ENDBRANCH   1   2
BRANCH   1  22
ATOM     22  C   UNL A   1      38.923  20.362  25.768  1.00  0.00     0.118 C 
BRANCH  22  23
ATOM     23  N   UNL A   1      39.940  19.317  25.815  1.00  0.00    -0.352 N 
ATOM     24  C   UNL A   1      41.296  19.369  26.050  1.00  0.00     0.251 C 
ATOM     25  H   UNL A   1      39.595  18.410  25.649  1.00  0.00     0.163 HD
ATOM     26  O   UNL A   1      41.969  18.345  25.945  1.00  0.00    -0.269 OA
BRANCH  24  27
ATOM     27  C   UNL A   1      41.971  20.644  26.385  1.00  0.00     0.039 A 
ATOM     28  C   UNL A   1      42.375  21.492  25.348  1.00  0.00     0.014 A 
ATOM     29  C   UNL A   1      42.219  21.011  27.706  1.00  0.00     0.014 A 
ATOM     30  C   UNL A   1      42.927  22.743  25.643  1.00  0.00     0.010 A 
ATOM     31  C   UNL A   1      42.653  22.300  28.000  1.00  0.00     0.010 A 
ATOM     32  C   UNL A   1      43.018  23.181  26.972  1.00  0.00    -0.014 A 
BRANCH  32  33
ATOM     33  C   UNL A   1      43.501  24.544  27.322  1.00  0.00     0.031 A 
ATOM     34  C   UNL A   1      42.542  25.567  27.871  1.00  0.00     0.074 A 
ATOM     35  C   UNL A   1      44.775  24.894  27.057  1.00  0.00     0.049 A 
ATOM     36  N   UNL A   1      42.736  26.836  28.124  1.00  0.00    -0.248 NA
ATOM     37  C   UNL A   1      41.168  25.109  28.129  1.00  0.00     0.031 C 
ATOM     38  C   UNL A   1      45.789  24.016  26.471  1.00  0.00     0.029 A 
ATOM     39  N   UNL A   1      45.431  26.088  27.230  1.00  0.00    -0.354 N 
ATOM     40  C   UNL A   1      41.507  27.329  28.544  1.00  0.00     0.074 A 
ATOM     41  C   UNL A   1      40.559  26.241  28.444  1.00  0.00     0.031 C 
ATOM     42  C   UNL A   1      46.943  24.692  26.354  1.00  0.00     0.029 A 
ATOM     43  C   UNL A   1      46.740  26.063  26.814  1.00  0.00     0.049 A 
ATOM     44  H   UNL A   1      45.004  26.886  27.615  1.00  0.00     0.167 HD
ATOM     45  C   UNL A   1      41.200  28.567  29.001  1.00  0.00     0.037 A 
ATOM     46  C   UNL A   1      47.670  27.037  26.794  1.00  0.00     0.037 A 
ATOM     47  C   UNL A   1      42.152  29.639  29.124  1.00  0.00     0.049 A 
ATOM     48  C   UNL A   1      47.311  28.405  27.307  1.00  0.00     0.074 A 
ATOM     49  C   UNL A   1      41.962  30.909  29.638  1.00  0.00     0.029 A 
ATOM     50  N   UNL A   1      43.479  29.564  28.722  1.00  0.00    -0.354 N 
ATOM     51  N   UNL A   1      46.164  28.839  27.772  1.00  0.00    -0.248 NA
ATOM     52  C   UNL A   1      48.376  29.415  27.301  1.00  0.00     0.031 C 
ATOM     53  C   UNL A   1      43.158  31.621  29.495  1.00  0.00     0.029 A 
ATOM     54  C   UNL A   1      44.111  30.776  28.951  1.00  0.00     0.049 A 
ATOM     55  H   UNL A   1      43.906  28.768  28.332  1.00  0.00     0.167 HD
ATOM     56  C   UNL A   1      46.376  30.162  28.138  1.00  0.00     0.074 A 
ATOM     57  C   UNL A   1      47.765  30.454  27.855  1.00  0.00     0.031 C 
ATOM     58  C   UNL A   1      45.497  31.052  28.664  1.00  0.00     0.037 A 
BRANCH  45  59
ATOM     59  C   UNL A   1      39.772  28.821  29.398  1.00  0.00     0.064 A 
ATOM     60  C   UNL A   1      39.312  28.582  30.705  1.00  0.00     0.173 A 
ATOM     61  C   UNL A   1      38.848  29.311  28.462  1.00  0.00     0.173 A 
ATOM     62  F   UNL A   1      40.149  28.104  31.638  1.00  0.00    -0.203 F 
ATOM     63  C   UNL A   1      37.975  28.776  31.043  1.00  0.00     0.198 A 
ATOM     64  C   UNL A   1      37.521  29.541  28.816  1.00  0.00     0.198 A 
ATOM     65  F   UNL A   1      39.231  29.567  27.203  1.00  0.00    -0.203 F 
ATOM     66  F   UNL A   1      37.547  28.469  32.276  1.00  0.00    -0.200 F 
ATOM     67  C   UNL A   1      37.081  29.260  30.100  1.00  0.00     0.200 A 
ATOM     68  F   UNL A   1      36.661  30.025  27.907  1.00  0.00    -0.200 F 
ATOM     69  F   UNL A   1      35.795  29.445  30.428  1.00  0.00    -0.200 F 
ENDBRANCH  45  59
BRANCH  46  70
ATOM     70  C   UNL A   1      49.038  26.738  26.294  1.00  0.00     0.064 A 
ATOM     71  C   UNL A   1      50.014  26.203  27.146  1.00  0.00     0.173 A 
ATOM     72  C   UNL A   1      49.391  26.959  24.955  1.00  0.00     0.173 A 
ATOM     73  F   UNL A   1      49.731  25.993  28.440  1.00  0.00    -0.203 F 
ATOM     74  C   UNL A   1      51.296  25.911  26.680  1.00  0.00     0.198 A 
ATOM     75  C   UNL A   1      50.664  26.639  24.484  1.00  0.00     0.198 A 
ATOM     76  F   UNL A   1      48.492  27.463  24.096  1.00  0.00    -0.203 F 
ATOM     77  F   UNL A   1      52.220  25.436  27.525  1.00  0.00    -0.200 F 
ATOM     78  C   UNL A   1      51.616  26.122  25.348  1.00  0.00     0.200 A 
ATOM     79  F   UNL A   1      50.964  26.828  23.191  1.00  0.00    -0.200 F 
ATOM     80  F   UNL A   1      52.843  25.829  24.898  1.00  0.00    -0.200 F 
ENDBRANCH  46  70
BRANCH  58  81
ATOM     81  C   UNL A   1      46.020  32.419  29.002  1.00  0.00     0.064 A 
ATOM     82  C   UNL A   1      46.595  32.703  30.249  1.00  0.00     0.173 A 
ATOM     83  C   UNL A   1      45.986  33.445  28.045  1.00  0.00     0.173 A 
ATOM     84  F   UNL A   1      46.639  31.760  31.203  1.00  0.00    -0.203 F 
ATOM     85  C   UNL A   1      47.093  33.973  30.535  1.00  0.00     0.198 A 
ATOM     86  C   UNL A   1      46.515  34.703  28.323  1.00  0.00     0.198 A 
ATOM     87  F   UNL A   1      45.454  33.225  26.834  1.00  0.00    -0.203 F 
ATOM     88  F   UNL A   1      47.591  34.236  31.751  1.00  0.00    -0.200 F 
ATOM     89  C   UNL A   1      47.060  34.967  29.569  1.00  0.00     0.200 A 
ATOM     90  F   UNL A   1      46.498  35.658  27.382  1.00  0.00    -0.200 F 
ATOM     91  F   UNL A   1      47.549  36.185  29.843  1.00  0.00    -0.200 F 
ENDBRANCH  58  81
ENDBRANCH  32  33
ENDBRANCH  24  27
ENDBRANCH  22  23
ENDBRANCH   1  22
TORSDOF 12
ENDMDL
