MODEL 1
REMARK VINA RESULT:     -12.1      0.000      0.000
REMARK SMILES CC/C(=C/C(=O)[C@H](Cc1ccc(Cl)cc1Cl)C(=O)NCCCNC(=O)c1ccc(-c2c3nc(c(-c4c(F)c(F)c(F)c(F)c4F)c4ccc([nH]4)c(-c4c(F)c(F)c(F)c(F)c4F)c4nc(c(-c5c(F)c(F)c(F)c(F)c5F)c5ccc2[nH]5)C=C4)C=C3)cc1)N(C)C
REMARK SMILES IDX 20 1 19 2 17 3 18 4 7 6 5 7 6 8 4 9 3 10 2 11 1 12 89 13
REMARK SMILES IDX 90 14 91 15 8 16 9 17 10 18 15 19 11 20 14 21 16 22 12 23
REMARK SMILES IDX 13 24 21 25 22 26 23 27 24 28 25 30 26 31 27 32 88 33 28 34
REMARK SMILES IDX 87 35 29 36 30 37 31 38 81 39 32 40 86 41 80 42 82 43 33 44
REMARK SMILES IDX 85 45 79 46 78 47 34 49 66 50 46 51 65 52 47 53 50 54 64 55
REMARK SMILES IDX 83 56 48 57 49 58 63 60 84 61 51 62 35 63 36 64 44 65 37 66
REMARK SMILES IDX 38 67 42 68 45 69 39 70 40 71 43 72 41 73 67 74 68 75 76 76
REMARK SMILES IDX 69 77 70 78 74 79 77 80 71 81 72 82 75 83 73 84 52 85 53 86
REMARK SMILES IDX 61 87 54 88 55 89 59 90 62 91 56 92 57 93 60 94 58 95
REMARK H PARENT 19 5 23 29 82 48 50 59
REMARK Flexibility Score: inf
ROOT
ATOM      1  C   UNL A   1      32.424  26.698  26.211  1.00  0.00     0.117 C 
ENDROOT
BRANCH   1   2
ATOM      2  N   UNL A   1      31.520  25.672  26.706  1.00  0.00    -0.355 N 
ATOM      3  C   UNL A   1      31.182  24.420  26.288  1.00  0.00     0.231 C 
ATOM      4  O   UNL A   1      30.583  23.751  27.143  1.00  0.00    -0.274 OA
ATOM      5  H   UNL A   1      31.047  25.944  27.526  1.00  0.00     0.163 HD
BRANCH   3   6
ATOM      6  C   UNL A   1      31.343  23.859  24.868  1.00  0.00     0.154 C 
BRANCH   6   7
ATOM      7  C   UNL A   1      32.729  23.331  24.482  1.00  0.00     0.170 C 
ATOM      8  O   UNL A   1      33.688  24.071  24.254  1.00  0.00    -0.294 OA
BRANCH   7   9
ATOM      9  C   UNL A   1      32.937  21.863  24.266  1.00  0.00     0.069 C 
ATOM     10  C   UNL A   1      33.561  20.968  25.062  1.00  0.00     0.016 C 
BRANCH  10  11
ATOM     11  C   UNL A   1      33.066  19.526  24.911  1.00  0.00     0.050 C 
ATOM     12  C   UNL A   1      34.092  18.499  24.465  1.00  0.00     0.010 C 
ENDBRANCH  10  11
BRANCH  10  13
ATOM     13  N   UNL A   1      34.480  21.263  26.082  1.00  0.00    -0.381 N 
ATOM     14  C   UNL A   1      35.914  21.482  25.863  1.00  0.00     0.143 C 
ATOM     15  C   UNL A   1      34.067  21.529  27.468  1.00  0.00     0.143 C 
ENDBRANCH  10  13
ENDBRANCH   7   9
ENDBRANCH   6   7
BRANCH   6  16
ATOM     16  C   UNL A   1      30.471  24.478  23.778  1.00  0.00     0.059 C 
BRANCH  16  17
ATOM     17  C   UNL A   1      30.318  25.935  23.373  1.00  0.00    -0.028 A 
ATOM     18  C   UNL A   1      29.075  26.491  23.770  1.00  0.00     0.007 A 
ATOM     19  C   UNL A   1      31.192  26.773  22.661  1.00  0.00     0.045 A 
ATOM     20  C   UNL A   1      28.712  27.800  23.464  1.00  0.00     0.021 A 
ATOM     21  C   UNL A   1      30.822  28.092  22.349  1.00  0.00     0.041 A 
ATOM     22  Cl  UNL A   1      32.777  26.331  22.143  1.00  0.00    -0.084 Cl
ATOM     23  C   UNL A   1      29.589  28.597  22.746  1.00  0.00     0.042 A 
ATOM     24  Cl  UNL A   1      29.150  30.211  22.353  1.00  0.00    -0.084 Cl
ENDBRANCH  16  17
ENDBRANCH   6  16
ENDBRANCH   3   6
ENDBRANCH   1   2
BRANCH   1  25
ATOM     25  C   UNL A   1      31.832  28.103  26.110  1.00  0.00     0.042 C 
BRANCH  25  26
ATOM     26  C   UNL A   1      32.744  29.116  25.444  1.00  0.00     0.118 C 
BRANCH  26  27
ATOM     27  N   UNL A   1      32.452  30.466  25.889  1.00  0.00    -0.352 N 
ATOM     28  C   UNL A   1      33.014  31.232  26.880  1.00  0.00     0.251 C 
ATOM     29  H   UNL A   1      31.725  30.908  25.395  1.00  0.00     0.163 HD
ATOM     30  O   UNL A   1      32.391  32.213  27.280  1.00  0.00    -0.269 OA
BRANCH  28  31
ATOM     31  C   UNL A   1      34.340  30.925  27.483  1.00  0.00     0.039 A 
ATOM     32  C   UNL A   1      34.578  29.619  27.932  1.00  0.00     0.014 A 
ATOM     33  C   UNL A   1      35.294  31.909  27.745  1.00  0.00     0.014 A 
ATOM     34  C   UNL A   1      35.751  29.306  28.630  1.00  0.00     0.010 A 
ATOM     35  C   UNL A   1      36.509  31.579  28.351  1.00  0.00     0.010 A 
ATOM     36  C   UNL A   1      36.732  30.285  28.843  1.00  0.00    -0.014 A 
BRANCH  36  37
ATOM     37  C   UNL A   1      37.949  30.008  29.654  1.00  0.00     0.031 A 
ATOM     38  C   UNL A   1      39.013  29.081  29.118  1.00  0.00     0.074 A 
ATOM     39  C   UNL A   1      38.085  30.539  30.884  1.00  0.00     0.049 A 
ATOM     40  N   UNL A   1      40.093  28.625  29.703  1.00  0.00    -0.248 NA
ATOM     41  C   UNL A   1      38.815  28.569  27.753  1.00  0.00     0.031 C 
ATOM     42  C   UNL A   1      37.115  31.421  31.536  1.00  0.00     0.029 A 
ATOM     43  N   UNL A   1      39.088  30.406  31.812  1.00  0.00    -0.354 N 
ATOM     44  C   UNL A   1      40.676  27.749  28.795  1.00  0.00     0.074 A 
ATOM     45  C   UNL A   1      39.808  27.699  27.639  1.00  0.00     0.031 C 
ATOM     46  C   UNL A   1      37.579  31.762  32.749  1.00  0.00     0.029 A 
ATOM     47  C   UNL A   1      38.860  31.098  32.975  1.00  0.00     0.049 A 
ATOM     48  H   UNL A   1      39.896  29.863  31.657  1.00  0.00     0.167 HD
ATOM     49  C   UNL A   1      41.841  27.066  28.902  1.00  0.00     0.037 A 
ATOM     50  C   UNL A   1      39.597  31.184  34.099  1.00  0.00     0.037 A 
ATOM     51  C   UNL A   1      42.736  27.166  30.025  1.00  0.00     0.049 A 
ATOM     52  C   UNL A   1      40.908  30.449  34.179  1.00  0.00     0.074 A 
ATOM     53  C   UNL A   1      43.977  26.577  30.195  1.00  0.00     0.029 A 
ATOM     54  N   UNL A   1      42.487  27.915  31.165  1.00  0.00    -0.354 N 
ATOM     55  N   UNL A   1      41.471  29.665  33.292  1.00  0.00    -0.248 NA
ATOM     56  C   UNL A   1      41.690  30.618  35.412  1.00  0.00     0.031 C 
ATOM     57  C   UNL A   1      44.464  26.943  31.455  1.00  0.00     0.029 A 
ATOM     58  C   UNL A   1      43.545  27.791  32.051  1.00  0.00     0.049 A 
ATOM     59  H   UNL A   1      41.678  28.453  31.322  1.00  0.00     0.167 HD
ATOM     60  C   UNL A   1      42.679  29.267  33.847  1.00  0.00     0.074 A 
ATOM     61  C   UNL A   1      42.775  29.907  35.143  1.00  0.00     0.031 C 
ATOM     62  C   UNL A   1      43.625  28.444  33.331  1.00  0.00     0.037 A 
BRANCH  49  63
ATOM     63  C   UNL A   1      42.222  26.154  27.770  1.00  0.00     0.064 A 
ATOM     64  C   UNL A   1      43.123  26.553  26.772  1.00  0.00     0.173 A 
ATOM     65  C   UNL A   1      41.701  24.853  27.700  1.00  0.00     0.173 A 
ATOM     66  F   UNL A   1      43.642  27.790  26.785  1.00  0.00    -0.203 F 
ATOM     67  C   UNL A   1      43.463  25.695  25.727  1.00  0.00     0.198 A 
ATOM     68  C   UNL A   1      42.065  23.988  26.671  1.00  0.00     0.198 A 
ATOM     69  F   UNL A   1      40.839  24.418  28.632  1.00  0.00    -0.203 F 
ATOM     70  F   UNL A   1      44.285  26.118  24.757  1.00  0.00    -0.200 F 
ATOM     71  C   UNL A   1      42.938  24.413  25.682  1.00  0.00     0.200 A 
ATOM     72  F   UNL A   1      41.567  22.744  26.635  1.00  0.00    -0.200 F 
ATOM     73  F   UNL A   1      43.269  23.588  24.678  1.00  0.00    -0.200 F 
ENDBRANCH  49  63
BRANCH  50  74
ATOM     74  C   UNL A   1      39.122  32.022  35.230  1.00  0.00     0.064 A 
ATOM     75  C   UNL A   1      38.408  31.456  36.293  1.00  0.00     0.173 A 
ATOM     76  C   UNL A   1      39.382  33.399  35.277  1.00  0.00     0.173 A 
ATOM     77  F   UNL A   1      38.117  30.146  36.283  1.00  0.00    -0.203 F 
ATOM     78  C   UNL A   1      37.959  32.236  37.357  1.00  0.00     0.198 A 
ATOM     79  C   UNL A   1      38.955  34.175  36.353  1.00  0.00     0.198 A 
ATOM     80  F   UNL A   1      40.068  33.988  34.287  1.00  0.00    -0.203 F 
ATOM     81  F   UNL A   1      37.246  31.676  38.343  1.00  0.00    -0.200 F 
ATOM     82  C   UNL A   1      38.238  33.594  37.389  1.00  0.00     0.200 A 
ATOM     83  F   UNL A   1      39.241  35.484  36.387  1.00  0.00    -0.200 F 
ATOM     84  F   UNL A   1      37.815  34.345  38.414  1.00  0.00    -0.200 F 
ENDBRANCH  50  74
BRANCH  62  85
ATOM     85  C   UNL A   1      44.856  28.211  34.154  1.00  0.00     0.064 A 
ATOM     86  C   UNL A   1      44.947  27.137  35.051  1.00  0.00     0.173 A 
ATOM     87  C   UNL A   1      45.975  29.047  34.010  1.00  0.00     0.173 A 
ATOM     88  F   UNL A   1      43.899  26.321  35.234  1.00  0.00    -0.203 F 
ATOM     89  C   UNL A   1      46.107  26.921  35.791  1.00  0.00     0.198 A 
ATOM     90  C   UNL A   1      47.142  28.811  34.732  1.00  0.00     0.198 A 
ATOM     91  F   UNL A   1      45.939  30.083  33.159  1.00  0.00    -0.203 F 
ATOM     92  F   UNL A   1      46.158  25.913  36.673  1.00  0.00    -0.200 F 
ATOM     93  C   UNL A   1      47.205  27.753  35.626  1.00  0.00     0.200 A 
ATOM     94  F   UNL A   1      48.205  29.609  34.563  1.00  0.00    -0.200 F 
ATOM     95  F   UNL A   1      48.322  27.538  36.334  1.00  0.00    -0.200 F 
ENDBRANCH  62  85
ENDBRANCH  36  37
ENDBRANCH  28  31
ENDBRANCH  26  27
ENDBRANCH  25  26
ENDBRANCH   1  25
TORSDOF 16
ENDMDL
MODEL 2
REMARK VINA RESULT:     -11.9      3.297      8.361
REMARK SMILES CC/C(=C/C(=O)[C@H](Cc1ccc(Cl)cc1Cl)C(=O)NCCCNC(=O)c1ccc(-c2c3nc(c(-c4c(F)c(F)c(F)c(F)c4F)c4ccc([nH]4)c(-c4c(F)c(F)c(F)c(F)c4F)c4nc(c(-c5c(F)c(F)c(F)c(F)c5F)c5ccc2[nH]5)C=C4)C=C3)cc1)N(C)C
REMARK SMILES IDX 20 1 19 2 17 3 18 4 7 6 5 7 6 8 4 9 3 10 2 11 1 12 89 13
REMARK SMILES IDX 90 14 91 15 8 16 9 17 10 18 15 19 11 20 14 21 16 22 12 23
REMARK SMILES IDX 13 24 21 25 22 26 23 27 24 28 25 30 26 31 27 32 88 33 28 34
REMARK SMILES IDX 87 35 29 36 30 37 31 38 81 39 32 40 86 41 80 42 82 43 33 44
REMARK SMILES IDX 85 45 79 46 78 47 34 49 66 50 46 51 65 52 47 53 50 54 64 55
REMARK SMILES IDX 83 56 48 57 49 58 63 60 84 61 51 62 35 63 36 64 44 65 37 66
REMARK SMILES IDX 38 67 42 68 45 69 39 70 40 71 43 72 41 73 67 74 68 75 76 76
REMARK SMILES IDX 69 77 70 78 74 79 77 80 71 81 72 82 75 83 73 84 52 85 53 86
REMARK SMILES IDX 61 87 54 88 55 89 59 90 62 91 56 92 57 93 60 94 58 95
REMARK H PARENT 19 5 23 29 82 48 50 59
REMARK Flexibility Score: inf
ROOT
ATOM      1  C   UNL A   1      32.995  27.935  24.829  1.00  0.00     0.117 C 
ENDROOT
BRANCH   1   2
ATOM      2  N   UNL A   1      33.525  27.737  23.490  1.00  0.00    -0.355 N 
ATOM      3  C   UNL A   1      33.660  26.656  22.670  1.00  0.00     0.231 C 
ATOM      4  O   UNL A   1      33.902  26.949  21.490  1.00  0.00    -0.274 OA
ATOM      5  H   UNL A   1      33.861  28.569  23.086  1.00  0.00     0.163 HD
BRANCH   3   6
ATOM      6  C   UNL A   1      33.684  25.183  23.103  1.00  0.00     0.154 C 
BRANCH   6   7
ATOM      7  C   UNL A   1      32.440  24.345  22.787  1.00  0.00     0.170 C 
ATOM      8  O   UNL A   1      32.493  23.257  22.214  1.00  0.00    -0.294 OA
BRANCH   7   9
ATOM      9  C   UNL A   1      31.075  24.890  23.086  1.00  0.00     0.069 C 
ATOM     10  C   UNL A   1      30.486  25.092  24.284  1.00  0.00     0.016 C 
BRANCH  10  11
ATOM     11  C   UNL A   1      29.432  26.203  24.298  1.00  0.00     0.050 C 
ATOM     12  C   UNL A   1      29.679  27.385  23.378  1.00  0.00     0.010 C 
ENDBRANCH  10  11
BRANCH  10  13
ATOM     13  N   UNL A   1      30.854  24.494  25.501  1.00  0.00    -0.381 N 
ATOM     14  C   UNL A   1      30.765  23.056  25.774  1.00  0.00     0.143 C 
ATOM     15  C   UNL A   1      31.510  25.241  26.585  1.00  0.00     0.143 C 
ENDBRANCH  10  13
ENDBRANCH   7   9
ENDBRANCH   6   7
BRANCH   6  16
ATOM     16  C   UNL A   1      34.492  24.843  24.352  1.00  0.00     0.059 C 
BRANCH  16  17
ATOM     17  C   UNL A   1      35.290  23.590  24.676  1.00  0.00    -0.028 A 
ATOM     18  C   UNL A   1      36.198  23.232  23.647  1.00  0.00     0.007 A 
ATOM     19  C   UNL A   1      35.239  22.749  25.801  1.00  0.00     0.045 A 
ATOM     20  C   UNL A   1      36.999  22.095  23.721  1.00  0.00     0.021 A 
ATOM     21  C   UNL A   1      36.043  21.600  25.871  1.00  0.00     0.041 A 
ATOM     22  Cl  UNL A   1      34.264  23.029  27.196  1.00  0.00    -0.084 Cl
ATOM     23  C   UNL A   1      36.913  21.277  24.835  1.00  0.00     0.042 A 
ATOM     24  Cl  UNL A   1      37.887  19.866  24.935  1.00  0.00    -0.084 Cl
ENDBRANCH  16  17
ENDBRANCH   6  16
ENDBRANCH   3   6
ENDBRANCH   1   2
BRANCH   1  25
ATOM     25  C   UNL A   1      34.035  28.218  25.913  1.00  0.00     0.042 C 
BRANCH  25  26
ATOM     26  C   UNL A   1      33.445  28.559  27.268  1.00  0.00     0.118 C 
BRANCH  26  27
ATOM     27  N   UNL A   1      33.604  29.967  27.577  1.00  0.00    -0.352 N 
ATOM     28  C   UNL A   1      34.616  30.645  28.211  1.00  0.00     0.251 C 
ATOM     29  H   UNL A   1      32.856  30.535  27.281  1.00  0.00     0.163 HD
ATOM     30  O   UNL A   1      34.382  31.773  28.638  1.00  0.00    -0.269 OA
BRANCH  28  31
ATOM     31  C   UNL A   1      35.978  30.073  28.396  1.00  0.00     0.039 A 
ATOM     32  C   UNL A   1      36.288  29.488  29.632  1.00  0.00     0.014 A 
ATOM     33  C   UNL A   1      36.993  30.219  27.450  1.00  0.00     0.014 A 
ATOM     34  C   UNL A   1      37.591  29.058  29.911  1.00  0.00     0.010 A 
ATOM     35  C   UNL A   1      38.268  29.700  27.688  1.00  0.00     0.010 A 
ATOM     36  C   UNL A   1      38.596  29.157  28.938  1.00  0.00    -0.014 A 
BRANCH  36  37
ATOM     37  C   UNL A   1      40.008  28.790  29.231  1.00  0.00     0.031 A 
ATOM     38  C   UNL A   1      40.885  29.742  30.009  1.00  0.00     0.074 A 
ATOM     39  C   UNL A   1      40.523  27.637  28.767  1.00  0.00     0.049 A 
ATOM     40  N   UNL A   1      42.164  29.664  30.280  1.00  0.00    -0.248 NA
ATOM     41  C   UNL A   1      40.242  30.965  30.517  1.00  0.00     0.031 C 
ATOM     42  C   UNL A   1      39.797  26.645  27.972  1.00  0.00     0.029 A 
ATOM     43  N   UNL A   1      41.785  27.107  28.885  1.00  0.00    -0.354 N 
ATOM     44  C   UNL A   1      42.481  30.838  30.952  1.00  0.00     0.074 A 
ATOM     45  C   UNL A   1      41.275  31.634  31.008  1.00  0.00     0.031 C 
ATOM     46  C   UNL A   1      40.619  25.621  27.690  1.00  0.00     0.029 A 
ATOM     47  C   UNL A   1      41.938  25.899  28.252  1.00  0.00     0.049 A 
ATOM     48  H   UNL A   1      42.512  27.554  29.377  1.00  0.00     0.167 HD
ATOM     49  C   UNL A   1      43.665  31.211  31.497  1.00  0.00     0.037 A 
ATOM     50  C   UNL A   1      43.020  25.106  28.134  1.00  0.00     0.037 A 
ATOM     51  C   UNL A   1      44.848  30.392  31.498  1.00  0.00     0.049 A 
ATOM     52  C   UNL A   1      44.313  25.522  28.782  1.00  0.00     0.074 A 
ATOM     53  C   UNL A   1      46.073  30.644  32.091  1.00  0.00     0.029 A 
ATOM     54  N   UNL A   1      44.947  29.153  30.883  1.00  0.00    -0.354 N 
ATOM     55  N   UNL A   1      44.585  26.611  29.459  1.00  0.00    -0.248 NA
ATOM     56  C   UNL A   1      45.446  24.594  28.659  1.00  0.00     0.031 C 
ATOM     57  C   UNL A   1      46.925  29.571  31.805  1.00  0.00     0.029 A 
ATOM     58  C   UNL A   1      46.217  28.634  31.070  1.00  0.00     0.049 A 
ATOM     59  H   UNL A   1      44.222  28.708  30.388  1.00  0.00     0.167 HD
ATOM     60  C   UNL A   1      45.908  26.490  29.860  1.00  0.00     0.074 A 
ATOM     61  C   UNL A   1      46.381  25.214  29.363  1.00  0.00     0.031 C 
ATOM     62  C   UNL A   1      46.666  27.358  30.575  1.00  0.00     0.037 A 
BRANCH  49  63
ATOM     63  C   UNL A   1      43.738  32.564  32.146  1.00  0.00     0.064 A 
ATOM     64  C   UNL A   1      44.110  33.709  31.426  1.00  0.00     0.173 A 
ATOM     65  C   UNL A   1      43.403  32.722  33.499  1.00  0.00     0.173 A 
ATOM     66  F   UNL A   1      44.450  33.612  30.131  1.00  0.00    -0.203 F 
ATOM     67  C   UNL A   1      44.175  34.957  32.044  1.00  0.00     0.198 A 
ATOM     68  C   UNL A   1      43.441  33.974  34.107  1.00  0.00     0.198 A 
ATOM     69  F   UNL A   1      43.035  31.661  34.234  1.00  0.00    -0.203 F 
ATOM     70  F   UNL A   1      44.584  36.026  31.348  1.00  0.00    -0.200 F 
ATOM     71  C   UNL A   1      43.835  35.088  33.382  1.00  0.00     0.200 A 
ATOM     72  F   UNL A   1      43.101  34.103  35.397  1.00  0.00    -0.200 F 
ATOM     73  F   UNL A   1      43.896  36.289  33.974  1.00  0.00    -0.200 F 
ENDBRANCH  49  63
BRANCH  50  74
ATOM     74  C   UNL A   1      42.917  23.822  27.392  1.00  0.00     0.064 A 
ATOM     75  C   UNL A   1      43.286  23.741  26.043  1.00  0.00     0.173 A 
ATOM     76  C   UNL A   1      42.460  22.653  28.017  1.00  0.00     0.173 A 
ATOM     77  F   UNL A   1      43.709  24.838  25.397  1.00  0.00    -0.203 F 
ATOM     78  C   UNL A   1      43.190  22.541  25.342  1.00  0.00     0.198 A 
ATOM     79  C   UNL A   1      42.389  21.448  27.322  1.00  0.00     0.198 A 
ATOM     80  F   UNL A   1      42.101  22.678  29.309  1.00  0.00    -0.203 F 
ATOM     81  F   UNL A   1      43.515  22.498  24.043  1.00  0.00    -0.200 F 
ATOM     82  C   UNL A   1      42.748  21.393  25.983  1.00  0.00     0.200 A 
ATOM     83  F   UNL A   1      41.976  20.338  27.951  1.00  0.00    -0.200 F 
ATOM     84  F   UNL A   1      42.664  20.237  25.313  1.00  0.00    -0.200 F 
ENDBRANCH  50  74
BRANCH  62  85
ATOM     85  C   UNL A   1      48.073  26.946  30.887  1.00  0.00     0.064 A 
ATOM     86  C   UNL A   1      48.371  26.124  31.983  1.00  0.00     0.173 A 
ATOM     87  C   UNL A   1      49.130  27.341  30.052  1.00  0.00     0.173 A 
ATOM     88  F   UNL A   1      47.396  25.733  32.817  1.00  0.00    -0.203 F 
ATOM     89  C   UNL A   1      49.681  25.731  32.245  1.00  0.00     0.198 A 
ATOM     90  C   UNL A   1      50.433  26.924  30.302  1.00  0.00     0.198 A 
ATOM     91  F   UNL A   1      48.894  28.122  28.987  1.00  0.00    -0.203 F 
ATOM     92  F   UNL A   1      49.949  24.978  33.322  1.00  0.00    -0.200 F 
ATOM     93  C   UNL A   1      50.709  26.124  31.402  1.00  0.00     0.200 A 
ATOM     94  F   UNL A   1      51.424  27.296  29.481  1.00  0.00    -0.200 F 
ATOM     95  F   UNL A   1      51.967  25.738  31.653  1.00  0.00    -0.200 F 
ENDBRANCH  62  85
ENDBRANCH  36  37
ENDBRANCH  28  31
ENDBRANCH  26  27
ENDBRANCH  25  26
ENDBRANCH   1  25
TORSDOF 16
ENDMDL
MODEL 3
REMARK VINA RESULT:     -11.8      1.459      7.598
REMARK SMILES CC/C(=C/C(=O)[C@H](Cc1ccc(Cl)cc1Cl)C(=O)NCCCNC(=O)c1ccc(-c2c3nc(c(-c4c(F)c(F)c(F)c(F)c4F)c4ccc([nH]4)c(-c4c(F)c(F)c(F)c(F)c4F)c4nc(c(-c5c(F)c(F)c(F)c(F)c5F)c5ccc2[nH]5)C=C4)C=C3)cc1)N(C)C
REMARK SMILES IDX 20 1 19 2 17 3 18 4 7 6 5 7 6 8 4 9 3 10 2 11 1 12 89 13
REMARK SMILES IDX 90 14 91 15 8 16 9 17 10 18 15 19 11 20 14 21 16 22 12 23
REMARK SMILES IDX 13 24 21 25 22 26 23 27 24 28 25 30 26 31 27 32 88 33 28 34
REMARK SMILES IDX 87 35 29 36 30 37 31 38 81 39 32 40 86 41 80 42 82 43 33 44
REMARK SMILES IDX 85 45 79 46 78 47 34 49 66 50 46 51 65 52 47 53 50 54 64 55
REMARK SMILES IDX 83 56 48 57 49 58 63 60 84 61 51 62 35 63 36 64 44 65 37 66
REMARK SMILES IDX 38 67 42 68 45 69 39 70 40 71 43 72 41 73 67 74 68 75 76 76
REMARK SMILES IDX 69 77 70 78 74 79 77 80 71 81 72 82 75 83 73 84 52 85 53 86
REMARK SMILES IDX 61 87 54 88 55 89 59 90 62 91 56 92 57 93 60 94 58 95
REMARK H PARENT 19 5 23 29 82 48 50 59
REMARK Flexibility Score: inf
ROOT
ATOM      1  C   UNL A   1      33.727  28.921  25.185  1.00  0.00     0.117 C 
ENDROOT
BRANCH   1   2
ATOM      2  N   UNL A   1      34.142  28.696  23.810  1.00  0.00    -0.355 N 
ATOM      3  C   UNL A   1      33.674  27.921  22.790  1.00  0.00     0.231 C 
ATOM      4  O   UNL A   1      34.137  28.222  21.680  1.00  0.00    -0.274 OA
ATOM      5  H   UNL A   1      34.938  29.218  23.561  1.00  0.00     0.163 HD
BRANCH   3   6
ATOM      6  C   UNL A   1      32.784  26.678  22.925  1.00  0.00     0.154 C 
BRANCH   6   7
ATOM      7  C   UNL A   1      33.487  25.315  22.914  1.00  0.00     0.170 C 
ATOM      8  O   UNL A   1      33.420  24.535  21.964  1.00  0.00    -0.294 OA
BRANCH   7   9
ATOM      9  C   UNL A   1      34.212  24.838  24.136  1.00  0.00     0.069 C 
ATOM     10  C   UNL A   1      33.777  24.015  25.114  1.00  0.00     0.016 C 
BRANCH  10  11
ATOM     11  C   UNL A   1      34.883  23.230  25.827  1.00  0.00     0.050 C 
ATOM     12  C   UNL A   1      36.308  23.707  25.602  1.00  0.00     0.010 C 
ENDBRANCH  10  11
BRANCH  10  13
ATOM     13  N   UNL A   1      32.438  23.718  25.414  1.00  0.00    -0.381 N 
ATOM     14  C   UNL A   1      31.395  24.729  25.623  1.00  0.00     0.143 C 
ATOM     15  C   UNL A   1      31.908  22.346  25.406  1.00  0.00     0.143 C 
ENDBRANCH  10  13
ENDBRANCH   7   9
ENDBRANCH   6   7
BRANCH   6  16
ATOM     16  C   UNL A   1      31.373  26.772  22.351  1.00  0.00     0.059 C 
BRANCH  16  17
ATOM     17  C   UNL A   1      30.304  27.828  22.581  1.00  0.00    -0.028 A 
ATOM     18  C   UNL A   1      30.653  29.093  22.043  1.00  0.00     0.007 A 
ATOM     19  C   UNL A   1      29.072  27.740  23.252  1.00  0.00     0.045 A 
ATOM     20  C   UNL A   1      29.834  30.213  22.177  1.00  0.00     0.021 A 
ATOM     21  C   UNL A   1      28.251  28.870  23.390  1.00  0.00     0.041 A 
ATOM     22  Cl  UNL A   1      28.417  26.290  23.920  1.00  0.00    -0.084 Cl
ATOM     23  C   UNL A   1      28.634  30.096  22.858  1.00  0.00     0.042 A 
ATOM     24  Cl  UNL A   1      27.619  31.471  23.040  1.00  0.00    -0.084 Cl
ENDBRANCH  16  17
ENDBRANCH   6  16
ENDBRANCH   3   6
ENDBRANCH   1   2
BRANCH   1  25
ATOM     25  C   UNL A   1      32.396  29.652  25.358  1.00  0.00     0.042 C 
BRANCH  25  26
ATOM     26  C   UNL A   1      32.161  30.195  26.756  1.00  0.00     0.118 C 
BRANCH  26  27
ATOM     27  N   UNL A   1      32.354  31.632  26.806  1.00  0.00    -0.352 N 
ATOM     28  C   UNL A   1      33.292  32.395  27.457  1.00  0.00     0.251 C 
ATOM     29  H   UNL A   1      31.700  32.149  26.283  1.00  0.00     0.163 HD
ATOM     30  O   UNL A   1      33.062  33.593  27.610  1.00  0.00    -0.269 OA
BRANCH  28  31
ATOM     31  C   UNL A   1      34.569  31.835  27.978  1.00  0.00     0.039 A 
ATOM     32  C   UNL A   1      34.594  30.486  28.358  1.00  0.00     0.014 A 
ATOM     33  C   UNL A   1      35.691  32.625  28.232  1.00  0.00     0.014 A 
ATOM     34  C   UNL A   1      35.723  29.941  28.982  1.00  0.00     0.010 A 
ATOM     35  C   UNL A   1      36.854  32.059  28.761  1.00  0.00     0.010 A 
ATOM     36  C   UNL A   1      36.869  30.724  29.186  1.00  0.00    -0.014 A 
BRANCH  36  37
ATOM     37  C   UNL A   1      38.052  30.200  29.922  1.00  0.00     0.031 A 
ATOM     38  C   UNL A   1      38.296  30.625  31.350  1.00  0.00     0.074 A 
ATOM     39  C   UNL A   1      38.933  29.389  29.307  1.00  0.00     0.049 A 
ATOM     40  N   UNL A   1      39.316  30.371  32.132  1.00  0.00    -0.248 NA
ATOM     41  C   UNL A   1      37.271  31.481  31.968  1.00  0.00     0.031 C 
ATOM     42  C   UNL A   1      38.836  28.932  27.920  1.00  0.00     0.029 A 
ATOM     43  N   UNL A   1      40.093  28.814  29.766  1.00  0.00    -0.354 N 
ATOM     44  C   UNL A   1      39.071  31.065  33.311  1.00  0.00     0.074 A 
ATOM     45  C   UNL A   1      37.833  31.788  33.128  1.00  0.00     0.031 C 
ATOM     46  C   UNL A   1      39.881  28.134  27.647  1.00  0.00     0.029 A 
ATOM     47  C   UNL A   1      40.740  28.051  28.826  1.00  0.00     0.049 A 
ATOM     48  H   UNL A   1      40.429  28.939  30.683  1.00  0.00     0.167 HD
ATOM     49  C   UNL A   1      39.799  31.080  34.454  1.00  0.00     0.037 A 
ATOM     50  C   UNL A   1      41.896  27.366  28.903  1.00  0.00     0.037 A 
ATOM     51  C   UNL A   1      40.998  30.310  34.658  1.00  0.00     0.049 A 
ATOM     52  C   UNL A   1      42.667  27.364  30.196  1.00  0.00     0.074 A 
ATOM     53  C   UNL A   1      41.765  30.195  35.804  1.00  0.00     0.029 A 
ATOM     54  N   UNL A   1      41.596  29.514  33.693  1.00  0.00    -0.354 N 
ATOM     55  N   UNL A   1      42.397  27.983  31.320  1.00  0.00    -0.248 NA
ATOM     56  C   UNL A   1      43.897  26.561  30.235  1.00  0.00     0.031 C 
ATOM     57  C   UNL A   1      42.848  29.354  35.522  1.00  0.00     0.029 A 
ATOM     58  C   UNL A   1      42.731  28.915  34.213  1.00  0.00     0.049 A 
ATOM     59  H   UNL A   1      41.263  29.393  32.775  1.00  0.00     0.167 HD
ATOM     60  C   UNL A   1      43.408  27.628  32.203  1.00  0.00     0.074 A 
ATOM     61  C   UNL A   1      44.289  26.727  31.489  1.00  0.00     0.031 C 
ATOM     62  C   UNL A   1      43.590  28.014  33.490  1.00  0.00     0.037 A 
BRANCH  49  63
ATOM     63  C   UNL A   1      39.316  31.953  35.578  1.00  0.00     0.064 A 
ATOM     64  C   UNL A   1      38.437  31.472  36.560  1.00  0.00     0.173 A 
ATOM     65  C   UNL A   1      39.762  33.278  35.690  1.00  0.00     0.173 A 
ATOM     66  F   UNL A   1      37.972  30.215  36.493  1.00  0.00    -0.203 F 
ATOM     67  C   UNL A   1      37.996  32.295  37.594  1.00  0.00     0.198 A 
ATOM     68  C   UNL A   1      39.342  34.090  36.741  1.00  0.00     0.198 A 
ATOM     69  F   UNL A   1      40.608  33.787  34.782  1.00  0.00    -0.203 F 
ATOM     70  F   UNL A   1      37.115  31.829  38.489  1.00  0.00    -0.200 F 
ATOM     71  C   UNL A   1      38.454  33.601  37.686  1.00  0.00     0.200 A 
ATOM     72  F   UNL A   1      39.795  35.348  36.837  1.00  0.00    -0.200 F 
ATOM     73  F   UNL A   1      38.031  34.390  38.684  1.00  0.00    -0.200 F 
ENDBRANCH  49  63
BRANCH  50  74
ATOM     74  C   UNL A   1      42.380  26.600  27.726  1.00  0.00     0.064 A 
ATOM     75  C   UNL A   1      43.305  27.161  26.835  1.00  0.00     0.173 A 
ATOM     76  C   UNL A   1      41.941  25.293  27.474  1.00  0.00     0.173 A 
ATOM     77  F   UNL A   1      43.739  28.417  27.022  1.00  0.00    -0.203 F 
ATOM     78  C   UNL A   1      43.762  26.449  25.728  1.00  0.00     0.198 A 
ATOM     79  C   UNL A   1      42.418  24.572  26.381  1.00  0.00     0.198 A 
ATOM     80  F   UNL A   1      41.061  24.709  28.300  1.00  0.00    -0.203 F 
ATOM     81  F   UNL A   1      44.618  27.022  24.871  1.00  0.00    -0.200 F 
ATOM     82  C   UNL A   1      43.323  25.152  25.505  1.00  0.00     0.200 A 
ATOM     83  F   UNL A   1      42.002  23.314  26.179  1.00  0.00    -0.200 F 
ATOM     84  F   UNL A   1      43.768  24.463  24.447  1.00  0.00    -0.200 F 
ENDBRANCH  50  74
BRANCH  62  85
ATOM     85  C   UNL A   1      44.770  27.443  34.217  1.00  0.00     0.064 A 
ATOM     86  C   UNL A   1      44.676  26.246  34.942  1.00  0.00     0.173 A 
ATOM     87  C   UNL A   1      46.020  28.077  34.149  1.00  0.00     0.173 A 
ATOM     88  F   UNL A   1      43.499  25.613  35.047  1.00  0.00    -0.203 F 
ATOM     89  C   UNL A   1      45.788  25.716  35.592  1.00  0.00     0.198 A 
ATOM     90  C   UNL A   1      47.135  27.530  34.778  1.00  0.00     0.198 A 
ATOM     91  F   UNL A   1      46.162  29.220  33.462  1.00  0.00    -0.203 F 
ATOM     92  F   UNL A   1      45.666  24.593  36.313  1.00  0.00    -0.200 F 
ATOM     93  C   UNL A   1      47.016  26.354  35.504  1.00  0.00     0.200 A 
ATOM     94  F   UNL A   1      48.323  28.140  34.684  1.00  0.00    -0.200 F 
ATOM     95  F   UNL A   1      48.086  25.837  36.125  1.00  0.00    -0.200 F 
ENDBRANCH  62  85
ENDBRANCH  36  37
ENDBRANCH  28  31
ENDBRANCH  26  27
ENDBRANCH  25  26
ENDBRANCH   1  25
TORSDOF 16
ENDMDL
