MODEL 1
REMARK VINA RESULT:     -12.6      0.000      0.000
REMARK SMILES CCc1cc(OC(F)(F)F)cc2c1O[C@H](C(F)(F)F)C(C(=O)NCCCNC(=O)c1ccc(-c3c4nc(c(-c5c(F)c(F)c(F)c(F)c5F)c5ccc([nH]5)c(-c5c(F)c(F)c(F)c(F)c5F)c5nc(c(-c6c(F)c(F)c(F)c(F)c6F)c6ccc3[nH]6)C=C5)C=C4)cc1)=C2
REMARK SMILES IDX 25 1 24 2 23 3 21 4 22 5 20 7 3 8 4 9 13 10 5 11 12 12 14 13
REMARK SMILES IDX 11 14 93 15 15 16 2 17 1 18 6 19 7 20 8 21 9 22 10 23 16 24
REMARK SMILES IDX 17 25 18 26 19 27 26 28 27 29 28 30 29 32 30 33 31 34 92 35
REMARK SMILES IDX 32 36 91 37 33 38 34 39 35 40 85 41 36 42 90 43 84 44 86 45
REMARK SMILES IDX 37 46 89 47 83 48 82 49 38 51 70 52 50 53 69 54 51 55 54 56
REMARK SMILES IDX 68 57 87 58 52 59 53 60 67 62 88 63 55 64 39 65 40 66 48 67
REMARK SMILES IDX 41 68 42 69 46 70 49 71 43 72 44 73 47 74 45 75 71 76 72 77
REMARK SMILES IDX 80 78 73 79 74 80 78 81 81 82 75 83 76 84 79 85 77 86 56 87
REMARK SMILES IDX 57 88 65 89 58 90 59 91 63 92 66 93 60 94 61 95 64 96 62 97
REMARK H PARENT 23 6 27 31 86 50 54 61
REMARK Flexibility Score: inf
ROOT
ATOM      1  C   UNL A   1      38.175  19.763  24.878  1.00  0.00     0.042 C 
ENDROOT
BRANCH   1   2
ATOM      2  C   UNL A   1      36.994  20.734  24.838  1.00  0.00     0.118 C 
BRANCH   2   3
ATOM      3  N   UNL A   1      35.748  20.053  25.140  1.00  0.00    -0.352 N 
ATOM      4  C   UNL A   1      34.460  20.471  25.206  1.00  0.00     0.251 C 
ATOM      5  O   UNL A   1      33.604  19.619  25.432  1.00  0.00    -0.270 OA
ATOM      6  H   UNL A   1      35.861  19.096  25.335  1.00  0.00     0.163 HD
BRANCH   4   7
ATOM      7  C   UNL A   1      34.036  21.868  24.914  1.00  0.00     0.067 C 
ATOM      8  C   UNL A   1      33.423  25.767  23.448  1.00  0.00    -0.002 A 
ATOM      9  C   UNL A   1      33.199  26.800  24.387  1.00  0.00     0.054 A 
ATOM     10  C   UNL A   1      33.635  24.468  23.931  1.00  0.00     0.131 A 
ATOM     11  C   UNL A   1      33.168  26.547  25.759  1.00  0.00     0.130 A 
ATOM     12  C   UNL A   1      33.591  24.202  25.308  1.00  0.00     0.021 A 
ATOM     13  O   UNL A   1      33.973  23.481  23.044  1.00  0.00    -0.475 OA
ATOM     14  C   UNL A   1      33.354  25.242  26.211  1.00  0.00     0.058 A 
ATOM     15  C   UNL A   1      33.897  22.861  25.802  1.00  0.00     0.025 C 
ATOM     16  C   UNL A   1      33.693  22.116  23.456  1.00  0.00     0.314 C 
BRANCH   8  17
ATOM     17  C   UNL A   1      33.482  26.174  21.986  1.00  0.00     0.036 C 
ATOM     18  C   UNL A   1      32.297  25.841  21.090  1.00  0.00     0.009 C 
ENDBRANCH   8  17
BRANCH  11  19
ATOM     19  O   UNL A   1      32.988  27.465  26.754  1.00  0.00    -0.406 OA
BRANCH  19  20
ATOM     20  C   UNL A   1      31.672  27.928  27.003  1.00  0.00     0.573 C 
ATOM     21  F   UNL A   1      30.751  27.041  26.568  1.00  0.00    -0.132 F 
ATOM     22  F   UNL A   1      31.484  28.168  28.318  1.00  0.00    -0.132 F 
ATOM     23  F   UNL A   1      31.488  29.086  26.332  1.00  0.00    -0.132 F 
ENDBRANCH  19  20
ENDBRANCH  11  19
BRANCH  16  24
ATOM     24  C   UNL A   1      32.238  21.737  23.109  1.00  0.00     0.429 C 
ATOM     25  F   UNL A   1      32.163  20.564  22.432  1.00  0.00    -0.167 F 
ATOM     26  F   UNL A   1      31.493  21.591  24.234  1.00  0.00    -0.167 F 
ATOM     27  F   UNL A   1      31.612  22.665  22.352  1.00  0.00    -0.167 F 
ENDBRANCH  16  24
ENDBRANCH   4   7
ENDBRANCH   2   3
ENDBRANCH   1   2
BRANCH   1  28
ATOM     28  C   UNL A   1      39.140  20.035  26.029  1.00  0.00     0.118 C 
BRANCH  28  29
ATOM     29  N   UNL A   1      40.280  19.131  26.004  1.00  0.00    -0.352 N 
ATOM     30  C   UNL A   1      41.623  19.403  26.033  1.00  0.00     0.251 C 
ATOM     31  H   UNL A   1      40.051  18.174  25.958  1.00  0.00     0.163 HD
ATOM     32  O   UNL A   1      42.425  18.513  25.766  1.00  0.00    -0.269 OA
BRANCH  30  33
ATOM     33  C   UNL A   1      42.118  20.754  26.377  1.00  0.00     0.039 A 
ATOM     34  C   UNL A   1      42.349  21.666  25.343  1.00  0.00     0.014 A 
ATOM     35  C   UNL A   1      42.418  21.104  27.697  1.00  0.00     0.014 A 
ATOM     36  C   UNL A   1      42.840  22.939  25.633  1.00  0.00     0.010 A 
ATOM     37  C   UNL A   1      42.845  22.397  27.993  1.00  0.00     0.010 A 
ATOM     38  C   UNL A   1      43.071  23.322  26.963  1.00  0.00    -0.014 A 
BRANCH  38  39
ATOM     39  C   UNL A   1      43.558  24.685  27.294  1.00  0.00     0.031 A 
ATOM     40  C   UNL A   1      42.608  25.720  27.828  1.00  0.00     0.074 A 
ATOM     41  C   UNL A   1      44.840  25.007  27.049  1.00  0.00     0.049 A 
ATOM     42  N   UNL A   1      42.829  26.979  28.111  1.00  0.00    -0.248 NA
ATOM     43  C   UNL A   1      41.219  25.289  28.044  1.00  0.00     0.031 C 
ATOM     44  C   UNL A   1      45.841  24.105  26.478  1.00  0.00     0.029 A 
ATOM     45  N   UNL A   1      45.517  26.186  27.230  1.00  0.00    -0.354 N 
ATOM     46  C   UNL A   1      41.606  27.493  28.522  1.00  0.00     0.074 A 
ATOM     47  C   UNL A   1      40.638  26.424  28.403  1.00  0.00     0.031 C 
ATOM     48  C   UNL A   1      47.006  24.761  26.360  1.00  0.00     0.029 A 
ATOM     49  C   UNL A   1      46.826  26.136  26.821  1.00  0.00     0.049 A 
ATOM     50  H   UNL A   1      45.104  26.991  27.617  1.00  0.00     0.167 HD
ATOM     51  C   UNL A   1      41.322  28.736  28.979  1.00  0.00     0.037 A 
ATOM     52  C   UNL A   1      47.773  27.093  26.809  1.00  0.00     0.037 A 
ATOM     53  C   UNL A   1      42.294  29.790  29.115  1.00  0.00     0.049 A 
ATOM     54  C   UNL A   1      47.443  28.459  27.341  1.00  0.00     0.074 A 
ATOM     55  C   UNL A   1      42.124  31.063  29.630  1.00  0.00     0.029 A 
ATOM     56  N   UNL A   1      43.623  29.689  28.728  1.00  0.00    -0.354 N 
ATOM     57  N   UNL A   1      46.302  28.913  27.798  1.00  0.00    -0.248 NA
ATOM     58  C   UNL A   1      48.535  29.441  27.366  1.00  0.00     0.031 C 
ATOM     59  C   UNL A   1      43.341  31.747  29.515  1.00  0.00     0.029 A 
ATOM     60  C   UNL A   1      44.280  30.885  28.972  1.00  0.00     0.049 A 
ATOM     61  H   UNL A   1      44.039  28.887  28.337  1.00  0.00     0.167 HD
ATOM     62  C   UNL A   1      46.538  30.227  28.178  1.00  0.00     0.074 A 
ATOM     63  C   UNL A   1      47.939  30.489  27.918  1.00  0.00     0.031 C 
ATOM     64  C   UNL A   1      45.674  31.133  28.697  1.00  0.00     0.037 A 
BRANCH  51  65
ATOM     65  C   UNL A   1      39.898  29.019  29.364  1.00  0.00     0.064 A 
ATOM     66  C   UNL A   1      39.448  28.870  30.685  1.00  0.00     0.173 A 
ATOM     67  C   UNL A   1      38.971  29.450  28.402  1.00  0.00     0.173 A 
ATOM     68  F   UNL A   1      40.291  28.450  31.641  1.00  0.00    -0.203 F 
ATOM     69  C   UNL A   1      38.118  29.102  31.021  1.00  0.00     0.198 A 
ATOM     70  C   UNL A   1      37.648  29.711  28.748  1.00  0.00     0.198 A 
ATOM     71  F   UNL A   1      39.348  29.616  27.126  1.00  0.00    -0.203 F 
ATOM     72  F   UNL A   1      37.699  28.893  32.278  1.00  0.00    -0.200 F 
ATOM     73  C   UNL A   1      37.219  29.526  30.054  1.00  0.00     0.200 A 
ATOM     74  F   UNL A   1      36.783  30.132  27.815  1.00  0.00    -0.200 F 
ATOM     75  F   UNL A   1      35.938  29.746  30.378  1.00  0.00    -0.200 F 
ENDBRANCH  51  65
BRANCH  52  76
ATOM     76  C   UNL A   1      49.128  26.770  26.294  1.00  0.00     0.064 A 
ATOM     77  C   UNL A   1      49.472  27.027  24.960  1.00  0.00     0.173 A 
ATOM     78  C   UNL A   1      50.117  26.239  27.135  1.00  0.00     0.173 A 
ATOM     79  F   UNL A   1      48.554  27.520  24.116  1.00  0.00    -0.203 F 
ATOM     80  C   UNL A   1      50.753  26.755  24.484  1.00  0.00     0.198 A 
ATOM     81  C   UNL A   1      51.404  25.990  26.663  1.00  0.00     0.198 A 
ATOM     82  F   UNL A   1      49.838  25.986  28.422  1.00  0.00    -0.203 F 
ATOM     83  F   UNL A   1      51.047  26.983  23.197  1.00  0.00    -0.200 F 
ATOM     84  C   UNL A   1      51.719  26.244  25.337  1.00  0.00     0.200 A 
ATOM     85  F   UNL A   1      52.339  25.514  27.495  1.00  0.00    -0.200 F 
ATOM     86  F   UNL A   1      52.954  25.997  24.881  1.00  0.00    -0.200 F 
ENDBRANCH  52  76
BRANCH  64  87
ATOM     87  C   UNL A   1      46.222  32.489  29.028  1.00  0.00     0.064 A 
ATOM     88  C   UNL A   1      46.190  33.539  28.098  1.00  0.00     0.173 A 
ATOM     89  C   UNL A   1      46.752  32.752  30.300  1.00  0.00     0.173 A 
ATOM     90  F   UNL A   1      45.707  33.332  26.863  1.00  0.00    -0.203 F 
ATOM     91  C   UNL A   1      46.691  34.797  28.423  1.00  0.00     0.198 A 
ATOM     92  C   UNL A   1      47.227  34.018  30.629  1.00  0.00     0.198 A 
ATOM     93  F   UNL A   1      46.801  31.783  31.226  1.00  0.00    -0.203 F 
ATOM     94  F   UNL A   1      46.690  35.773  27.505  1.00  0.00    -0.200 F 
ATOM     95  C   UNL A   1      47.202  35.037  29.689  1.00  0.00     0.200 A 
ATOM     96  F   UNL A   1      47.712  34.252  31.857  1.00  0.00    -0.200 F 
ATOM     97  F   UNL A   1      47.679  36.250  30.001  1.00  0.00    -0.200 F 
ENDBRANCH  64  87
ENDBRANCH  38  39
ENDBRANCH  30  33
ENDBRANCH  28  29
ENDBRANCH   1  28
TORSDOF 14
ENDMDL
MODEL 2
REMARK VINA RESULT:     -12.6      3.117      8.330
REMARK SMILES CCc1cc(OC(F)(F)F)cc2c1O[C@H](C(F)(F)F)C(C(=O)NCCCNC(=O)c1ccc(-c3c4nc(c(-c5c(F)c(F)c(F)c(F)c5F)c5ccc([nH]5)c(-c5c(F)c(F)c(F)c(F)c5F)c5nc(c(-c6c(F)c(F)c(F)c(F)c6F)c6ccc3[nH]6)C=C5)C=C4)cc1)=C2
REMARK SMILES IDX 25 1 24 2 23 3 21 4 22 5 20 7 3 8 4 9 13 10 5 11 12 12 14 13
REMARK SMILES IDX 11 14 93 15 15 16 2 17 1 18 6 19 7 20 8 21 9 22 10 23 16 24
REMARK SMILES IDX 17 25 18 26 19 27 26 28 27 29 28 30 29 32 30 33 31 34 92 35
REMARK SMILES IDX 32 36 91 37 33 38 34 39 35 40 85 41 36 42 90 43 84 44 86 45
REMARK SMILES IDX 37 46 89 47 83 48 82 49 38 51 70 52 50 53 69 54 51 55 54 56
REMARK SMILES IDX 68 57 87 58 52 59 53 60 67 62 88 63 55 64 39 65 40 66 48 67
REMARK SMILES IDX 41 68 42 69 46 70 49 71 43 72 44 73 47 74 45 75 71 76 72 77
REMARK SMILES IDX 80 78 73 79 74 80 78 81 81 82 75 83 76 84 79 85 77 86 56 87
REMARK SMILES IDX 57 88 65 89 58 90 59 91 63 92 66 93 60 94 61 95 64 96 62 97
REMARK H PARENT 23 6 27 31 86 50 54 61
REMARK Flexibility Score: inf
ROOT
ATOM      1  C   UNL A   1      35.311  23.199  26.445  1.00  0.00     0.042 C 
ENDROOT
BRANCH   1   2
ATOM      2  C   UNL A   1      34.390  22.320  25.600  1.00  0.00     0.118 C 
BRANCH   2   3
ATOM      3  N   UNL A   1      34.662  22.487  24.184  1.00  0.00    -0.352 N 
ATOM      4  C   UNL A   1      34.315  23.438  23.283  1.00  0.00     0.251 C 
ATOM      5  O   UNL A   1      34.764  23.323  22.144  1.00  0.00    -0.270 OA
ATOM      6  H   UNL A   1      35.210  21.765  23.802  1.00  0.00     0.163 HD
BRANCH   4   7
ATOM      7  C   UNL A   1      33.520  24.647  23.632  1.00  0.00     0.067 C 
ATOM      8  C   UNL A   1      30.973  27.995  23.805  1.00  0.00    -0.002 A 
ATOM      9  C   UNL A   1      31.426  29.136  24.505  1.00  0.00     0.054 A 
ATOM     10  C   UNL A   1      31.821  26.880  23.738  1.00  0.00     0.131 A 
ATOM     11  C   UNL A   1      32.673  29.162  25.135  1.00  0.00     0.130 A 
ATOM     12  C   UNL A   1      33.067  26.891  24.380  1.00  0.00     0.021 A 
ATOM     13  O   UNL A   1      31.448  25.814  22.963  1.00  0.00    -0.475 OA
ATOM     14  C   UNL A   1      33.483  28.029  25.077  1.00  0.00     0.058 A 
ATOM     15  C   UNL A   1      33.975  25.755  24.231  1.00  0.00     0.025 C 
ATOM     16  C   UNL A   1      32.044  24.532  23.296  1.00  0.00     0.314 C 
BRANCH   8  17
ATOM     17  C   UNL A   1      29.622  28.106  23.121  1.00  0.00     0.036 C 
ATOM     18  C   UNL A   1      29.289  29.390  22.374  1.00  0.00     0.009 C 
ENDBRANCH   8  17
BRANCH  11  19
ATOM     19  O   UNL A   1      33.223  30.211  25.813  1.00  0.00    -0.406 OA
BRANCH  19  20
ATOM     20  C   UNL A   1      32.631  30.594  27.043  1.00  0.00     0.573 C 
ATOM     21  F   UNL A   1      31.996  29.554  27.624  1.00  0.00    -0.132 F 
ATOM     22  F   UNL A   1      33.555  31.091  27.891  1.00  0.00    -0.132 F 
ATOM     23  F   UNL A   1      31.718  31.559  26.800  1.00  0.00    -0.132 F 
ENDBRANCH  19  20
ENDBRANCH  11  19
BRANCH  16  24
ATOM     24  C   UNL A   1      31.229  23.832  24.404  1.00  0.00     0.429 C 
ATOM     25  F   UNL A   1      29.923  24.199  24.387  1.00  0.00    -0.167 F 
ATOM     26  F   UNL A   1      31.261  22.483  24.252  1.00  0.00    -0.167 F 
ATOM     27  F   UNL A   1      31.690  24.088  25.648  1.00  0.00    -0.167 F 
ENDBRANCH  16  24
ENDBRANCH   4   7
ENDBRANCH   2   3
ENDBRANCH   1   2
BRANCH   1  28
ATOM     28  C   UNL A   1      36.618  23.555  25.739  1.00  0.00     0.118 C 
BRANCH  28  29
ATOM     29  N   UNL A   1      37.667  22.588  26.024  1.00  0.00    -0.352 N 
ATOM     30  C   UNL A   1      38.958  22.784  26.443  1.00  0.00     0.251 C 
ATOM     31  H   UNL A   1      37.411  21.646  25.896  1.00  0.00     0.163 HD
ATOM     32  O   UNL A   1      39.755  21.851  26.400  1.00  0.00    -0.269 OA
BRANCH  30  33
ATOM     33  C   UNL A   1      39.404  24.104  26.941  1.00  0.00     0.039 A 
ATOM     34  C   UNL A   1      39.137  24.442  28.271  1.00  0.00     0.014 A 
ATOM     35  C   UNL A   1      40.020  25.030  26.094  1.00  0.00     0.014 A 
ATOM     36  C   UNL A   1      39.523  25.690  28.763  1.00  0.00     0.010 A 
ATOM     37  C   UNL A   1      40.464  26.248  26.602  1.00  0.00     0.010 A 
ATOM     38  C   UNL A   1      40.209  26.594  27.938  1.00  0.00    -0.014 A 
BRANCH  38  39
ATOM     39  C   UNL A   1      40.660  27.911  28.455  1.00  0.00     0.031 A 
ATOM     40  C   UNL A   1      42.107  28.138  28.790  1.00  0.00     0.074 A 
ATOM     41  C   UNL A   1      39.753  28.878  28.683  1.00  0.00     0.049 A 
ATOM     42  N   UNL A   1      42.680  29.192  29.314  1.00  0.00    -0.248 NA
ATOM     43  C   UNL A   1      43.026  27.020  28.531  1.00  0.00     0.031 C 
ATOM     44  C   UNL A   1      38.314  28.755  28.451  1.00  0.00     0.029 A 
ATOM     45  N   UNL A   1      39.905  30.147  29.180  1.00  0.00    -0.354 N 
ATOM     46  C   UNL A   1      44.020  28.859  29.460  1.00  0.00     0.074 A 
ATOM     47  C   UNL A   1      44.165  27.488  29.019  1.00  0.00     0.031 C 
ATOM     48  C   UNL A   1      37.714  29.904  28.800  1.00  0.00     0.029 A 
ATOM     49  C   UNL A   1      38.722  30.832  29.305  1.00  0.00     0.049 A 
ATOM     50  H   UNL A   1      40.778  30.531  29.423  1.00  0.00     0.167 HD
ATOM     51  C   UNL A   1      45.041  29.634  29.901  1.00  0.00     0.037 A 
ATOM     52  C   UNL A   1      38.476  32.067  29.783  1.00  0.00     0.037 A 
ATOM     53  C   UNL A   1      44.894  31.004  30.319  1.00  0.00     0.049 A 
ATOM     54  C   UNL A   1      39.625  32.917  30.247  1.00  0.00     0.074 A 
ATOM     55  C   UNL A   1      45.873  31.896  30.720  1.00  0.00     0.029 A 
ATOM     56  N   UNL A   1      43.684  31.679  30.394  1.00  0.00    -0.354 N 
ATOM     57  N   UNL A   1      40.899  32.619  30.311  1.00  0.00    -0.248 NA
ATOM     58  C   UNL A   1      39.303  34.279  30.692  1.00  0.00     0.031 C 
ATOM     59  C   UNL A   1      45.250  33.098  31.077  1.00  0.00     0.029 A 
ATOM     60  C   UNL A   1      43.889  32.970  30.855  1.00  0.00     0.049 A 
ATOM     61  H   UNL A   1      42.809  31.298  30.156  1.00  0.00     0.167 HD
ATOM     62  C   UNL A   1      41.535  33.756  30.789  1.00  0.00     0.074 A 
ATOM     63  C   UNL A   1      40.506  34.758  30.979  1.00  0.00     0.031 C 
ATOM     64  C   UNL A   1      42.851  33.952  31.047  1.00  0.00     0.037 A 
BRANCH  51  65
ATOM     65  C   UNL A   1      46.405  29.009  29.952  1.00  0.00     0.064 A 
ATOM     66  C   UNL A   1      47.272  29.041  28.848  1.00  0.00     0.173 A 
ATOM     67  C   UNL A   1      46.858  28.376  31.120  1.00  0.00     0.173 A 
ATOM     68  F   UNL A   1      46.885  29.624  27.703  1.00  0.00    -0.203 F 
ATOM     69  C   UNL A   1      48.521  28.428  28.897  1.00  0.00     0.198 A 
ATOM     70  C   UNL A   1      48.120  27.790  31.176  1.00  0.00     0.198 A 
ATOM     71  F   UNL A   1      46.074  28.322  32.207  1.00  0.00    -0.203 F 
ATOM     72  F   UNL A   1      49.304  28.419  27.809  1.00  0.00    -0.200 F 
ATOM     73  C   UNL A   1      48.946  27.807  30.062  1.00  0.00     0.200 A 
ATOM     74  F   UNL A   1      48.535  27.200  32.305  1.00  0.00    -0.200 F 
ATOM     75  F   UNL A   1      50.147  27.214  30.106  1.00  0.00    -0.200 F 
ENDBRANCH  51  65
BRANCH  52  76
ATOM     76  C   UNL A   1      37.079  32.569  29.818  1.00  0.00     0.064 A 
ATOM     77  C   UNL A   1      36.282  32.402  30.959  1.00  0.00     0.173 A 
ATOM     78  C   UNL A   1      36.529  33.262  28.729  1.00  0.00     0.173 A 
ATOM     79  F   UNL A   1      36.761  31.734  32.017  1.00  0.00    -0.203 F 
ATOM     80  C   UNL A   1      34.982  32.902  31.005  1.00  0.00     0.198 A 
ATOM     81  C   UNL A   1      35.237  33.781  28.787  1.00  0.00     0.198 A 
ATOM     82  F   UNL A   1      37.257  33.454  27.620  1.00  0.00    -0.203 F 
ATOM     83  F   UNL A   1      34.231  32.704  32.097  1.00  0.00    -0.200 F 
ATOM     84  C   UNL A   1      34.464  33.596  29.923  1.00  0.00     0.200 A 
ATOM     85  F   UNL A   1      34.747  34.467  27.745  1.00  0.00    -0.200 F 
ATOM     86  F   UNL A   1      33.219  34.089  29.974  1.00  0.00    -0.200 F 
ENDBRANCH  52  76
BRANCH  64  87
ATOM     87  C   UNL A   1      43.254  35.306  31.552  1.00  0.00     0.064 A 
ATOM     88  C   UNL A   1      43.697  36.311  30.681  1.00  0.00     0.173 A 
ATOM     89  C   UNL A   1      43.163  35.613  32.919  1.00  0.00     0.173 A 
ATOM     90  F   UNL A   1      43.818  36.061  29.367  1.00  0.00    -0.203 F 
ATOM     91  C   UNL A   1      44.056  37.567  31.162  1.00  0.00     0.198 A 
ATOM     92  C   UNL A   1      43.497  36.878  33.391  1.00  0.00     0.198 A 
ATOM     93  F   UNL A   1      42.740  34.687  33.792  1.00  0.00    -0.203 F 
ATOM     94  F   UNL A   1      44.519  38.499  30.316  1.00  0.00    -0.200 F 
ATOM     95  C   UNL A   1      43.949  37.852  32.514  1.00  0.00     0.200 A 
ATOM     96  F   UNL A   1      43.383  37.155  34.698  1.00  0.00    -0.200 F 
ATOM     97  F   UNL A   1      44.290  39.064  32.974  1.00  0.00    -0.200 F 
ENDBRANCH  64  87
ENDBRANCH  38  39
ENDBRANCH  30  33
ENDBRANCH  28  29
ENDBRANCH   1  28
TORSDOF 14
ENDMDL
MODEL 3
REMARK VINA RESULT:     -12.6      0.190      1.623
REMARK SMILES CCc1cc(OC(F)(F)F)cc2c1O[C@H](C(F)(F)F)C(C(=O)NCCCNC(=O)c1ccc(-c3c4nc(c(-c5c(F)c(F)c(F)c(F)c5F)c5ccc([nH]5)c(-c5c(F)c(F)c(F)c(F)c5F)c5nc(c(-c6c(F)c(F)c(F)c(F)c6F)c6ccc3[nH]6)C=C5)C=C4)cc1)=C2
REMARK SMILES IDX 25 1 24 2 23 3 21 4 22 5 20 7 3 8 4 9 13 10 5 11 12 12 14 13
REMARK SMILES IDX 11 14 93 15 15 16 2 17 1 18 6 19 7 20 8 21 9 22 10 23 16 24
REMARK SMILES IDX 17 25 18 26 19 27 26 28 27 29 28 30 29 32 30 33 31 34 92 35
REMARK SMILES IDX 32 36 91 37 33 38 34 39 35 40 85 41 36 42 90 43 84 44 86 45
REMARK SMILES IDX 37 46 89 47 83 48 82 49 38 51 70 52 50 53 69 54 51 55 54 56
REMARK SMILES IDX 68 57 87 58 52 59 53 60 67 62 88 63 55 64 39 65 40 66 48 67
REMARK SMILES IDX 41 68 42 69 46 70 49 71 43 72 44 73 47 74 45 75 71 76 72 77
REMARK SMILES IDX 80 78 73 79 74 80 78 81 81 82 75 83 76 84 79 85 77 86 56 87
REMARK SMILES IDX 57 88 65 89 58 90 59 91 63 92 66 93 60 94 61 95 64 96 62 97
REMARK H PARENT 23 6 27 31 86 50 54 61
REMARK Flexibility Score: inf
ROOT
ATOM      1  C   UNL A   1      38.066  19.653  24.944  1.00  0.00     0.042 C 
ENDROOT
BRANCH   1   2
ATOM      2  C   UNL A   1      36.901  20.637  24.837  1.00  0.00     0.118 C 
BRANCH   2   3
ATOM      3  N   UNL A   1      35.643  19.997  25.178  1.00  0.00    -0.352 N 
ATOM      4  C   UNL A   1      34.369  20.453  25.266  1.00  0.00     0.251 C 
ATOM      5  O   UNL A   1      33.495  19.628  25.526  1.00  0.00    -0.270 OA
ATOM      6  H   UNL A   1      35.733  19.040  25.385  1.00  0.00     0.163 HD
BRANCH   4   7
ATOM      7  C   UNL A   1      33.978  21.857  24.962  1.00  0.00     0.067 C 
ATOM      8  C   UNL A   1      33.482  25.768  23.486  1.00  0.00    -0.002 A 
ATOM      9  C   UNL A   1      33.236  26.802  24.418  1.00  0.00     0.054 A 
ATOM     10  C   UNL A   1      33.656  24.465  23.973  1.00  0.00     0.131 A 
ATOM     11  C   UNL A   1      33.146  26.546  25.788  1.00  0.00     0.130 A 
ATOM     12  C   UNL A   1      33.551  24.196  25.345  1.00  0.00     0.021 A 
ATOM     13  O   UNL A   1      34.015  23.475  23.097  1.00  0.00    -0.475 OA
ATOM     14  C   UNL A   1      33.293  25.236  26.242  1.00  0.00     0.058 A 
ATOM     15  C   UNL A   1      33.818  22.849  25.847  1.00  0.00     0.025 C 
ATOM     16  C   UNL A   1      33.698  22.114  23.492  1.00  0.00     0.314 C 
BRANCH   8  17
ATOM     17  C   UNL A   1      33.608  26.178  22.029  1.00  0.00     0.036 C 
ATOM     18  C   UNL A   1      32.474  25.827  21.075  1.00  0.00     0.009 C 
ENDBRANCH   8  17
BRANCH  11  19
ATOM     19  O   UNL A   1      32.939  27.463  26.778  1.00  0.00    -0.406 OA
BRANCH  19  20
ATOM     20  C   UNL A   1      31.617  27.930  26.987  1.00  0.00     0.573 C 
ATOM     21  F   UNL A   1      30.707  27.032  26.555  1.00  0.00    -0.132 F 
ATOM     22  F   UNL A   1      31.401  28.202  28.291  1.00  0.00    -0.132 F 
ATOM     23  F   UNL A   1      31.447  29.072  26.284  1.00  0.00    -0.132 F 
ENDBRANCH  19  20
ENDBRANCH  11  19
BRANCH  16  24
ATOM     24  C   UNL A   1      32.253  21.757  23.085  1.00  0.00     0.429 C 
ATOM     25  F   UNL A   1      31.368  21.990  24.086  1.00  0.00    -0.167 F 
ATOM     26  F   UNL A   1      31.851  22.500  22.022  1.00  0.00    -0.167 F 
ATOM     27  F   UNL A   1      32.104  20.463  22.726  1.00  0.00    -0.167 F 
ENDBRANCH  16  24
ENDBRANCH   4   7
ENDBRANCH   2   3
ENDBRANCH   1   2
BRANCH   1  28
ATOM     28  C   UNL A   1      39.118  20.075  25.967  1.00  0.00     0.118 C 
BRANCH  28  29
ATOM     29  N   UNL A   1      40.258  19.171  25.973  1.00  0.00    -0.352 N 
ATOM     30  C   UNL A   1      41.600  19.443  26.041  1.00  0.00     0.251 C 
ATOM     31  H   UNL A   1      40.031  18.213  25.919  1.00  0.00     0.163 HD
ATOM     32  O   UNL A   1      42.410  18.553  25.796  1.00  0.00    -0.269 OA
BRANCH  30  33
ATOM     33  C   UNL A   1      42.085  20.793  26.401  1.00  0.00     0.039 A 
ATOM     34  C   UNL A   1      42.294  21.724  25.378  1.00  0.00     0.014 A 
ATOM     35  C   UNL A   1      42.395  21.126  27.723  1.00  0.00     0.014 A 
ATOM     36  C   UNL A   1      42.775  22.997  25.683  1.00  0.00     0.010 A 
ATOM     37  C   UNL A   1      42.812  22.418  28.034  1.00  0.00     0.010 A 
ATOM     38  C   UNL A   1      43.017  23.362  27.017  1.00  0.00    -0.014 A 
BRANCH  38  39
ATOM     39  C   UNL A   1      43.494  24.724  27.363  1.00  0.00     0.031 A 
ATOM     40  C   UNL A   1      42.541  25.738  27.931  1.00  0.00     0.074 A 
ATOM     41  C   UNL A   1      44.768  25.067  27.103  1.00  0.00     0.049 A 
ATOM     42  N   UNL A   1      42.751  26.995  28.233  1.00  0.00    -0.248 NA
ATOM     43  C   UNL A   1      41.160  25.287  28.163  1.00  0.00     0.031 C 
ATOM     44  C   UNL A   1      45.770  24.187  26.500  1.00  0.00     0.029 A 
ATOM     45  N   UNL A   1      45.434  26.251  27.294  1.00  0.00    -0.354 N 
ATOM     46  C   UNL A   1      41.530  27.487  28.673  1.00  0.00     0.074 A 
ATOM     47  C   UNL A   1      40.572  26.409  28.551  1.00  0.00     0.031 C 
ATOM     48  C   UNL A   1      46.925  24.859  26.375  1.00  0.00     0.029 A 
ATOM     49  C   UNL A   1      46.736  26.223  26.863  1.00  0.00     0.049 A 
ATOM     50  H   UNL A   1      45.018  27.044  27.702  1.00  0.00     0.167 HD
ATOM     51  C   UNL A   1      41.239  28.719  29.157  1.00  0.00     0.037 A 
ATOM     52  C   UNL A   1      47.672  27.191  26.852  1.00  0.00     0.037 A 
ATOM     53  C   UNL A   1      42.201  29.781  29.296  1.00  0.00     0.049 A 
ATOM     54  C   UNL A   1      47.334  28.544  27.413  1.00  0.00     0.074 A 
ATOM     55  C   UNL A   1      42.025  31.043  29.835  1.00  0.00     0.029 A 
ATOM     56  N   UNL A   1      43.524  29.703  28.885  1.00  0.00    -0.354 N 
ATOM     57  N   UNL A   1      46.196  28.976  27.897  1.00  0.00    -0.248 NA
ATOM     58  C   UNL A   1      48.415  29.538  27.438  1.00  0.00     0.031 C 
ATOM     59  C   UNL A   1      43.231  31.743  29.713  1.00  0.00     0.029 A 
ATOM     60  C   UNL A   1      44.171  30.903  29.139  1.00  0.00     0.049 A 
ATOM     61  H   UNL A   1      43.942  28.914  28.473  1.00  0.00     0.167 HD
ATOM     62  C   UNL A   1      46.423  30.285  28.297  1.00  0.00     0.074 A 
ATOM     63  C   UNL A   1      47.816  30.569  28.018  1.00  0.00     0.031 C 
ATOM     64  C   UNL A   1      45.557  31.172  28.846  1.00  0.00     0.037 A 
BRANCH  51  65
ATOM     65  C   UNL A   1      39.818  28.977  29.570  1.00  0.00     0.064 A 
ATOM     66  C   UNL A   1      38.858  29.439  28.656  1.00  0.00     0.173 A 
ATOM     67  C   UNL A   1      39.408  28.754  30.893  1.00  0.00     0.173 A 
ATOM     68  F   UNL A   1      39.200  29.679  27.381  1.00  0.00    -0.203 F 
ATOM     69  C   UNL A   1      37.553  29.708  29.060  1.00  0.00     0.198 A 
ATOM     70  C   UNL A   1      38.094  28.995  31.287  1.00  0.00     0.198 A 
ATOM     71  F   UNL A   1      40.282  28.306  31.806  1.00  0.00    -0.203 F 
ATOM     72  F   UNL A   1      36.671  30.207  28.183  1.00  0.00    -0.200 F 
ATOM     73  C   UNL A   1      37.171  29.481  30.374  1.00  0.00     0.200 A 
ATOM     74  F   UNL A   1      37.722  28.765  32.554  1.00  0.00    -0.200 F 
ATOM     75  F   UNL A   1      35.915  29.744  30.762  1.00  0.00    -0.200 F 
ENDBRANCH  51  65
BRANCH  52  76
ATOM     76  C   UNL A   1      49.022  26.894  26.309  1.00  0.00     0.064 A 
ATOM     77  C   UNL A   1      50.014  26.324  27.118  1.00  0.00     0.173 A 
ATOM     78  C   UNL A   1      49.333  27.137  24.963  1.00  0.00     0.173 A 
ATOM     79  F   UNL A   1      49.766  26.089  28.415  1.00  0.00    -0.203 F 
ATOM     80  C   UNL A   1      51.271  26.016  26.602  1.00  0.00     0.198 A 
ATOM     81  C   UNL A   1      50.582  26.806  24.443  1.00  0.00     0.198 A 
ATOM     82  F   UNL A   1      48.412  27.673  24.148  1.00  0.00    -0.203 F 
ATOM     83  F   UNL A   1      52.211  25.497  27.403  1.00  0.00    -0.200 F 
ATOM     84  C   UNL A   1      51.551  26.250  25.265  1.00  0.00     0.200 A 
ATOM     85  F   UNL A   1      50.842  27.017  23.146  1.00  0.00    -0.200 F 
ATOM     86  F   UNL A   1      52.755  25.939  24.766  1.00  0.00    -0.200 F 
ENDBRANCH  52  76
BRANCH  64  87
ATOM     87  C   UNL A   1      46.094  32.529  29.191  1.00  0.00     0.064 A 
ATOM     88  C   UNL A   1      46.033  33.595  28.282  1.00  0.00     0.173 A 
ATOM     89  C   UNL A   1      46.645  32.775  30.459  1.00  0.00     0.173 A 
ATOM     90  F   UNL A   1      45.531  33.404  27.052  1.00  0.00    -0.203 F 
ATOM     91  C   UNL A   1      46.524  34.852  28.621  1.00  0.00     0.198 A 
ATOM     92  C   UNL A   1      47.110  34.041  30.802  1.00  0.00     0.198 A 
ATOM     93  F   UNL A   1      46.722  31.790  31.365  1.00  0.00    -0.203 F 
ATOM     94  F   UNL A   1      46.495  35.845  27.721  1.00  0.00    -0.200 F 
ATOM     95  C   UNL A   1      47.056  35.076  29.882  1.00  0.00     0.200 A 
ATOM     96  F   UNL A   1      47.614  34.258  32.025  1.00  0.00    -0.200 F 
ATOM     97  F   UNL A   1      47.523  36.289  30.207  1.00  0.00    -0.200 F 
ENDBRANCH  64  87
ENDBRANCH  38  39
ENDBRANCH  30  33
ENDBRANCH  28  29
ENDBRANCH   1  28
TORSDOF 14
ENDMDL
