MODEL 1
REMARK VINA RESULT:     -13.2      0.000      0.000
REMARK SMILES Cc1c(C(=O)NCCCNC(=O)c2ccc(-c3c4nc(c(-c5c(F)c(F)c(F)c(F)c5F)c5ccc([nH]5)c(-c5c(F)c(F)c(F)c(F)c5F)c5nc(c(-c6c(F)c(F)c(F)c(F)c6F)c6ccc3[nH]6)C=C5)C=C4)cc2)cnn1[C@H]1CCS(=O)(=O)C1
REMARK SMILES IDX 8 1 7 2 6 3 4 4 5 5 3 7 1 8 2 9 78 10 76 11 77 12 79 13
REMARK SMILES IDX 80 14 85 15 81 16 82 17 83 18 84 19 9 20 10 21 11 22 12 24
REMARK SMILES IDX 13 25 14 26 75 27 15 28 74 29 16 30 17 31 18 32 68 33 19 34
REMARK SMILES IDX 73 35 67 36 69 37 20 38 72 39 66 40 65 41 21 43 53 44 33 45
REMARK SMILES IDX 52 46 34 47 37 48 51 49 70 50 35 51 36 52 50 54 71 55 38 56
REMARK SMILES IDX 22 57 23 58 31 59 24 60 25 61 29 62 32 63 26 64 27 65 30 66
REMARK SMILES IDX 28 67 54 68 55 69 63 70 56 71 57 72 61 73 64 74 58 75 59 76
REMARK SMILES IDX 62 77 60 78 39 79 40 80 48 81 41 82 42 83 46 84 49 85 43 86
REMARK SMILES IDX 44 87 47 88 45 89
REMARK H PARENT 6 6 10 23 69 42 37 53
REMARK Flexibility Score: inf
ROOT
ATOM      1  C   UNL A   1      37.233  22.175  24.411  1.00  0.00     0.042 C 
ENDROOT
BRANCH   1   2
ATOM      2  C   UNL A   1      36.550  23.213  23.514  1.00  0.00     0.118 C 
BRANCH   2   3
ATOM      3  N   UNL A   1      35.584  24.005  24.254  1.00  0.00    -0.352 N 
ATOM      4  C   UNL A   1      34.331  23.745  24.742  1.00  0.00     0.254 C 
ATOM      5  O   UNL A   1      33.790  24.677  25.339  1.00  0.00    -0.269 OA
ATOM      6  H   UNL A   1      35.895  24.919  24.447  1.00  0.00     0.163 HD
BRANCH   4   7
ATOM      7  C   UNL A   1      33.710  22.430  24.622  1.00  0.00     0.080 A 
ATOM      8  C   UNL A   1      34.437  21.388  26.905  1.00  0.00     0.067 C 
ATOM      9  C   UNL A   1      33.821  21.389  25.550  1.00  0.00     0.048 A 
ATOM     10  N   UNL A   1      33.268  20.280  24.945  1.00  0.00    -0.265 N 
ATOM     11  C   UNL A   1      32.852  21.891  23.643  1.00  0.00     0.149 A 
ATOM     12  N   UNL A   1      32.579  20.601  23.833  1.00  0.00    -0.180 NA
BRANCH  10  13
ATOM     13  C   UNL A   1      33.520  18.859  25.147  1.00  0.00     0.123 C 
ATOM     14  C   UNL A   1      32.219  18.055  24.975  1.00  0.00     0.044 C 
ATOM     15  C   UNL A   1      34.567  18.182  24.277  1.00  0.00     0.164 C 
ATOM     16  C   UNL A   1      32.579  16.580  25.071  1.00  0.00     0.139 C 
ATOM     17  S   UNL A   1      34.255  16.443  24.480  1.00  0.00     0.152 S 
ATOM     18  O   UNL A   1      35.085  15.949  25.550  1.00  0.00    -0.229 OA
ATOM     19  O   UNL A   1      34.234  15.830  23.162  1.00  0.00    -0.229 OA
ENDBRANCH  10  13
ENDBRANCH   4   7
ENDBRANCH   2   3
ENDBRANCH   1   2
BRANCH   1  20
ATOM     20  C   UNL A   1      37.725  22.778  25.722  1.00  0.00     0.118 C 
BRANCH  20  21
ATOM     21  N   UNL A   1      38.716  21.942  26.398  1.00  0.00    -0.352 N 
ATOM     22  C   UNL A   1      39.922  22.315  26.954  1.00  0.00     0.251 C 
ATOM     23  H   UNL A   1      38.492  20.985  26.465  1.00  0.00     0.163 HD
ATOM     24  O   UNL A   1      40.789  21.475  27.173  1.00  0.00    -0.269 OA
BRANCH  22  25
ATOM     25  C   UNL A   1      40.171  23.734  27.268  1.00  0.00     0.039 A 
ATOM     26  C   UNL A   1      39.234  24.709  26.923  1.00  0.00     0.014 A 
ATOM     27  C   UNL A   1      41.346  24.088  27.927  1.00  0.00     0.014 A 
ATOM     28  C   UNL A   1      39.453  26.022  27.328  1.00  0.00     0.010 A 
ATOM     29  C   UNL A   1      41.492  25.352  28.455  1.00  0.00     0.010 A 
ATOM     30  C   UNL A   1      40.568  26.334  28.131  1.00  0.00    -0.014 A 
BRANCH  30  31
ATOM     31  C   UNL A   1      40.670  27.655  28.746  1.00  0.00     0.031 A 
ATOM     32  C   UNL A   1      41.743  28.502  28.162  1.00  0.00     0.074 A 
ATOM     33  C   UNL A   1      39.813  28.166  29.656  1.00  0.00     0.049 A 
ATOM     34  N   UNL A   1      42.842  28.850  28.742  1.00  0.00    -0.248 NA
ATOM     35  C   UNL A   1      41.676  28.872  26.740  1.00  0.00     0.031 C 
ATOM     36  C   UNL A   1      38.551  27.609  30.146  1.00  0.00     0.029 A 
ATOM     37  N   UNL A   1      39.868  29.373  30.290  1.00  0.00    -0.354 N 
ATOM     38  C   UNL A   1      43.526  29.646  27.833  1.00  0.00     0.074 A 
ATOM     39  C   UNL A   1      42.849  29.488  26.572  1.00  0.00     0.031 C 
ATOM     40  C   UNL A   1      37.857  28.566  30.803  1.00  0.00     0.029 A 
ATOM     41  C   UNL A   1      38.689  29.750  30.922  1.00  0.00     0.049 A 
ATOM     42  H   UNL A   1      40.678  29.933  30.298  1.00  0.00     0.167 HD
ATOM     43  C   UNL A   1      44.441  30.552  28.277  1.00  0.00     0.037 A 
ATOM     44  C   UNL A   1      38.411  30.954  31.487  1.00  0.00     0.037 A 
ATOM     45  C   UNL A   1      44.864  30.238  29.623  1.00  0.00     0.049 A 
ATOM     46  C   UNL A   1      39.709  31.609  31.789  1.00  0.00     0.074 A 
ATOM     47  C   UNL A   1      45.408  29.116  30.225  1.00  0.00     0.029 A 
ATOM     48  N   UNL A   1      44.371  30.999  30.657  1.00  0.00    -0.354 N 
ATOM     49  N   UNL A   1      40.530  31.189  32.712  1.00  0.00    -0.248 NA
ATOM     50  C   UNL A   1      40.308  32.430  30.746  1.00  0.00     0.031 C 
ATOM     51  C   UNL A   1      44.745  29.018  31.485  1.00  0.00     0.029 A 
ATOM     52  C   UNL A   1      43.916  30.130  31.615  1.00  0.00     0.049 A 
ATOM     53  H   UNL A   1      44.349  31.982  30.701  1.00  0.00     0.167 HD
ATOM     54  C   UNL A   1      41.781  31.275  32.123  1.00  0.00     0.074 A 
ATOM     55  C   UNL A   1      41.593  32.126  30.948  1.00  0.00     0.031 C 
ATOM     56  C   UNL A   1      42.784  30.414  32.464  1.00  0.00     0.037 A 
BRANCH  43  57
ATOM     57  C   UNL A   1      44.630  31.924  27.675  1.00  0.00     0.064 A 
ATOM     58  C   UNL A   1      45.778  32.168  26.893  1.00  0.00     0.173 A 
ATOM     59  C   UNL A   1      43.930  33.076  28.097  1.00  0.00     0.173 A 
ATOM     60  F   UNL A   1      46.525  31.149  26.440  1.00  0.00    -0.203 F 
ATOM     61  C   UNL A   1      46.250  33.460  26.656  1.00  0.00     0.198 A 
ATOM     62  C   UNL A   1      44.374  34.364  27.812  1.00  0.00     0.198 A 
ATOM     63  F   UNL A   1      42.859  33.012  28.895  1.00  0.00    -0.203 F 
ATOM     64  F   UNL A   1      47.426  33.635  26.039  1.00  0.00    -0.200 F 
ATOM     65  C   UNL A   1      45.554  34.557  27.127  1.00  0.00     0.200 A 
ATOM     66  F   UNL A   1      43.694  35.415  28.293  1.00  0.00    -0.200 F 
ATOM     67  F   UNL A   1      46.042  35.794  26.968  1.00  0.00    -0.200 F 
ENDBRANCH  43  57
BRANCH  44  68
ATOM     68  C   UNL A   1      37.121  31.687  31.539  1.00  0.00     0.064 A 
ATOM     69  C   UNL A   1      36.484  31.955  32.765  1.00  0.00     0.173 A 
ATOM     70  C   UNL A   1      36.631  32.389  30.421  1.00  0.00     0.173 A 
ATOM     71  F   UNL A   1      36.911  31.366  33.892  1.00  0.00    -0.203 F 
ATOM     72  C   UNL A   1      35.450  32.892  32.869  1.00  0.00     0.198 A 
ATOM     73  C   UNL A   1      35.592  33.318  30.525  1.00  0.00     0.198 A 
ATOM     74  F   UNL A   1      37.211  32.264  29.219  1.00  0.00    -0.203 F 
ATOM     75  F   UNL A   1      34.917  33.170  34.068  1.00  0.00    -0.200 F 
ATOM     76  C   UNL A   1      35.013  33.581  31.751  1.00  0.00     0.200 A 
ATOM     77  F   UNL A   1      35.205  34.004  29.440  1.00  0.00    -0.200 F 
ATOM     78  F   UNL A   1      34.067  34.526  31.861  1.00  0.00    -0.200 F 
ENDBRANCH  44  68
BRANCH  56  79
ATOM     79  C   UNL A   1      42.604  29.547  33.681  1.00  0.00     0.064 A 
ATOM     80  C   UNL A   1      41.966  28.294  33.684  1.00  0.00     0.173 A 
ATOM     81  C   UNL A   1      43.227  29.950  34.871  1.00  0.00     0.173 A 
ATOM     82  F   UNL A   1      41.439  27.779  32.566  1.00  0.00    -0.203 F 
ATOM     83  C   UNL A   1      41.908  27.513  34.839  1.00  0.00     0.198 A 
ATOM     84  C   UNL A   1      43.205  29.151  36.010  1.00  0.00     0.198 A 
ATOM     85  F   UNL A   1      43.899  31.112  34.919  1.00  0.00    -0.203 F 
ATOM     86  F   UNL A   1      41.274  26.332  34.821  1.00  0.00    -0.200 F 
ATOM     87  C   UNL A   1      42.534  27.940  35.999  1.00  0.00     0.200 A 
ATOM     88  F   UNL A   1      43.856  29.545  37.112  1.00  0.00    -0.200 F 
ATOM     89  F   UNL A   1      42.511  27.173  37.097  1.00  0.00    -0.200 F 
ENDBRANCH  56  79
ENDBRANCH  30  31
ENDBRANCH  22  25
ENDBRANCH  20  21
ENDBRANCH   1  20
TORSDOF 11
ENDMDL
MODEL 2
REMARK VINA RESULT:     -13.2      4.686      9.615
REMARK SMILES Cc1c(C(=O)NCCCNC(=O)c2ccc(-c3c4nc(c(-c5c(F)c(F)c(F)c(F)c5F)c5ccc([nH]5)c(-c5c(F)c(F)c(F)c(F)c5F)c5nc(c(-c6c(F)c(F)c(F)c(F)c6F)c6ccc3[nH]6)C=C5)C=C4)cc2)cnn1[C@H]1CCS(=O)(=O)C1
REMARK SMILES IDX 8 1 7 2 6 3 4 4 5 5 3 7 1 8 2 9 78 10 76 11 77 12 79 13
REMARK SMILES IDX 80 14 85 15 81 16 82 17 83 18 84 19 9 20 10 21 11 22 12 24
REMARK SMILES IDX 13 25 14 26 75 27 15 28 74 29 16 30 17 31 18 32 68 33 19 34
REMARK SMILES IDX 73 35 67 36 69 37 20 38 72 39 66 40 65 41 21 43 53 44 33 45
REMARK SMILES IDX 52 46 34 47 37 48 51 49 70 50 35 51 36 52 50 54 71 55 38 56
REMARK SMILES IDX 22 57 23 58 31 59 24 60 25 61 29 62 32 63 26 64 27 65 30 66
REMARK SMILES IDX 28 67 54 68 55 69 63 70 56 71 57 72 61 73 64 74 58 75 59 76
REMARK SMILES IDX 62 77 60 78 39 79 40 80 48 81 41 82 42 83 46 84 49 85 43 86
REMARK SMILES IDX 44 87 47 88 45 89
REMARK H PARENT 6 6 10 23 69 42 37 53
REMARK Flexibility Score: inf
ROOT
ATOM      1  C   UNL A   1      33.194  29.807  26.770  1.00  0.00     0.042 C 
ENDROOT
BRANCH   1   2
ATOM      2  C   UNL A   1      32.837  28.418  27.310  1.00  0.00     0.118 C 
BRANCH   2   3
ATOM      3  N   UNL A   1      33.433  27.365  26.509  1.00  0.00    -0.352 N 
ATOM      4  C   UNL A   1      33.084  26.771  25.325  1.00  0.00     0.254 C 
ATOM      5  O   UNL A   1      33.846  25.888  24.929  1.00  0.00    -0.269 OA
ATOM      6  H   UNL A   1      34.262  27.002  26.897  1.00  0.00     0.163 HD
BRANCH   4   7
ATOM      7  C   UNL A   1      31.925  27.205  24.553  1.00  0.00     0.080 A 
ATOM      8  C   UNL A   1      33.049  29.032  23.060  1.00  0.00     0.067 C 
ATOM      9  C   UNL A   1      31.916  28.241  23.612  1.00  0.00     0.048 A 
ATOM     10  N   UNL A   1      30.591  28.450  23.290  1.00  0.00    -0.265 N 
ATOM     11  C   UNL A   1      30.604  26.717  24.500  1.00  0.00     0.149 A 
ATOM     12  N   UNL A   1      29.799  27.457  23.740  1.00  0.00    -0.180 NA
BRANCH  10  13
ATOM     13  C   UNL A   1      29.904  29.640  22.806  1.00  0.00     0.123 C 
ATOM     14  C   UNL A   1      28.655  29.245  21.997  1.00  0.00     0.044 C 
ATOM     15  C   UNL A   1      29.451  30.675  23.824  1.00  0.00     0.164 C 
ATOM     16  C   UNL A   1      27.922  30.528  21.635  1.00  0.00     0.139 C 
ATOM     17  S   UNL A   1      28.288  31.687  22.938  1.00  0.00     0.152 S 
ATOM     18  O   UNL A   1      28.992  32.812  22.376  1.00  0.00    -0.229 OA
ATOM     19  O   UNL A   1      27.103  31.844  23.766  1.00  0.00    -0.229 OA
ENDBRANCH  10  13
ENDBRANCH   4   7
ENDBRANCH   2   3
ENDBRANCH   1   2
BRANCH   1  20
ATOM     20  C   UNL A   1      34.519  30.320  27.324  1.00  0.00     0.118 C 
BRANCH  20  21
ATOM     21  N   UNL A   1      34.367  31.517  28.150  1.00  0.00    -0.352 N 
ATOM     22  C   UNL A   1      35.039  31.857  29.305  1.00  0.00     0.251 C 
ATOM     23  H   UNL A   1      33.695  32.166  27.840  1.00  0.00     0.163 HD
ATOM     24  O   UNL A   1      34.578  32.702  30.065  1.00  0.00    -0.269 OA
BRANCH  22  25
ATOM     25  C   UNL A   1      36.310  31.185  29.633  1.00  0.00     0.039 A 
ATOM     26  C   UNL A   1      36.322  29.844  30.019  1.00  0.00     0.014 A 
ATOM     27  C   UNL A   1      37.502  31.901  29.538  1.00  0.00     0.014 A 
ATOM     28  C   UNL A   1      37.546  29.214  30.218  1.00  0.00     0.010 A 
ATOM     29  C   UNL A   1      38.712  31.245  29.588  1.00  0.00     0.010 A 
ATOM     30  C   UNL A   1      38.744  29.909  29.962  1.00  0.00    -0.014 A 
BRANCH  30  31
ATOM     31  C   UNL A   1      40.012  29.184  29.944  1.00  0.00     0.031 A 
ATOM     32  C   UNL A   1      40.593  28.967  31.295  1.00  0.00     0.074 A 
ATOM     33  C   UNL A   1      40.577  28.617  28.857  1.00  0.00     0.049 A 
ATOM     34  N   UNL A   1      41.653  29.528  31.770  1.00  0.00    -0.248 NA
ATOM     35  C   UNL A   1      39.844  28.174  32.283  1.00  0.00     0.031 C 
ATOM     36  C   UNL A   1      40.034  28.477  27.504  1.00  0.00     0.029 A 
ATOM     37  N   UNL A   1      41.768  27.956  28.765  1.00  0.00    -0.354 N 
ATOM     38  C   UNL A   1      41.823  29.018  33.051  1.00  0.00     0.074 A 
ATOM     39  C   UNL A   1      40.602  28.327  33.373  1.00  0.00     0.031 C 
ATOM     40  C   UNL A   1      40.774  27.584  26.808  1.00  0.00     0.029 A 
ATOM     41  C   UNL A   1      41.931  27.212  27.602  1.00  0.00     0.049 A 
ATOM     42  H   UNL A   1      42.456  28.002  29.467  1.00  0.00     0.167 HD
ATOM     43  C   UNL A   1      43.060  29.011  33.621  1.00  0.00     0.037 A 
ATOM     44  C   UNL A   1      42.934  26.341  27.321  1.00  0.00     0.037 A 
ATOM     45  C   UNL A   1      43.941  29.939  32.948  1.00  0.00     0.049 A 
ATOM     46  C   UNL A   1      44.082  26.693  28.196  1.00  0.00     0.074 A 
ATOM     47  C   UNL A   1      43.878  31.292  32.662  1.00  0.00     0.029 A 
ATOM     48  N   UNL A   1      44.894  29.434  32.096  1.00  0.00    -0.354 N 
ATOM     49  N   UNL A   1      44.781  27.786  28.061  1.00  0.00    -0.248 NA
ATOM     50  C   UNL A   1      44.142  26.071  29.510  1.00  0.00     0.031 C 
ATOM     51  C   UNL A   1      44.381  31.409  31.332  1.00  0.00     0.029 A 
ATOM     52  C   UNL A   1      44.809  30.146  30.927  1.00  0.00     0.049 A 
ATOM     53  H   UNL A   1      45.521  28.700  32.289  1.00  0.00     0.167 HD
ATOM     54  C   UNL A   1      44.963  28.239  29.357  1.00  0.00     0.074 A 
ATOM     55  C   UNL A   1      44.626  27.100  30.211  1.00  0.00     0.031 C 
ATOM     56  C   UNL A   1      45.078  29.571  29.631  1.00  0.00     0.037 A 
BRANCH  43  57
ATOM     57  C   UNL A   1      43.584  27.889  34.486  1.00  0.00     0.064 A 
ATOM     58  C   UNL A   1      43.521  26.569  33.992  1.00  0.00     0.173 A 
ATOM     59  C   UNL A   1      43.825  28.006  35.872  1.00  0.00     0.173 A 
ATOM     60  F   UNL A   1      43.291  26.336  32.690  1.00  0.00    -0.203 F 
ATOM     61  C   UNL A   1      43.577  25.461  34.839  1.00  0.00     0.198 A 
ATOM     62  C   UNL A   1      43.934  26.896  36.705  1.00  0.00     0.198 A 
ATOM     63  F   UNL A   1      43.850  29.187  36.499  1.00  0.00    -0.203 F 
ATOM     64  F   UNL A   1      43.360  24.235  34.344  1.00  0.00    -0.200 F 
ATOM     65  C   UNL A   1      43.771  25.626  36.197  1.00  0.00     0.200 A 
ATOM     66  F   UNL A   1      44.105  27.078  38.023  1.00  0.00    -0.200 F 
ATOM     67  F   UNL A   1      43.749  24.571  37.022  1.00  0.00    -0.200 F 
ENDBRANCH  43  57
BRANCH  44  68
ATOM     68  C   UNL A   1      42.883  25.071  26.552  1.00  0.00     0.064 A 
ATOM     69  C   UNL A   1      43.709  24.865  25.432  1.00  0.00     0.173 A 
ATOM     70  C   UNL A   1      42.238  23.929  27.064  1.00  0.00     0.173 A 
ATOM     71  F   UNL A   1      44.398  25.887  24.902  1.00  0.00    -0.203 F 
ATOM     72  C   UNL A   1      43.904  23.592  24.883  1.00  0.00     0.198 A 
ATOM     73  C   UNL A   1      42.426  22.660  26.511  1.00  0.00     0.198 A 
ATOM     74  F   UNL A   1      41.486  24.000  28.172  1.00  0.00    -0.203 F 
ATOM     75  F   UNL A   1      44.754  23.427  23.860  1.00  0.00    -0.200 F 
ATOM     76  C   UNL A   1      43.271  22.489  25.431  1.00  0.00     0.200 A 
ATOM     77  F   UNL A   1      41.836  21.597  27.074  1.00  0.00    -0.200 F 
ATOM     78  F   UNL A   1      43.508  21.261  24.949  1.00  0.00    -0.200 F 
ENDBRANCH  44  68
BRANCH  56  79
ATOM     79  C   UNL A   1      45.280  30.526  28.486  1.00  0.00     0.064 A 
ATOM     80  C   UNL A   1      44.244  31.079  27.712  1.00  0.00     0.173 A 
ATOM     81  C   UNL A   1      46.578  31.003  28.251  1.00  0.00     0.173 A 
ATOM     82  F   UNL A   1      42.963  30.765  27.939  1.00  0.00    -0.203 F 
ATOM     83  C   UNL A   1      44.508  32.019  26.715  1.00  0.00     0.198 A 
ATOM     84  C   UNL A   1      46.833  31.972  27.286  1.00  0.00     0.198 A 
ATOM     85  F   UNL A   1      47.604  30.555  28.993  1.00  0.00    -0.203 F 
ATOM     86  F   UNL A   1      43.504  32.514  25.976  1.00  0.00    -0.200 F 
ATOM     87  C   UNL A   1      45.800  32.470  26.509  1.00  0.00     0.200 A 
ATOM     88  F   UNL A   1      48.077  32.442  27.127  1.00  0.00    -0.200 F 
ATOM     89  F   UNL A   1      46.048  33.401  25.578  1.00  0.00    -0.200 F 
ENDBRANCH  56  79
ENDBRANCH  30  31
ENDBRANCH  22  25
ENDBRANCH  20  21
ENDBRANCH   1  20
TORSDOF 11
ENDMDL
MODEL 3
REMARK VINA RESULT:     -13.2      3.529      8.703
REMARK SMILES Cc1c(C(=O)NCCCNC(=O)c2ccc(-c3c4nc(c(-c5c(F)c(F)c(F)c(F)c5F)c5ccc([nH]5)c(-c5c(F)c(F)c(F)c(F)c5F)c5nc(c(-c6c(F)c(F)c(F)c(F)c6F)c6ccc3[nH]6)C=C5)C=C4)cc2)cnn1[C@H]1CCS(=O)(=O)C1
REMARK SMILES IDX 8 1 7 2 6 3 4 4 5 5 3 7 1 8 2 9 78 10 76 11 77 12 79 13
REMARK SMILES IDX 80 14 85 15 81 16 82 17 83 18 84 19 9 20 10 21 11 22 12 24
REMARK SMILES IDX 13 25 14 26 75 27 15 28 74 29 16 30 17 31 18 32 68 33 19 34
REMARK SMILES IDX 73 35 67 36 69 37 20 38 72 39 66 40 65 41 21 43 53 44 33 45
REMARK SMILES IDX 52 46 34 47 37 48 51 49 70 50 35 51 36 52 50 54 71 55 38 56
REMARK SMILES IDX 22 57 23 58 31 59 24 60 25 61 29 62 32 63 26 64 27 65 30 66
REMARK SMILES IDX 28 67 54 68 55 69 63 70 56 71 57 72 61 73 64 74 58 75 59 76
REMARK SMILES IDX 62 77 60 78 39 79 40 80 48 81 41 82 42 83 46 84 49 85 43 86
REMARK SMILES IDX 44 87 47 88 45 89
REMARK H PARENT 6 6 10 23 69 42 37 53
REMARK Flexibility Score: inf
ROOT
ATOM      1  C   UNL A   1      32.365  30.752  26.739  1.00  0.00     0.042 C 
ENDROOT
BRANCH   1   2
ATOM      2  C   UNL A   1      31.893  29.295  26.697  1.00  0.00     0.118 C 
BRANCH   2   3
ATOM      3  N   UNL A   1      31.337  28.952  25.400  1.00  0.00    -0.352 N 
ATOM      4  C   UNL A   1      31.062  27.763  24.780  1.00  0.00     0.254 C 
ATOM      5  O   UNL A   1      30.578  27.853  23.650  1.00  0.00    -0.269 OA
ATOM      6  H   UNL A   1      31.109  29.738  24.854  1.00  0.00     0.163 HD
BRANCH   4   7
ATOM      7  C   UNL A   1      31.264  26.478  25.441  1.00  0.00     0.080 A 
ATOM      8  C   UNL A   1      33.860  26.273  25.224  1.00  0.00     0.067 C 
ATOM      9  C   UNL A   1      32.487  25.812  25.569  1.00  0.00     0.048 A 
ATOM     10  N   UNL A   1      32.188  24.558  26.059  1.00  0.00    -0.265 N 
ATOM     11  C   UNL A   1      30.369  25.632  26.126  1.00  0.00     0.149 A 
ATOM     12  N   UNL A   1      30.919  24.479  26.504  1.00  0.00    -0.180 NA
BRANCH  10  13
ATOM     13  C   UNL A   1      32.896  23.291  25.932  1.00  0.00     0.123 C 
ATOM     14  C   UNL A   1      32.924  22.555  27.284  1.00  0.00     0.044 C 
ATOM     15  C   UNL A   1      32.399  22.287  24.903  1.00  0.00     0.164 C 
ATOM     16  C   UNL A   1      33.560  21.194  27.049  1.00  0.00     0.139 C 
ATOM     17  S   UNL A   1      33.179  20.757  25.364  1.00  0.00     0.152 S 
ATOM     18  O   UNL A   1      34.411  20.630  24.628  1.00  0.00    -0.229 OA
ATOM     19  O   UNL A   1      32.165  19.716  25.371  1.00  0.00    -0.229 OA
ENDBRANCH  10  13
ENDBRANCH   4   7
ENDBRANCH   2   3
ENDBRANCH   1   2
BRANCH   1  20
ATOM     20  C   UNL A   1      33.781  30.885  27.289  1.00  0.00     0.118 C 
BRANCH  20  21
ATOM     21  N   UNL A   1      33.885  31.869  28.366  1.00  0.00    -0.352 N 
ATOM     22  C   UNL A   1      34.832  31.956  29.365  1.00  0.00     0.251 C 
ATOM     23  H   UNL A   1      33.185  32.562  28.379  1.00  0.00     0.163 HD
ATOM     24  O   UNL A   1      34.604  32.607  30.379  1.00  0.00    -0.269 OA
BRANCH  22  25
ATOM     25  C   UNL A   1      36.115  31.245  29.215  1.00  0.00     0.039 A 
ATOM     26  C   UNL A   1      37.323  31.939  29.305  1.00  0.00     0.014 A 
ATOM     27  C   UNL A   1      36.109  29.868  28.997  1.00  0.00     0.014 A 
ATOM     28  C   UNL A   1      38.513  31.221  29.264  1.00  0.00     0.010 A 
ATOM     29  C   UNL A   1      37.274  29.143  29.105  1.00  0.00     0.010 A 
ATOM     30  C   UNL A   1      38.484  29.814  29.204  1.00  0.00    -0.014 A 
BRANCH  30  31
ATOM     31  C   UNL A   1      39.718  29.055  29.395  1.00  0.00     0.031 A 
ATOM     32  C   UNL A   1      40.063  28.830  30.824  1.00  0.00     0.074 A 
ATOM     33  C   UNL A   1      40.438  28.467  28.416  1.00  0.00     0.049 A 
ATOM     34  N   UNL A   1      41.045  29.366  31.466  1.00  0.00    -0.248 NA
ATOM     35  C   UNL A   1      39.141  28.063  31.676  1.00  0.00     0.031 C 
ATOM     36  C   UNL A   1      40.121  28.335  26.993  1.00  0.00     0.029 A 
ATOM     37  N   UNL A   1      41.609  27.775  28.522  1.00  0.00    -0.354 N 
ATOM     38  C   UNL A   1      40.989  28.858  32.757  1.00  0.00     0.074 A 
ATOM     39  C   UNL A   1      39.714  28.201  32.875  1.00  0.00     0.031 C 
ATOM     40  C   UNL A   1      40.940  27.419  26.428  1.00  0.00     0.029 A 
ATOM     41  C   UNL A   1      41.940  27.020  27.402  1.00  0.00     0.049 A 
ATOM     42  H   UNL A   1      42.174  27.807  29.327  1.00  0.00     0.167 HD
ATOM     43  C   UNL A   1      42.115  28.821  33.522  1.00  0.00     0.037 A 
ATOM     44  C   UNL A   1      42.952  26.121  27.290  1.00  0.00     0.037 A 
ATOM     45  C   UNL A   1      43.120  29.722  33.003  1.00  0.00     0.049 A 
ATOM     46  C   UNL A   1      43.950  26.448  28.341  1.00  0.00     0.074 A 
ATOM     47  C   UNL A   1      43.141  31.075  32.709  1.00  0.00     0.029 A 
ATOM     48  N   UNL A   1      44.186  29.187  32.319  1.00  0.00    -0.354 N 
ATOM     49  N   UNL A   1      44.691  27.521  28.321  1.00  0.00    -0.248 NA
ATOM     50  C   UNL A   1      43.776  25.831  29.648  1.00  0.00     0.031 C 
ATOM     51  C   UNL A   1      43.859  31.171  31.479  1.00  0.00     0.029 A 
ATOM     52  C   UNL A   1      44.312  29.894  31.151  1.00  0.00     0.049 A 
ATOM     53  H   UNL A   1      44.752  28.437  32.613  1.00  0.00     0.167 HD
ATOM     54  C   UNL A   1      44.670  27.976  29.630  1.00  0.00     0.074 A 
ATOM     55  C   UNL A   1      44.166  26.851  30.418  1.00  0.00     0.031 C 
ATOM     56  C   UNL A   1      44.775  29.306  29.918  1.00  0.00     0.037 A 
BRANCH  43  57
ATOM     57  C   UNL A   1      42.459  27.690  34.463  1.00  0.00     0.064 A 
ATOM     58  C   UNL A   1      43.022  26.513  33.927  1.00  0.00     0.173 A 
ATOM     59  C   UNL A   1      41.964  27.579  35.780  1.00  0.00     0.173 A 
ATOM     60  F   UNL A   1      43.519  26.499  32.680  1.00  0.00    -0.203 F 
ATOM     61  C   UNL A   1      42.982  25.298  34.612  1.00  0.00     0.198 A 
ATOM     62  C   UNL A   1      41.975  26.376  36.482  1.00  0.00     0.198 A 
ATOM     63  F   UNL A   1      41.347  28.589  36.402  1.00  0.00    -0.203 F 
ATOM     64  F   UNL A   1      43.390  24.178  34.001  1.00  0.00    -0.200 F 
ATOM     65  C   UNL A   1      42.447  25.228  35.885  1.00  0.00     0.200 A 
ATOM     66  F   UNL A   1      41.436  26.326  37.708  1.00  0.00    -0.200 F 
ATOM     67  F   UNL A   1      42.337  24.051  36.515  1.00  0.00    -0.200 F 
ENDBRANCH  43  57
BRANCH  44  68
ATOM     68  C   UNL A   1      42.993  24.850  26.524  1.00  0.00     0.064 A 
ATOM     69  C   UNL A   1      43.848  24.694  25.418  1.00  0.00     0.173 A 
ATOM     70  C   UNL A   1      42.414  23.670  27.029  1.00  0.00     0.173 A 
ATOM     71  F   UNL A   1      44.480  25.756  24.896  1.00  0.00    -0.203 F 
ATOM     72  C   UNL A   1      44.132  23.435  24.876  1.00  0.00     0.198 A 
ATOM     73  C   UNL A   1      42.691  22.415  26.483  1.00  0.00     0.198 A 
ATOM     74  F   UNL A   1      41.642  23.695  28.125  1.00  0.00    -0.203 F 
ATOM     75  F   UNL A   1      45.007  23.322  23.867  1.00  0.00    -0.200 F 
ATOM     76  C   UNL A   1      43.562  22.295  25.418  1.00  0.00     0.200 A 
ATOM     77  F   UNL A   1      42.160  21.317  27.041  1.00  0.00    -0.200 F 
ATOM     78  F   UNL A   1      43.883  21.083  24.943  1.00  0.00    -0.200 F 
ENDBRANCH  44  68
BRANCH  56  79
ATOM     79  C   UNL A   1      45.188  30.249  28.820  1.00  0.00     0.064 A 
ATOM     80  C   UNL A   1      44.307  30.827  27.888  1.00  0.00     0.173 A 
ATOM     81  C   UNL A   1      46.520  30.687  28.799  1.00  0.00     0.173 A 
ATOM     82  F   UNL A   1      42.998  30.552  27.905  1.00  0.00    -0.203 F 
ATOM     83  C   UNL A   1      44.757  31.755  26.947  1.00  0.00     0.198 A 
ATOM     84  C   UNL A   1      46.956  31.644  27.888  1.00  0.00     0.198 A 
ATOM     85  F   UNL A   1      47.398  30.213  29.697  1.00  0.00    -0.203 F 
ATOM     86  F   UNL A   1      43.901  32.275  26.055  1.00  0.00    -0.200 F 
ATOM     87  C   UNL A   1      46.079  32.168  26.954  1.00  0.00     0.200 A 
ATOM     88  F   UNL A   1      48.223  32.077  27.933  1.00  0.00    -0.200 F 
ATOM     89  F   UNL A   1      46.501  33.086  26.075  1.00  0.00    -0.200 F 
ENDBRANCH  56  79
ENDBRANCH  30  31
ENDBRANCH  22  25
ENDBRANCH  20  21
ENDBRANCH   1  20
TORSDOF 11
ENDMDL
