MODEL 1
REMARK VINA RESULT:     -12.2      0.000      0.000
REMARK SMILES C[C@@H](C(=O)NCCCNC(=O)c1ccc(-c2c3nc(c(-c4c(F)c(F)c(F)c(F)c4F)c4ccc([nH]4)c(-c4c(F)c(F)c(F)c(F)c4F)c4nc(c(-c5c(F)c(F)c(F)c(F)c5F)c5ccc2[nH]5)C=C4)C=C3)cc1)N(C)C(=O)NC[C@H]1C[N@@H+]2CCC[C@@H]2CO1
REMARK SMILES IDX 6 1 5 2 3 3 4 4 2 6 1 7 75 8 76 9 77 10 78 11 79 12 80 14
REMARK SMILES IDX 81 15 82 16 89 17 83 18 88 19 84 20 87 21 85 23 86 24 7 25
REMARK SMILES IDX 8 26 9 27 10 28 11 30 12 31 13 32 74 33 14 34 73 35 15 36
REMARK SMILES IDX 16 37 17 38 67 39 18 40 72 41 66 42 68 43 19 44 71 45 65 46
REMARK SMILES IDX 64 47 20 49 52 50 32 51 51 52 33 53 36 54 50 55 69 56 34 57
REMARK SMILES IDX 35 58 49 60 70 61 37 62 21 63 22 64 30 65 23 66 24 67 28 68
REMARK SMILES IDX 31 69 25 70 26 71 29 72 27 73 53 74 54 75 62 76 55 77 56 78
REMARK SMILES IDX 60 79 63 80 57 81 58 82 61 83 59 84 38 85 39 86 47 87 40 88
REMARK SMILES IDX 41 89 45 90 48 91 42 92 43 93 46 94 44 95
REMARK H PARENT 5 5 79 13 83 22 9 29 68 48 36 59
REMARK Flexibility Score: inf
ROOT
ATOM      1  C   UNL A   1      31.847  30.520  26.218  1.00  0.00     0.117 C 
ENDROOT
BRANCH   1   2
ATOM      2  N   UNL A   1      31.191  30.093  24.998  1.00  0.00    -0.354 N 
ATOM      3  C   UNL A   1      31.642  29.284  23.992  1.00  0.00     0.242 C 
ATOM      4  O   UNL A   1      30.813  28.978  23.131  1.00  0.00    -0.273 OA
ATOM      5  H   UNL A   1      30.279  30.438  24.875  1.00  0.00     0.163 HD
BRANCH   3   6
ATOM      6  C   UNL A   1      33.094  28.735  24.021  1.00  0.00     0.172 C 
ATOM      7  C   UNL A   1      33.881  28.950  22.723  1.00  0.00     0.042 C 
BRANCH   6   8
ATOM      8  N   UNL A   1      33.118  27.323  24.479  1.00  0.00    -0.316 N 
ATOM      9  C   UNL A   1      33.465  26.341  23.467  1.00  0.00     0.149 C 
BRANCH   8  10
ATOM     10  C   UNL A   1      32.867  27.074  25.801  1.00  0.00     0.317 C 
ATOM     11  O   UNL A   1      33.604  27.486  26.702  1.00  0.00    -0.249 OA
ATOM     12  N   UNL A   1      31.783  26.410  26.233  1.00  0.00    -0.335 N 
ATOM     13  H   UNL A   1      31.746  26.391  27.217  1.00  0.00     0.165 HD
BRANCH  12  14
ATOM     14  C   UNL A   1      30.648  25.710  25.650  1.00  0.00     0.155 C 
BRANCH  14  15
ATOM     15  C   UNL A   1      30.633  24.210  25.994  1.00  0.00     0.192 C 
ATOM     16  C   UNL A   1      31.181  23.323  24.839  1.00  0.00     0.296 C 
ATOM     17  O   UNL A   1      31.329  24.039  27.251  1.00  0.00    -0.364 OA
ATOM     18  N   UNL A   1      32.649  23.253  24.795  1.00  0.00    -0.328 N 
ATOM     19  C   UNL A   1      32.181  22.889  27.264  1.00  0.00     0.225 C 
ATOM     20  C   UNL A   1      33.131  22.222  23.866  1.00  0.00     0.262 C 
ATOM     21  C   UNL A   1      33.219  22.975  26.135  1.00  0.00     0.210 C 
ATOM     22  H   UNL A   1      32.959  24.168  24.468  1.00  0.00     0.348 HD
ATOM     23  C   UNL A   1      34.396  21.685  24.511  1.00  0.00     0.068 C 
ATOM     24  C   UNL A   1      34.047  21.704  25.986  1.00  0.00     0.073 C 
ENDBRANCH  14  15
ENDBRANCH  12  14
ENDBRANCH   8  10
ENDBRANCH   6   8
ENDBRANCH   3   6
ENDBRANCH   1   2
BRANCH   1  25
ATOM     25  C   UNL A   1      31.613  31.999  26.501  1.00  0.00     0.042 C 
BRANCH  25  26
ATOM     26  C   UNL A   1      32.755  32.664  27.260  1.00  0.00     0.118 C 
BRANCH  26  27
ATOM     27  N   UNL A   1      32.469  34.052  27.602  1.00  0.00    -0.352 N 
ATOM     28  C   UNL A   1      33.019  34.842  28.581  1.00  0.00     0.251 C 
ATOM     29  H   UNL A   1      31.780  34.488  27.050  1.00  0.00     0.163 HD
ATOM     30  O   UNL A   1      32.526  35.936  28.845  1.00  0.00    -0.269 OA
BRANCH  28  31
ATOM     31  C   UNL A   1      34.198  34.365  29.332  1.00  0.00     0.039 A 
ATOM     32  C   UNL A   1      34.014  33.703  30.549  1.00  0.00     0.014 A 
ATOM     33  C   UNL A   1      35.484  34.569  28.828  1.00  0.00     0.014 A 
ATOM     34  C   UNL A   1      35.117  33.180  31.226  1.00  0.00     0.010 A 
ATOM     35  C   UNL A   1      36.570  33.974  29.457  1.00  0.00     0.010 A 
ATOM     36  C   UNL A   1      36.400  33.280  30.666  1.00  0.00    -0.014 A 
BRANCH  36  37
ATOM     37  C   UNL A   1      37.598  32.698  31.321  1.00  0.00     0.031 A 
ATOM     38  C   UNL A   1      38.308  31.547  30.668  1.00  0.00     0.074 A 
ATOM     39  C   UNL A   1      37.973  33.121  32.543  1.00  0.00     0.049 A 
ATOM     40  N   UNL A   1      39.246  30.770  31.144  1.00  0.00    -0.248 NA
ATOM     41  C   UNL A   1      37.871  31.201  29.307  1.00  0.00     0.031 C 
ATOM     42  C   UNL A   1      37.344  34.209  33.292  1.00  0.00     0.029 A 
ATOM     43  N   UNL A   1      38.956  32.661  33.383  1.00  0.00    -0.354 N 
ATOM     44  C   UNL A   1      39.488  29.826  30.156  1.00  0.00     0.074 A 
ATOM     45  C   UNL A   1      38.560  30.094  29.077  1.00  0.00     0.031 C 
ATOM     46  C   UNL A   1      37.957  34.334  34.480  1.00  0.00     0.029 A 
ATOM     47  C   UNL A   1      38.984  33.303  34.596  1.00  0.00     0.049 A 
ATOM     48  H   UNL A   1      39.581  31.940  33.139  1.00  0.00     0.167 HD
ATOM     49  C   UNL A   1      40.411  28.836  30.141  1.00  0.00     0.037 A 
ATOM     50  C   UNL A   1      39.735  33.067  35.690  1.00  0.00     0.037 A 
ATOM     51  C   UNL A   1      41.341  28.589  31.212  1.00  0.00     0.049 A 
ATOM     52  C   UNL A   1      40.745  31.952  35.663  1.00  0.00     0.074 A 
ATOM     53  C   UNL A   1      42.352  27.649  31.277  1.00  0.00     0.029 A 
ATOM     54  N   UNL A   1      41.364  29.287  32.411  1.00  0.00    -0.354 N 
ATOM     55  N   UNL A   1      41.005  31.095  34.704  1.00  0.00    -0.248 NA
ATOM     56  C   UNL A   1      41.568  31.771  36.867  1.00  0.00     0.031 C 
ATOM     57  C   UNL A   1      42.950  27.739  32.537  1.00  0.00     0.029 A 
ATOM     58  C   UNL A   1      42.358  28.782  33.233  1.00  0.00     0.049 A 
ATOM     59  H   UNL A   1      40.762  30.031  32.644  1.00  0.00     0.167 HD
ATOM     60  C   UNL A   1      42.044  30.302  35.171  1.00  0.00     0.074 A 
ATOM     61  C   UNL A   1      42.366  30.776  36.501  1.00  0.00     0.031 C 
ATOM     62  C   UNL A   1      42.679  29.279  34.548  1.00  0.00     0.037 A 
BRANCH  49  63
ATOM     63  C   UNL A   1      40.443  27.939  28.935  1.00  0.00     0.064 A 
ATOM     64  C   UNL A   1      41.231  28.236  27.811  1.00  0.00     0.173 A 
ATOM     65  C   UNL A   1      39.670  26.769  28.899  1.00  0.00     0.173 A 
ATOM     66  F   UNL A   1      41.982  29.346  27.787  1.00  0.00    -0.203 F 
ATOM     67  C   UNL A   1      41.203  27.424  26.679  1.00  0.00     0.198 A 
ATOM     68  C   UNL A   1      39.676  25.938  27.781  1.00  0.00     0.198 A 
ATOM     69  F   UNL A   1      38.905  26.430  29.948  1.00  0.00    -0.203 F 
ATOM     70  F   UNL A   1      41.906  27.770  25.592  1.00  0.00    -0.200 F 
ATOM     71  C   UNL A   1      40.430  26.273  26.667  1.00  0.00     0.200 A 
ATOM     72  F   UNL A   1      38.940  24.817  27.778  1.00  0.00    -0.200 F 
ATOM     73  F   UNL A   1      40.402  25.494  25.577  1.00  0.00    -0.200 F 
ENDBRANCH  49  63
BRANCH  50  74
ATOM     74  C   UNL A   1      39.563  33.923  36.893  1.00  0.00     0.064 A 
ATOM     75  C   UNL A   1      40.161  35.188  36.968  1.00  0.00     0.173 A 
ATOM     76  C   UNL A   1      38.774  33.509  37.978  1.00  0.00     0.173 A 
ATOM     77  F   UNL A   1      40.940  35.620  35.965  1.00  0.00    -0.203 F 
ATOM     78  C   UNL A   1      39.984  36.003  38.084  1.00  0.00     0.198 A 
ATOM     79  C   UNL A   1      38.574  34.337  39.080  1.00  0.00     0.198 A 
ATOM     80  F   UNL A   1      38.173  32.310  37.951  1.00  0.00    -0.203 F 
ATOM     81  F   UNL A   1      40.594  37.194  38.143  1.00  0.00    -0.200 F 
ATOM     82  C   UNL A   1      39.184  35.580  39.135  1.00  0.00     0.200 A 
ATOM     83  F   UNL A   1      37.786  33.932  40.086  1.00  0.00    -0.200 F 
ATOM     84  F   UNL A   1      39.002  36.371  40.201  1.00  0.00    -0.200 F 
ENDBRANCH  50  74
BRANCH  62  85
ATOM     85  C   UNL A   1      43.832  28.634  35.262  1.00  0.00     0.064 A 
ATOM     86  C   UNL A   1      45.147  29.098  35.123  1.00  0.00     0.173 A 
ATOM     87  C   UNL A   1      43.597  27.585  36.167  1.00  0.00     0.173 A 
ATOM     88  F   UNL A   1      45.427  30.086  34.261  1.00  0.00    -0.203 F 
ATOM     89  C   UNL A   1      46.187  28.527  35.854  1.00  0.00     0.198 A 
ATOM     90  C   UNL A   1      44.633  27.040  36.918  1.00  0.00     0.198 A 
ATOM     91  F   UNL A   1      42.355  27.109  36.342  1.00  0.00    -0.203 F 
ATOM     92  F   UNL A   1      47.443  28.964  35.680  1.00  0.00    -0.200 F 
ATOM     93  C   UNL A   1      45.928  27.508  36.758  1.00  0.00     0.200 A 
ATOM     94  F   UNL A   1      44.377  26.067  37.804  1.00  0.00    -0.200 F 
ATOM     95  F   UNL A   1      46.927  26.977  37.476  1.00  0.00    -0.200 F 
ENDBRANCH  62  85
ENDBRANCH  36  37
ENDBRANCH  28  31
ENDBRANCH  26  27
ENDBRANCH  25  26
ENDBRANCH   1  25
TORSDOF 14
ENDMDL
MODEL 2
REMARK VINA RESULT:     -12.1      5.586     11.183
REMARK SMILES C[C@@H](C(=O)NCCCNC(=O)c1ccc(-c2c3nc(c(-c4c(F)c(F)c(F)c(F)c4F)c4ccc([nH]4)c(-c4c(F)c(F)c(F)c(F)c4F)c4nc(c(-c5c(F)c(F)c(F)c(F)c5F)c5ccc2[nH]5)C=C4)C=C3)cc1)N(C)C(=O)NC[C@H]1C[N@@H+]2CCC[C@@H]2CO1
REMARK SMILES IDX 6 1 5 2 3 3 4 4 2 6 1 7 75 8 76 9 77 10 78 11 79 12 80 14
REMARK SMILES IDX 81 15 82 16 89 17 83 18 88 19 84 20 87 21 85 23 86 24 7 25
REMARK SMILES IDX 8 26 9 27 10 28 11 30 12 31 13 32 74 33 14 34 73 35 15 36
REMARK SMILES IDX 16 37 17 38 67 39 18 40 72 41 66 42 68 43 19 44 71 45 65 46
REMARK SMILES IDX 64 47 20 49 52 50 32 51 51 52 33 53 36 54 50 55 69 56 34 57
REMARK SMILES IDX 35 58 49 60 70 61 37 62 21 63 22 64 30 65 23 66 24 67 28 68
REMARK SMILES IDX 31 69 25 70 26 71 29 72 27 73 53 74 54 75 62 76 55 77 56 78
REMARK SMILES IDX 60 79 63 80 57 81 58 82 61 83 59 84 38 85 39 86 47 87 40 88
REMARK SMILES IDX 41 89 45 90 48 91 42 92 43 93 46 94 44 95
REMARK H PARENT 5 5 79 13 83 22 9 29 68 48 36 59
REMARK Flexibility Score: inf
ROOT
ATOM      1  C   UNL A   1      36.889  20.845  24.994  1.00  0.00     0.117 C 
ENDROOT
BRANCH   1   2
ATOM      2  N   UNL A   1      35.568  20.250  25.007  1.00  0.00    -0.354 N 
ATOM      3  C   UNL A   1      34.392  20.724  25.520  1.00  0.00     0.242 C 
ATOM      4  O   UNL A   1      33.384  20.059  25.269  1.00  0.00    -0.273 OA
ATOM      5  H   UNL A   1      35.507  19.366  24.580  1.00  0.00     0.163 HD
BRANCH   3   6
ATOM      6  C   UNL A   1      34.363  22.071  26.291  1.00  0.00     0.172 C 
ATOM      7  C   UNL A   1      33.695  22.000  27.670  1.00  0.00     0.042 C 
BRANCH   6   8
ATOM      8  N   UNL A   1      33.811  23.157  25.442  1.00  0.00    -0.316 N 
ATOM      9  C   UNL A   1      32.409  23.468  25.655  1.00  0.00     0.149 C 
BRANCH   8  10
ATOM     10  C   UNL A   1      34.665  23.796  24.585  1.00  0.00     0.317 C 
ATOM     11  O   UNL A   1      35.803  24.140  24.920  1.00  0.00    -0.249 OA
ATOM     12  N   UNL A   1      34.363  24.058  23.303  1.00  0.00    -0.335 N 
ATOM     13  H   UNL A   1      35.129  24.461  22.832  1.00  0.00     0.165 HD
BRANCH  12  14
ATOM     14  C   UNL A   1      33.218  23.911  22.417  1.00  0.00     0.155 C 
BRANCH  14  15
ATOM     15  C   UNL A   1      32.709  25.259  21.874  1.00  0.00     0.192 C 
ATOM     16  C   UNL A   1      31.565  25.863  22.738  1.00  0.00     0.296 C 
ATOM     17  O   UNL A   1      33.854  26.130  21.715  1.00  0.00    -0.364 OA
ATOM     18  N   UNL A   1      32.043  26.575  23.932  1.00  0.00    -0.328 N 
ATOM     19  C   UNL A   1      33.592  27.474  22.132  1.00  0.00     0.225 C 
ATOM     20  C   UNL A   1      30.975  27.343  24.587  1.00  0.00     0.262 C 
ATOM     21  C   UNL A   1      33.149  27.505  23.603  1.00  0.00     0.210 C 
ATOM     22  H   UNL A   1      32.373  25.852  24.571  1.00  0.00     0.348 HD
ATOM     23  C   UNL A   1      31.670  28.575  25.137  1.00  0.00     0.068 C 
ATOM     24  C   UNL A   1      32.691  28.885  24.061  1.00  0.00     0.073 C 
ENDBRANCH  14  15
ENDBRANCH  12  14
ENDBRANCH   8  10
ENDBRANCH   6   8
ENDBRANCH   3   6
ENDBRANCH   1   2
BRANCH   1  25
ATOM     25  C   UNL A   1      37.988  19.790  25.008  1.00  0.00     0.042 C 
BRANCH  25  26
ATOM     26  C   UNL A   1      39.239  20.221  25.763  1.00  0.00     0.118 C 
BRANCH  26  27
ATOM     27  N   UNL A   1      40.227  19.154  25.870  1.00  0.00    -0.352 N 
ATOM     28  C   UNL A   1      41.583  19.236  26.070  1.00  0.00     0.251 C 
ATOM     29  H   UNL A   1      39.870  18.241  25.787  1.00  0.00     0.163 HD
ATOM     30  O   UNL A   1      42.288  18.237  25.951  1.00  0.00    -0.269 OA
BRANCH  28  31
ATOM     31  C   UNL A   1      42.198  20.535  26.411  1.00  0.00     0.039 A 
ATOM     32  C   UNL A   1      42.681  21.354  25.386  1.00  0.00     0.014 A 
ATOM     33  C   UNL A   1      42.291  20.942  27.743  1.00  0.00     0.014 A 
ATOM     34  C   UNL A   1      43.191  22.617  25.693  1.00  0.00     0.010 A 
ATOM     35  C   UNL A   1      42.718  22.230  28.039  1.00  0.00     0.010 A 
ATOM     36  C   UNL A   1      43.179  23.078  27.019  1.00  0.00    -0.014 A 
BRANCH  36  37
ATOM     37  C   UNL A   1      43.665  24.430  27.391  1.00  0.00     0.031 A 
ATOM     38  C   UNL A   1      42.689  25.445  27.916  1.00  0.00     0.074 A 
ATOM     39  C   UNL A   1      44.942  24.780  27.151  1.00  0.00     0.049 A 
ATOM     40  N   UNL A   1      42.851  26.726  28.122  1.00  0.00    -0.248 NA
ATOM     41  C   UNL A   1      41.334  24.952  28.210  1.00  0.00     0.031 C 
ATOM     42  C   UNL A   1      45.976  23.894  26.615  1.00  0.00     0.029 A 
ATOM     43  N   UNL A   1      45.579  25.987  27.296  1.00  0.00    -0.354 N 
ATOM     44  C   UNL A   1      41.613  27.197  28.538  1.00  0.00     0.074 A 
ATOM     45  C   UNL A   1      40.698  26.076  28.502  1.00  0.00     0.031 C 
ATOM     46  C   UNL A   1      47.118  24.587  26.477  1.00  0.00     0.029 A 
ATOM     47  C   UNL A   1      46.883  25.975  26.865  1.00  0.00     0.049 A 
ATOM     48  H   UNL A   1      45.143  26.786  27.673  1.00  0.00     0.167 HD
ATOM     49  C   UNL A   1      41.274  28.448  28.931  1.00  0.00     0.037 A 
ATOM     50  C   UNL A   1      47.778  26.977  26.767  1.00  0.00     0.037 A 
ATOM     51  C   UNL A   1      42.196  29.552  28.979  1.00  0.00     0.049 A 
ATOM     52  C   UNL A   1      47.380  28.364  27.192  1.00  0.00     0.074 A 
ATOM     53  C   UNL A   1      41.972  30.846  29.412  1.00  0.00     0.029 A 
ATOM     54  N   UNL A   1      43.521  29.490  28.570  1.00  0.00    -0.354 N 
ATOM     55  N   UNL A   1      46.222  28.792  27.634  1.00  0.00    -0.248 NA
ATOM     56  C   UNL A   1      48.412  29.407  27.108  1.00  0.00     0.031 C 
ATOM     57  C   UNL A   1      43.143  31.581  29.213  1.00  0.00     0.029 A 
ATOM     58  C   UNL A   1      44.120  30.730  28.719  1.00  0.00     0.049 A 
ATOM     59  H   UNL A   1      43.969  28.683  28.225  1.00  0.00     0.167 HD
ATOM     60  C   UNL A   1      46.395  30.141  27.918  1.00  0.00     0.074 A 
ATOM     61  C   UNL A   1      47.770  30.461  27.594  1.00  0.00     0.031 C 
ATOM     62  C   UNL A   1      45.496  31.028  28.411  1.00  0.00     0.037 A 
BRANCH  49  63
ATOM     63  C   UNL A   1      39.841  28.685  29.320  1.00  0.00     0.064 A 
ATOM     64  C   UNL A   1      38.886  29.134  28.394  1.00  0.00     0.173 A 
ATOM     65  C   UNL A   1      39.418  28.466  30.639  1.00  0.00     0.173 A 
ATOM     66  F   UNL A   1      39.237  29.369  27.121  1.00  0.00    -0.203 F 
ATOM     67  C   UNL A   1      37.577  29.403  28.786  1.00  0.00     0.198 A 
ATOM     68  C   UNL A   1      38.098  28.698  31.018  1.00  0.00     0.198 A 
ATOM     69  F   UNL A   1      40.284  28.028  31.565  1.00  0.00    -0.203 F 
ATOM     70  F   UNL A   1      36.704  29.903  27.899  1.00  0.00    -0.200 F 
ATOM     71  C   UNL A   1      37.182  29.180  30.096  1.00  0.00     0.200 A 
ATOM     72  F   UNL A   1      37.715  28.466  32.282  1.00  0.00    -0.200 F 
ATOM     73  F   UNL A   1      35.923  29.442  30.472  1.00  0.00    -0.200 F 
ENDBRANCH  49  63
BRANCH  50  74
ATOM     74  C   UNL A   1      49.145  26.689  26.258  1.00  0.00     0.064 A 
ATOM     75  C   UNL A   1      50.122  26.132  27.094  1.00  0.00     0.173 A 
ATOM     76  C   UNL A   1      49.493  26.933  24.920  1.00  0.00     0.173 A 
ATOM     77  F   UNL A   1      49.842  25.898  28.385  1.00  0.00    -0.203 F 
ATOM     78  C   UNL A   1      51.397  25.840  26.616  1.00  0.00     0.198 A 
ATOM     79  C   UNL A   1      50.759  26.613  24.436  1.00  0.00     0.198 A 
ATOM     80  F   UNL A   1      48.592  27.456  24.077  1.00  0.00    -0.203 F 
ATOM     81  F   UNL A   1      52.322  25.339  27.446  1.00  0.00    -0.200 F 
ATOM     82  C   UNL A   1      51.712  26.071  25.286  1.00  0.00     0.200 A 
ATOM     83  F   UNL A   1      51.054  26.822  23.146  1.00  0.00    -0.200 F 
ATOM     84  F   UNL A   1      52.934  25.775  24.823  1.00  0.00    -0.200 F 
ENDBRANCH  50  74
BRANCH  62  85
ATOM     85  C   UNL A   1      45.977  32.423  28.695  1.00  0.00     0.064 A 
ATOM     86  C   UNL A   1      45.879  33.451  27.748  1.00  0.00     0.173 A 
ATOM     87  C   UNL A   1      46.467  32.748  29.971  1.00  0.00     0.173 A 
ATOM     88  F   UNL A   1      45.432  33.190  26.510  1.00  0.00    -0.203 F 
ATOM     89  C   UNL A   1      46.265  34.752  28.063  1.00  0.00     0.198 A 
ATOM     90  C   UNL A   1      46.821  34.055  30.291  1.00  0.00     0.198 A 
ATOM     91  F   UNL A   1      46.574  31.802  30.915  1.00  0.00    -0.203 F 
ATOM     92  F   UNL A   1      46.194  35.713  27.131  1.00  0.00    -0.200 F 
ATOM     93  C   UNL A   1      46.724  35.055  29.336  1.00  0.00     0.200 A 
ATOM     94  F   UNL A   1      47.248  34.348  31.527  1.00  0.00    -0.200 F 
ATOM     95  F   UNL A   1      47.073  36.312  29.643  1.00  0.00    -0.200 F 
ENDBRANCH  62  85
ENDBRANCH  36  37
ENDBRANCH  28  31
ENDBRANCH  26  27
ENDBRANCH  25  26
ENDBRANCH   1  25
TORSDOF 14
ENDMDL
MODEL 3
REMARK VINA RESULT:     -12.1      5.571     11.107
REMARK SMILES C[C@@H](C(=O)NCCCNC(=O)c1ccc(-c2c3nc(c(-c4c(F)c(F)c(F)c(F)c4F)c4ccc([nH]4)c(-c4c(F)c(F)c(F)c(F)c4F)c4nc(c(-c5c(F)c(F)c(F)c(F)c5F)c5ccc2[nH]5)C=C4)C=C3)cc1)N(C)C(=O)NC[C@H]1C[N@@H+]2CCC[C@@H]2CO1
REMARK SMILES IDX 6 1 5 2 3 3 4 4 2 6 1 7 75 8 76 9 77 10 78 11 79 12 80 14
REMARK SMILES IDX 81 15 82 16 89 17 83 18 88 19 84 20 87 21 85 23 86 24 7 25
REMARK SMILES IDX 8 26 9 27 10 28 11 30 12 31 13 32 74 33 14 34 73 35 15 36
REMARK SMILES IDX 16 37 17 38 67 39 18 40 72 41 66 42 68 43 19 44 71 45 65 46
REMARK SMILES IDX 64 47 20 49 52 50 32 51 51 52 33 53 36 54 50 55 69 56 34 57
REMARK SMILES IDX 35 58 49 60 70 61 37 62 21 63 22 64 30 65 23 66 24 67 28 68
REMARK SMILES IDX 31 69 25 70 26 71 29 72 27 73 53 74 54 75 62 76 55 77 56 78
REMARK SMILES IDX 60 79 63 80 57 81 58 82 61 83 59 84 38 85 39 86 47 87 40 88
REMARK SMILES IDX 41 89 45 90 48 91 42 92 43 93 46 94 44 95
REMARK H PARENT 5 5 79 13 83 22 9 29 68 48 36 59
REMARK Flexibility Score: inf
ROOT
ATOM      1  C   UNL A   1      36.855  20.881  25.009  1.00  0.00     0.117 C 
ENDROOT
BRANCH   1   2
ATOM      2  N   UNL A   1      35.536  20.281  25.006  1.00  0.00    -0.354 N 
ATOM      3  C   UNL A   1      34.362  20.727  25.548  1.00  0.00     0.242 C 
ATOM      4  O   UNL A   1      33.354  20.071  25.275  1.00  0.00    -0.273 OA
ATOM      5  H   UNL A   1      35.474  19.417  24.540  1.00  0.00     0.163 HD
BRANCH   3   6
ATOM      6  C   UNL A   1      34.335  22.038  26.380  1.00  0.00     0.172 C 
ATOM      7  C   UNL A   1      33.660  21.907  27.751  1.00  0.00     0.042 C 
BRANCH   6   8
ATOM      8  N   UNL A   1      33.791  23.163  25.579  1.00  0.00    -0.316 N 
ATOM      9  C   UNL A   1      32.383  23.455  25.782  1.00  0.00     0.149 C 
BRANCH   8  10
ATOM     10  C   UNL A   1      34.655  23.851  24.772  1.00  0.00     0.317 C 
ATOM     11  O   UNL A   1      35.739  24.281  25.179  1.00  0.00    -0.249 OA
ATOM     12  N   UNL A   1      34.427  24.074  23.468  1.00  0.00    -0.335 N 
ATOM     13  H   UNL A   1      35.193  24.526  23.044  1.00  0.00     0.165 HD
BRANCH  12  14
ATOM     14  C   UNL A   1      33.360  23.834  22.507  1.00  0.00     0.155 C 
BRANCH  14  15
ATOM     15  C   UNL A   1      32.764  25.136  21.941  1.00  0.00     0.192 C 
ATOM     16  C   UNL A   1      31.590  25.684  22.801  1.00  0.00     0.296 C 
ATOM     17  O   UNL A   1      33.851  26.073  21.756  1.00  0.00    -0.364 OA
ATOM     18  N   UNL A   1      32.029  26.448  23.978  1.00  0.00    -0.328 N 
ATOM     19  C   UNL A   1      33.508  27.406  22.149  1.00  0.00     0.225 C 
ATOM     20  C   UNL A   1      30.920  27.161  24.625  1.00  0.00     0.262 C 
ATOM     21  C   UNL A   1      33.073  27.440  23.621  1.00  0.00     0.210 C 
ATOM     22  H   UNL A   1      32.409  25.761  24.629  1.00  0.00     0.348 HD
ATOM     23  C   UNL A   1      31.539  28.445  25.145  1.00  0.00     0.068 C 
ATOM     24  C   UNL A   1      32.532  28.798  24.055  1.00  0.00     0.073 C 
ENDBRANCH  14  15
ENDBRANCH  12  14
ENDBRANCH   8  10
ENDBRANCH   6   8
ENDBRANCH   3   6
ENDBRANCH   1   2
BRANCH   1  25
ATOM     25  C   UNL A   1      37.958  19.830  25.007  1.00  0.00     0.042 C 
BRANCH  25  26
ATOM     26  C   UNL A   1      39.213  20.259  25.756  1.00  0.00     0.118 C 
BRANCH  26  27
ATOM     27  N   UNL A   1      40.200  19.191  25.858  1.00  0.00    -0.352 N 
ATOM     28  C   UNL A   1      41.555  19.270  26.066  1.00  0.00     0.251 C 
ATOM     29  H   UNL A   1      39.843  18.278  25.764  1.00  0.00     0.163 HD
ATOM     30  O   UNL A   1      42.260  18.272  25.941  1.00  0.00    -0.269 OA
BRANCH  28  31
ATOM     31  C   UNL A   1      42.168  20.565  26.424  1.00  0.00     0.039 A 
ATOM     32  C   UNL A   1      42.651  21.398  25.410  1.00  0.00     0.014 A 
ATOM     33  C   UNL A   1      42.258  20.956  27.761  1.00  0.00     0.014 A 
ATOM     34  C   UNL A   1      43.160  22.657  25.734  1.00  0.00     0.010 A 
ATOM     35  C   UNL A   1      42.684  22.240  28.074  1.00  0.00     0.010 A 
ATOM     36  C   UNL A   1      43.146  23.102  27.065  1.00  0.00    -0.014 A 
BRANCH  36  37
ATOM     37  C   UNL A   1      43.630  24.450  27.455  1.00  0.00     0.031 A 
ATOM     38  C   UNL A   1      42.645  25.470  27.952  1.00  0.00     0.074 A 
ATOM     39  C   UNL A   1      44.916  24.791  27.254  1.00  0.00     0.049 A 
ATOM     40  N   UNL A   1      42.810  26.750  28.165  1.00  0.00    -0.248 NA
ATOM     41  C   UNL A   1      41.279  24.987  28.203  1.00  0.00     0.031 C 
ATOM     42  C   UNL A   1      45.960  23.898  26.749  1.00  0.00     0.029 A 
ATOM     43  N   UNL A   1      45.557  25.993  27.421  1.00  0.00    -0.354 N 
ATOM     44  C   UNL A   1      41.564  27.230  28.544  1.00  0.00     0.074 A 
ATOM     45  C   UNL A   1      40.643  26.115  28.478  1.00  0.00     0.031 C 
ATOM     46  C   UNL A   1      47.110  24.583  26.647  1.00  0.00     0.029 A 
ATOM     47  C   UNL A   1      46.873  25.972  27.030  1.00  0.00     0.049 A 
ATOM     48  H   UNL A   1      45.116  26.794  27.787  1.00  0.00     0.167 HD
ATOM     49  C   UNL A   1      41.222  28.482  28.929  1.00  0.00     0.037 A 
ATOM     50  C   UNL A   1      47.778  26.967  26.961  1.00  0.00     0.037 A 
ATOM     51  C   UNL A   1      42.150  29.579  29.007  1.00  0.00     0.049 A 
ATOM     52  C   UNL A   1      47.377  28.357  27.377  1.00  0.00     0.074 A 
ATOM     53  C   UNL A   1      41.922  30.873  29.437  1.00  0.00     0.029 A 
ATOM     54  N   UNL A   1      43.486  29.508  28.639  1.00  0.00    -0.354 N 
ATOM     55  N   UNL A   1      46.210  28.793  27.785  1.00  0.00    -0.248 NA
ATOM     56  C   UNL A   1      48.419  29.392  27.326  1.00  0.00     0.031 C 
ATOM     57  C   UNL A   1      43.104  31.601  29.274  1.00  0.00     0.029 A 
ATOM     58  C   UNL A   1      44.089  30.744  28.809  1.00  0.00     0.049 A 
ATOM     59  H   UNL A   1      43.939  28.699  28.306  1.00  0.00     0.167 HD
ATOM     60  C   UNL A   1      46.384  30.139  28.076  1.00  0.00     0.074 A 
ATOM     61  C   UNL A   1      47.770  30.450  27.795  1.00  0.00     0.031 C 
ATOM     62  C   UNL A   1      45.477  31.032  28.543  1.00  0.00     0.037 A 
BRANCH  49  63
ATOM     63  C   UNL A   1      39.780  28.728  29.275  1.00  0.00     0.064 A 
ATOM     64  C   UNL A   1      38.858  29.192  28.323  1.00  0.00     0.173 A 
ATOM     65  C   UNL A   1      39.314  28.503  30.579  1.00  0.00     0.173 A 
ATOM     66  F   UNL A   1      39.251  29.434  27.063  1.00  0.00    -0.203 F 
ATOM     67  C   UNL A   1      37.539  29.471  28.676  1.00  0.00     0.198 A 
ATOM     68  C   UNL A   1      37.984  28.744  30.918  1.00  0.00     0.198 A 
ATOM     69  F   UNL A   1      40.146  28.051  31.528  1.00  0.00    -0.203 F 
ATOM     70  F   UNL A   1      36.699  29.985  27.766  1.00  0.00    -0.200 F 
ATOM     71  C   UNL A   1      37.102  29.241  29.970  1.00  0.00     0.200 A 
ATOM     72  F   UNL A   1      37.560  28.506  32.167  1.00  0.00    -0.200 F 
ATOM     73  F   UNL A   1      35.834  29.511  30.309  1.00  0.00    -0.200 F 
ENDBRANCH  49  63
BRANCH  50  74
ATOM     74  C   UNL A   1      49.158  26.670  26.494  1.00  0.00     0.064 A 
ATOM     75  C   UNL A   1      49.519  26.855  25.152  1.00  0.00     0.173 A 
ATOM     76  C   UNL A   1      50.150  26.228  27.381  1.00  0.00     0.173 A 
ATOM     77  F   UNL A   1      48.600  27.259  24.262  1.00  0.00    -0.203 F 
ATOM     78  C   UNL A   1      50.816  26.600  24.714  1.00  0.00     0.198 A 
ATOM     79  C   UNL A   1      51.455  26.001  26.948  1.00  0.00     0.198 A 
ATOM     80  F   UNL A   1      49.858  26.043  28.677  1.00  0.00    -0.203 F 
ATOM     81  F   UNL A   1      51.125  26.753  23.419  1.00  0.00    -0.200 F 
ATOM     82  C   UNL A   1      51.785  26.182  25.614  1.00  0.00     0.200 A 
ATOM     83  F   UNL A   1      52.393  25.614  27.824  1.00  0.00    -0.200 F 
ATOM     84  F   UNL A   1      53.037  25.951  25.194  1.00  0.00    -0.200 F 
ENDBRANCH  50  74
BRANCH  62  85
ATOM     85  C   UNL A   1      45.958  32.423  28.845  1.00  0.00     0.064 A 
ATOM     86  C   UNL A   1      46.514  32.765  30.085  1.00  0.00     0.173 A 
ATOM     87  C   UNL A   1      45.936  33.405  27.840  1.00  0.00     0.173 A 
ATOM     88  F   UNL A   1      46.546  31.868  31.082  1.00  0.00    -0.203 F 
ATOM     89  C   UNL A   1      47.020  34.043  30.313  1.00  0.00     0.198 A 
ATOM     90  C   UNL A   1      46.470  34.670  28.062  1.00  0.00     0.198 A 
ATOM     91  F   UNL A   1      45.420  33.126  26.634  1.00  0.00    -0.203 F 
ATOM     92  F   UNL A   1      47.516  34.359  31.517  1.00  0.00    -0.200 F 
ATOM     93  C   UNL A   1      47.008  34.990  29.299  1.00  0.00     0.200 A 
ATOM     94  F   UNL A   1      46.473  35.577  27.075  1.00  0.00    -0.200 F 
ATOM     95  F   UNL A   1      47.515  36.211  29.515  1.00  0.00    -0.200 F 
ENDBRANCH  62  85
ENDBRANCH  36  37
ENDBRANCH  28  31
ENDBRANCH  26  27
ENDBRANCH  25  26
ENDBRANCH   1  25
TORSDOF 14
ENDMDL
