MODEL 1
REMARK VINA RESULT:     -12.7      0.000      0.000
REMARK SMILES O=C(CC1(NC(=O)Cc2ccc(F)cc2F)CCCC1)NCCCNC(=O)c1ccc(-c2c3nc(c(-c4c(F)c(F)c(F)c(F)c4F)c4ccc([nH]4)c(-c4c(F)c(F)c(F)c(F)c4F)c4nc(c(-c5c(F)c(F)c(F)c(F)c5F)c5ccc2[nH]5)C=C4)C=C3)cc1
REMARK SMILES IDX 22 1 21 2 1 3 2 4 3 6 4 7 17 8 20 9 18 10 19 11 5 12 6 13
REMARK SMILES IDX 7 15 8 16 9 17 10 18 15 19 11 20 14 21 16 22 12 23 13 24
REMARK SMILES IDX 23 25 24 26 25 27 26 28 27 30 28 31 29 32 90 33 30 34 89 35
REMARK SMILES IDX 31 36 32 37 33 38 83 39 34 40 88 41 82 42 84 43 35 44 87 45
REMARK SMILES IDX 81 46 80 47 36 49 68 50 48 51 67 52 49 53 52 54 66 55 85 56
REMARK SMILES IDX 50 57 51 58 65 60 86 61 53 62 37 63 38 64 46 65 39 66 40 67
REMARK SMILES IDX 44 68 47 69 41 70 42 71 45 72 43 73 69 74 70 75 78 76 71 77
REMARK SMILES IDX 72 78 76 79 79 80 73 81 74 82 77 83 75 84 54 85 55 86 63 87
REMARK SMILES IDX 56 88 57 89 61 90 64 91 58 92 59 93 62 94 60 95
REMARK H PARENT 21 5 5 14 25 29 84 48 52 59
REMARK Flexibility Score: inf
ROOT
ATOM      1  C   UNL A   1      37.349  21.651  24.267  1.00  0.00     0.117 C 
ENDROOT
BRANCH   1   2
ATOM      2  N   UNL A   1      36.085  22.112  24.791  1.00  0.00    -0.356 N 
ATOM      3  O   UNL A   1      36.836  23.885  26.051  1.00  0.00    -0.275 OA
ATOM      4  C   UNL A   1      35.946  23.115  25.718  1.00  0.00     0.222 C 
ATOM      5  H   UNL A   1      35.266  21.677  24.459  1.00  0.00     0.163 HD
BRANCH   4   6
ATOM      6  C   UNL A   1      34.577  23.096  26.362  1.00  0.00     0.128 C 
BRANCH   6   7
ATOM      7  C   UNL A   1      33.500  24.001  25.735  1.00  0.00     0.049 C 
ATOM      8  C   UNL A   1      32.264  24.112  26.663  1.00  0.00     0.029 C 
ATOM      9  C   UNL A   1      33.956  25.489  25.688  1.00  0.00     0.029 C 
ATOM     10  C   UNL A   1      31.603  25.443  26.343  1.00  0.00     0.003 C 
ATOM     11  C   UNL A   1      32.744  26.373  25.982  1.00  0.00     0.003 C 
BRANCH   7  12
ATOM     12  N   UNL A   1      33.077  23.616  24.365  1.00  0.00    -0.350 N 
ATOM     13  C   UNL A   1      32.854  22.421  23.737  1.00  0.00     0.224 C 
ATOM     14  H   UNL A   1      32.922  24.392  23.779  1.00  0.00     0.164 HD
ATOM     15  O   UNL A   1      33.137  22.387  22.533  1.00  0.00    -0.275 OA
BRANCH  13  16
ATOM     16  C   UNL A   1      32.164  21.233  24.386  1.00  0.00     0.138 C 
BRANCH  16  17
ATOM     17  C   UNL A   1      32.624  19.824  24.058  1.00  0.00    -0.003 A 
ATOM     18  C   UNL A   1      32.119  19.078  22.988  1.00  0.00     0.010 A 
ATOM     19  C   UNL A   1      33.725  19.279  24.737  1.00  0.00     0.129 A 
ATOM     20  C   UNL A   1      32.696  17.872  22.584  1.00  0.00     0.040 A 
ATOM     21  C   UNL A   1      34.303  18.067  24.361  1.00  0.00     0.078 A 
ATOM     22  F   UNL A   1      34.277  19.950  25.758  1.00  0.00    -0.207 F 
ATOM     23  C   UNL A   1      33.789  17.380  23.274  1.00  0.00     0.126 A 
ATOM     24  F   UNL A   1      34.362  16.240  22.868  1.00  0.00    -0.207 F 
ENDBRANCH  16  17
ENDBRANCH  13  16
ENDBRANCH   7  12
ENDBRANCH   6   7
ENDBRANCH   4   6
ENDBRANCH   1   2
BRANCH   1  25
ATOM     25  C   UNL A   1      37.814  20.417  25.036  1.00  0.00     0.042 C 
BRANCH  25  26
ATOM     26  C   UNL A   1      39.086  20.626  25.859  1.00  0.00     0.118 C 
BRANCH  26  27
ATOM     27  N   UNL A   1      39.974  19.469  25.849  1.00  0.00    -0.352 N 
ATOM     28  C   UNL A   1      41.330  19.418  26.065  1.00  0.00     0.251 C 
ATOM     29  H   UNL A   1      39.542  18.604  25.663  1.00  0.00     0.163 HD
ATOM     30  O   UNL A   1      41.952  18.380  25.877  1.00  0.00    -0.269 OA
BRANCH  28  31
ATOM     31  C   UNL A   1      42.031  20.642  26.490  1.00  0.00     0.039 A 
ATOM     32  C   UNL A   1      42.527  21.510  25.516  1.00  0.00     0.014 A 
ATOM     33  C   UNL A   1      42.134  20.955  27.847  1.00  0.00     0.014 A 
ATOM     34  C   UNL A   1      43.056  22.741  25.903  1.00  0.00     0.010 A 
ATOM     35  C   UNL A   1      42.592  22.211  28.225  1.00  0.00     0.010 A 
ATOM     36  C   UNL A   1      43.048  23.120  27.256  1.00  0.00    -0.014 A 
BRANCH  36  37
ATOM     37  C   UNL A   1      43.484  24.471  27.686  1.00  0.00     0.031 A 
ATOM     38  C   UNL A   1      42.462  25.517  28.026  1.00  0.00     0.074 A 
ATOM     39  C   UNL A   1      44.796  24.781  27.685  1.00  0.00     0.049 A 
ATOM     40  N   UNL A   1      42.633  26.786  28.294  1.00  0.00    -0.248 NA
ATOM     41  C   UNL A   1      41.055  25.084  28.038  1.00  0.00     0.031 C 
ATOM     42  C   UNL A   1      45.881  23.861  27.342  1.00  0.00     0.029 A 
ATOM     43  N   UNL A   1      45.438  25.961  27.966  1.00  0.00    -0.354 N 
ATOM     44  C   UNL A   1      41.361  27.304  28.493  1.00  0.00     0.074 A 
ATOM     45  C   UNL A   1      40.423  26.227  28.262  1.00  0.00     0.031 C 
ATOM     46  C   UNL A   1      47.054  24.504  27.452  1.00  0.00     0.029 A 
ATOM     47  C   UNL A   1      46.803  25.892  27.827  1.00  0.00     0.049 A 
ATOM     48  H   UNL A   1      44.965  26.778  28.243  1.00  0.00     0.167 HD
ATOM     49  C   UNL A   1      41.011  28.559  28.858  1.00  0.00     0.037 A 
ATOM     50  C   UNL A   1      47.745  26.844  27.968  1.00  0.00     0.037 A 
ATOM     51  C   UNL A   1      41.951  29.621  29.108  1.00  0.00     0.049 A 
ATOM     52  C   UNL A   1      47.326  28.237  28.353  1.00  0.00     0.074 A 
ATOM     53  C   UNL A   1      41.696  30.916  29.524  1.00  0.00     0.029 A 
ATOM     54  N   UNL A   1      43.327  29.510  28.964  1.00  0.00    -0.354 N 
ATOM     55  N   UNL A   1      46.123  28.707  28.579  1.00  0.00    -0.248 NA
ATOM     56  C   UNL A   1      48.397  29.232  28.507  1.00  0.00     0.031 C 
ATOM     57  C   UNL A   1      42.912  31.603  29.583  1.00  0.00     0.029 A 
ATOM     58  C   UNL A   1      43.931  30.721  29.265  1.00  0.00     0.049 A 
ATOM     59  H   UNL A   1      43.804  28.693  28.691  1.00  0.00     0.167 HD
ATOM     60  C   UNL A   1      46.293  30.041  28.926  1.00  0.00     0.074 A 
ATOM     61  C   UNL A   1      47.717  30.301  28.899  1.00  0.00     0.031 C 
ATOM     62  C   UNL A   1      45.352  30.966  29.239  1.00  0.00     0.037 A 
BRANCH  49  63
ATOM     63  C   UNL A   1      39.549  28.859  29.020  1.00  0.00     0.064 A 
ATOM     64  C   UNL A   1      38.790  29.317  27.933  1.00  0.00     0.173 A 
ATOM     65  C   UNL A   1      38.913  28.758  30.267  1.00  0.00     0.173 A 
ATOM     66  F   UNL A   1      39.349  29.435  26.718  1.00  0.00    -0.203 F 
ATOM     67  C   UNL A   1      37.454  29.676  28.091  1.00  0.00     0.198 A 
ATOM     68  C   UNL A   1      37.568  29.087  30.414  1.00  0.00     0.198 A 
ATOM     69  F   UNL A   1      39.590  28.310  31.336  1.00  0.00    -0.203 F 
ATOM     70  F   UNL A   1      36.759  30.144  27.045  1.00  0.00    -0.200 F 
ATOM     71  C   UNL A   1      36.844  29.557  29.331  1.00  0.00     0.200 A 
ATOM     72  F   UNL A   1      36.972  28.943  31.607  1.00  0.00    -0.200 F 
ATOM     73  F   UNL A   1      35.554  29.892  29.478  1.00  0.00    -0.200 F 
ENDBRANCH  49  63
BRANCH  50  74
ATOM     74  C   UNL A   1      49.177  26.500  27.772  1.00  0.00     0.064 A 
ATOM     75  C   UNL A   1      50.042  26.307  28.859  1.00  0.00     0.173 A 
ATOM     76  C   UNL A   1      49.716  26.379  26.483  1.00  0.00     0.173 A 
ATOM     77  F   UNL A   1      49.578  26.416  30.113  1.00  0.00    -0.203 F 
ATOM     78  C   UNL A   1      51.392  26.024  28.665  1.00  0.00     0.198 A 
ATOM     79  C   UNL A   1      51.060  26.067  26.289  1.00  0.00     0.198 A 
ATOM     80  F   UNL A   1      48.925  26.535  25.410  1.00  0.00    -0.203 F 
ATOM     81  F   UNL A   1      52.203  25.880  29.722  1.00  0.00    -0.200 F 
ATOM     82  C   UNL A   1      51.899  25.900  27.380  1.00  0.00     0.200 A 
ATOM     83  F   UNL A   1      51.539  25.921  25.047  1.00  0.00    -0.200 F 
ATOM     84  F   UNL A   1      53.195  25.614  27.194  1.00  0.00    -0.200 F 
ENDBRANCH  50  74
BRANCH  62  85
ATOM     85  C   UNL A   1      45.827  32.342  29.609  1.00  0.00     0.064 A 
ATOM     86  C   UNL A   1      45.983  33.329  28.623  1.00  0.00     0.173 A 
ATOM     87  C   UNL A   1      46.183  32.670  30.926  1.00  0.00     0.173 A 
ATOM     88  F   UNL A   1      45.668  33.065  27.345  1.00  0.00    -0.203 F 
ATOM     89  C   UNL A   1      46.487  34.586  28.939  1.00  0.00     0.198 A 
ATOM     90  C   UNL A   1      46.653  33.941  31.245  1.00  0.00     0.198 A 
ATOM     91  F   UNL A   1      46.040  31.767  31.908  1.00  0.00    -0.203 F 
ATOM     92  F   UNL A   1      46.662  35.500  27.974  1.00  0.00    -0.200 F 
ATOM     93  C   UNL A   1      46.815  34.894  30.251  1.00  0.00     0.200 A 
ATOM     94  F   UNL A   1      46.942  34.246  32.518  1.00  0.00    -0.200 F 
ATOM     95  F   UNL A   1      47.282  36.112  30.558  1.00  0.00    -0.200 F 
ENDBRANCH  62  85
ENDBRANCH  36  37
ENDBRANCH  28  31
ENDBRANCH  26  27
ENDBRANCH  25  26
ENDBRANCH   1  25
TORSDOF 14
ENDMDL
MODEL 2
REMARK VINA RESULT:     -12.6      5.752     10.685
REMARK SMILES O=C(CC1(NC(=O)Cc2ccc(F)cc2F)CCCC1)NCCCNC(=O)c1ccc(-c2c3nc(c(-c4c(F)c(F)c(F)c(F)c4F)c4ccc([nH]4)c(-c4c(F)c(F)c(F)c(F)c4F)c4nc(c(-c5c(F)c(F)c(F)c(F)c5F)c5ccc2[nH]5)C=C4)C=C3)cc1
REMARK SMILES IDX 22 1 21 2 1 3 2 4 3 6 4 7 17 8 20 9 18 10 19 11 5 12 6 13
REMARK SMILES IDX 7 15 8 16 9 17 10 18 15 19 11 20 14 21 16 22 12 23 13 24
REMARK SMILES IDX 23 25 24 26 25 27 26 28 27 30 28 31 29 32 90 33 30 34 89 35
REMARK SMILES IDX 31 36 32 37 33 38 83 39 34 40 88 41 82 42 84 43 35 44 87 45
REMARK SMILES IDX 81 46 80 47 36 49 68 50 48 51 67 52 49 53 52 54 66 55 85 56
REMARK SMILES IDX 50 57 51 58 65 60 86 61 53 62 37 63 38 64 46 65 39 66 40 67
REMARK SMILES IDX 44 68 47 69 41 70 42 71 45 72 43 73 69 74 70 75 78 76 71 77
REMARK SMILES IDX 72 78 76 79 79 80 73 81 74 82 77 83 75 84 54 85 55 86 63 87
REMARK SMILES IDX 56 88 57 89 61 90 64 91 58 92 59 93 62 94 60 95
REMARK H PARENT 21 5 5 14 25 29 84 48 52 59
REMARK Flexibility Score: inf
ROOT
ATOM      1  C   UNL A   1      31.967  30.429  26.883  1.00  0.00     0.117 C 
ENDROOT
BRANCH   1   2
ATOM      2  N   UNL A   1      31.913  29.877  25.550  1.00  0.00    -0.356 N 
ATOM      3  O   UNL A   1      33.721  28.458  25.671  1.00  0.00    -0.275 OA
ATOM      4  C   UNL A   1      32.853  29.026  25.023  1.00  0.00     0.222 C 
ATOM      5  H   UNL A   1      31.151  30.128  24.980  1.00  0.00     0.163 HD
BRANCH   4   6
ATOM      6  C   UNL A   1      32.752  28.945  23.515  1.00  0.00     0.128 C 
BRANCH   6   7
ATOM      7  C   UNL A   1      31.544  28.184  22.938  1.00  0.00     0.049 C 
ATOM      8  C   UNL A   1      30.787  27.423  24.055  1.00  0.00     0.029 C 
ATOM      9  C   UNL A   1      30.430  29.157  22.451  1.00  0.00     0.029 C 
ATOM     10  C   UNL A   1      29.349  27.281  23.583  1.00  0.00     0.003 C 
ATOM     11  C   UNL A   1      29.073  28.538  22.782  1.00  0.00     0.003 C 
BRANCH   7  12
ATOM     12  N   UNL A   1      31.860  27.263  21.817  1.00  0.00    -0.350 N 
ATOM     13  C   UNL A   1      32.550  26.086  21.716  1.00  0.00     0.224 C 
ATOM     14  H   UNL A   1      31.491  27.567  20.955  1.00  0.00     0.164 HD
ATOM     15  O   UNL A   1      33.161  25.912  20.654  1.00  0.00    -0.275 OA
BRANCH  13  16
ATOM     16  C   UNL A   1      32.477  24.966  22.739  1.00  0.00     0.138 C 
BRANCH  16  17
ATOM     17  C   UNL A   1      33.688  24.653  23.600  1.00  0.00    -0.003 A 
ATOM     18  C   UNL A   1      33.935  25.265  24.834  1.00  0.00     0.010 A 
ATOM     19  C   UNL A   1      34.529  23.584  23.252  1.00  0.00     0.129 A 
ATOM     20  C   UNL A   1      34.938  24.820  25.698  1.00  0.00     0.040 A 
ATOM     21  C   UNL A   1      35.548  23.137  24.093  1.00  0.00     0.078 A 
ATOM     22  F   UNL A   1      34.336  22.935  22.095  1.00  0.00    -0.207 F 
ATOM     23  C   UNL A   1      35.733  23.753  25.319  1.00  0.00     0.126 A 
ATOM     24  F   UNL A   1      36.674  23.307  26.160  1.00  0.00    -0.207 F 
ENDBRANCH  16  17
ENDBRANCH  13  16
ENDBRANCH   7  12
ENDBRANCH   6   7
ENDBRANCH   4   6
ENDBRANCH   1   2
BRANCH   1  25
ATOM     25  C   UNL A   1      31.721  31.935  26.835  1.00  0.00     0.042 C 
BRANCH  25  26
ATOM     26  C   UNL A   1      32.872  32.781  27.380  1.00  0.00     0.118 C 
BRANCH  26  27
ATOM     27  N   UNL A   1      32.488  34.158  27.668  1.00  0.00    -0.352 N 
ATOM     28  C   UNL A   1      32.999  35.020  28.607  1.00  0.00     0.251 C 
ATOM     29  H   UNL A   1      31.761  34.520  27.112  1.00  0.00     0.163 HD
ATOM     30  O   UNL A   1      32.464  36.102  28.818  1.00  0.00    -0.269 OA
BRANCH  28  31
ATOM     31  C   UNL A   1      34.182  34.610  29.382  1.00  0.00     0.039 A 
ATOM     32  C   UNL A   1      34.002  34.086  30.664  1.00  0.00     0.014 A 
ATOM     33  C   UNL A   1      35.455  34.684  28.812  1.00  0.00     0.014 A 
ATOM     34  C   UNL A   1      35.098  33.556  31.346  1.00  0.00     0.010 A 
ATOM     35  C   UNL A   1      36.529  34.088  29.461  1.00  0.00     0.010 A 
ATOM     36  C   UNL A   1      36.359  33.509  30.729  1.00  0.00    -0.014 A 
BRANCH  36  37
ATOM     37  C   UNL A   1      37.514  32.837  31.374  1.00  0.00     0.031 A 
ATOM     38  C   UNL A   1      38.182  31.677  30.693  1.00  0.00     0.074 A 
ATOM     39  C   UNL A   1      37.901  33.214  32.608  1.00  0.00     0.049 A 
ATOM     40  N   UNL A   1      39.115  30.878  31.146  1.00  0.00    -0.248 NA
ATOM     41  C   UNL A   1      37.722  31.356  29.333  1.00  0.00     0.031 C 
ATOM     42  C   UNL A   1      37.307  34.303  33.385  1.00  0.00     0.029 A 
ATOM     43  N   UNL A   1      38.876  32.711  33.434  1.00  0.00    -0.354 N 
ATOM     44  C   UNL A   1      39.341  29.955  30.134  1.00  0.00     0.074 A 
ATOM     45  C   UNL A   1      38.414  30.258  29.066  1.00  0.00     0.031 C 
ATOM     46  C   UNL A   1      37.942  34.400  34.563  1.00  0.00     0.029 A 
ATOM     47  C   UNL A   1      38.955  33.351  34.647  1.00  0.00     0.049 A 
ATOM     48  H   UNL A   1      39.463  31.964  33.180  1.00  0.00     0.167 HD
ATOM     49  C   UNL A   1      40.258  28.960  30.093  1.00  0.00     0.037 A 
ATOM     50  C   UNL A   1      39.742  33.111  35.712  1.00  0.00     0.037 A 
ATOM     51  C   UNL A   1      41.193  28.677  31.151  1.00  0.00     0.049 A 
ATOM     52  C   UNL A   1      40.737  31.984  35.649  1.00  0.00     0.074 A 
ATOM     53  C   UNL A   1      42.189  27.717  31.185  1.00  0.00     0.029 A 
ATOM     54  N   UNL A   1      41.248  29.354  32.361  1.00  0.00    -0.354 N 
ATOM     55  N   UNL A   1      40.973  31.142  34.671  1.00  0.00    -0.248 NA
ATOM     56  C   UNL A   1      41.579  31.776  36.834  1.00  0.00     0.031 C 
ATOM     57  C   UNL A   1      42.813  27.778  32.434  1.00  0.00     0.029 A 
ATOM     58  C   UNL A   1      42.249  28.818  33.156  1.00  0.00     0.049 A 
ATOM     59  H   UNL A   1      40.665  30.105  32.616  1.00  0.00     0.167 HD
ATOM     60  C   UNL A   1      42.004  30.324  35.111  1.00  0.00     0.074 A 
ATOM     61  C   UNL A   1      42.362  30.782  36.438  1.00  0.00     0.031 C 
ATOM     62  C   UNL A   1      42.600  29.286  34.474  1.00  0.00     0.037 A 
BRANCH  49  63
ATOM     63  C   UNL A   1      40.305  28.102  28.861  1.00  0.00     0.064 A 
ATOM     64  C   UNL A   1      39.634  26.871  28.823  1.00  0.00     0.173 A 
ATOM     65  C   UNL A   1      41.069  28.467  27.743  1.00  0.00     0.173 A 
ATOM     66  F   UNL A   1      38.892  26.471  29.868  1.00  0.00    -0.203 F 
ATOM     67  C   UNL A   1      39.740  26.030  27.719  1.00  0.00     0.198 A 
ATOM     68  C   UNL A   1      41.145  27.638  26.626  1.00  0.00     0.198 A 
ATOM     69  F   UNL A   1      41.718  29.641  27.721  1.00  0.00    -0.203 F 
ATOM     70  F   UNL A   1      39.118  24.843  27.720  1.00  0.00    -0.200 F 
ATOM     71  C   UNL A   1      40.491  26.417  26.619  1.00  0.00     0.200 A 
ATOM     72  F   UNL A   1      41.849  28.027  25.552  1.00  0.00    -0.200 F 
ATOM     73  F   UNL A   1      40.581  25.612  25.551  1.00  0.00    -0.200 F 
ENDBRANCH  49  63
BRANCH  50  74
ATOM     74  C   UNL A   1      39.638  33.975  36.917  1.00  0.00     0.064 A 
ATOM     75  C   UNL A   1      38.849  33.608  38.018  1.00  0.00     0.173 A 
ATOM     76  C   UNL A   1      40.313  35.202  36.981  1.00  0.00     0.173 A 
ATOM     77  F   UNL A   1      38.177  32.447  38.006  1.00  0.00    -0.203 F 
ATOM     78  C   UNL A   1      38.725  34.444  39.126  1.00  0.00     0.198 A 
ATOM     79  C   UNL A   1      40.213  36.023  38.102  1.00  0.00     0.198 A 
ATOM     80  F   UNL A   1      41.097  35.587  35.963  1.00  0.00    -0.203 F 
ATOM     81  F   UNL A   1      37.936  34.085  40.147  1.00  0.00    -0.200 F 
ATOM     82  C   UNL A   1      39.411  35.648  39.169  1.00  0.00     0.200 A 
ATOM     83  F   UNL A   1      40.899  37.173  38.151  1.00  0.00    -0.200 F 
ATOM     84  F   UNL A   1      39.304  36.444  40.241  1.00  0.00    -0.200 F 
ENDBRANCH  50  74
BRANCH  62  85
ATOM     85  C   UNL A   1      43.725  28.588  35.183  1.00  0.00     0.064 A 
ATOM     86  C   UNL A   1      43.461  27.517  36.052  1.00  0.00     0.173 A 
ATOM     87  C   UNL A   1      45.056  29.012  35.051  1.00  0.00     0.173 A 
ATOM     88  F   UNL A   1      42.204  27.078  36.223  1.00  0.00    -0.203 F 
ATOM     89  C   UNL A   1      44.485  26.905  36.768  1.00  0.00     0.198 A 
ATOM     90  C   UNL A   1      46.082  28.374  35.743  1.00  0.00     0.198 A 
ATOM     91  F   UNL A   1      45.363  30.023  34.225  1.00  0.00    -0.203 F 
ATOM     92  F   UNL A   1      44.203  25.909  37.619  1.00  0.00    -0.200 F 
ATOM     93  C   UNL A   1      45.795  27.330  36.609  1.00  0.00     0.200 A 
ATOM     94  F   UNL A   1      47.351  28.767  35.565  1.00  0.00    -0.200 F 
ATOM     95  F   UNL A   1      46.783  26.726  37.284  1.00  0.00    -0.200 F 
ENDBRANCH  62  85
ENDBRANCH  36  37
ENDBRANCH  28  31
ENDBRANCH  26  27
ENDBRANCH  25  26
ENDBRANCH   1  25
TORSDOF 14
ENDMDL
MODEL 3
REMARK VINA RESULT:     -12.6      5.817     10.125
REMARK SMILES O=C(CC1(NC(=O)Cc2ccc(F)cc2F)CCCC1)NCCCNC(=O)c1ccc(-c2c3nc(c(-c4c(F)c(F)c(F)c(F)c4F)c4ccc([nH]4)c(-c4c(F)c(F)c(F)c(F)c4F)c4nc(c(-c5c(F)c(F)c(F)c(F)c5F)c5ccc2[nH]5)C=C4)C=C3)cc1
REMARK SMILES IDX 22 1 21 2 1 3 2 4 3 6 4 7 17 8 20 9 18 10 19 11 5 12 6 13
REMARK SMILES IDX 7 15 8 16 9 17 10 18 15 19 11 20 14 21 16 22 12 23 13 24
REMARK SMILES IDX 23 25 24 26 25 27 26 28 27 30 28 31 29 32 90 33 30 34 89 35
REMARK SMILES IDX 31 36 32 37 33 38 83 39 34 40 88 41 82 42 84 43 35 44 87 45
REMARK SMILES IDX 81 46 80 47 36 49 68 50 48 51 67 52 49 53 52 54 66 55 85 56
REMARK SMILES IDX 50 57 51 58 65 60 86 61 53 62 37 63 38 64 46 65 39 66 40 67
REMARK SMILES IDX 44 68 47 69 41 70 42 71 45 72 43 73 69 74 70 75 78 76 71 77
REMARK SMILES IDX 72 78 76 79 79 80 73 81 74 82 77 83 75 84 54 85 55 86 63 87
REMARK SMILES IDX 56 88 57 89 61 90 64 91 58 92 59 93 62 94 60 95
REMARK H PARENT 21 5 5 14 25 29 84 48 52 59
REMARK Flexibility Score: inf
ROOT
ATOM      1  C   UNL A   1      31.588  30.855  25.803  1.00  0.00     0.117 C 
ENDROOT
BRANCH   1   2
ATOM      2  N   UNL A   1      32.445  29.780  26.244  1.00  0.00    -0.356 N 
ATOM      3  O   UNL A   1      33.419  29.241  24.229  1.00  0.00    -0.275 OA
ATOM      4  C   UNL A   1      33.202  28.996  25.408  1.00  0.00     0.222 C 
ATOM      5  H   UNL A   1      32.490  29.596  27.210  1.00  0.00     0.163 HD
BRANCH   4   6
ATOM      6  C   UNL A   1      33.662  27.727  26.093  1.00  0.00     0.128 C 
BRANCH   6   7
ATOM      7  C   UNL A   1      33.216  26.395  25.462  1.00  0.00     0.049 C 
ATOM      8  C   UNL A   1      34.349  25.341  25.542  1.00  0.00     0.029 C 
ATOM      9  C   UNL A   1      32.115  25.695  26.314  1.00  0.00     0.029 C 
ATOM     10  C   UNL A   1      33.672  23.979  25.539  1.00  0.00     0.003 C 
ATOM     11  C   UNL A   1      32.365  24.188  26.277  1.00  0.00     0.003 C 
BRANCH   7  12
ATOM     12  N   UNL A   1      32.711  26.498  24.070  1.00  0.00    -0.350 N 
ATOM     13  C   UNL A   1      31.467  26.465  23.502  1.00  0.00     0.224 C 
ATOM     14  H   UNL A   1      33.431  26.618  23.409  1.00  0.00     0.164 HD
ATOM     15  O   UNL A   1      31.404  25.951  22.379  1.00  0.00    -0.275 OA
BRANCH  13  16
ATOM     16  C   UNL A   1      30.241  27.138  24.096  1.00  0.00     0.138 C 
BRANCH  16  17
ATOM     17  C   UNL A   1      29.582  28.289  23.357  1.00  0.00    -0.003 A 
ATOM     18  C   UNL A   1      30.298  29.259  22.646  1.00  0.00     0.010 A 
ATOM     19  C   UNL A   1      28.185  28.315  23.219  1.00  0.00     0.129 A 
ATOM     20  C   UNL A   1      29.668  30.184  21.811  1.00  0.00     0.040 A 
ATOM     21  C   UNL A   1      27.537  29.244  22.405  1.00  0.00     0.078 A 
ATOM     22  F   UNL A   1      27.436  27.401  23.852  1.00  0.00    -0.207 F 
ATOM     23  C   UNL A   1      28.291  30.163  21.694  1.00  0.00     0.126 A 
ATOM     24  F   UNL A   1      27.689  31.031  20.870  1.00  0.00    -0.207 F 
ENDBRANCH  16  17
ENDBRANCH  13  16
ENDBRANCH   7  12
ENDBRANCH   6   7
ENDBRANCH   4   6
ENDBRANCH   1   2
BRANCH   1  25
ATOM     25  C   UNL A   1      31.413  31.876  26.925  1.00  0.00     0.042 C 
BRANCH  25  26
ATOM     26  C   UNL A   1      32.680  32.660  27.269  1.00  0.00     0.118 C 
BRANCH  26  27
ATOM     27  N   UNL A   1      32.424  34.065  27.566  1.00  0.00    -0.352 N 
ATOM     28  C   UNL A   1      33.008  34.868  28.515  1.00  0.00     0.251 C 
ATOM     29  H   UNL A   1      31.739  34.498  27.008  1.00  0.00     0.163 HD
ATOM     30  O   UNL A   1      32.574  35.993  28.732  1.00  0.00    -0.269 OA
BRANCH  28  31
ATOM     31  C   UNL A   1      34.141  34.343  29.295  1.00  0.00     0.039 A 
ATOM     32  C   UNL A   1      33.882  33.621  30.462  1.00  0.00     0.014 A 
ATOM     33  C   UNL A   1      35.448  34.510  28.833  1.00  0.00     0.014 A 
ATOM     34  C   UNL A   1      34.936  32.991  31.125  1.00  0.00     0.010 A 
ATOM     35  C   UNL A   1      36.484  33.821  29.452  1.00  0.00     0.010 A 
ATOM     36  C   UNL A   1      36.236  33.047  30.597  1.00  0.00    -0.014 A 
BRANCH  36  37
ATOM     37  C   UNL A   1      37.354  32.284  31.205  1.00  0.00     0.031 A 
ATOM     38  C   UNL A   1      37.867  32.660  32.565  1.00  0.00     0.074 A 
ATOM     39  C   UNL A   1      37.962  31.312  30.496  1.00  0.00     0.049 A 
ATOM     40  N   UNL A   1      38.911  32.207  33.210  1.00  0.00    -0.248 NA
ATOM     41  C   UNL A   1      37.122  33.706  33.284  1.00  0.00     0.031 C 
ATOM     42  C   UNL A   1      37.577  30.879  29.152  1.00  0.00     0.029 A 
ATOM     43  N   UNL A   1      39.043  30.524  30.801  1.00  0.00    -0.354 N 
ATOM     44  C   UNL A   1      38.955  32.919  34.401  1.00  0.00     0.074 A 
ATOM     45  C   UNL A   1      37.867  33.872  34.367  1.00  0.00     0.031 C 
ATOM     46  C   UNL A   1      38.395  29.891  28.757  1.00  0.00     0.029 A 
ATOM     47  C   UNL A   1      39.392  29.654  29.797  1.00  0.00     0.049 A 
ATOM     48  H   UNL A   1      39.523  30.577  31.659  1.00  0.00     0.167 HD
ATOM     49  C   UNL A   1      39.814  32.774  35.437  1.00  0.00     0.037 A 
ATOM     50  C   UNL A   1      40.408  28.774  29.716  1.00  0.00     0.037 A 
ATOM     51  C   UNL A   1      40.882  31.808  35.473  1.00  0.00     0.049 A 
ATOM     52  C   UNL A   1      41.362  28.648  30.874  1.00  0.00     0.074 A 
ATOM     53  C   UNL A   1      41.778  31.555  36.497  1.00  0.00     0.029 A 
ATOM     54  N   UNL A   1      41.197  30.937  34.440  1.00  0.00    -0.354 N 
ATOM     55  N   UNL A   1      41.371  29.297  32.013  1.00  0.00    -0.248 NA
ATOM     56  C   UNL A   1      42.443  27.663  30.737  1.00  0.00     0.031 C 
ATOM     57  C   UNL A   1      42.667  30.567  36.065  1.00  0.00     0.029 A 
ATOM     58  C   UNL A   1      42.287  30.159  34.796  1.00  0.00     0.049 A 
ATOM     59  H   UNL A   1      40.717  30.878  33.583  1.00  0.00     0.167 HD
ATOM     60  C   UNL A   1      42.438  28.784  32.737  1.00  0.00     0.074 A 
ATOM     61  C   UNL A   1      43.043  27.755  31.916  1.00  0.00     0.031 C 
ATOM     62  C   UNL A   1      42.878  29.134  33.971  1.00  0.00     0.037 A 
BRANCH  49  63
ATOM     63  C   UNL A   1      39.634  33.672  36.627  1.00  0.00     0.064 A 
ATOM     64  C   UNL A   1      38.817  33.281  37.698  1.00  0.00     0.173 A 
ATOM     65  C   UNL A   1      40.215  34.948  36.677  1.00  0.00     0.173 A 
ATOM     66  F   UNL A   1      38.234  32.072  37.700  1.00  0.00    -0.203 F 
ATOM     67  C   UNL A   1      38.577  34.140  38.767  1.00  0.00     0.198 A 
ATOM     68  C   UNL A   1      39.999  35.791  37.764  1.00  0.00     0.198 A 
ATOM     69  F   UNL A   1      41.016  35.365  35.686  1.00  0.00    -0.203 F 
ATOM     70  F   UNL A   1      37.765  33.757  39.763  1.00  0.00    -0.200 F 
ATOM     71  C   UNL A   1      39.172  35.392  38.801  1.00  0.00     0.200 A 
ATOM     72  F   UNL A   1      40.598  36.990  37.809  1.00  0.00    -0.200 F 
ATOM     73  F   UNL A   1      38.949  36.212  39.838  1.00  0.00    -0.200 F 
ENDBRANCH  49  63
BRANCH  50  74
ATOM     74  C   UNL A   1      40.556  27.926  28.505  1.00  0.00     0.064 A 
ATOM     75  C   UNL A   1      41.295  28.355  27.393  1.00  0.00     0.173 A 
ATOM     76  C   UNL A   1      39.938  26.669  28.429  1.00  0.00     0.173 A 
ATOM     77  F   UNL A   1      41.903  29.551  27.412  1.00  0.00    -0.203 F 
ATOM     78  C   UNL A   1      41.395  27.570  26.246  1.00  0.00     0.198 A 
ATOM     79  C   UNL A   1      40.061  25.872  27.294  1.00  0.00     0.198 A 
ATOM     80  F   UNL A   1      39.236  26.205  29.475  1.00  0.00    -0.203 F 
ATOM     81  F   UNL A   1      42.077  28.021  25.186  1.00  0.00    -0.200 F 
ATOM     82  C   UNL A   1      40.782  26.326  26.200  1.00  0.00     0.200 A 
ATOM     83  F   UNL A   1      39.491  24.660  27.264  1.00  0.00    -0.200 F 
ATOM     84  F   UNL A   1      40.889  25.565  25.103  1.00  0.00    -0.200 F 
ENDBRANCH  50  74
BRANCH  62  85
ATOM     85  C   UNL A   1      44.052  28.382  34.530  1.00  0.00     0.064 A 
ATOM     86  C   UNL A   1      43.854  27.210  35.277  1.00  0.00     0.173 A 
ATOM     87  C   UNL A   1      45.366  28.848  34.379  1.00  0.00     0.173 A 
ATOM     88  F   UNL A   1      42.616  26.726  35.462  1.00  0.00    -0.203 F 
ATOM     89  C   UNL A   1      44.925  26.540  35.859  1.00  0.00     0.198 A 
ATOM     90  C   UNL A   1      46.439  28.156  34.933  1.00  0.00     0.198 A 
ATOM     91  F   UNL A   1      45.610  29.957  33.664  1.00  0.00    -0.203 F 
ATOM     92  F   UNL A   1      44.707  25.444  36.598  1.00  0.00    -0.200 F 
ATOM     93  C   UNL A   1      46.218  27.010  35.681  1.00  0.00     0.200 A 
ATOM     94  F   UNL A   1      47.690  28.595  34.735  1.00  0.00    -0.200 F 
ATOM     95  F   UNL A   1      47.251  26.353  36.225  1.00  0.00    -0.200 F 
ENDBRANCH  62  85
ENDBRANCH  36  37
ENDBRANCH  28  31
ENDBRANCH  26  27
ENDBRANCH  25  26
ENDBRANCH   1  25
TORSDOF 14
ENDMDL
