MODEL 1
REMARK VINA RESULT:     -13.1      0.000      0.000
REMARK SMILES CC(C)n1c([C@H](O)CC(=O)NCCCNC(=O)c2ccc(-c3c4nc(c(-c5c(F)c(F)c(F)c(F)c5F)c5ccc([nH]5)c(-c5c(F)c(F)c(F)c(F)c5F)c5nc(c(-c6c(F)c(F)c(F)c(F)c6F)c6ccc3[nH]6)C=C5)C=C4)cc2)nc2cc(Cl)ccc21
REMARK SMILES IDX 12 1 11 2 9 3 10 4 8 6 6 7 5 8 4 9 88 10 81 11 82 12 87 13
REMARK SMILES IDX 83 14 86 15 84 16 85 17 2 18 1 19 3 20 7 21 13 23 14 24
REMARK SMILES IDX 15 25 16 26 17 28 18 29 19 30 80 31 20 32 79 33 21 34 22 35
REMARK SMILES IDX 23 36 73 37 24 38 78 39 72 40 74 41 25 42 77 43 71 44 70 45
REMARK SMILES IDX 26 47 58 48 38 49 57 50 39 51 42 52 56 53 75 54 40 55 41 56
REMARK SMILES IDX 55 58 76 59 43 60 27 61 28 62 36 63 29 64 30 65 34 66 37 67
REMARK SMILES IDX 31 68 32 69 35 70 33 71 59 72 60 73 68 74 61 75 62 76 66 77
REMARK SMILES IDX 69 78 63 79 64 80 67 81 65 82 44 83 45 84 53 85 46 86 47 87
REMARK SMILES IDX 51 88 54 89 48 90 49 91 52 92 50 93
REMARK H PARENT 11 5 7 22 15 27 74 46 42 57
REMARK Flexibility Score: inf
ROOT
ATOM      1  C   UNL A   1      31.679  29.177  25.223  1.00  0.00     0.117 C 
ENDROOT
BRANCH   1   2
ATOM      2  N   UNL A   1      32.371  29.330  23.955  1.00  0.00    -0.356 N 
ATOM      3  C   UNL A   1      33.266  28.496  23.342  1.00  0.00     0.223 C 
ATOM      4  O   UNL A   1      33.796  28.866  22.302  1.00  0.00    -0.275 OA
ATOM      5  H   UNL A   1      32.166  30.158  23.463  1.00  0.00     0.163 HD
BRANCH   3   6
ATOM      6  C   UNL A   1      33.541  27.126  23.925  1.00  0.00     0.140 C 
BRANCH   6   7
ATOM      7  C   UNL A   1      33.226  25.998  22.963  1.00  0.00     0.190 C 
BRANCH   7   8
ATOM      8  C   UNL A   1      33.710  24.636  23.400  1.00  0.00     0.139 A 
ATOM      9  N   UNL A   1      33.022  23.599  24.030  1.00  0.00    -0.323 N 
ATOM     10  C   UNL A   1      33.957  22.601  24.307  1.00  0.00     0.069 A 
ATOM     11  N   UNL A   1      34.997  24.342  23.310  1.00  0.00    -0.230 NA
ATOM     12  C   UNL A   1      35.168  23.110  23.862  1.00  0.00     0.090 A 
ATOM     13  C   UNL A   1      33.862  21.336  24.908  1.00  0.00     0.030 A 
ATOM     14  C   UNL A   1      36.347  22.370  24.020  1.00  0.00     0.051 A 
ATOM     15  C   UNL A   1      35.043  20.603  25.062  1.00  0.00     0.023 A 
ATOM     16  C   UNL A   1      36.263  21.116  24.628  1.00  0.00     0.043 A 
ATOM     17  Cl  UNL A   1      37.695  20.186  24.846  1.00  0.00    -0.084 Cl
BRANCH   9  18
ATOM     18  C   UNL A   1      31.621  23.442  24.423  1.00  0.00     0.083 C 
ATOM     19  C   UNL A   1      31.246  23.922  25.820  1.00  0.00     0.031 C 
ATOM     20  C   UNL A   1      30.626  23.842  23.331  1.00  0.00     0.031 C 
ENDBRANCH   9  18
ENDBRANCH   7   8
BRANCH   7  21
ATOM     21  O   UNL A   1      33.726  26.196  21.651  1.00  0.00    -0.385 OA
ATOM     22  H   UNL A   1      34.602  25.787  21.573  1.00  0.00     0.211 HD
ENDBRANCH   7  21
ENDBRANCH   6   7
ENDBRANCH   3   6
ENDBRANCH   1   2
BRANCH   1  23
ATOM     23  C   UNL A   1      31.992  30.312  26.202  1.00  0.00     0.042 C 
BRANCH  23  24
ATOM     24  C   UNL A   1      33.441  30.319  26.669  1.00  0.00     0.118 C 
BRANCH  24  25
ATOM     25  N   UNL A   1      33.692  31.291  27.711  1.00  0.00    -0.352 N 
ATOM     26  C   UNL A   1      34.758  31.630  28.490  1.00  0.00     0.251 C 
ATOM     27  H   UNL A   1      32.900  31.844  27.903  1.00  0.00     0.163 HD
ATOM     28  O   UNL A   1      34.574  32.581  29.255  1.00  0.00    -0.269 OA
BRANCH  26  29
ATOM     29  C   UNL A   1      36.070  30.927  28.535  1.00  0.00     0.039 A 
ATOM     30  C   UNL A   1      36.308  29.581  28.248  1.00  0.00     0.014 A 
ATOM     31  C   UNL A   1      37.155  31.724  28.953  1.00  0.00     0.014 A 
ATOM     32  C   UNL A   1      37.572  29.028  28.463  1.00  0.00     0.010 A 
ATOM     33  C   UNL A   1      38.416  31.182  29.155  1.00  0.00     0.010 A 
ATOM     34  C   UNL A   1      38.612  29.820  28.961  1.00  0.00    -0.014 A 
BRANCH  34  35
ATOM     35  C   UNL A   1      39.930  29.221  29.173  1.00  0.00     0.031 A 
ATOM     36  C   UNL A   1      40.293  28.988  30.604  1.00  0.00     0.074 A 
ATOM     37  C   UNL A   1      40.686  28.761  28.153  1.00  0.00     0.049 A 
ATOM     38  N   UNL A   1      41.349  29.382  31.242  1.00  0.00    -0.248 NA
ATOM     39  C   UNL A   1      39.310  28.295  31.455  1.00  0.00     0.031 C 
ATOM     40  C   UNL A   1      40.317  28.676  26.734  1.00  0.00     0.029 A 
ATOM     41  N   UNL A   1      41.914  28.166  28.177  1.00  0.00    -0.354 N 
ATOM     42  C   UNL A   1      41.240  28.861  32.531  1.00  0.00     0.074 A 
ATOM     43  C   UNL A   1      39.919  28.300  32.642  1.00  0.00     0.031 C 
ATOM     44  C   UNL A   1      41.188  27.867  26.090  1.00  0.00     0.029 A 
ATOM     45  C   UNL A   1      42.245  27.487  27.008  1.00  0.00     0.049 A 
ATOM     46  H   UNL A   1      42.515  28.213  28.956  1.00  0.00     0.167 HD
ATOM     47  C   UNL A   1      42.315  28.749  33.360  1.00  0.00     0.037 A 
ATOM     48  C   UNL A   1      43.278  26.624  26.832  1.00  0.00     0.037 A 
ATOM     49  C   UNL A   1      43.396  29.595  32.947  1.00  0.00     0.049 A 
ATOM     50  C   UNL A   1      44.254  26.877  27.916  1.00  0.00     0.074 A 
ATOM     51  C   UNL A   1      43.598  30.957  32.872  1.00  0.00     0.029 A 
ATOM     52  N   UNL A   1      44.391  29.024  32.196  1.00  0.00    -0.354 N 
ATOM     53  N   UNL A   1      44.962  27.964  28.029  1.00  0.00    -0.248 NA
ATOM     54  C   UNL A   1      44.153  26.067  29.120  1.00  0.00     0.031 C 
ATOM     55  C   UNL A   1      44.417  31.150  31.722  1.00  0.00     0.029 A 
ATOM     56  C   UNL A   1      44.714  29.894  31.190  1.00  0.00     0.049 A 
ATOM     57  H   UNL A   1      44.801  28.143  32.354  1.00  0.00     0.167 HD
ATOM     58  C   UNL A   1      45.023  28.199  29.393  1.00  0.00     0.074 A 
ATOM     59  C   UNL A   1      44.611  26.945  30.014  1.00  0.00     0.031 C 
ATOM     60  C   UNL A   1      45.130  29.471  29.873  1.00  0.00     0.037 A 
BRANCH  47  61
ATOM     61  C   UNL A   1      42.505  27.622  34.342  1.00  0.00     0.064 A 
ATOM     62  C   UNL A   1      43.072  26.404  33.921  1.00  0.00     0.173 A 
ATOM     63  C   UNL A   1      41.881  27.601  35.609  1.00  0.00     0.173 A 
ATOM     64  F   UNL A   1      43.648  26.300  32.714  1.00  0.00    -0.203 F 
ATOM     65  C   UNL A   1      42.984  25.243  34.697  1.00  0.00     0.198 A 
ATOM     66  C   UNL A   1      41.840  26.456  36.401  1.00  0.00     0.198 A 
ATOM     67  F   UNL A   1      41.191  28.651  36.072  1.00  0.00    -0.203 F 
ATOM     68  F   UNL A   1      43.443  24.081  34.212  1.00  0.00    -0.200 F 
ATOM     69  C   UNL A   1      42.370  25.270  35.937  1.00  0.00     0.200 A 
ATOM     70  F   UNL A   1      41.212  26.496  37.585  1.00  0.00    -0.200 F 
ATOM     71  F   UNL A   1      42.241  24.149  36.659  1.00  0.00    -0.200 F 
ENDBRANCH  47  61
BRANCH  48  72
ATOM     72  C   UNL A   1      43.326  25.377  26.025  1.00  0.00     0.064 A 
ATOM     73  C   UNL A   1      44.419  25.107  25.180  1.00  0.00     0.173 A 
ATOM     74  C   UNL A   1      42.472  24.292  26.300  1.00  0.00     0.173 A 
ATOM     75  F   UNL A   1      45.306  26.073  24.896  1.00  0.00    -0.203 F 
ATOM     76  C   UNL A   1      44.669  23.823  24.685  1.00  0.00     0.198 A 
ATOM     77  C   UNL A   1      42.717  23.012  25.797  1.00  0.00     0.198 A 
ATOM     78  F   UNL A   1      41.440  24.426  27.146  1.00  0.00    -0.203 F 
ATOM     79  F   UNL A   1      45.764  23.590  23.949  1.00  0.00    -0.200 F 
ATOM     80  C   UNL A   1      43.825  22.773  25.006  1.00  0.00     0.200 A 
ATOM     81  F   UNL A   1      41.912  21.998  26.145  1.00  0.00    -0.200 F 
ATOM     82  F   UNL A   1      44.102  21.529  24.593  1.00  0.00    -0.200 F 
ENDBRANCH  48  72
BRANCH  60  83
ATOM     83  C   UNL A   1      45.495  30.554  28.894  1.00  0.00     0.064 A 
ATOM     84  C   UNL A   1      44.564  31.266  28.116  1.00  0.00     0.173 A 
ATOM     85  C   UNL A   1      46.830  30.974  28.842  1.00  0.00     0.173 A 
ATOM     86  F   UNL A   1      43.255  30.991  28.181  1.00  0.00    -0.203 F 
ATOM     87  C   UNL A   1      44.962  32.321  27.295  1.00  0.00     0.198 A 
ATOM     88  C   UNL A   1      47.219  32.052  28.052  1.00  0.00     0.198 A 
ATOM     89  F   UNL A   1      47.756  30.367  29.601  1.00  0.00    -0.203 F 
ATOM     90  F   UNL A   1      44.056  32.977  26.555  1.00  0.00    -0.200 F 
ATOM     91  C   UNL A   1      46.288  32.719  27.272  1.00  0.00     0.200 A 
ATOM     92  F   UNL A   1      48.494  32.466  28.071  1.00  0.00    -0.200 F 
ATOM     93  F   UNL A   1      46.664  33.762  26.519  1.00  0.00    -0.200 F 
ENDBRANCH  60  83
ENDBRANCH  34  35
ENDBRANCH  26  29
ENDBRANCH  24  25
ENDBRANCH  23  24
ENDBRANCH   1  23
TORSDOF 14
ENDMDL
MODEL 2
REMARK VINA RESULT:     -13.1      4.688     10.506
REMARK SMILES CC(C)n1c([C@H](O)CC(=O)NCCCNC(=O)c2ccc(-c3c4nc(c(-c5c(F)c(F)c(F)c(F)c5F)c5ccc([nH]5)c(-c5c(F)c(F)c(F)c(F)c5F)c5nc(c(-c6c(F)c(F)c(F)c(F)c6F)c6ccc3[nH]6)C=C5)C=C4)cc2)nc2cc(Cl)ccc21
REMARK SMILES IDX 12 1 11 2 9 3 10 4 8 6 6 7 5 8 4 9 88 10 81 11 82 12 87 13
REMARK SMILES IDX 83 14 86 15 84 16 85 17 2 18 1 19 3 20 7 21 13 23 14 24
REMARK SMILES IDX 15 25 16 26 17 28 18 29 19 30 80 31 20 32 79 33 21 34 22 35
REMARK SMILES IDX 23 36 73 37 24 38 78 39 72 40 74 41 25 42 77 43 71 44 70 45
REMARK SMILES IDX 26 47 58 48 38 49 57 50 39 51 42 52 56 53 75 54 40 55 41 56
REMARK SMILES IDX 55 58 76 59 43 60 27 61 28 62 36 63 29 64 30 65 34 66 37 67
REMARK SMILES IDX 31 68 32 69 35 70 33 71 59 72 60 73 68 74 61 75 62 76 66 77
REMARK SMILES IDX 69 78 63 79 64 80 67 81 65 82 44 83 45 84 53 85 46 86 47 87
REMARK SMILES IDX 51 88 54 89 48 90 49 91 52 92 50 93
REMARK H PARENT 11 5 7 22 15 27 74 46 42 57
REMARK Flexibility Score: inf
ROOT
ATOM      1  C   UNL A   1      43.243  18.874  25.381  1.00  0.00     0.117 C 
ENDROOT
BRANCH   1   2
ATOM      2  N   UNL A   1      44.681  18.933  25.580  1.00  0.00    -0.356 N 
ATOM      3  C   UNL A   1      45.587  19.857  25.137  1.00  0.00     0.223 C 
ATOM      4  O   UNL A   1      46.777  19.664  25.354  1.00  0.00    -0.275 OA
ATOM      5  H   UNL A   1      45.060  18.197  26.114  1.00  0.00     0.163 HD
BRANCH   3   6
ATOM      6  C   UNL A   1      45.104  21.112  24.441  1.00  0.00     0.140 C 
BRANCH   6   7
ATOM      7  C   UNL A   1      46.045  22.287  24.616  1.00  0.00     0.190 C 
BRANCH   7   8
ATOM      8  C   UNL A   1      45.762  23.154  25.820  1.00  0.00     0.139 A 
ATOM      9  N   UNL A   1      45.981  24.518  26.014  1.00  0.00    -0.323 N 
ATOM     10  C   UNL A   1      45.642  24.799  27.337  1.00  0.00     0.069 A 
ATOM     11  N   UNL A   1      45.346  22.594  26.943  1.00  0.00    -0.230 NA
ATOM     12  C   UNL A   1      45.272  23.578  27.880  1.00  0.00     0.090 A 
ATOM     13  C   UNL A   1      45.639  25.979  28.099  1.00  0.00     0.030 A 
ATOM     14  C   UNL A   1      44.900  23.487  29.228  1.00  0.00     0.051 A 
ATOM     15  C   UNL A   1      45.266  25.880  29.443  1.00  0.00     0.023 A 
ATOM     16  C   UNL A   1      44.907  24.652  29.996  1.00  0.00     0.043 A 
ATOM     17  Cl  UNL A   1      44.464  24.572  31.657  1.00  0.00    -0.084 Cl
BRANCH   9  18
ATOM     18  C   UNL A   1      46.487  25.570  25.131  1.00  0.00     0.083 C 
ATOM     19  C   UNL A   1      45.629  26.823  24.999  1.00  0.00     0.031 C 
ATOM     20  C   UNL A   1      47.983  25.846  25.294  1.00  0.00     0.031 C 
ENDBRANCH   9  18
ENDBRANCH   7   8
BRANCH   7  21
ATOM     21  O   UNL A   1      46.099  23.161  23.500  1.00  0.00    -0.385 OA
ATOM     22  H   UNL A   1      46.676  23.913  23.705  1.00  0.00     0.211 HD
ENDBRANCH   7  21
ENDBRANCH   6   7
ENDBRANCH   3   6
ENDBRANCH   1   2
BRANCH   1  23
ATOM     23  C   UNL A   1      42.465  19.487  26.550  1.00  0.00     0.042 C 
BRANCH  23  24
ATOM     24  C   UNL A   1      42.171  20.969  26.363  1.00  0.00     0.118 C 
BRANCH  24  25
ATOM     25  N   UNL A   1      40.758  21.248  26.213  1.00  0.00    -0.352 N 
ATOM     26  C   UNL A   1      39.950  22.324  26.431  1.00  0.00     0.251 C 
ATOM     27  H   UNL A   1      40.260  20.471  25.870  1.00  0.00     0.163 HD
ATOM     28  O   UNL A   1      38.766  22.166  26.123  1.00  0.00    -0.269 OA
BRANCH  26  29
ATOM     29  C   UNL A   1      40.357  23.616  27.047  1.00  0.00     0.039 A 
ATOM     30  C   UNL A   1      41.502  23.854  27.811  1.00  0.00     0.014 A 
ATOM     31  C   UNL A   1      39.449  24.677  26.853  1.00  0.00     0.014 A 
ATOM     32  C   UNL A   1      41.685  25.088  28.438  1.00  0.00     0.010 A 
ATOM     33  C   UNL A   1      39.634  25.908  27.464  1.00  0.00     0.010 A 
ATOM     34  C   UNL A   1      40.727  26.097  28.302  1.00  0.00    -0.014 A 
BRANCH  34  35
ATOM     35  C   UNL A   1      40.943  27.385  28.964  1.00  0.00     0.031 A 
ATOM     36  C   UNL A   1      42.080  28.189  28.423  1.00  0.00     0.074 A 
ATOM     37  C   UNL A   1      40.079  27.880  29.877  1.00  0.00     0.049 A 
ATOM     38  N   UNL A   1      43.086  28.694  29.063  1.00  0.00    -0.248 NA
ATOM     39  C   UNL A   1      42.146  28.384  26.963  1.00  0.00     0.031 C 
ATOM     40  C   UNL A   1      38.786  27.316  30.282  1.00  0.00     0.029 A 
ATOM     41  N   UNL A   1      40.121  29.056  30.567  1.00  0.00    -0.354 N 
ATOM     42  C   UNL A   1      43.832  29.398  28.117  1.00  0.00     0.074 A 
ATOM     43  C   UNL A   1      43.276  29.080  26.828  1.00  0.00     0.031 C 
ATOM     44  C   UNL A   1      38.077  28.252  30.954  1.00  0.00     0.029 A 
ATOM     45  C   UNL A   1      38.909  29.425  31.145  1.00  0.00     0.049 A 
ATOM     46  H   UNL A   1      40.939  29.598  30.650  1.00  0.00     0.167 HD
ATOM     47  C   UNL A   1      44.736  30.352  28.473  1.00  0.00     0.037 A 
ATOM     48  C   UNL A   1      38.596  30.632  31.681  1.00  0.00     0.037 A 
ATOM     49  C   UNL A   1      45.130  30.226  29.846  1.00  0.00     0.049 A 
ATOM     50  C   UNL A   1      39.870  31.326  31.977  1.00  0.00     0.074 A 
ATOM     51  C   UNL A   1      45.831  29.292  30.579  1.00  0.00     0.029 A 
ATOM     52  N   UNL A   1      44.493  31.024  30.761  1.00  0.00    -0.354 N 
ATOM     53  N   UNL A   1      40.716  30.951  32.892  1.00  0.00    -0.248 NA
ATOM     54  C   UNL A   1      40.398  32.230  30.966  1.00  0.00     0.031 C 
ATOM     55  C   UNL A   1      45.219  29.292  31.866  1.00  0.00     0.029 A 
ATOM     56  C   UNL A   1      44.215  30.262  31.864  1.00  0.00     0.049 A 
ATOM     57  H   UNL A   1      44.274  31.976  30.644  1.00  0.00     0.167 HD
ATOM     58  C   UNL A   1      41.961  31.205  32.340  1.00  0.00     0.074 A 
ATOM     59  C   UNL A   1      41.702  32.093  31.211  1.00  0.00     0.031 C 
ATOM     60  C   UNL A   1      43.039  30.444  32.684  1.00  0.00     0.037 A 
BRANCH  47  61
ATOM     61  C   UNL A   1      44.998  31.601  27.673  1.00  0.00     0.064 A 
ATOM     62  C   UNL A   1      46.253  31.804  27.066  1.00  0.00     0.173 A 
ATOM     63  C   UNL A   1      44.156  32.734  27.727  1.00  0.00     0.173 A 
ATOM     64  F   UNL A   1      47.149  30.807  27.003  1.00  0.00    -0.203 F 
ATOM     65  C   UNL A   1      46.647  33.058  26.587  1.00  0.00     0.198 A 
ATOM     66  C   UNL A   1      44.531  33.969  27.204  1.00  0.00     0.198 A 
ATOM     67  F   UNL A   1      42.993  32.715  28.390  1.00  0.00    -0.203 F 
ATOM     68  F   UNL A   1      47.889  33.231  26.115  1.00  0.00    -0.200 F 
ATOM     69  C   UNL A   1      45.786  34.139  26.655  1.00  0.00     0.200 A 
ATOM     70  F   UNL A   1      43.694  35.011  27.308  1.00  0.00    -0.200 F 
ATOM     71  F   UNL A   1      46.178  35.351  26.242  1.00  0.00    -0.200 F 
ENDBRANCH  47  61
BRANCH  48  72
ATOM     72  C   UNL A   1      37.307  31.370  31.632  1.00  0.00     0.064 A 
ATOM     73  C   UNL A   1      36.646  31.744  32.817  1.00  0.00     0.173 A 
ATOM     74  C   UNL A   1      36.863  31.994  30.450  1.00  0.00     0.173 A 
ATOM     75  F   UNL A   1      37.029  31.228  33.994  1.00  0.00    -0.203 F 
ATOM     76  C   UNL A   1      35.640  32.717  32.824  1.00  0.00     0.198 A 
ATOM     77  C   UNL A   1      35.854  32.959  30.458  1.00  0.00     0.198 A 
ATOM     78  F   UNL A   1      37.470  31.759  29.278  1.00  0.00    -0.203 F 
ATOM     79  F   UNL A   1      35.091  33.102  33.984  1.00  0.00    -0.200 F 
ATOM     80  C   UNL A   1      35.256  33.334  31.646  1.00  0.00     0.200 A 
ATOM     81  F   UNL A   1      35.515  33.573  29.316  1.00  0.00    -0.200 F 
ATOM     82  F   UNL A   1      34.345  34.318  31.661  1.00  0.00    -0.200 F 
ENDBRANCH  48  72
BRANCH  60  83
ATOM     83  C   UNL A   1      42.905  29.555  33.889  1.00  0.00     0.064 A 
ATOM     84  C   UNL A   1      42.423  28.234  33.851  1.00  0.00     0.173 A 
ATOM     85  C   UNL A   1      43.412  30.018  35.111  1.00  0.00     0.173 A 
ATOM     86  F   UNL A   1      42.010  27.682  32.703  1.00  0.00    -0.203 F 
ATOM     87  C   UNL A   1      42.411  27.434  34.993  1.00  0.00     0.198 A 
ATOM     88  C   UNL A   1      43.435  29.204  36.240  1.00  0.00     0.198 A 
ATOM     89  F   UNL A   1      43.933  31.252  35.197  1.00  0.00    -0.203 F 
ATOM     90  F   UNL A   1      41.935  26.181  34.932  1.00  0.00    -0.200 F 
ATOM     91  C   UNL A   1      42.926  27.916  36.183  1.00  0.00     0.200 A 
ATOM     92  F   UNL A   1      43.981  29.658  37.377  1.00  0.00    -0.200 F 
ATOM     93  F   UNL A   1      42.958  27.132  37.269  1.00  0.00    -0.200 F 
ENDBRANCH  60  83
ENDBRANCH  34  35
ENDBRANCH  26  29
ENDBRANCH  24  25
ENDBRANCH  23  24
ENDBRANCH   1  23
TORSDOF 14
ENDMDL
MODEL 3
REMARK VINA RESULT:     -12.8      3.501      8.866
REMARK SMILES CC(C)n1c([C@H](O)CC(=O)NCCCNC(=O)c2ccc(-c3c4nc(c(-c5c(F)c(F)c(F)c(F)c5F)c5ccc([nH]5)c(-c5c(F)c(F)c(F)c(F)c5F)c5nc(c(-c6c(F)c(F)c(F)c(F)c6F)c6ccc3[nH]6)C=C5)C=C4)cc2)nc2cc(Cl)ccc21
REMARK SMILES IDX 12 1 11 2 9 3 10 4 8 6 6 7 5 8 4 9 88 10 81 11 82 12 87 13
REMARK SMILES IDX 83 14 86 15 84 16 85 17 2 18 1 19 3 20 7 21 13 23 14 24
REMARK SMILES IDX 15 25 16 26 17 28 18 29 19 30 80 31 20 32 79 33 21 34 22 35
REMARK SMILES IDX 23 36 73 37 24 38 78 39 72 40 74 41 25 42 77 43 71 44 70 45
REMARK SMILES IDX 26 47 58 48 38 49 57 50 39 51 42 52 56 53 75 54 40 55 41 56
REMARK SMILES IDX 55 58 76 59 43 60 27 61 28 62 36 63 29 64 30 65 34 66 37 67
REMARK SMILES IDX 31 68 32 69 35 70 33 71 59 72 60 73 68 74 61 75 62 76 66 77
REMARK SMILES IDX 69 78 63 79 64 80 67 81 65 82 44 83 45 84 53 85 46 86 47 87
REMARK SMILES IDX 51 88 54 89 48 90 49 91 52 92 50 93
REMARK H PARENT 11 5 7 22 15 27 74 46 42 57
REMARK Flexibility Score: inf
ROOT
ATOM      1  C   UNL A   1      36.882  22.691  25.782  1.00  0.00     0.117 C 
ENDROOT
BRANCH   1   2
ATOM      2  N   UNL A   1      35.905  21.887  26.496  1.00  0.00    -0.356 N 
ATOM      3  C   UNL A   1      34.653  22.222  26.936  1.00  0.00     0.223 C 
ATOM      4  O   UNL A   1      34.025  21.404  27.597  1.00  0.00    -0.275 OA
ATOM      5  H   UNL A   1      36.185  20.964  26.692  1.00  0.00     0.163 HD
BRANCH   3   6
ATOM      6  C   UNL A   1      34.054  23.560  26.558  1.00  0.00     0.140 C 
BRANCH   6   7
ATOM      7  C   UNL A   1      32.557  23.495  26.328  1.00  0.00     0.190 C 
BRANCH   7   8
ATOM      8  C   UNL A   1      32.020  24.516  25.353  1.00  0.00     0.139 A 
ATOM      9  N   UNL A   1      32.103  24.557  23.961  1.00  0.00    -0.323 N 
ATOM     10  C   UNL A   1      31.534  25.764  23.556  1.00  0.00     0.069 A 
ATOM     11  N   UNL A   1      31.469  25.628  25.811  1.00  0.00    -0.230 NA
ATOM     12  C   UNL A   1      31.172  26.403  24.733  1.00  0.00     0.090 A 
ATOM     13  C   UNL A   1      31.321  26.353  22.299  1.00  0.00     0.030 A 
ATOM     14  C   UNL A   1      30.594  27.679  24.695  1.00  0.00     0.051 A 
ATOM     15  C   UNL A   1      30.743  27.625  22.270  1.00  0.00     0.023 A 
ATOM     16  C   UNL A   1      30.391  28.276  23.450  1.00  0.00     0.043 A 
ATOM     17  Cl  UNL A   1      29.691  29.847  23.371  1.00  0.00    -0.084 Cl
BRANCH   9  18
ATOM     18  C   UNL A   1      32.668  23.628  22.980  1.00  0.00     0.083 C 
ATOM     19  C   UNL A   1      34.188  23.582  22.880  1.00  0.00     0.031 C 
ATOM     20  C   UNL A   1      31.994  22.255  22.972  1.00  0.00     0.031 C 
ENDBRANCH   9  18
ENDBRANCH   7   8
BRANCH   7  21
ATOM     21  O   UNL A   1      31.781  23.626  27.508  1.00  0.00    -0.385 OA
ATOM     22  H   UNL A   1      31.858  24.530  27.849  1.00  0.00     0.211 HD
ENDBRANCH   7  21
ENDBRANCH   6   7
ENDBRANCH   3   6
ENDBRANCH   1   2
BRANCH   1  23
ATOM     23  C   UNL A   1      38.103  21.876  25.344  1.00  0.00     0.042 C 
BRANCH  23  24
ATOM     24  C   UNL A   1      39.220  21.866  26.380  1.00  0.00     0.118 C 
BRANCH  24  25
ATOM     25  N   UNL A   1      40.538  21.839  25.786  1.00  0.00    -0.352 N 
ATOM     26  C   UNL A   1      41.657  22.613  25.864  1.00  0.00     0.251 C 
ATOM     27  H   UNL A   1      40.657  21.075  25.176  1.00  0.00     0.163 HD
ATOM     28  O   UNL A   1      42.625  22.212  25.213  1.00  0.00    -0.269 OA
BRANCH  26  29
ATOM     29  C   UNL A   1      41.784  23.899  26.604  1.00  0.00     0.039 A 
ATOM     30  C   UNL A   1      42.498  24.118  27.784  1.00  0.00     0.014 A 
ATOM     31  C   UNL A   1      41.062  24.975  26.049  1.00  0.00     0.014 A 
ATOM     32  C   UNL A   1      42.417  25.349  28.438  1.00  0.00     0.010 A 
ATOM     33  C   UNL A   1      40.988  26.204  26.689  1.00  0.00     0.010 A 
ATOM     34  C   UNL A   1      41.624  26.374  27.914  1.00  0.00    -0.014 A 
BRANCH  34  35
ATOM     35  C   UNL A   1      41.557  27.658  28.613  1.00  0.00     0.031 A 
ATOM     36  C   UNL A   1      42.672  28.604  28.301  1.00  0.00     0.074 A 
ATOM     37  C   UNL A   1      40.487  28.023  29.351  1.00  0.00     0.049 A 
ATOM     38  N   UNL A   1      43.473  29.203  29.123  1.00  0.00    -0.248 NA
ATOM     39  C   UNL A   1      42.984  28.848  26.882  1.00  0.00     0.031 C 
ATOM     40  C   UNL A   1      39.217  27.302  29.502  1.00  0.00     0.029 A 
ATOM     41  N   UNL A   1      40.258  29.175  30.045  1.00  0.00    -0.354 N 
ATOM     42  C   UNL A   1      44.293  30.016  28.339  1.00  0.00     0.074 A 
ATOM     43  C   UNL A   1      44.027  29.674  26.966  1.00  0.00     0.031 C 
ATOM     44  C   UNL A   1      38.289  28.129  30.035  1.00  0.00     0.029 A 
ATOM     45  C   UNL A   1      38.925  29.384  30.387  1.00  0.00     0.049 A 
ATOM     46  H   UNL A   1      40.976  29.806  30.284  1.00  0.00     0.167 HD
ATOM     47  C   UNL A   1      44.994  31.058  28.866  1.00  0.00     0.037 A 
ATOM     48  C   UNL A   1      38.376  30.531  30.863  1.00  0.00     0.037 A 
ATOM     49  C   UNL A   1      45.139  30.939  30.287  1.00  0.00     0.049 A 
ATOM     50  C   UNL A   1      39.481  31.359  31.398  1.00  0.00     0.074 A 
ATOM     51  C   UNL A   1      45.797  30.071  31.132  1.00  0.00     0.029 A 
ATOM     52  N   UNL A   1      44.252  31.630  31.071  1.00  0.00    -0.354 N 
ATOM     53  N   UNL A   1      40.181  31.058  32.454  1.00  0.00    -0.248 NA
ATOM     54  C   UNL A   1      40.076  32.347  30.512  1.00  0.00     0.031 C 
ATOM     55  C   UNL A   1      44.961  29.962  32.281  1.00  0.00     0.029 A 
ATOM     56  C   UNL A   1      43.867  30.809  32.098  1.00  0.00     0.049 A 
ATOM     57  H   UNL A   1      43.946  32.553  30.922  1.00  0.00     0.167 HD
ATOM     58  C   UNL A   1      41.467  31.471  32.147  1.00  0.00     0.074 A 
ATOM     59  C   UNL A   1      41.319  32.355  30.996  1.00  0.00     0.031 C 
ATOM     60  C   UNL A   1      42.546  30.830  32.682  1.00  0.00     0.037 A 
BRANCH  47  61
ATOM     61  C   UNL A   1      45.250  32.352  28.137  1.00  0.00     0.064 A 
ATOM     62  C   UNL A   1      44.187  33.237  27.870  1.00  0.00     0.173 A 
ATOM     63  C   UNL A   1      46.451  32.610  27.440  1.00  0.00     0.173 A 
ATOM     64  F   UNL A   1      42.988  33.056  28.443  1.00  0.00    -0.203 F 
ATOM     65  C   UNL A   1      44.311  34.278  26.944  1.00  0.00     0.198 A 
ATOM     66  C   UNL A   1      46.586  33.678  26.556  1.00  0.00     0.198 A 
ATOM     67  F   UNL A   1      47.494  31.773  27.501  1.00  0.00    -0.203 F 
ATOM     68  F   UNL A   1      43.243  35.031  26.641  1.00  0.00    -0.200 F 
ATOM     69  C   UNL A   1      45.509  34.499  26.289  1.00  0.00     0.200 A 
ATOM     70  F   UNL A   1      47.746  33.856  25.908  1.00  0.00    -0.200 F 
ATOM     71  F   UNL A   1      45.615  35.464  25.365  1.00  0.00    -0.200 F 
ENDBRANCH  47  61
BRANCH  48  72
ATOM     72  C   UNL A   1      37.040  31.116  30.578  1.00  0.00     0.064 A 
ATOM     73  C   UNL A   1      36.166  31.459  31.626  1.00  0.00     0.173 A 
ATOM     74  C   UNL A   1      36.723  31.638  29.309  1.00  0.00     0.173 A 
ATOM     75  F   UNL A   1      36.412  31.038  32.875  1.00  0.00    -0.203 F 
ATOM     76  C   UNL A   1      35.074  32.312  31.426  1.00  0.00     0.198 A 
ATOM     77  C   UNL A   1      35.629  32.481  29.109  1.00  0.00     0.198 A 
ATOM     78  F   UNL A   1      37.528  31.426  28.258  1.00  0.00    -0.203 F 
ATOM     79  F   UNL A   1      34.312  32.678  32.465  1.00  0.00    -0.200 F 
ATOM     80  C   UNL A   1      34.816  32.834  30.170  1.00  0.00     0.200 A 
ATOM     81  F   UNL A   1      35.411  33.007  27.896  1.00  0.00    -0.200 F 
ATOM     82  F   UNL A   1      33.816  33.707  29.991  1.00  0.00    -0.200 F 
ENDBRANCH  48  72
BRANCH  60  83
ATOM     83  C   UNL A   1      42.297  29.896  33.835  1.00  0.00     0.064 A 
ATOM     84  C   UNL A   1      41.881  28.559  33.697  1.00  0.00     0.173 A 
ATOM     85  C   UNL A   1      42.622  30.338  35.124  1.00  0.00     0.173 A 
ATOM     86  F   UNL A   1      41.643  28.030  32.491  1.00  0.00    -0.203 F 
ATOM     87  C   UNL A   1      41.757  27.722  34.805  1.00  0.00     0.198 A 
ATOM     88  C   UNL A   1      42.536  29.488  36.223  1.00  0.00     0.198 A 
ATOM     89  F   UNL A   1      43.075  31.587  35.312  1.00  0.00    -0.203 F 
ATOM     90  F   UNL A   1      41.348  26.454  34.648  1.00  0.00    -0.200 F 
ATOM     91  C   UNL A   1      42.094  28.184  36.066  1.00  0.00     0.200 A 
ATOM     92  F   UNL A   1      42.912  29.925  37.434  1.00  0.00    -0.200 F 
ATOM     93  F   UNL A   1      42.021  27.366  37.124  1.00  0.00    -0.200 F 
ENDBRANCH  60  83
ENDBRANCH  34  35
ENDBRANCH  26  29
ENDBRANCH  24  25
ENDBRANCH  23  24
ENDBRANCH   1  23
TORSDOF 14
ENDMDL
