MODEL 1
REMARK VINA RESULT:     -12.6      0.000      0.000
REMARK SMILES Cc1c(Cl)cc2c(c1C)O[C@H](C(F)(F)F)C(C(=O)NCCCNC(=O)c1ccc(-c3c4nc(c(-c5c(F)c(F)c(F)c(F)c5F)c5ccc([nH]5)c(-c5c(F)c(F)c(F)c(F)c5F)c5nc(c(-c6c(F)c(F)c(F)c(F)c6F)c6ccc3[nH]6)C=C5)C=C4)cc1)=C2
REMARK SMILES IDX 21 1 20 2 19 3 17 4 18 5 16 7 1 8 2 9 3 10 8 11 4 12 5 13
REMARK SMILES IDX 7 14 9 15 6 16 10 17 89 18 11 19 12 20 13 21 14 22 15 23
REMARK SMILES IDX 22 24 23 25 24 26 25 28 26 29 27 30 88 31 28 32 87 33 29 34
REMARK SMILES IDX 30 35 31 36 81 37 32 38 86 39 80 40 82 41 33 42 85 43 79 44
REMARK SMILES IDX 78 45 34 47 66 48 46 49 65 50 47 51 50 52 64 53 83 54 48 55
REMARK SMILES IDX 49 56 63 58 84 59 51 60 35 61 36 62 44 63 37 64 38 65 42 66
REMARK SMILES IDX 45 67 39 68 40 69 43 70 41 71 67 72 68 73 76 74 69 75 70 76
REMARK SMILES IDX 74 77 77 78 71 79 72 80 75 81 73 82 52 83 53 84 61 85 54 86
REMARK SMILES IDX 55 87 59 88 62 89 56 90 57 91 60 92 58 93
REMARK H PARENT 19 6 23 27 82 46 50 57
REMARK Flexibility Score: inf
ROOT
ATOM      1  C   UNL A   1      35.519  23.619  26.164  1.00  0.00     0.042 C 
ENDROOT
BRANCH   1   2
ATOM      2  C   UNL A   1      34.244  23.115  25.505  1.00  0.00     0.118 C 
BRANCH   2   3
ATOM      3  N   UNL A   1      34.246  23.356  24.071  1.00  0.00    -0.352 N 
ATOM      4  C   UNL A   1      33.841  24.337  23.229  1.00  0.00     0.251 C 
ATOM      5  O   UNL A   1      34.040  24.118  22.030  1.00  0.00    -0.270 OA
ATOM      6  H   UNL A   1      34.650  22.605  23.580  1.00  0.00     0.163 HD
BRANCH   4   7
ATOM      7  C   UNL A   1      33.196  25.611  23.654  1.00  0.00     0.067 C 
ATOM      8  C   UNL A   1      31.532  31.387  26.244  1.00  0.00     0.046 C 
ATOM      9  C   UNL A   1      32.136  30.102  25.739  1.00  0.00    -0.026 A 
ATOM     10  C   UNL A   1      33.336  29.626  26.319  1.00  0.00     0.045 A 
ATOM     11  C   UNL A   1      31.521  29.320  24.736  1.00  0.00    -0.004 A 
ATOM     12  Cl  UNL A   1      34.140  30.491  27.588  1.00  0.00    -0.084 Cl
ATOM     13  C   UNL A   1      33.929  28.428  25.905  1.00  0.00     0.032 A 
ATOM     14  C   UNL A   1      32.139  28.117  24.337  1.00  0.00     0.131 A 
ATOM     15  C   UNL A   1      30.215  29.671  24.065  1.00  0.00     0.049 C 
ATOM     16  C   UNL A   1      33.330  27.666  24.909  1.00  0.00     0.019 A 
ATOM     17  O   UNL A   1      31.534  27.424  23.322  1.00  0.00    -0.475 OA
ATOM     18  C   UNL A   1      33.929  26.419  24.441  1.00  0.00     0.025 C 
ATOM     19  C   UNL A   1      31.801  26.002  23.274  1.00  0.00     0.314 C 
BRANCH  19  20
ATOM     20  C   UNL A   1      30.724  25.248  24.081  1.00  0.00     0.429 C 
ATOM     21  F   UNL A   1      30.325  24.140  23.407  1.00  0.00    -0.167 F 
ATOM     22  F   UNL A   1      31.178  24.821  25.283  1.00  0.00    -0.167 F 
ATOM     23  F   UNL A   1      29.626  25.996  24.320  1.00  0.00    -0.167 F 
ENDBRANCH  19  20
ENDBRANCH   4   7
ENDBRANCH   2   3
ENDBRANCH   1   2
BRANCH   1  24
ATOM     24  C   UNL A   1      36.701  23.584  25.207  1.00  0.00     0.118 C 
BRANCH  24  25
ATOM     25  N   UNL A   1      37.703  22.605  25.624  1.00  0.00    -0.352 N 
ATOM     26  C   UNL A   1      38.945  22.789  26.172  1.00  0.00     0.251 C 
ATOM     27  H   UNL A   1      37.445  21.665  25.490  1.00  0.00     0.163 HD
ATOM     28  O   UNL A   1      39.756  21.864  26.185  1.00  0.00    -0.269 OA
BRANCH  26  29
ATOM     29  C   UNL A   1      39.308  24.096  26.748  1.00  0.00     0.039 A 
ATOM     30  C   UNL A   1      38.955  24.391  28.066  1.00  0.00     0.014 A 
ATOM     31  C   UNL A   1      39.981  25.040  25.969  1.00  0.00     0.014 A 
ATOM     32  C   UNL A   1      39.332  25.613  28.620  1.00  0.00     0.010 A 
ATOM     33  C   UNL A   1      40.452  26.206  26.552  1.00  0.00     0.010 A 
ATOM     34  C   UNL A   1      40.113  26.513  27.876  1.00  0.00    -0.014 A 
BRANCH  34  35
ATOM     35  C   UNL A   1      40.557  27.805  28.445  1.00  0.00     0.031 A 
ATOM     36  C   UNL A   1      42.007  28.012  28.778  1.00  0.00     0.074 A 
ATOM     37  C   UNL A   1      39.648  28.759  28.719  1.00  0.00     0.049 A 
ATOM     38  N   UNL A   1      42.588  29.041  29.340  1.00  0.00    -0.248 NA
ATOM     39  C   UNL A   1      42.923  26.901  28.470  1.00  0.00     0.031 C 
ATOM     40  C   UNL A   1      38.208  28.646  28.478  1.00  0.00     0.029 A 
ATOM     41  N   UNL A   1      39.800  30.011  29.257  1.00  0.00    -0.354 N 
ATOM     42  C   UNL A   1      43.928  28.696  29.458  1.00  0.00     0.074 A 
ATOM     43  C   UNL A   1      44.062  27.338  28.983  1.00  0.00     0.031 C 
ATOM     44  C   UNL A   1      37.615  29.796  28.831  1.00  0.00     0.029 A 
ATOM     45  C   UNL A   1      38.623  30.710  29.359  1.00  0.00     0.049 A 
ATOM     46  H   UNL A   1      40.669  30.373  29.544  1.00  0.00     0.167 HD
ATOM     47  C   UNL A   1      44.958  29.458  29.888  1.00  0.00     0.037 A 
ATOM     48  C   UNL A   1      38.388  31.952  29.825  1.00  0.00     0.037 A 
ATOM     49  C   UNL A   1      44.815  30.818  30.335  1.00  0.00     0.049 A 
ATOM     50  C   UNL A   1      39.545  32.774  30.321  1.00  0.00     0.074 A 
ATOM     51  C   UNL A   1      45.799  31.699  30.744  1.00  0.00     0.029 A 
ATOM     52  N   UNL A   1      43.605  31.492  30.432  1.00  0.00    -0.354 N 
ATOM     53  N   UNL A   1      40.818  32.463  30.371  1.00  0.00    -0.248 NA
ATOM     54  C   UNL A   1      39.236  34.119  30.825  1.00  0.00     0.031 C 
ATOM     55  C   UNL A   1      45.180  32.887  31.140  1.00  0.00     0.029 A 
ATOM     56  C   UNL A   1      43.816  32.769  30.924  1.00  0.00     0.049 A 
ATOM     57  H   UNL A   1      42.729  31.117  30.189  1.00  0.00     0.167 HD
ATOM     58  C   UNL A   1      41.465  33.575  30.890  1.00  0.00     0.074 A 
ATOM     59  C   UNL A   1      40.444  34.577  31.124  1.00  0.00     0.031 C 
ATOM     60  C   UNL A   1      42.784  33.751  31.152  1.00  0.00     0.037 A 
BRANCH  47  61
ATOM     61  C   UNL A   1      46.328  28.843  29.882  1.00  0.00     0.064 A 
ATOM     62  C   UNL A   1      46.833  28.161  31.001  1.00  0.00     0.173 A 
ATOM     63  C   UNL A   1      47.137  28.910  28.737  1.00  0.00     0.173 A 
ATOM     64  F   UNL A   1      46.108  28.080  32.127  1.00  0.00    -0.203 F 
ATOM     65  C   UNL A   1      48.106  27.598  30.984  1.00  0.00     0.198 A 
ATOM     66  C   UNL A   1      48.396  28.316  28.712  1.00  0.00     0.198 A 
ATOM     67  F   UNL A   1      46.703  29.548  27.639  1.00  0.00    -0.203 F 
ATOM     68  F   UNL A   1      48.587  27.002  32.084  1.00  0.00    -0.200 F 
ATOM     69  C   UNL A   1      48.883  27.668  29.837  1.00  0.00     0.200 A 
ATOM     70  F   UNL A   1      49.140  28.372  27.600  1.00  0.00    -0.200 F 
ATOM     71  F   UNL A   1      50.105  27.117  29.820  1.00  0.00    -0.200 F 
ENDBRANCH  47  61
BRANCH  48  72
ATOM     72  C   UNL A   1      37.006  32.495  29.785  1.00  0.00     0.064 A 
ATOM     73  C   UNL A   1      36.148  32.343  30.882  1.00  0.00     0.173 A 
ATOM     74  C   UNL A   1      36.536  33.225  28.684  1.00  0.00     0.173 A 
ATOM     75  F   UNL A   1      36.547  31.639  31.952  1.00  0.00    -0.203 F 
ATOM     76  C   UNL A   1      34.872  32.901  30.881  1.00  0.00     0.198 A 
ATOM     77  C   UNL A   1      35.269  33.805  28.694  1.00  0.00     0.198 A 
ATOM     78  F   UNL A   1      37.322  33.407  27.612  1.00  0.00    -0.203 F 
ATOM     79  F   UNL A   1      34.064  32.724  31.935  1.00  0.00    -0.200 F 
ATOM     80  C   UNL A   1      34.437  33.641  29.791  1.00  0.00     0.200 A 
ATOM     81  F   UNL A   1      34.860  34.536  27.648  1.00  0.00    -0.200 F 
ATOM     82  F   UNL A   1      33.218  34.197  29.800  1.00  0.00    -0.200 F 
ENDBRANCH  48  72
BRANCH  60  83
ATOM     83  C   UNL A   1      43.210  35.075  31.716  1.00  0.00     0.064 A 
ATOM     84  C   UNL A   1      43.626  36.125  30.886  1.00  0.00     0.173 A 
ATOM     85  C   UNL A   1      43.119  35.322  33.094  1.00  0.00     0.173 A 
ATOM     86  F   UNL A   1      43.741  35.935  29.563  1.00  0.00    -0.203 F 
ATOM     87  C   UNL A   1      43.944  37.372  31.416  1.00  0.00     0.198 A 
ATOM     88  C   UNL A   1      43.407  36.579  33.617  1.00  0.00     0.198 A 
ATOM     89  F   UNL A   1      42.717  34.352  33.931  1.00  0.00    -0.203 F 
ATOM     90  F   UNL A   1      44.370  38.352  30.607  1.00  0.00    -0.200 F 
ATOM     91  C   UNL A   1      43.823  37.602  32.778  1.00  0.00     0.200 A 
ATOM     92  F   UNL A   1      43.270  36.805  34.931  1.00  0.00    -0.200 F 
ATOM     93  F   UNL A   1      44.108  38.809  33.283  1.00  0.00    -0.200 F 
ENDBRANCH  60  83
ENDBRANCH  34  35
ENDBRANCH  26  29
ENDBRANCH  24  25
ENDBRANCH   1  24
TORSDOF 11
ENDMDL
MODEL 2
REMARK VINA RESULT:     -12.6      4.187      7.974
REMARK SMILES Cc1c(Cl)cc2c(c1C)O[C@H](C(F)(F)F)C(C(=O)NCCCNC(=O)c1ccc(-c3c4nc(c(-c5c(F)c(F)c(F)c(F)c5F)c5ccc([nH]5)c(-c5c(F)c(F)c(F)c(F)c5F)c5nc(c(-c6c(F)c(F)c(F)c(F)c6F)c6ccc3[nH]6)C=C5)C=C4)cc1)=C2
REMARK SMILES IDX 21 1 20 2 19 3 17 4 18 5 16 7 1 8 2 9 3 10 8 11 4 12 5 13
REMARK SMILES IDX 7 14 9 15 6 16 10 17 89 18 11 19 12 20 13 21 14 22 15 23
REMARK SMILES IDX 22 24 23 25 24 26 25 28 26 29 27 30 88 31 28 32 87 33 29 34
REMARK SMILES IDX 30 35 31 36 81 37 32 38 86 39 80 40 82 41 33 42 85 43 79 44
REMARK SMILES IDX 78 45 34 47 66 48 46 49 65 50 47 51 50 52 64 53 83 54 48 55
REMARK SMILES IDX 49 56 63 58 84 59 51 60 35 61 36 62 44 63 37 64 38 65 42 66
REMARK SMILES IDX 45 67 39 68 40 69 43 70 41 71 67 72 68 73 76 74 69 75 70 76
REMARK SMILES IDX 74 77 77 78 71 79 72 80 75 81 73 82 52 83 53 84 61 85 54 86
REMARK SMILES IDX 55 87 59 88 62 89 56 90 57 91 60 92 58 93
REMARK H PARENT 19 6 23 27 82 46 50 57
REMARK Flexibility Score: inf
ROOT
ATOM      1  C   UNL A   1      31.399  32.296  26.514  1.00  0.00     0.042 C 
ENDROOT
BRANCH   1   2
ATOM      2  C   UNL A   1      31.441  30.790  26.309  1.00  0.00     0.118 C 
BRANCH   2   3
ATOM      3  N   UNL A   1      31.153  30.424  24.931  1.00  0.00    -0.352 N 
ATOM      4  C   UNL A   1      31.112  29.290  24.193  1.00  0.00     0.251 C 
ATOM      5  O   UNL A   1      30.812  29.444  23.005  1.00  0.00    -0.270 OA
ATOM      6  H   UNL A   1      30.925  31.214  24.389  1.00  0.00     0.163 HD
BRANCH   4   7
ATOM      7  C   UNL A   1      31.400  27.924  24.714  1.00  0.00     0.067 C 
ATOM      8  C   UNL A   1      33.988  22.297  26.830  1.00  0.00     0.046 C 
ATOM      9  C   UNL A   1      33.620  23.677  26.349  1.00  0.00    -0.026 A 
ATOM     10  C   UNL A   1      34.626  24.514  25.811  1.00  0.00     0.045 A 
ATOM     11  C   UNL A   1      32.291  24.155  26.368  1.00  0.00    -0.004 A 
ATOM     12  Cl  UNL A   1      36.277  23.999  25.703  1.00  0.00    -0.084 Cl
ATOM     13  C   UNL A   1      34.338  25.796  25.330  1.00  0.00     0.032 A 
ATOM     14  C   UNL A   1      32.026  25.450  25.876  1.00  0.00     0.131 A 
ATOM     15  C   UNL A   1      31.106  23.358  26.860  1.00  0.00     0.049 C 
ATOM     16  C   UNL A   1      33.032  26.270  25.360  1.00  0.00     0.019 A 
ATOM     17  O   UNL A   1      30.732  25.889  25.968  1.00  0.00    -0.475 OA
ATOM     18  C   UNL A   1      32.697  27.608  24.880  1.00  0.00     0.025 C 
ATOM     19  C   UNL A   1      30.338  26.913  25.024  1.00  0.00     0.314 C 
BRANCH  19  20
ATOM     20  C   UNL A   1      29.750  26.252  23.761  1.00  0.00     0.429 C 
ATOM     21  F   UNL A   1      30.581  26.439  22.704  1.00  0.00    -0.167 F 
ATOM     22  F   UNL A   1      29.602  24.912  23.896  1.00  0.00    -0.167 F 
ATOM     23  F   UNL A   1      28.542  26.748  23.420  1.00  0.00    -0.167 F 
ENDBRANCH  19  20
ENDBRANCH   4   7
ENDBRANCH   2   3
ENDBRANCH   1   2
BRANCH   1  24
ATOM     24  C   UNL A   1      32.654  32.807  27.205  1.00  0.00     0.118 C 
BRANCH  24  25
ATOM     25  N   UNL A   1      32.509  34.199  27.627  1.00  0.00    -0.352 N 
ATOM     26  C   UNL A   1      33.056  34.861  28.694  1.00  0.00     0.251 C 
ATOM     27  H   UNL A   1      31.927  34.747  27.052  1.00  0.00     0.163 HD
ATOM     28  O   UNL A   1      32.590  35.943  29.051  1.00  0.00    -0.269 OA
BRANCH  26  29
ATOM     29  C   UNL A   1      34.201  34.279  29.413  1.00  0.00     0.039 A 
ATOM     30  C   UNL A   1      33.979  33.507  30.555  1.00  0.00     0.014 A 
ATOM     31  C   UNL A   1      35.503  34.519  28.967  1.00  0.00     0.014 A 
ATOM     32  C   UNL A   1      35.062  32.927  31.212  1.00  0.00     0.010 A 
ATOM     33  C   UNL A   1      36.567  33.853  29.553  1.00  0.00     0.010 A 
ATOM     34  C   UNL A   1      36.359  33.068  30.694  1.00  0.00    -0.014 A 
BRANCH  34  35
ATOM     35  C   UNL A   1      37.527  32.439  31.351  1.00  0.00     0.031 A 
ATOM     36  C   UNL A   1      38.266  31.332  30.652  1.00  0.00     0.074 A 
ATOM     37  C   UNL A   1      37.878  32.819  32.593  1.00  0.00     0.049 A 
ATOM     38  N   UNL A   1      39.270  30.610  31.079  1.00  0.00    -0.248 NA
ATOM     39  C   UNL A   1      37.792  30.965  29.306  1.00  0.00     0.031 C 
ATOM     40  C   UNL A   1      37.202  33.851  33.381  1.00  0.00     0.029 A 
ATOM     41  N   UNL A   1      38.889  32.383  33.410  1.00  0.00    -0.354 N 
ATOM     42  C   UNL A   1      39.537  29.704  30.061  1.00  0.00     0.074 A 
ATOM     43  C   UNL A   1      38.546  29.913  29.031  1.00  0.00     0.031 C 
ATOM     44  C   UNL A   1      37.841  33.996  34.552  1.00  0.00     0.029 A 
ATOM     45  C   UNL A   1      38.943  33.041  34.613  1.00  0.00     0.049 A 
ATOM     46  H   UNL A   1      39.514  31.665  33.158  1.00  0.00     0.167 HD
ATOM     47  C   UNL A   1      40.543  28.804  29.979  1.00  0.00     0.037 A 
ATOM     48  C   UNL A   1      39.792  32.890  35.647  1.00  0.00     0.037 A 
ATOM     49  C   UNL A   1      41.539  28.623  31.000  1.00  0.00     0.049 A 
ATOM     50  C   UNL A   1      40.890  31.867  35.545  1.00  0.00     0.074 A 
ATOM     51  C   UNL A   1      42.632  27.776  30.998  1.00  0.00     0.029 A 
ATOM     52  N   UNL A   1      41.559  29.303  32.211  1.00  0.00    -0.354 N 
ATOM     53  N   UNL A   1      41.175  31.057  34.554  1.00  0.00    -0.248 NA
ATOM     54  C   UNL A   1      41.785  31.737  36.702  1.00  0.00     0.031 C 
ATOM     55  C   UNL A   1      43.282  27.903  32.228  1.00  0.00     0.029 A 
ATOM     56  C   UNL A   1      42.630  28.871  32.976  1.00  0.00     0.049 A 
ATOM     57  H   UNL A   1      40.908  29.988  32.485  1.00  0.00     0.167 HD
ATOM     58  C   UNL A   1      42.290  30.336  34.955  1.00  0.00     0.074 A 
ATOM     59  C   UNL A   1      42.641  30.817  36.276  1.00  0.00     0.031 C 
ATOM     60  C   UNL A   1      42.961  29.363  34.291  1.00  0.00     0.037 A 
BRANCH  47  61
ATOM     61  C   UNL A   1      40.623  27.962  28.739  1.00  0.00     0.064 A 
ATOM     62  C   UNL A   1      41.397  28.351  27.634  1.00  0.00     0.173 A 
ATOM     63  C   UNL A   1      39.940  26.738  28.661  1.00  0.00     0.173 A 
ATOM     64  F   UNL A   1      42.058  29.518  27.649  1.00  0.00    -0.203 F 
ATOM     65  C   UNL A   1      41.460  27.562  26.488  1.00  0.00     0.198 A 
ATOM     66  C   UNL A   1      40.033  25.936  27.526  1.00  0.00     0.198 A 
ATOM     67  F   UNL A   1      39.187  26.317  29.688  1.00  0.00    -0.203 F 
ATOM     68  F   UNL A   1      42.160  27.983  25.426  1.00  0.00    -0.200 F 
ATOM     69  C   UNL A   1      40.785  26.352  26.438  1.00  0.00     0.200 A 
ATOM     70  F   UNL A   1      39.391  24.761  27.485  1.00  0.00    -0.200 F 
ATOM     71  F   UNL A   1      40.854  25.590  25.338  1.00  0.00    -0.200 F 
ENDBRANCH  47  61
BRANCH  48  72
ATOM     72  C   UNL A   1      39.657  33.772  36.835  1.00  0.00     0.064 A 
ATOM     73  C   UNL A   1      40.267  35.033  36.861  1.00  0.00     0.173 A 
ATOM     74  C   UNL A   1      38.874  33.402  37.938  1.00  0.00     0.173 A 
ATOM     75  F   UNL A   1      41.040  35.423  35.836  1.00  0.00    -0.203 F 
ATOM     76  C   UNL A   1      40.097  35.893  37.943  1.00  0.00     0.198 A 
ATOM     77  C   UNL A   1      38.682  34.274  39.009  1.00  0.00     0.198 A 
ATOM     78  F   UNL A   1      38.262  32.209  37.959  1.00  0.00    -0.203 F 
ATOM     79  F   UNL A   1      40.707  37.086  37.951  1.00  0.00    -0.200 F 
ATOM     80  C   UNL A   1      39.297  35.517  39.012  1.00  0.00     0.200 A 
ATOM     81  F   UNL A   1      37.892  33.916  40.029  1.00  0.00    -0.200 F 
ATOM     82  F   UNL A   1      39.115  36.355  40.042  1.00  0.00    -0.200 F 
ENDBRANCH  48  72
BRANCH  60  83
ATOM     83  C   UNL A   1      44.149  28.749  34.973  1.00  0.00     0.064 A 
ATOM     84  C   UNL A   1      44.025  27.604  35.771  1.00  0.00     0.173 A 
ATOM     85  C   UNL A   1      45.437  29.262  34.752  1.00  0.00     0.173 A 
ATOM     86  F   UNL A   1      42.814  27.083  36.021  1.00  0.00    -0.203 F 
ATOM     87  C   UNL A   1      45.146  27.000  36.334  1.00  0.00     0.198 A 
ATOM     88  C   UNL A   1      46.558  28.636  35.291  1.00  0.00     0.198 A 
ATOM     89  F   UNL A   1      45.611  30.351  33.988  1.00  0.00    -0.203 F 
ATOM     90  F   UNL A   1      45.000  25.925  37.121  1.00  0.00    -0.200 F 
ATOM     91  C   UNL A   1      46.412  27.509  36.084  1.00  0.00     0.200 A 
ATOM     92  F   UNL A   1      47.781  29.118  35.031  1.00  0.00    -0.200 F 
ATOM     93  F   UNL A   1      47.491  26.913  36.608  1.00  0.00    -0.200 F 
ENDBRANCH  60  83
ENDBRANCH  34  35
ENDBRANCH  26  29
ENDBRANCH  24  25
ENDBRANCH   1  24
TORSDOF 11
ENDMDL
MODEL 3
REMARK VINA RESULT:     -12.6      4.221      7.861
REMARK SMILES Cc1c(Cl)cc2c(c1C)O[C@H](C(F)(F)F)C(C(=O)NCCCNC(=O)c1ccc(-c3c4nc(c(-c5c(F)c(F)c(F)c(F)c5F)c5ccc([nH]5)c(-c5c(F)c(F)c(F)c(F)c5F)c5nc(c(-c6c(F)c(F)c(F)c(F)c6F)c6ccc3[nH]6)C=C5)C=C4)cc1)=C2
REMARK SMILES IDX 21 1 20 2 19 3 17 4 18 5 16 7 1 8 2 9 3 10 8 11 4 12 5 13
REMARK SMILES IDX 7 14 9 15 6 16 10 17 89 18 11 19 12 20 13 21 14 22 15 23
REMARK SMILES IDX 22 24 23 25 24 26 25 28 26 29 27 30 88 31 28 32 87 33 29 34
REMARK SMILES IDX 30 35 31 36 81 37 32 38 86 39 80 40 82 41 33 42 85 43 79 44
REMARK SMILES IDX 78 45 34 47 66 48 46 49 65 50 47 51 50 52 64 53 83 54 48 55
REMARK SMILES IDX 49 56 63 58 84 59 51 60 35 61 36 62 44 63 37 64 38 65 42 66
REMARK SMILES IDX 45 67 39 68 40 69 43 70 41 71 67 72 68 73 76 74 69 75 70 76
REMARK SMILES IDX 74 77 77 78 71 79 72 80 75 81 73 82 52 83 53 84 61 85 54 86
REMARK SMILES IDX 55 87 59 88 62 89 56 90 57 91 60 92 58 93
REMARK H PARENT 19 6 23 27 82 46 50 57
REMARK Flexibility Score: inf
ROOT
ATOM      1  C   UNL A   1      31.404  32.313  26.505  1.00  0.00     0.042 C 
ENDROOT
BRANCH   1   2
ATOM      2  C   UNL A   1      31.427  30.805  26.308  1.00  0.00     0.118 C 
BRANCH   2   3
ATOM      3  N   UNL A   1      31.122  30.436  24.934  1.00  0.00    -0.352 N 
ATOM      4  C   UNL A   1      31.077  29.300  24.199  1.00  0.00     0.251 C 
ATOM      5  O   UNL A   1      30.761  29.450  23.015  1.00  0.00    -0.270 OA
ATOM      6  H   UNL A   1      30.885  31.224  24.394  1.00  0.00     0.163 HD
BRANCH   4   7
ATOM      7  C   UNL A   1      31.375  27.936  24.720  1.00  0.00     0.067 C 
ATOM      8  C   UNL A   1      34.009  22.329  26.834  1.00  0.00     0.046 C 
ATOM      9  C   UNL A   1      33.630  23.706  26.354  1.00  0.00    -0.026 A 
ATOM     10  C   UNL A   1      34.629  24.551  25.816  1.00  0.00     0.045 A 
ATOM     11  C   UNL A   1      32.297  24.174  26.373  1.00  0.00    -0.004 A 
ATOM     12  Cl  UNL A   1      36.284  24.049  25.707  1.00  0.00    -0.084 Cl
ATOM     13  C   UNL A   1      34.330  25.831  25.335  1.00  0.00     0.032 A 
ATOM     14  C   UNL A   1      32.022  25.466  25.881  1.00  0.00     0.131 A 
ATOM     15  C   UNL A   1      31.119  23.367  26.865  1.00  0.00     0.049 C 
ATOM     16  C   UNL A   1      33.020  26.294  25.366  1.00  0.00     0.019 A 
ATOM     17  O   UNL A   1      30.724  25.895  25.973  1.00  0.00    -0.475 OA
ATOM     18  C   UNL A   1      32.675  27.630  24.886  1.00  0.00     0.025 C 
ATOM     19  C   UNL A   1      30.322  26.916  25.030  1.00  0.00     0.314 C 
BRANCH  19  20
ATOM     20  C   UNL A   1      29.739  26.250  23.767  1.00  0.00     0.429 C 
ATOM     21  F   UNL A   1      30.563  26.454  22.708  1.00  0.00    -0.167 F 
ATOM     22  F   UNL A   1      29.611  24.908  23.898  1.00  0.00    -0.167 F 
ATOM     23  F   UNL A   1      28.522  26.729  23.433  1.00  0.00    -0.167 F 
ENDBRANCH  19  20
ENDBRANCH   4   7
ENDBRANCH   2   3
ENDBRANCH   1   2
BRANCH   1  24
ATOM     24  C   UNL A   1      32.646  32.806  27.232  1.00  0.00     0.118 C 
BRANCH  24  25
ATOM     25  N   UNL A   1      32.511  34.203  27.641  1.00  0.00    -0.352 N 
ATOM     26  C   UNL A   1      33.065  34.871  28.701  1.00  0.00     0.251 C 
ATOM     27  H   UNL A   1      31.933  34.751  27.063  1.00  0.00     0.163 HD
ATOM     28  O   UNL A   1      32.608  35.959  29.050  1.00  0.00    -0.269 OA
BRANCH  26  29
ATOM     29  C   UNL A   1      34.207  34.286  29.424  1.00  0.00     0.039 A 
ATOM     30  C   UNL A   1      33.979  33.507  30.560  1.00  0.00     0.014 A 
ATOM     31  C   UNL A   1      35.511  34.531  28.987  1.00  0.00     0.014 A 
ATOM     32  C   UNL A   1      35.059  32.925  31.221  1.00  0.00     0.010 A 
ATOM     33  C   UNL A   1      36.573  33.864  29.576  1.00  0.00     0.010 A 
ATOM     34  C   UNL A   1      36.360  33.072  30.711  1.00  0.00    -0.014 A 
BRANCH  34  35
ATOM     35  C   UNL A   1      37.525  32.440  31.371  1.00  0.00     0.031 A 
ATOM     36  C   UNL A   1      38.264  31.334  30.673  1.00  0.00     0.074 A 
ATOM     37  C   UNL A   1      37.871  32.819  32.615  1.00  0.00     0.049 A 
ATOM     38  N   UNL A   1      39.266  30.611  31.103  1.00  0.00    -0.248 NA
ATOM     39  C   UNL A   1      37.795  30.969  29.326  1.00  0.00     0.031 C 
ATOM     40  C   UNL A   1      37.194  33.850  33.402  1.00  0.00     0.029 A 
ATOM     41  N   UNL A   1      38.879  32.381  33.435  1.00  0.00    -0.354 N 
ATOM     42  C   UNL A   1      39.536  29.705  30.085  1.00  0.00     0.074 A 
ATOM     43  C   UNL A   1      38.548  29.916  29.052  1.00  0.00     0.031 C 
ATOM     44  C   UNL A   1      37.829  33.994  34.574  1.00  0.00     0.029 A 
ATOM     45  C   UNL A   1      38.930  33.038  34.639  1.00  0.00     0.049 A 
ATOM     46  H   UNL A   1      39.505  31.663  33.184  1.00  0.00     0.167 HD
ATOM     47  C   UNL A   1      40.542  28.805  30.006  1.00  0.00     0.037 A 
ATOM     48  C   UNL A   1      39.776  32.885  35.675  1.00  0.00     0.037 A 
ATOM     49  C   UNL A   1      41.534  28.621  31.030  1.00  0.00     0.049 A 
ATOM     50  C   UNL A   1      40.873  31.861  35.576  1.00  0.00     0.074 A 
ATOM     51  C   UNL A   1      42.627  27.773  31.030  1.00  0.00     0.029 A 
ATOM     52  N   UNL A   1      41.551  29.299  32.241  1.00  0.00    -0.354 N 
ATOM     53  N   UNL A   1      41.160  31.052  34.585  1.00  0.00    -0.248 NA
ATOM     54  C   UNL A   1      41.764  31.729  36.736  1.00  0.00     0.031 C 
ATOM     55  C   UNL A   1      43.273  27.899  32.263  1.00  0.00     0.029 A 
ATOM     56  C   UNL A   1      42.618  28.867  33.009  1.00  0.00     0.049 A 
ATOM     57  H   UNL A   1      40.900  29.985  32.514  1.00  0.00     0.167 HD
ATOM     58  C   UNL A   1      42.273  30.330  34.989  1.00  0.00     0.074 A 
ATOM     59  C   UNL A   1      42.620  30.809  36.312  1.00  0.00     0.031 C 
ATOM     60  C   UNL A   1      42.945  29.356  34.326  1.00  0.00     0.037 A 
BRANCH  47  61
ATOM     61  C   UNL A   1      40.625  27.963  28.764  1.00  0.00     0.064 A 
ATOM     62  C   UNL A   1      39.922  26.753  28.648  1.00  0.00     0.173 A 
ATOM     63  C   UNL A   1      41.392  28.382  27.667  1.00  0.00     0.173 A 
ATOM     64  F   UNL A   1      39.185  26.299  29.674  1.00  0.00    -0.203 F 
ATOM     65  C   UNL A   1      40.009  25.980  27.494  1.00  0.00     0.198 A 
ATOM     66  C   UNL A   1      41.450  27.622  26.501  1.00  0.00     0.198 A 
ATOM     67  F   UNL A   1      42.083  29.530  27.723  1.00  0.00    -0.203 F 
ATOM     68  F   UNL A   1      39.374  24.802  27.430  1.00  0.00    -0.200 F 
ATOM     69  C   UNL A   1      40.766  26.419  26.418  1.00  0.00     0.200 A 
ATOM     70  F   UNL A   1      42.170  28.054  25.457  1.00  0.00    -0.200 F 
ATOM     71  F   UNL A   1      40.842  25.678  25.304  1.00  0.00    -0.200 F 
ENDBRANCH  47  61
BRANCH  48  72
ATOM     72  C   UNL A   1      39.638  33.765  36.864  1.00  0.00     0.064 A 
ATOM     73  C   UNL A   1      40.230  35.035  36.884  1.00  0.00     0.173 A 
ATOM     74  C   UNL A   1      38.868  33.386  37.973  1.00  0.00     0.173 A 
ATOM     75  F   UNL A   1      40.989  35.436  35.853  1.00  0.00    -0.203 F 
ATOM     76  C   UNL A   1      40.057  35.894  37.967  1.00  0.00     0.198 A 
ATOM     77  C   UNL A   1      38.672  34.256  39.044  1.00  0.00     0.198 A 
ATOM     78  F   UNL A   1      38.272  32.184  37.999  1.00  0.00    -0.203 F 
ATOM     79  F   UNL A   1      40.650  37.095  37.969  1.00  0.00    -0.200 F 
ATOM     80  C   UNL A   1      39.269  35.508  39.042  1.00  0.00     0.200 A 
ATOM     81  F   UNL A   1      37.895  33.887  40.071  1.00  0.00    -0.200 F 
ATOM     82  F   UNL A   1      39.084  36.343  40.073  1.00  0.00    -0.200 F 
ENDBRANCH  48  72
BRANCH  60  83
ATOM     83  C   UNL A   1      44.131  28.741  35.011  1.00  0.00     0.064 A 
ATOM     84  C   UNL A   1      45.410  29.304  34.907  1.00  0.00     0.173 A 
ATOM     85  C   UNL A   1      43.968  27.628  35.850  1.00  0.00     0.173 A 
ATOM     86  F   UNL A   1      45.620  30.362  34.108  1.00  0.00    -0.203 F 
ATOM     87  C   UNL A   1      46.486  28.769  35.609  1.00  0.00     0.198 A 
ATOM     88  C   UNL A   1      45.040  27.115  36.575  1.00  0.00     0.198 A 
ATOM     89  F   UNL A   1      42.762  27.057  35.992  1.00  0.00    -0.203 F 
ATOM     90  F   UNL A   1      47.707  29.304  35.469  1.00  0.00    -0.200 F 
ATOM     91  C   UNL A   1      46.298  27.683  36.452  1.00  0.00     0.200 A 
ATOM     92  F   UNL A   1      44.852  26.079  37.404  1.00  0.00    -0.200 F 
ATOM     93  F   UNL A   1      47.331  27.185  37.144  1.00  0.00    -0.200 F 
ENDBRANCH  60  83
ENDBRANCH  34  35
ENDBRANCH  26  29
ENDBRANCH  24  25
ENDBRANCH   1  24
TORSDOF 11
ENDMDL
