MODEL 1
REMARK VINA RESULT:     -12.5      0.000      0.000
REMARK SMILES C[C@@](NC(=O)c1ccc[nH]c1=O)(C(=O)NCCCNC(=O)c1ccc(-c2c3nc(c(-c4c(F)c(F)c(F)c(F)c4F)c4ccc([nH]4)c(-c4c(F)c(F)c(F)c(F)c4F)c4nc(c(-c5c(F)c(F)c(F)c(F)c5F)c5ccc2[nH]5)C=C4)C=C3)cc1)C(F)(F)F
REMARK SMILES IDX 17 1 16 2 15 3 13 4 14 5 2 7 1 8 3 9 4 10 5 12 6 13 7 14
REMARK SMILES IDX 11 15 8 16 10 17 12 18 9 19 85 21 86 22 87 23 88 24 18 25
REMARK SMILES IDX 19 26 20 27 21 29 22 30 23 31 84 32 24 33 83 34 25 35 26 36
REMARK SMILES IDX 27 37 77 38 28 39 82 40 76 41 78 42 29 43 81 44 75 45 74 46
REMARK SMILES IDX 30 48 62 49 42 50 61 51 43 52 46 53 60 54 79 55 44 56 45 57
REMARK SMILES IDX 59 59 80 60 47 61 31 62 32 63 40 64 33 65 34 66 38 67 41 68
REMARK SMILES IDX 35 69 36 70 39 71 37 72 63 73 64 74 72 75 65 76 66 77 70 78
REMARK SMILES IDX 73 79 67 80 68 81 71 82 69 83 48 84 49 85 57 86 50 87 51 88
REMARK SMILES IDX 55 89 58 90 52 91 53 92 56 93 54 94
REMARK H PARENT 15 6 3 11 10 20 19 28 78 47 46 58
REMARK Flexibility Score: inf
ROOT
ATOM      1  C   UNL A   1      31.493  32.065  26.653  1.00  0.00     0.042 C 
ENDROOT
BRANCH   1   2
ATOM      2  C   UNL A   1      31.843  30.665  26.180  1.00  0.00     0.117 C 
BRANCH   2   3
ATOM      3  N   UNL A   1      31.707  29.677  27.244  1.00  0.00    -0.354 N 
ATOM      4  C   UNL A   1      31.736  28.306  27.221  1.00  0.00     0.254 C 
ATOM      5  O   UNL A   1      31.490  27.752  28.292  1.00  0.00    -0.272 OA
ATOM      6  H   UNL A   1      31.570  30.064  28.139  1.00  0.00     0.163 HD
BRANCH   4   7
ATOM      7  C   UNL A   1      31.920  27.540  25.904  1.00  0.00     0.212 C 
ATOM      8  C   UNL A   1      31.638  26.048  26.245  1.00  0.00     0.056 C 
BRANCH   7   9
ATOM      9  N   UNL A   1      30.956  27.976  24.830  1.00  0.00    -0.330 N 
ATOM     10  C   UNL A   1      30.440  27.339  23.731  1.00  0.00     0.257 C 
ATOM     11  H   UNL A   1      30.634  28.901  24.939  1.00  0.00     0.165 HD
ATOM     12  O   UNL A   1      29.401  27.800  23.253  1.00  0.00    -0.269 OA
BRANCH  10  13
ATOM     13  C   UNL A   1      31.229  26.348  22.955  1.00  0.00     0.104 A 
ATOM     14  C   UNL A   1      32.165  26.840  22.116  1.00  0.00     0.021 A 
ATOM     15  C   UNL A   1      31.059  24.874  23.008  1.00  0.00     0.260 A 
ATOM     16  C   UNL A   1      33.102  25.974  21.432  1.00  0.00     0.019 A 
ATOM     17  N   UNL A   1      32.030  24.123  22.384  1.00  0.00    -0.328 N 
ATOM     18  O   UNL A   1      30.113  24.337  23.567  1.00  0.00    -0.269 OA
ATOM     19  C   UNL A   1      33.029  24.650  21.611  1.00  0.00     0.086 A 
ATOM     20  H   UNL A   1      32.003  23.145  22.500  1.00  0.00     0.169 HD
ENDBRANCH  10  13
ENDBRANCH   7   9
BRANCH   7  21
ATOM     21  C   UNL A   1      33.400  27.552  25.441  1.00  0.00     0.420 C 
ATOM     22  F   UNL A   1      33.661  28.527  24.540  1.00  0.00    -0.168 F 
ATOM     23  F   UNL A   1      34.192  27.827  26.522  1.00  0.00    -0.168 F 
ATOM     24  F   UNL A   1      33.853  26.391  24.951  1.00  0.00    -0.168 F 
ENDBRANCH   7  21
ENDBRANCH   4   7
ENDBRANCH   2   3
ENDBRANCH   1   2
BRANCH   1  25
ATOM     25  C   UNL A   1      32.651  32.773  27.343  1.00  0.00     0.118 C 
BRANCH  25  26
ATOM     26  N   UNL A   1      32.376  34.174  27.644  1.00  0.00    -0.352 N 
ATOM     27  C   UNL A   1      32.980  34.991  28.571  1.00  0.00     0.251 C 
ATOM     28  H   UNL A   1      31.661  34.591  27.112  1.00  0.00     0.163 HD
ATOM     29  O   UNL A   1      32.555  36.121  28.777  1.00  0.00    -0.269 OA
BRANCH  27  30
ATOM     30  C   UNL A   1      34.127  34.470  29.338  1.00  0.00     0.039 A 
ATOM     31  C   UNL A   1      33.896  33.807  30.545  1.00  0.00     0.014 A 
ATOM     32  C   UNL A   1      35.420  34.570  28.817  1.00  0.00     0.014 A 
ATOM     33  C   UNL A   1      34.955  33.163  31.187  1.00  0.00     0.010 A 
ATOM     34  C   UNL A   1      36.453  33.856  29.410  1.00  0.00     0.010 A 
ATOM     35  C   UNL A   1      36.230  33.142  30.598  1.00  0.00    -0.014 A 
BRANCH  35  36
ATOM     36  C   UNL A   1      37.350  32.374  31.197  1.00  0.00     0.031 A 
ATOM     37  C   UNL A   1      37.852  32.732  32.567  1.00  0.00     0.074 A 
ATOM     38  C   UNL A   1      37.972  31.424  30.473  1.00  0.00     0.049 A 
ATOM     39  N   UNL A   1      38.882  32.261  33.221  1.00  0.00    -0.248 NA
ATOM     40  C   UNL A   1      37.117  33.788  33.283  1.00  0.00     0.031 C 
ATOM     41  C   UNL A   1      37.618  31.030  29.108  1.00  0.00     0.029 A 
ATOM     42  N   UNL A   1      39.046  30.627  30.779  1.00  0.00    -0.354 N 
ATOM     43  C   UNL A   1      38.934  32.978  34.408  1.00  0.00     0.074 A 
ATOM     44  C   UNL A   1      37.865  33.953  34.363  1.00  0.00     0.031 C 
ATOM     45  C   UNL A   1      38.442  30.050  28.704  1.00  0.00     0.029 A 
ATOM     46  C   UNL A   1      39.405  29.773  29.764  1.00  0.00     0.049 A 
ATOM     47  H   UNL A   1      39.514  30.662  31.644  1.00  0.00     0.167 HD
ATOM     48  C   UNL A   1      39.780  32.822  35.453  1.00  0.00     0.037 A 
ATOM     49  C   UNL A   1      40.403  28.870  29.699  1.00  0.00     0.037 A 
ATOM     50  C   UNL A   1      40.815  31.824  35.511  1.00  0.00     0.049 A 
ATOM     51  C   UNL A   1      41.312  28.695  30.885  1.00  0.00     0.074 A 
ATOM     52  C   UNL A   1      41.680  31.536  36.552  1.00  0.00     0.029 A 
ATOM     53  N   UNL A   1      41.119  30.946  34.481  1.00  0.00    -0.354 N 
ATOM     54  N   UNL A   1      41.308  29.333  32.030  1.00  0.00    -0.248 NA
ATOM     55  C   UNL A   1      42.359  27.671  30.772  1.00  0.00     0.031 C 
ATOM     56  C   UNL A   1      42.530  30.504  36.139  1.00  0.00     0.029 A 
ATOM     57  C   UNL A   1      42.167  30.123  34.858  1.00  0.00     0.049 A 
ATOM     58  H   UNL A   1      40.658  30.912  33.612  1.00  0.00     0.167 HD
ATOM     59  C   UNL A   1      42.328  28.770  32.784  1.00  0.00     0.074 A 
ATOM     60  C   UNL A   1      42.924  27.731  31.970  1.00  0.00     0.031 C 
ATOM     61  C   UNL A   1      42.736  29.085  34.038  1.00  0.00     0.037 A 
BRANCH  48  62
ATOM     62  C   UNL A   1      39.613  33.744  36.624  1.00  0.00     0.064 A 
ATOM     63  C   UNL A   1      40.223  35.008  36.656  1.00  0.00     0.173 A 
ATOM     64  C   UNL A   1      38.812  33.374  37.714  1.00  0.00     0.173 A 
ATOM     65  F   UNL A   1      41.012  35.403  35.646  1.00  0.00    -0.203 F 
ATOM     66  C   UNL A   1      40.064  35.852  37.751  1.00  0.00     0.198 A 
ATOM     67  C   UNL A   1      38.630  34.235  38.794  1.00  0.00     0.198 A 
ATOM     68  F   UNL A   1      38.202  32.179  37.732  1.00  0.00    -0.203 F 
ATOM     69  F   UNL A   1      40.700  37.033  37.783  1.00  0.00    -0.200 F 
ATOM     70  C   UNL A   1      39.261  35.469  38.816  1.00  0.00     0.200 A 
ATOM     71  F   UNL A   1      37.847  33.867  39.817  1.00  0.00    -0.200 F 
ATOM     72  F   UNL A   1      39.106  36.286  39.866  1.00  0.00    -0.200 F 
ENDBRANCH  48  62
BRANCH  49  73
ATOM     73  C   UNL A   1      40.572  28.037  28.481  1.00  0.00     0.064 A 
ATOM     74  C   UNL A   1      39.960  26.779  28.384  1.00  0.00     0.173 A 
ATOM     75  C   UNL A   1      41.341  28.475  27.393  1.00  0.00     0.173 A 
ATOM     76  F   UNL A   1      39.230  26.310  29.406  1.00  0.00    -0.203 F 
ATOM     77  C   UNL A   1      40.128  25.982  27.253  1.00  0.00     0.198 A 
ATOM     78  C   UNL A   1      41.487  27.688  26.253  1.00  0.00     0.198 A 
ATOM     79  F   UNL A   1      41.940  29.675  27.435  1.00  0.00    -0.203 F 
ATOM     80  F   UNL A   1      39.566  24.767  27.204  1.00  0.00    -0.200 F 
ATOM     81  C   UNL A   1      40.887  26.440  26.186  1.00  0.00     0.200 A 
ATOM     82  F   UNL A   1      42.208  28.140  25.218  1.00  0.00    -0.200 F 
ATOM     83  F   UNL A   1      41.045  25.675  25.097  1.00  0.00    -0.200 F 
ENDBRANCH  49  73
BRANCH  61  84
ATOM     84  C   UNL A   1      43.852  28.272  34.621  1.00  0.00     0.064 A 
ATOM     85  C   UNL A   1      45.188  28.690  34.537  1.00  0.00     0.173 A 
ATOM     86  C   UNL A   1      43.575  27.084  35.315  1.00  0.00     0.173 A 
ATOM     87  F   UNL A   1      45.504  29.810  33.869  1.00  0.00    -0.203 F 
ATOM     88  C   UNL A   1      46.210  27.936  35.108  1.00  0.00     0.198 A 
ATOM     89  C   UNL A   1      44.595  26.348  35.908  1.00  0.00     0.198 A 
ATOM     90  F   UNL A   1      42.312  26.646  35.429  1.00  0.00    -0.203 F 
ATOM     91  F   UNL A   1      47.483  28.331  34.979  1.00  0.00    -0.200 F 
ATOM     92  C   UNL A   1      45.912  26.770  35.799  1.00  0.00     0.200 A 
ATOM     93  F   UNL A   1      44.305  25.228  36.586  1.00  0.00    -0.200 F 
ATOM     94  F   UNL A   1      46.896  26.051  36.355  1.00  0.00    -0.200 F 
ENDBRANCH  61  84
ENDBRANCH  35  36
ENDBRANCH  27  30
ENDBRANCH  25  26
ENDBRANCH   1  25
TORSDOF 13
ENDMDL
MODEL 2
REMARK VINA RESULT:     -12.5      0.062      1.199
REMARK SMILES C[C@@](NC(=O)c1ccc[nH]c1=O)(C(=O)NCCCNC(=O)c1ccc(-c2c3nc(c(-c4c(F)c(F)c(F)c(F)c4F)c4ccc([nH]4)c(-c4c(F)c(F)c(F)c(F)c4F)c4nc(c(-c5c(F)c(F)c(F)c(F)c5F)c5ccc2[nH]5)C=C4)C=C3)cc1)C(F)(F)F
REMARK SMILES IDX 17 1 16 2 15 3 13 4 14 5 2 7 1 8 3 9 4 10 5 12 6 13 7 14
REMARK SMILES IDX 11 15 8 16 10 17 12 18 9 19 85 21 86 22 87 23 88 24 18 25
REMARK SMILES IDX 19 26 20 27 21 29 22 30 23 31 84 32 24 33 83 34 25 35 26 36
REMARK SMILES IDX 27 37 77 38 28 39 82 40 76 41 78 42 29 43 81 44 75 45 74 46
REMARK SMILES IDX 30 48 62 49 42 50 61 51 43 52 46 53 60 54 79 55 44 56 45 57
REMARK SMILES IDX 59 59 80 60 47 61 31 62 32 63 40 64 33 65 34 66 38 67 41 68
REMARK SMILES IDX 35 69 36 70 39 71 37 72 63 73 64 74 72 75 65 76 66 77 70 78
REMARK SMILES IDX 73 79 67 80 68 81 71 82 69 83 48 84 49 85 57 86 50 87 51 88
REMARK SMILES IDX 55 89 58 90 52 91 53 92 56 93 54 94
REMARK H PARENT 15 6 3 11 10 20 19 28 78 47 46 58
REMARK Flexibility Score: inf
ROOT
ATOM      1  C   UNL A   1      31.524  32.095  26.598  1.00  0.00     0.042 C 
ENDROOT
BRANCH   1   2
ATOM      2  C   UNL A   1      31.881  30.693  26.137  1.00  0.00     0.117 C 
BRANCH   2   3
ATOM      3  N   UNL A   1      31.718  29.709  27.200  1.00  0.00    -0.354 N 
ATOM      4  C   UNL A   1      31.728  28.338  27.179  1.00  0.00     0.254 C 
ATOM      5  O   UNL A   1      31.461  27.787  28.247  1.00  0.00    -0.272 OA
ATOM      6  H   UNL A   1      31.575  30.099  28.093  1.00  0.00     0.163 HD
BRANCH   4   7
ATOM      7  C   UNL A   1      31.919  27.567  25.865  1.00  0.00     0.212 C 
ATOM      8  C   UNL A   1      31.704  26.068  26.224  1.00  0.00     0.056 C 
BRANCH   7   9
ATOM      9  N   UNL A   1      30.919  27.955  24.806  1.00  0.00    -0.330 N 
ATOM     10  C   UNL A   1      30.396  27.281  23.732  1.00  0.00     0.257 C 
ATOM     11  H   UNL A   1      30.575  28.873  24.903  1.00  0.00     0.165 HD
ATOM     12  O   UNL A   1      29.334  27.704  23.270  1.00  0.00    -0.269 OA
BRANCH  10  13
ATOM     13  C   UNL A   1      31.194  26.296  22.958  1.00  0.00     0.104 A 
ATOM     14  C   UNL A   1      32.086  26.796  22.077  1.00  0.00     0.021 A 
ATOM     15  C   UNL A   1      31.076  24.820  23.054  1.00  0.00     0.260 A 
ATOM     16  C   UNL A   1      33.031  25.943  21.387  1.00  0.00     0.019 A 
ATOM     17  N   UNL A   1      32.051  24.084  22.420  1.00  0.00    -0.328 N 
ATOM     18  O   UNL A   1      30.166  24.267  23.657  1.00  0.00    -0.269 OA
ATOM     19  C   UNL A   1      33.009  24.623  21.603  1.00  0.00     0.086 A 
ATOM     20  H   UNL A   1      32.061  23.110  22.562  1.00  0.00     0.169 HD
ENDBRANCH  10  13
ENDBRANCH   7   9
BRANCH   7  21
ATOM     21  C   UNL A   1      33.389  27.634  25.375  1.00  0.00     0.420 C 
ATOM     22  F   UNL A   1      34.262  27.924  26.367  1.00  0.00    -0.168 F 
ATOM     23  F   UNL A   1      33.750  26.398  24.915  1.00  0.00    -0.168 F 
ATOM     24  F   UNL A   1      33.613  28.474  24.357  1.00  0.00    -0.168 F 
ENDBRANCH   7  21
ENDBRANCH   4   7
ENDBRANCH   2   3
ENDBRANCH   1   2
BRANCH   1  25
ATOM     25  C   UNL A   1      32.646  32.778  27.370  1.00  0.00     0.118 C 
BRANCH  25  26
ATOM     26  N   UNL A   1      32.372  34.179  27.671  1.00  0.00    -0.352 N 
ATOM     27  C   UNL A   1      32.978  34.996  28.596  1.00  0.00     0.251 C 
ATOM     28  H   UNL A   1      31.656  34.596  27.139  1.00  0.00     0.163 HD
ATOM     29  O   UNL A   1      32.554  36.127  28.802  1.00  0.00    -0.269 OA
BRANCH  27  30
ATOM     30  C   UNL A   1      34.126  34.475  29.362  1.00  0.00     0.039 A 
ATOM     31  C   UNL A   1      33.898  33.833  30.581  1.00  0.00     0.014 A 
ATOM     32  C   UNL A   1      35.415  34.554  28.829  1.00  0.00     0.014 A 
ATOM     33  C   UNL A   1      34.955  33.188  31.224  1.00  0.00     0.010 A 
ATOM     34  C   UNL A   1      36.446  33.838  29.425  1.00  0.00     0.010 A 
ATOM     35  C   UNL A   1      36.225  33.145  30.624  1.00  0.00    -0.014 A 
BRANCH  35  36
ATOM     36  C   UNL A   1      37.343  32.375  31.226  1.00  0.00     0.031 A 
ATOM     37  C   UNL A   1      37.843  32.733  32.596  1.00  0.00     0.074 A 
ATOM     38  C   UNL A   1      37.963  31.421  30.504  1.00  0.00     0.049 A 
ATOM     39  N   UNL A   1      38.871  32.260  33.252  1.00  0.00    -0.248 NA
ATOM     40  C   UNL A   1      37.111  33.792  33.310  1.00  0.00     0.031 C 
ATOM     41  C   UNL A   1      37.609  31.027  29.139  1.00  0.00     0.029 A 
ATOM     42  N   UNL A   1      39.034  30.621  30.813  1.00  0.00    -0.354 N 
ATOM     43  C   UNL A   1      38.924  32.978  34.439  1.00  0.00     0.074 A 
ATOM     44  C   UNL A   1      37.858  33.956  34.391  1.00  0.00     0.031 C 
ATOM     45  C   UNL A   1      38.431  30.044  28.738  1.00  0.00     0.029 A 
ATOM     46  C   UNL A   1      39.392  29.765  29.800  1.00  0.00     0.049 A 
ATOM     47  H   UNL A   1      39.500  30.657  31.678  1.00  0.00     0.167 HD
ATOM     48  C   UNL A   1      39.768  32.821  35.485  1.00  0.00     0.037 A 
ATOM     49  C   UNL A   1      40.387  28.860  29.737  1.00  0.00     0.037 A 
ATOM     50  C   UNL A   1      40.800  31.820  35.546  1.00  0.00     0.049 A 
ATOM     51  C   UNL A   1      41.294  28.683  30.925  1.00  0.00     0.074 A 
ATOM     52  C   UNL A   1      41.662  31.531  36.588  1.00  0.00     0.029 A 
ATOM     53  N   UNL A   1      41.103  30.939  34.517  1.00  0.00    -0.354 N 
ATOM     54  N   UNL A   1      41.290  29.323  32.069  1.00  0.00    -0.248 NA
ATOM     55  C   UNL A   1      42.339  27.656  30.815  1.00  0.00     0.031 C 
ATOM     56  C   UNL A   1      42.510  30.496  36.178  1.00  0.00     0.029 A 
ATOM     57  C   UNL A   1      42.148  30.114  34.897  1.00  0.00     0.049 A 
ATOM     58  H   UNL A   1      40.643  30.906  33.648  1.00  0.00     0.167 HD
ATOM     59  C   UNL A   1      42.308  28.758  32.825  1.00  0.00     0.074 A 
ATOM     60  C   UNL A   1      42.902  27.716  32.013  1.00  0.00     0.031 C 
ATOM     61  C   UNL A   1      42.715  29.073  34.078  1.00  0.00     0.037 A 
BRANCH  48  62
ATOM     62  C   UNL A   1      39.602  33.746  36.654  1.00  0.00     0.064 A 
ATOM     63  C   UNL A   1      40.206  35.012  36.680  1.00  0.00     0.173 A 
ATOM     64  C   UNL A   1      38.809  33.374  37.750  1.00  0.00     0.173 A 
ATOM     65  F   UNL A   1      40.987  35.409  35.664  1.00  0.00    -0.203 F 
ATOM     66  C   UNL A   1      40.048  35.859  37.774  1.00  0.00     0.198 A 
ATOM     67  C   UNL A   1      38.628  34.237  38.828  1.00  0.00     0.198 A 
ATOM     68  F   UNL A   1      38.206  32.176  37.774  1.00  0.00    -0.203 F 
ATOM     69  F   UNL A   1      40.678  37.042  37.800  1.00  0.00    -0.200 F 
ATOM     70  C   UNL A   1      39.253  35.474  38.843  1.00  0.00     0.200 A 
ATOM     71  F   UNL A   1      37.852  33.867  39.856  1.00  0.00    -0.200 F 
ATOM     72  F   UNL A   1      39.098  36.292  39.893  1.00  0.00    -0.200 F 
ENDBRANCH  48  62
BRANCH  49  73
ATOM     73  C   UNL A   1      40.555  28.024  28.520  1.00  0.00     0.064 A 
ATOM     74  C   UNL A   1      41.336  28.473  27.446  1.00  0.00     0.173 A 
ATOM     75  C   UNL A   1      39.945  26.767  28.404  1.00  0.00     0.173 A 
ATOM     76  F   UNL A   1      41.924  29.677  27.503  1.00  0.00    -0.203 F 
ATOM     77  C   UNL A   1      41.484  27.704  26.293  1.00  0.00     0.198 A 
ATOM     78  C   UNL A   1      40.115  25.989  27.261  1.00  0.00     0.198 A 
ATOM     79  F   UNL A   1      39.194  26.290  29.408  1.00  0.00    -0.203 F 
ATOM     80  F   UNL A   1      42.202  28.175  25.265  1.00  0.00    -0.200 F 
ATOM     81  C   UNL A   1      40.877  26.460  26.204  1.00  0.00     0.200 A 
ATOM     82  F   UNL A   1      39.539  24.780  27.184  1.00  0.00    -0.200 F 
ATOM     83  F   UNL A   1      41.023  25.719  25.097  1.00  0.00    -0.200 F 
ENDBRANCH  49  73
BRANCH  61  84
ATOM     84  C   UNL A   1      43.828  28.258  34.664  1.00  0.00     0.064 A 
ATOM     85  C   UNL A   1      45.162  28.689  34.611  1.00  0.00     0.173 A 
ATOM     86  C   UNL A   1      43.550  27.054  35.329  1.00  0.00     0.173 A 
ATOM     87  F   UNL A   1      45.479  29.824  33.972  1.00  0.00    -0.203 F 
ATOM     88  C   UNL A   1      46.180  27.931  35.184  1.00  0.00     0.198 A 
ATOM     89  C   UNL A   1      44.566  26.314  35.925  1.00  0.00     0.198 A 
ATOM     90  F   UNL A   1      42.288  26.604  35.413  1.00  0.00    -0.203 F 
ATOM     91  F   UNL A   1      47.452  28.340  35.086  1.00  0.00    -0.200 F 
ATOM     92  C   UNL A   1      45.880  26.750  35.847  1.00  0.00     0.200 A 
ATOM     93  F   UNL A   1      44.273  25.179  36.575  1.00  0.00    -0.200 F 
ATOM     94  F   UNL A   1      46.861  26.027  36.406  1.00  0.00    -0.200 F 
ENDBRANCH  61  84
ENDBRANCH  35  36
ENDBRANCH  27  30
ENDBRANCH  25  26
ENDBRANCH   1  25
TORSDOF 13
ENDMDL
MODEL 3
REMARK VINA RESULT:     -12.4      4.198      7.483
REMARK SMILES C[C@@](NC(=O)c1ccc[nH]c1=O)(C(=O)NCCCNC(=O)c1ccc(-c2c3nc(c(-c4c(F)c(F)c(F)c(F)c4F)c4ccc([nH]4)c(-c4c(F)c(F)c(F)c(F)c4F)c4nc(c(-c5c(F)c(F)c(F)c(F)c5F)c5ccc2[nH]5)C=C4)C=C3)cc1)C(F)(F)F
REMARK SMILES IDX 17 1 16 2 15 3 13 4 14 5 2 7 1 8 3 9 4 10 5 12 6 13 7 14
REMARK SMILES IDX 11 15 8 16 10 17 12 18 9 19 85 21 86 22 87 23 88 24 18 25
REMARK SMILES IDX 19 26 20 27 21 29 22 30 23 31 84 32 24 33 83 34 25 35 26 36
REMARK SMILES IDX 27 37 77 38 28 39 82 40 76 41 78 42 29 43 81 44 75 45 74 46
REMARK SMILES IDX 30 48 62 49 42 50 61 51 43 52 46 53 60 54 79 55 44 56 45 57
REMARK SMILES IDX 59 59 80 60 47 61 31 62 32 63 40 64 33 65 34 66 38 67 41 68
REMARK SMILES IDX 35 69 36 70 39 71 37 72 63 73 64 74 72 75 65 76 66 77 70 78
REMARK SMILES IDX 73 79 67 80 68 81 71 82 69 83 48 84 49 85 57 86 50 87 51 88
REMARK SMILES IDX 55 89 58 90 52 91 53 92 56 93 54 94
REMARK H PARENT 15 6 3 11 10 20 19 28 78 47 46 58
REMARK Flexibility Score: inf
ROOT
ATOM      1  C   UNL A   1      35.741  33.567  29.432  1.00  0.00     0.042 C 
ENDROOT
BRANCH   1   2
ATOM      2  C   UNL A   1      34.565  34.279  30.077  1.00  0.00     0.117 C 
BRANCH   2   3
ATOM      3  N   UNL A   1      34.043  33.547  31.224  1.00  0.00    -0.354 N 
ATOM      4  C   UNL A   1      34.124  33.790  32.571  1.00  0.00     0.254 C 
ATOM      5  O   UNL A   1      33.653  32.915  33.298  1.00  0.00    -0.272 OA
ATOM      6  H   UNL A   1      33.542  32.731  30.989  1.00  0.00     0.163 HD
BRANCH   4   7
ATOM      7  C   UNL A   1      34.885  35.007  33.112  1.00  0.00     0.212 C 
ATOM      8  C   UNL A   1      35.052  34.753  34.638  1.00  0.00     0.056 C 
BRANCH   7   9
ATOM      9  N   UNL A   1      36.254  35.164  32.500  1.00  0.00    -0.330 N 
ATOM     10  C   UNL A   1      37.333  34.322  32.411  1.00  0.00     0.257 C 
ATOM     11  H   UNL A   1      36.403  36.044  32.083  1.00  0.00     0.165 HD
ATOM     12  O   UNL A   1      38.168  34.573  31.539  1.00  0.00    -0.269 OA
BRANCH  10  13
ATOM     13  C   UNL A   1      37.661  33.349  33.485  1.00  0.00     0.104 A 
ATOM     14  C   UNL A   1      38.503  33.774  34.451  1.00  0.00     0.021 A 
ATOM     15  C   UNL A   1      37.164  31.953  33.570  1.00  0.00     0.260 A 
ATOM     16  C   UNL A   1      38.767  32.976  35.631  1.00  0.00     0.019 A 
ATOM     17  N   UNL A   1      37.405  31.287  34.750  1.00  0.00    -0.328 N 
ATOM     18  O   UNL A   1      36.573  31.405  32.650  1.00  0.00    -0.269 OA
ATOM     19  C   UNL A   1      38.187  31.778  35.761  1.00  0.00     0.086 A 
ATOM     20  H   UNL A   1      36.989  30.404  34.876  1.00  0.00     0.169 HD
ENDBRANCH  10  13
ENDBRANCH   7   9
BRANCH   7  21
ATOM     21  C   UNL A   1      34.027  36.297  33.032  1.00  0.00     0.420 C 
ATOM     22  F   UNL A   1      32.728  36.047  32.748  1.00  0.00    -0.168 F 
ATOM     23  F   UNL A   1      34.028  36.896  34.261  1.00  0.00    -0.168 F 
ATOM     24  F   UNL A   1      34.474  37.227  32.179  1.00  0.00    -0.168 F 
ENDBRANCH   7  21
ENDBRANCH   4   7
ENDBRANCH   2   3
ENDBRANCH   1   2
BRANCH   1  25
ATOM     25  C   UNL A   1      35.502  33.215  27.970  1.00  0.00     0.118 C 
BRANCH  25  26
ATOM     26  N   UNL A   1      34.406  32.272  27.773  1.00  0.00    -0.352 N 
ATOM     27  C   UNL A   1      34.435  30.897  27.809  1.00  0.00     0.251 C 
ATOM     28  H   UNL A   1      33.526  32.674  27.591  1.00  0.00     0.163 HD
ATOM     29  O   UNL A   1      33.442  30.244  27.513  1.00  0.00    -0.269 OA
BRANCH  27  30
ATOM     30  C   UNL A   1      35.695  30.222  28.174  1.00  0.00     0.039 A 
ATOM     31  C   UNL A   1      36.741  30.181  27.250  1.00  0.00     0.014 A 
ATOM     32  C   UNL A   1      35.862  29.703  29.461  1.00  0.00     0.014 A 
ATOM     33  C   UNL A   1      37.988  29.698  27.648  1.00  0.00     0.010 A 
ATOM     34  C   UNL A   1      37.125  29.306  29.879  1.00  0.00     0.010 A 
ATOM     35  C   UNL A   1      38.201  29.304  28.979  1.00  0.00    -0.014 A 
BRANCH  35  36
ATOM     36  C   UNL A   1      39.542  28.891  29.463  1.00  0.00     0.031 A 
ATOM     37  C   UNL A   1      40.301  29.779  30.408  1.00  0.00     0.074 A 
ATOM     38  C   UNL A   1      40.112  27.770  28.980  1.00  0.00     0.049 A 
ATOM     39  N   UNL A   1      41.522  29.656  30.861  1.00  0.00    -0.248 NA
ATOM     40  C   UNL A   1      39.605  30.988  30.879  1.00  0.00     0.031 C 
ATOM     41  C   UNL A   1      39.502  26.860  28.009  1.00  0.00     0.029 A 
ATOM     42  N   UNL A   1      41.341  27.214  29.227  1.00  0.00    -0.354 N 
ATOM     43  C   UNL A   1      41.748  30.779  31.645  1.00  0.00     0.074 A 
ATOM     44  C   UNL A   1      40.559  31.599  31.565  1.00  0.00     0.031 C 
ATOM     45  C   UNL A   1      40.347  25.847  27.762  1.00  0.00     0.029 A 
ATOM     46  C   UNL A   1      41.573  26.055  28.526  1.00  0.00     0.049 A 
ATOM     47  H   UNL A   1      41.995  27.608  29.848  1.00  0.00     0.167 HD
ATOM     48  C   UNL A   1      42.839  31.086  32.385  1.00  0.00     0.037 A 
ATOM     49  C   UNL A   1      42.655  25.254  28.503  1.00  0.00     0.037 A 
ATOM     50  C   UNL A   1      44.002  30.247  32.495  1.00  0.00     0.049 A 
ATOM     51  C   UNL A   1      43.844  25.603  29.358  1.00  0.00     0.074 A 
ATOM     52  C   UNL A   1      45.130  30.433  33.274  1.00  0.00     0.029 A 
ATOM     53  N   UNL A   1      44.181  29.056  31.805  1.00  0.00    -0.354 N 
ATOM     54  N   UNL A   1      44.019  26.633  30.149  1.00  0.00    -0.248 NA
ATOM     55  C   UNL A   1      44.982  24.674  29.322  1.00  0.00     0.031 C 
ATOM     56  C   UNL A   1      46.008  29.370  33.030  1.00  0.00     0.029 A 
ATOM     57  C   UNL A   1      45.408  28.502  32.132  1.00  0.00     0.049 A 
ATOM     58  H   UNL A   1      43.532  28.664  31.178  1.00  0.00     0.167 HD
ATOM     59  C   UNL A   1      45.269  26.463  30.726  1.00  0.00     0.074 A 
ATOM     60  C   UNL A   1      45.806  25.224  30.201  1.00  0.00     0.031 C 
ATOM     61  C   UNL A   1      45.916  27.261  31.610  1.00  0.00     0.037 A 
BRANCH  48  62
ATOM     62  C   UNL A   1      42.818  32.379  33.144  1.00  0.00     0.064 A 
ATOM     63  C   UNL A   1      42.378  32.442  34.475  1.00  0.00     0.173 A 
ATOM     64  C   UNL A   1      43.266  33.565  32.545  1.00  0.00     0.173 A 
ATOM     65  F   UNL A   1      41.924  31.339  35.090  1.00  0.00    -0.203 F 
ATOM     66  C   UNL A   1      42.358  33.650  35.167  1.00  0.00     0.198 A 
ATOM     67  C   UNL A   1      43.274  34.766  33.250  1.00  0.00     0.198 A 
ATOM     68  F   UNL A   1      43.700  33.560  31.275  1.00  0.00    -0.203 F 
ATOM     69  F   UNL A   1      41.884  33.695  36.421  1.00  0.00    -0.200 F 
ATOM     70  C   UNL A   1      42.813  34.810  34.557  1.00  0.00     0.200 A 
ATOM     71  F   UNL A   1      43.722  35.884  32.662  1.00  0.00    -0.200 F 
ATOM     72  F   UNL A   1      42.798  35.970  35.226  1.00  0.00    -0.200 F 
ENDBRANCH  48  62
BRANCH  49  73
ATOM     73  C   UNL A   1      42.651  24.025  27.670  1.00  0.00     0.064 A 
ATOM     74  C   UNL A   1      42.263  22.792  28.214  1.00  0.00     0.173 A 
ATOM     75  C   UNL A   1      43.031  24.052  26.320  1.00  0.00     0.173 A 
ATOM     76  F   UNL A   1      41.910  22.713  29.505  1.00  0.00    -0.203 F 
ATOM     77  C   UNL A   1      42.274  21.630  27.445  1.00  0.00     0.198 A 
ATOM     78  C   UNL A   1      43.017  22.894  25.546  1.00  0.00     0.198 A 
ATOM     79  F   UNL A   1      43.403  25.209  25.751  1.00  0.00    -0.203 F 
ATOM     80  F   UNL A   1      41.938  20.459  28.001  1.00  0.00    -0.200 F 
ATOM     81  C   UNL A   1      42.646  21.683  26.110  1.00  0.00     0.200 A 
ATOM     82  F   UNL A   1      43.362  22.951  24.252  1.00  0.00    -0.200 F 
ATOM     83  F   UNL A   1      42.652  20.566  25.369  1.00  0.00    -0.200 F 
ENDBRANCH  49  73
BRANCH  61  84
ATOM     84  C   UNL A   1      47.257  26.800  32.097  1.00  0.00     0.064 A 
ATOM     85  C   UNL A   1      47.382  25.894  33.160  1.00  0.00     0.173 A 
ATOM     86  C   UNL A   1      48.430  27.235  31.459  1.00  0.00     0.173 A 
ATOM     87  F   UNL A   1      46.292  25.463  33.811  1.00  0.00    -0.203 F 
ATOM     88  C   UNL A   1      48.635  25.456  33.581  1.00  0.00     0.198 A 
ATOM     89  C   UNL A   1      49.678  26.774  31.864  1.00  0.00     0.198 A 
ATOM     90  F   UNL A   1      48.361  28.096  30.432  1.00  0.00    -0.203 F 
ATOM     91  F   UNL A   1      48.735  24.623  34.625  1.00  0.00    -0.200 F 
ATOM     92  C   UNL A   1      49.780  25.890  32.928  1.00  0.00     0.200 A 
ATOM     93  F   UNL A   1      50.782  27.184  31.225  1.00  0.00    -0.200 F 
ATOM     94  F   UNL A   1      50.985  25.460  33.330  1.00  0.00    -0.200 F 
ENDBRANCH  61  84
ENDBRANCH  35  36
ENDBRANCH  27  30
ENDBRANCH  25  26
ENDBRANCH   1  25
TORSDOF 13
ENDMDL
