MODEL 1
REMARK VINA RESULT:     -13.5      0.000      0.000
REMARK SMILES C[N@@H+]1CC[C@H]2CN(C(=O)c3csc(-c4ccncc4)n3)C[C@@]2(C(=O)NCCCNC(=O)c2ccc(-c3c4nc(c(-c5c(F)c(F)c(F)c(F)c5F)c5ccc([nH]5)c(-c5c(F)c(F)c(F)c(F)c5F)c5nc(c(-c6c(F)c(F)c(F)c(F)c6F)c6ccc3[nH]6)C=C5)C=C4)cc2)C1
REMARK SMILES IDX 26 1 25 2 23 3 24 4 22 6 1 7 2 8 3 9 95 10 4 12 5 13 21 14
REMARK SMILES IDX 6 15 7 16 8 17 9 18 10 19 11 20 20 21 12 22 13 23 14 24
REMARK SMILES IDX 15 25 19 26 16 27 18 28 17 29 27 30 28 31 29 32 30 33 31 35
REMARK SMILES IDX 32 36 33 37 94 38 34 39 93 40 35 41 36 42 37 43 87 44 38 45
REMARK SMILES IDX 92 46 86 47 88 48 39 49 91 50 85 51 84 52 40 54 72 55 52 56
REMARK SMILES IDX 71 57 53 58 56 59 70 60 89 61 54 62 55 63 69 65 90 66 57 67
REMARK SMILES IDX 41 68 42 69 50 70 43 71 44 72 48 73 51 74 45 75 46 76 49 77
REMARK SMILES IDX 47 78 73 79 74 80 82 81 75 82 76 83 80 84 83 85 77 86 78 87
REMARK SMILES IDX 81 88 79 89 58 90 59 91 67 92 60 93 61 94 65 95 68 96 62 97
REMARK SMILES IDX 63 98 66 99 64 100
REMARK H PARENT 25 5 2 11 29 34 88 53 56 64
REMARK Flexibility Score: inf
ROOT
ATOM      1  C   UNL A   1      32.179  27.006  26.566  1.00  0.00     0.117 C 
ENDROOT
BRANCH   1   2
ATOM      2  N   UNL A   1      31.285  25.845  26.540  1.00  0.00    -0.355 N 
ATOM      3  C   UNL A   1      31.452  24.509  26.262  1.00  0.00     0.234 C 
ATOM      4  O   UNL A   1      30.649  23.752  26.820  1.00  0.00    -0.274 OA
ATOM      5  H   UNL A   1      30.357  26.073  26.775  1.00  0.00     0.163 HD
BRANCH   3   6
ATOM      6  C   UNL A   1      32.415  23.977  25.181  1.00  0.00     0.120 C 
ATOM      7  C   UNL A   1      33.622  22.547  28.022  1.00  0.00     0.332 C 
ATOM      8  N   UNL A   1      33.978  22.465  26.607  1.00  0.00    -0.336 N 
ATOM      9  C   UNL A   1      35.117  23.347  26.332  1.00  0.00     0.262 C 
ATOM     10  C   UNL A   1      32.844  22.563  25.664  1.00  0.00     0.281 C 
ATOM     11  H   UNL A   1      34.288  21.512  26.420  1.00  0.00     0.347 HD
ATOM     12  C   UNL A   1      35.008  24.049  24.995  1.00  0.00     0.068 C 
ATOM     13  C   UNL A   1      33.706  24.854  24.932  1.00  0.00     0.037 C 
ATOM     14  C   UNL A   1      31.735  24.030  23.804  1.00  0.00     0.143 C 
ATOM     15  C   UNL A   1      33.590  25.459  23.533  1.00  0.00     0.125 C 
ATOM     16  N   UNL A   1      32.227  25.240  23.172  1.00  0.00    -0.336 N 
BRANCH  16  17
ATOM     17  C   UNL A   1      31.603  26.050  22.243  1.00  0.00     0.273 C 
ATOM     18  O   UNL A   1      31.966  26.088  21.070  1.00  0.00    -0.267 OA
BRANCH  17  19
ATOM     19  C   UNL A   1      30.531  26.925  22.727  1.00  0.00     0.139 A 
ATOM     20  C   UNL A   1      29.416  26.462  23.401  1.00  0.00     0.101 A 
ATOM     21  N   UNL A   1      30.486  28.287  22.406  1.00  0.00    -0.231 NA
ATOM     22  S   UNL A   1      28.303  27.738  23.657  1.00  0.00    -0.122 S 
ATOM     23  C   UNL A   1      29.332  28.802  22.778  1.00  0.00     0.124 A 
BRANCH  23  24
ATOM     24  C   UNL A   1      28.866  30.150  22.455  1.00  0.00     0.013 A 
ATOM     25  C   UNL A   1      28.987  31.173  23.400  1.00  0.00     0.031 A 
ATOM     26  C   UNL A   1      28.310  30.446  21.209  1.00  0.00     0.031 A 
ATOM     27  C   UNL A   1      28.572  32.447  23.050  1.00  0.00     0.111 A 
ATOM     28  C   UNL A   1      27.915  31.750  20.958  1.00  0.00     0.111 A 
ATOM     29  N   UNL A   1      28.040  32.756  21.850  1.00  0.00    -0.265 NA
ENDBRANCH  23  24
ENDBRANCH  17  19
ENDBRANCH  16  17
ENDBRANCH   3   6
ENDBRANCH   1   2
BRANCH   1  30
ATOM     30  C   UNL A   1      31.758  28.259  25.794  1.00  0.00     0.042 C 
BRANCH  30  31
ATOM     31  C   UNL A   1      32.904  29.199  25.407  1.00  0.00     0.118 C 
BRANCH  31  32
ATOM     32  N   UNL A   1      32.652  30.577  25.811  1.00  0.00    -0.352 N 
ATOM     33  C   UNL A   1      33.126  31.340  26.846  1.00  0.00     0.251 C 
ATOM     34  H   UNL A   1      32.016  31.050  25.229  1.00  0.00     0.163 HD
ATOM     35  O   UNL A   1      32.479  32.329  27.185  1.00  0.00    -0.269 OA
BRANCH  33  36
ATOM     36  C   UNL A   1      34.401  31.038  27.539  1.00  0.00     0.039 A 
ATOM     37  C   UNL A   1      34.607  29.738  28.022  1.00  0.00     0.014 A 
ATOM     38  C   UNL A   1      35.330  32.035  27.844  1.00  0.00     0.014 A 
ATOM     39  C   UNL A   1      35.748  29.435  28.774  1.00  0.00     0.010 A 
ATOM     40  C   UNL A   1      36.503  31.716  28.531  1.00  0.00     0.010 A 
ATOM     41  C   UNL A   1      36.718  30.419  29.018  1.00  0.00    -0.014 A 
BRANCH  41  42
ATOM     42  C   UNL A   1      37.948  30.115  29.797  1.00  0.00     0.031 A 
ATOM     43  C   UNL A   1      38.996  29.192  29.236  1.00  0.00     0.074 A 
ATOM     44  C   UNL A   1      38.090  30.618  31.039  1.00  0.00     0.049 A 
ATOM     45  N   UNL A   1      40.091  28.739  29.796  1.00  0.00    -0.248 NA
ATOM     46  C   UNL A   1      38.770  28.685  27.873  1.00  0.00     0.031 C 
ATOM     47  C   UNL A   1      37.124  31.487  31.712  1.00  0.00     0.029 A 
ATOM     48  N   UNL A   1      39.095  30.462  31.960  1.00  0.00    -0.354 N 
ATOM     49  C   UNL A   1      40.666  27.881  28.867  1.00  0.00     0.074 A 
ATOM     50  C   UNL A   1      39.778  27.837  27.726  1.00  0.00     0.031 C 
ATOM     51  C   UNL A   1      37.590  31.800  32.932  1.00  0.00     0.029 A 
ATOM     52  C   UNL A   1      38.870  31.128  33.139  1.00  0.00     0.049 A 
ATOM     53  H   UNL A   1      39.901  29.922  31.792  1.00  0.00     0.167 HD
ATOM     54  C   UNL A   1      41.838  27.207  28.950  1.00  0.00     0.037 A 
ATOM     55  C   UNL A   1      39.609  31.187  34.263  1.00  0.00     0.037 A 
ATOM     56  C   UNL A   1      42.738  27.280  30.073  1.00  0.00     0.049 A 
ATOM     57  C   UNL A   1      40.918  30.448  34.319  1.00  0.00     0.074 A 
ATOM     58  C   UNL A   1      43.976  26.682  30.229  1.00  0.00     0.029 A 
ATOM     59  N   UNL A   1      42.494  28.002  31.232  1.00  0.00    -0.354 N 
ATOM     60  N   UNL A   1      41.480  29.688  33.410  1.00  0.00    -0.248 NA
ATOM     61  C   UNL A   1      41.704  30.587  35.553  1.00  0.00     0.031 C 
ATOM     62  C   UNL A   1      44.464  27.011  31.498  1.00  0.00     0.029 A 
ATOM     63  C   UNL A   1      43.553  27.855  32.113  1.00  0.00     0.049 A 
ATOM     64  H   UNL A   1      41.687  28.539  31.403  1.00  0.00     0.167 HD
ATOM     65  C   UNL A   1      42.695  29.287  33.947  1.00  0.00     0.074 A 
ATOM     66  C   UNL A   1      42.796  29.900  35.255  1.00  0.00     0.031 C 
ATOM     67  C   UNL A   1      43.644  28.484  33.405  1.00  0.00     0.037 A 
BRANCH  54  68
ATOM     68  C   UNL A   1      42.224  26.332  27.789  1.00  0.00     0.064 A 
ATOM     69  C   UNL A   1      43.126  26.767  26.807  1.00  0.00     0.173 A 
ATOM     70  C   UNL A   1      41.716  25.028  27.680  1.00  0.00     0.173 A 
ATOM     71  F   UNL A   1      43.634  28.008  26.859  1.00  0.00    -0.203 F 
ATOM     72  C   UNL A   1      43.482  25.941  25.743  1.00  0.00     0.198 A 
ATOM     73  C   UNL A   1      42.099  24.194  26.631  1.00  0.00     0.198 A 
ATOM     74  F   UNL A   1      40.856  24.558  28.595  1.00  0.00    -0.203 F 
ATOM     75  F   UNL A   1      44.307  26.398  24.790  1.00  0.00    -0.200 F 
ATOM     76  C   UNL A   1      42.974  24.655  25.660  1.00  0.00     0.200 A 
ATOM     77  F   UNL A   1      41.617  22.945  26.561  1.00  0.00    -0.200 F 
ATOM     78  F   UNL A   1      43.324  23.859  24.640  1.00  0.00    -0.200 F 
ENDBRANCH  54  68
BRANCH  55  79
ATOM     79  C   UNL A   1      39.144  32.001  35.417  1.00  0.00     0.064 A 
ATOM     80  C   UNL A   1      39.490  33.354  35.526  1.00  0.00     0.173 A 
ATOM     81  C   UNL A   1      38.352  31.445  36.433  1.00  0.00     0.173 A 
ATOM     82  F   UNL A   1      40.260  33.925  34.588  1.00  0.00    -0.203 F 
ATOM     83  C   UNL A   1      39.084  34.116  36.620  1.00  0.00     0.198 A 
ATOM     84  C   UNL A   1      37.922  32.215  37.512  1.00  0.00     0.198 A 
ATOM     85  F   UNL A   1      37.985  30.156  36.371  1.00  0.00    -0.203 F 
ATOM     86  F   UNL A   1      39.470  35.394  36.722  1.00  0.00    -0.200 F 
ATOM     87  C   UNL A   1      38.295  33.547  37.609  1.00  0.00     0.200 A 
ATOM     88  F   UNL A   1      37.147  31.666  38.457  1.00  0.00    -0.200 F 
ATOM     89  F   UNL A   1      37.902  34.280  38.658  1.00  0.00    -0.200 F 
ENDBRANCH  55  79
BRANCH  67  90
ATOM     90  C   UNL A   1      44.893  28.261  34.207  1.00  0.00     0.064 A 
ATOM     91  C   UNL A   1      45.999  29.117  34.105  1.00  0.00     0.173 A 
ATOM     92  C   UNL A   1      44.973  27.189  35.108  1.00  0.00     0.173 A 
ATOM     93  F   UNL A   1      45.977  30.149  33.246  1.00  0.00    -0.203 F 
ATOM     94  C   UNL A   1      47.151  28.890  34.853  1.00  0.00     0.198 A 
ATOM     95  C   UNL A   1      46.115  26.982  35.876  1.00  0.00     0.198 A 
ATOM     96  F   UNL A   1      43.940  26.344  35.248  1.00  0.00    -0.203 F 
ATOM     97  F   UNL A   1      48.215  29.690  34.701  1.00  0.00    -0.200 F 
ATOM     98  C   UNL A   1      47.206  27.827  35.743  1.00  0.00     0.200 A 
ATOM     99  F   UNL A   1      46.160  25.963  36.745  1.00  0.00    -0.200 F 
ATOM    100  F   UNL A   1      48.314  27.612  36.464  1.00  0.00    -0.200 F 
ENDBRANCH  67  90
ENDBRANCH  41  42
ENDBRANCH  33  36
ENDBRANCH  31  32
ENDBRANCH  30  31
ENDBRANCH   1  30
TORSDOF 13
ENDMDL
MODEL 2
REMARK VINA RESULT:     -13.5      2.787      7.505
REMARK SMILES C[N@@H+]1CC[C@H]2CN(C(=O)c3csc(-c4ccncc4)n3)C[C@@]2(C(=O)NCCCNC(=O)c2ccc(-c3c4nc(c(-c5c(F)c(F)c(F)c(F)c5F)c5ccc([nH]5)c(-c5c(F)c(F)c(F)c(F)c5F)c5nc(c(-c6c(F)c(F)c(F)c(F)c6F)c6ccc3[nH]6)C=C5)C=C4)cc2)C1
REMARK SMILES IDX 26 1 25 2 23 3 24 4 22 6 1 7 2 8 3 9 95 10 4 12 5 13 21 14
REMARK SMILES IDX 6 15 7 16 8 17 9 18 10 19 11 20 20 21 12 22 13 23 14 24
REMARK SMILES IDX 15 25 19 26 16 27 18 28 17 29 27 30 28 31 29 32 30 33 31 35
REMARK SMILES IDX 32 36 33 37 94 38 34 39 93 40 35 41 36 42 37 43 87 44 38 45
REMARK SMILES IDX 92 46 86 47 88 48 39 49 91 50 85 51 84 52 40 54 72 55 52 56
REMARK SMILES IDX 71 57 53 58 56 59 70 60 89 61 54 62 55 63 69 65 90 66 57 67
REMARK SMILES IDX 41 68 42 69 50 70 43 71 44 72 48 73 51 74 45 75 46 76 49 77
REMARK SMILES IDX 47 78 73 79 74 80 82 81 75 82 76 83 80 84 83 85 77 86 78 87
REMARK SMILES IDX 81 88 79 89 58 90 59 91 67 92 60 93 61 94 65 95 68 96 62 97
REMARK SMILES IDX 63 98 66 99 64 100
REMARK H PARENT 25 5 2 11 29 34 88 53 56 64
REMARK Flexibility Score: inf
ROOT
ATOM      1  C   UNL A   1      31.959  26.262  26.414  1.00  0.00     0.117 C 
ENDROOT
BRANCH   1   2
ATOM      2  N   UNL A   1      33.137  25.397  26.519  1.00  0.00    -0.355 N 
ATOM      3  C   UNL A   1      33.716  24.458  25.699  1.00  0.00     0.234 C 
ATOM      4  O   UNL A   1      34.934  24.305  25.852  1.00  0.00    -0.274 OA
ATOM      5  H   UNL A   1      33.623  25.515  27.367  1.00  0.00     0.163 HD
BRANCH   3   6
ATOM      6  C   UNL A   1      32.910  23.500  24.797  1.00  0.00     0.120 C 
ATOM      7  C   UNL A   1      33.656  21.545  27.479  1.00  0.00     0.332 C 
ATOM      8  N   UNL A   1      32.878  21.349  26.258  1.00  0.00    -0.336 N 
ATOM      9  C   UNL A   1      33.687  20.637  25.265  1.00  0.00     0.262 C 
ATOM     10  C   UNL A   1      32.160  22.545  25.768  1.00  0.00     0.281 C 
ATOM     11  H   UNL A   1      32.088  20.745  26.486  1.00  0.00     0.347 HD
ATOM     12  C   UNL A   1      33.466  21.141  23.854  1.00  0.00     0.068 C 
ATOM     13  C   UNL A   1      33.766  22.642  23.783  1.00  0.00     0.037 C 
ATOM     14  C   UNL A   1      32.019  24.309  23.841  1.00  0.00     0.143 C 
ATOM     15  C   UNL A   1      33.432  23.125  22.371  1.00  0.00     0.125 C 
ATOM     16  N   UNL A   1      32.738  24.355  22.582  1.00  0.00    -0.336 N 
BRANCH  16  17
ATOM     17  C   UNL A   1      32.713  25.328  21.602  1.00  0.00     0.273 C 
ATOM     18  O   UNL A   1      33.076  25.098  20.451  1.00  0.00    -0.267 OA
BRANCH  17  19
ATOM     19  C   UNL A   1      32.302  26.676  22.004  1.00  0.00     0.139 A 
ATOM     20  C   UNL A   1      33.160  27.594  22.581  1.00  0.00     0.101 A 
ATOM     21  N   UNL A   1      30.963  27.083  21.970  1.00  0.00    -0.231 NA
ATOM     22  S   UNL A   1      32.297  28.988  23.074  1.00  0.00    -0.122 S 
ATOM     23  C   UNL A   1      30.827  28.248  22.569  1.00  0.00     0.124 A 
BRANCH  23  24
ATOM     24  C   UNL A   1      29.553  28.898  22.872  1.00  0.00     0.013 A 
ATOM     25  C   UNL A   1      29.523  30.264  23.170  1.00  0.00     0.031 A 
ATOM     26  C   UNL A   1      28.353  28.185  22.858  1.00  0.00     0.031 A 
ATOM     27  C   UNL A   1      28.296  30.859  23.415  1.00  0.00     0.111 A 
ATOM     28  C   UNL A   1      27.179  28.869  23.126  1.00  0.00     0.111 A 
ATOM     29  N   UNL A   1      27.125  30.190  23.398  1.00  0.00    -0.265 NA
ENDBRANCH  23  24
ENDBRANCH  17  19
ENDBRANCH  16  17
ENDBRANCH   3   6
ENDBRANCH   1   2
BRANCH   1  30
ATOM     30  C   UNL A   1      32.115  27.741  26.778  1.00  0.00     0.042 C 
BRANCH  30  31
ATOM     31  C   UNL A   1      33.562  28.227  26.910  1.00  0.00     0.118 C 
BRANCH  31  32
ATOM     32  N   UNL A   1      33.643  29.661  27.161  1.00  0.00    -0.352 N 
ATOM     33  C   UNL A   1      34.524  30.427  27.880  1.00  0.00     0.251 C 
ATOM     34  H   UNL A   1      32.926  30.180  26.731  1.00  0.00     0.163 HD
ATOM     35  O   UNL A   1      34.161  31.543  28.246  1.00  0.00    -0.269 OA
BRANCH  33  36
ATOM     36  C   UNL A   1      35.899  29.974  28.197  1.00  0.00     0.039 A 
ATOM     37  C   UNL A   1      36.162  29.490  29.487  1.00  0.00     0.014 A 
ATOM     38  C   UNL A   1      36.957  30.144  27.302  1.00  0.00     0.014 A 
ATOM     39  C   UNL A   1      37.467  29.151  29.862  1.00  0.00     0.010 A 
ATOM     40  C   UNL A   1      38.246  29.738  27.653  1.00  0.00     0.010 A 
ATOM     41  C   UNL A   1      38.519  29.253  28.940  1.00  0.00    -0.014 A 
BRANCH  41  42
ATOM     42  C   UNL A   1      39.910  28.879  29.310  1.00  0.00     0.031 A 
ATOM     43  C   UNL A   1      40.755  29.811  30.137  1.00  0.00     0.074 A 
ATOM     44  C   UNL A   1      40.435  27.728  28.845  1.00  0.00     0.049 A 
ATOM     45  N   UNL A   1      42.013  29.701  30.487  1.00  0.00    -0.248 NA
ATOM     46  C   UNL A   1      40.110  31.046  30.608  1.00  0.00     0.031 C 
ATOM     47  C   UNL A   1      39.734  26.763  27.997  1.00  0.00     0.029 A 
ATOM     48  N   UNL A   1      41.683  27.182  29.009  1.00  0.00    -0.354 N 
ATOM     49  C   UNL A   1      42.313  30.859  31.196  1.00  0.00     0.074 A 
ATOM     50  C   UNL A   1      41.121  31.679  31.185  1.00  0.00     0.031 C 
ATOM     51  C   UNL A   1      40.556  25.736  27.729  1.00  0.00     0.029 A 
ATOM     52  C   UNL A   1      41.850  25.985  28.357  1.00  0.00     0.049 A 
ATOM     53  H   UNL A   1      42.392  27.607  29.544  1.00  0.00     0.167 HD
ATOM     54  C   UNL A   1      43.469  31.197  31.815  1.00  0.00     0.037 A 
ATOM     55  C   UNL A   1      42.927  25.181  28.269  1.00  0.00     0.037 A 
ATOM     56  C   UNL A   1      44.642  30.361  31.853  1.00  0.00     0.049 A 
ATOM     57  C   UNL A   1      44.192  25.569  28.988  1.00  0.00     0.074 A 
ATOM     58  C   UNL A   1      45.843  30.587  32.502  1.00  0.00     0.029 A 
ATOM     59  N   UNL A   1      44.757  29.135  31.216  1.00  0.00    -0.354 N 
ATOM     60  N   UNL A   1      44.442  26.638  29.705  1.00  0.00    -0.248 NA
ATOM     61  C   UNL A   1      45.319  24.631  28.896  1.00  0.00     0.031 C 
ATOM     62  C   UNL A   1      46.698  29.515  32.227  1.00  0.00     0.029 A 
ATOM     63  C   UNL A   1      46.013  28.597  31.447  1.00  0.00     0.049 A 
ATOM     64  H   UNL A   1      44.050  28.709  30.679  1.00  0.00     0.167 HD
ATOM     65  C   UNL A   1      45.739  26.486  30.175  1.00  0.00     0.074 A 
ATOM     66  C   UNL A   1      46.218  25.214  29.674  1.00  0.00     0.031 C 
ATOM     67  C   UNL A   1      46.468  27.323  30.953  1.00  0.00     0.037 A 
BRANCH  54  68
ATOM     68  C   UNL A   1      43.524  32.528  32.512  1.00  0.00     0.064 A 
ATOM     69  C   UNL A   1      43.923  33.694  31.842  1.00  0.00     0.173 A 
ATOM     70  C   UNL A   1      43.135  32.646  33.855  1.00  0.00     0.173 A 
ATOM     71  F   UNL A   1      44.314  33.636  30.559  1.00  0.00    -0.203 F 
ATOM     72  C   UNL A   1      43.958  34.922  32.498  1.00  0.00     0.198 A 
ATOM     73  C   UNL A   1      43.142  33.881  34.499  1.00  0.00     0.198 A 
ATOM     74  F   UNL A   1      42.738  31.564  34.542  1.00  0.00    -0.203 F 
ATOM     75  F   UNL A   1      44.390  36.013  31.850  1.00  0.00    -0.200 F 
ATOM     76  C   UNL A   1      43.561  35.016  33.822  1.00  0.00     0.200 A 
ATOM     77  F   UNL A   1      42.744  33.972  35.776  1.00  0.00    -0.200 F 
ATOM     78  F   UNL A   1      43.589  36.200  34.449  1.00  0.00    -0.200 F 
ENDBRANCH  54  68
BRANCH  55  79
ATOM     79  C   UNL A   1      42.848  23.913  27.499  1.00  0.00     0.064 A 
ATOM     80  C   UNL A   1      43.172  23.881  26.136  1.00  0.00     0.173 A 
ATOM     81  C   UNL A   1      42.444  22.714  28.103  1.00  0.00     0.173 A 
ATOM     82  F   UNL A   1      43.547  25.006  25.510  1.00  0.00    -0.203 F 
ATOM     83  C   UNL A   1      43.070  22.702  25.399  1.00  0.00     0.198 A 
ATOM     84  C   UNL A   1      42.370  21.529  27.373  1.00  0.00     0.198 A 
ATOM     85  F   UNL A   1      42.132  22.690  29.408  1.00  0.00    -0.203 F 
ATOM     86  F   UNL A   1      43.339  22.710  24.087  1.00  0.00    -0.200 F 
ATOM     87  C   UNL A   1      42.675  21.526  26.020  1.00  0.00     0.200 A 
ATOM     88  F   UNL A   1      42.004  20.392  27.979  1.00  0.00    -0.200 F 
ATOM     89  F   UNL A   1      42.581  20.392  25.313  1.00  0.00    -0.200 F 
ENDBRANCH  55  79
BRANCH  67  90
ATOM     90  C   UNL A   1      47.842  26.868  31.350  1.00  0.00     0.064 A 
ATOM     91  C   UNL A   1      48.060  26.078  32.488  1.00  0.00     0.173 A 
ATOM     92  C   UNL A   1      48.954  27.208  30.563  1.00  0.00     0.173 A 
ATOM     93  F   UNL A   1      47.031  25.739  33.280  1.00  0.00    -0.203 F 
ATOM     94  C   UNL A   1      49.344  25.671  32.841  1.00  0.00     0.198 A 
ATOM     95  C   UNL A   1      50.232  26.774  30.903  1.00  0.00     0.198 A 
ATOM     96  F   UNL A   1      48.799  27.957  29.461  1.00  0.00    -0.203 F 
ATOM     97  F   UNL A   1      49.534  24.961  33.962  1.00  0.00    -0.200 F 
ATOM     98  C   UNL A   1      50.427  26.014  32.046  1.00  0.00     0.200 A 
ATOM     99  F   UNL A   1      51.275  27.095  30.126  1.00  0.00    -0.200 F 
ATOM    100  F   UNL A   1      51.661  25.618  32.386  1.00  0.00    -0.200 F 
ENDBRANCH  67  90
ENDBRANCH  41  42
ENDBRANCH  33  36
ENDBRANCH  31  32
ENDBRANCH  30  31
ENDBRANCH   1  30
TORSDOF 13
ENDMDL
MODEL 3
REMARK VINA RESULT:     -13.5      0.452      7.190
REMARK SMILES C[N@@H+]1CC[C@H]2CN(C(=O)c3csc(-c4ccncc4)n3)C[C@@]2(C(=O)NCCCNC(=O)c2ccc(-c3c4nc(c(-c5c(F)c(F)c(F)c(F)c5F)c5ccc([nH]5)c(-c5c(F)c(F)c(F)c(F)c5F)c5nc(c(-c6c(F)c(F)c(F)c(F)c6F)c6ccc3[nH]6)C=C5)C=C4)cc2)C1
REMARK SMILES IDX 26 1 25 2 23 3 24 4 22 6 1 7 2 8 3 9 95 10 4 12 5 13 21 14
REMARK SMILES IDX 6 15 7 16 8 17 9 18 10 19 11 20 20 21 12 22 13 23 14 24
REMARK SMILES IDX 15 25 19 26 16 27 18 28 17 29 27 30 28 31 29 32 30 33 31 35
REMARK SMILES IDX 32 36 33 37 94 38 34 39 93 40 35 41 36 42 37 43 87 44 38 45
REMARK SMILES IDX 92 46 86 47 88 48 39 49 91 50 85 51 84 52 40 54 72 55 52 56
REMARK SMILES IDX 71 57 53 58 56 59 70 60 89 61 54 62 55 63 69 65 90 66 57 67
REMARK SMILES IDX 41 68 42 69 50 70 43 71 44 72 48 73 51 74 45 75 46 76 49 77
REMARK SMILES IDX 47 78 73 79 74 80 82 81 75 82 76 83 80 84 83 85 77 86 78 87
REMARK SMILES IDX 81 88 79 89 58 90 59 91 67 92 60 93 61 94 65 95 68 96 62 97
REMARK SMILES IDX 63 98 66 99 64 100
REMARK H PARENT 25 5 2 11 29 34 88 53 56 64
REMARK Flexibility Score: inf
ROOT
ATOM      1  C   UNL A   1      32.323  27.146  26.618  1.00  0.00     0.117 C 
ENDROOT
BRANCH   1   2
ATOM      2  N   UNL A   1      31.418  25.993  26.609  1.00  0.00    -0.355 N 
ATOM      3  C   UNL A   1      31.576  24.649  26.364  1.00  0.00     0.234 C 
ATOM      4  O   UNL A   1      30.759  23.913  26.930  1.00  0.00    -0.274 OA
ATOM      5  H   UNL A   1      30.490  26.235  26.826  1.00  0.00     0.163 HD
BRANCH   3   6
ATOM      6  C   UNL A   1      32.547  24.083  25.308  1.00  0.00     0.120 C 
ATOM      7  C   UNL A   1      33.320  22.268  28.079  1.00  0.00     0.332 C 
ATOM      8  N   UNL A   1      33.778  22.257  26.692  1.00  0.00    -0.336 N 
ATOM      9  C   UNL A   1      35.040  22.994  26.581  1.00  0.00     0.262 C 
ATOM     10  C   UNL A   1      32.747  22.588  25.684  1.00  0.00     0.281 C 
ATOM     11  H   UNL A   1      33.975  21.289  26.437  1.00  0.00     0.347 HD
ATOM     12  C   UNL A   1      35.134  23.814  25.312  1.00  0.00     0.068 C 
ATOM     13  C   UNL A   1      33.957  24.792  25.234  1.00  0.00     0.037 C 
ATOM     14  C   UNL A   1      31.995  24.345  23.898  1.00  0.00     0.143 C 
ATOM     15  C   UNL A   1      34.037  25.524  23.893  1.00  0.00     0.125 C 
ATOM     16  N   UNL A   1      32.690  25.524  23.419  1.00  0.00    -0.336 N 
BRANCH  16  17
ATOM     17  C   UNL A   1      32.256  26.487  22.529  1.00  0.00     0.273 C 
ATOM     18  O   UNL A   1      32.890  26.765  21.514  1.00  0.00    -0.267 OA
BRANCH  17  19
ATOM     19  C   UNL A   1      31.038  27.224  22.879  1.00  0.00     0.139 A 
ATOM     20  C   UNL A   1      29.892  26.618  23.358  1.00  0.00     0.101 A 
ATOM     21  N   UNL A   1      30.896  28.590  22.609  1.00  0.00    -0.231 NA
ATOM     22  S   UNL A   1      28.625  27.761  23.492  1.00  0.00    -0.122 S 
ATOM     23  C   UNL A   1      29.653  28.968  22.822  1.00  0.00     0.124 A 
BRANCH  23  24
ATOM     24  C   UNL A   1      29.100  30.279  22.484  1.00  0.00     0.013 A 
ATOM     25  C   UNL A   1      28.558  30.500  21.214  1.00  0.00     0.031 A 
ATOM     26  C   UNL A   1      29.087  31.322  23.412  1.00  0.00     0.031 A 
ATOM     27  C   UNL A   1      28.008  31.740  20.938  1.00  0.00     0.111 A 
ATOM     28  C   UNL A   1      28.523  32.530  23.037  1.00  0.00     0.111 A 
ATOM     29  N   UNL A   1      27.978  32.758  21.823  1.00  0.00    -0.265 NA
ENDBRANCH  23  24
ENDBRANCH  17  19
ENDBRANCH  16  17
ENDBRANCH   3   6
ENDBRANCH   1   2
BRANCH   1  30
ATOM     30  C   UNL A   1      31.780  28.493  26.135  1.00  0.00     0.042 C 
BRANCH  30  31
ATOM     31  C   UNL A   1      32.816  29.415  25.484  1.00  0.00     0.118 C 
BRANCH  31  32
ATOM     32  N   UNL A   1      32.673  30.801  25.913  1.00  0.00    -0.352 N 
ATOM     33  C   UNL A   1      33.219  31.511  26.951  1.00  0.00     0.251 C 
ATOM     34  H   UNL A   1      32.065  31.330  25.348  1.00  0.00     0.163 HD
ATOM     35  O   UNL A   1      32.652  32.539  27.316  1.00  0.00    -0.269 OA
BRANCH  33  36
ATOM     36  C   UNL A   1      34.478  31.105  27.618  1.00  0.00     0.039 A 
ATOM     37  C   UNL A   1      34.589  29.789  28.092  1.00  0.00     0.014 A 
ATOM     38  C   UNL A   1      35.490  32.022  27.908  1.00  0.00     0.014 A 
ATOM     39  C   UNL A   1      35.716  29.393  28.820  1.00  0.00     0.010 A 
ATOM     40  C   UNL A   1      36.646  31.607  28.571  1.00  0.00     0.010 A 
ATOM     41  C   UNL A   1      36.766  30.295  29.049  1.00  0.00    -0.014 A 
BRANCH  41  42
ATOM     42  C   UNL A   1      37.983  29.890  29.802  1.00  0.00     0.031 A 
ATOM     43  C   UNL A   1      38.228  30.413  31.192  1.00  0.00     0.074 A 
ATOM     44  C   UNL A   1      38.901  29.102  29.209  1.00  0.00     0.049 A 
ATOM     45  N   UNL A   1      39.267  30.245  31.973  1.00  0.00    -0.248 NA
ATOM     46  C   UNL A   1      37.178  31.266  31.772  1.00  0.00     0.031 C 
ATOM     47  C   UNL A   1      38.802  28.567  27.850  1.00  0.00     0.029 A 
ATOM     48  N   UNL A   1      40.103  28.625  29.667  1.00  0.00    -0.354 N 
ATOM     49  C   UNL A   1      39.006  30.986  33.119  1.00  0.00     0.074 A 
ATOM     50  C   UNL A   1      37.734  31.644  32.914  1.00  0.00     0.031 C 
ATOM     51  C   UNL A   1      39.889  27.823  27.591  1.00  0.00     0.029 A 
ATOM     52  C   UNL A   1      40.775  27.854  28.750  1.00  0.00     0.049 A 
ATOM     53  H   UNL A   1      40.451  28.816  30.568  1.00  0.00     0.167 HD
ATOM     54  C   UNL A   1      39.750  31.092  34.246  1.00  0.00     0.037 A 
ATOM     55  C   UNL A   1      41.975  27.247  28.832  1.00  0.00     0.037 A 
ATOM     56  C   UNL A   1      40.999  30.407  34.460  1.00  0.00     0.049 A 
ATOM     57  C   UNL A   1      42.768  27.361  30.105  1.00  0.00     0.074 A 
ATOM     58  C   UNL A   1      41.800  30.402  35.589  1.00  0.00     0.029 A 
ATOM     59  N   UNL A   1      41.626  29.600  33.522  1.00  0.00    -0.354 N 
ATOM     60  N   UNL A   1      42.481  28.016  31.204  1.00  0.00    -0.248 NA
ATOM     61  C   UNL A   1      44.047  26.639  30.153  1.00  0.00     0.031 C 
ATOM     62  C   UNL A   1      42.930  29.623  35.320  1.00  0.00     0.029 A 
ATOM     63  C   UNL A   1      42.809  29.101  34.042  1.00  0.00     0.049 A 
ATOM     64  H   UNL A   1      41.281  29.410  32.620  1.00  0.00     0.167 HD
ATOM     65  C   UNL A   1      43.524  27.758  32.084  1.00  0.00     0.074 A 
ATOM     66  C   UNL A   1      44.442  26.875  31.395  1.00  0.00     0.031 C 
ATOM     67  C   UNL A   1      43.705  28.212  33.348  1.00  0.00     0.037 A 
BRANCH  54  68
ATOM     68  C   UNL A   1      39.230  31.977  35.344  1.00  0.00     0.064 A 
ATOM     69  C   UNL A   1      38.420  31.475  36.374  1.00  0.00     0.173 A 
ATOM     70  C   UNL A   1      39.578  33.337  35.390  1.00  0.00     0.173 A 
ATOM     71  F   UNL A   1      38.050  30.186  36.374  1.00  0.00    -0.203 F 
ATOM     72  C   UNL A   1      37.955  32.306  37.391  1.00  0.00     0.198 A 
ATOM     73  C   UNL A   1      39.136  34.157  36.425  1.00  0.00     0.198 A 
ATOM     74  F   UNL A   1      40.356  33.868  34.434  1.00  0.00    -0.203 F 
ATOM     75  F   UNL A   1      37.142  31.812  38.336  1.00  0.00    -0.200 F 
ATOM     76  C   UNL A   1      38.319  33.643  37.419  1.00  0.00     0.200 A 
ATOM     77  F   UNL A   1      39.501  35.446  36.458  1.00  0.00    -0.200 F 
ATOM     78  F   UNL A   1      37.876  34.438  38.403  1.00  0.00    -0.200 F 
ENDBRANCH  54  68
BRANCH  55  79
ATOM     79  C   UNL A   1      42.483  26.449  27.686  1.00  0.00     0.064 A 
ATOM     80  C   UNL A   1      42.074  25.122  27.498  1.00  0.00     0.173 A 
ATOM     81  C   UNL A   1      43.389  26.990  26.762  1.00  0.00     0.173 A 
ATOM     82  F   UNL A   1      41.222  24.555  28.365  1.00  0.00    -0.203 F 
ATOM     83  C   UNL A   1      42.570  24.358  26.443  1.00  0.00     0.198 A 
ATOM     84  C   UNL A   1      43.863  26.235  25.691  1.00  0.00     0.198 A 
ATOM     85  F   UNL A   1      43.805  28.259  26.892  1.00  0.00    -0.203 F 
ATOM     86  F   UNL A   1      42.199  23.078  26.315  1.00  0.00    -0.200 F 
ATOM     87  C   UNL A   1      43.460  24.917  25.538  1.00  0.00     0.200 A 
ATOM     88  F   UNL A   1      44.710  26.783  24.809  1.00  0.00    -0.200 F 
ATOM     89  F   UNL A   1      43.934  24.183  24.522  1.00  0.00    -0.200 F 
ENDBRANCH  55  79
BRANCH  67  90
ATOM     90  C   UNL A   1      44.916  27.722  34.086  1.00  0.00     0.064 A 
ATOM     91  C   UNL A   1      46.129  28.425  34.064  1.00  0.00     0.173 A 
ATOM     92  C   UNL A   1      44.853  26.545  34.847  1.00  0.00     0.173 A 
ATOM     93  F   UNL A   1      46.245  29.549  33.339  1.00  0.00    -0.203 F 
ATOM     94  C   UNL A   1      47.244  27.951  34.751  1.00  0.00     0.198 A 
ATOM     95  C   UNL A   1      45.960  26.090  35.557  1.00  0.00     0.198 A 
ATOM     96  F   UNL A   1      43.714  25.838  34.907  1.00  0.00    -0.203 F 
ATOM     97  F   UNL A   1      48.407  28.611  34.673  1.00  0.00    -0.200 F 
ATOM     98  C   UNL A   1      47.157  26.788  35.503  1.00  0.00     0.200 A 
ATOM     99  F   UNL A   1      45.870  24.973  36.293  1.00  0.00    -0.200 F 
ATOM    100  F   UNL A   1      48.229  26.336  36.165  1.00  0.00    -0.200 F 
ENDBRANCH  67  90
ENDBRANCH  41  42
ENDBRANCH  33  36
ENDBRANCH  31  32
ENDBRANCH  30  31
ENDBRANCH   1  30
TORSDOF 13
ENDMDL
