MODEL 1
REMARK VINA RESULT:     -13.2      0.000      0.000
REMARK SMILES O=C(NCCCNC(=O)c1ccc2c(c1)[C@@H](C1CCOCC1)C(=O)N2)c1ccc(-c2c3nc(c(-c4c(F)c(F)c(F)c(F)c4F)c4ccc([nH]4)c(-c4c(F)c(F)c(F)c(F)c4F)c4nc(c(-c5c(F)c(F)c(F)c(F)c5F)c5ccc2[nH]5)C=C4)C=C3)cc1
REMARK SMILES IDX 4 1 3 2 1 3 2 4 26 6 27 7 88 8 28 9 87 10 29 11 30 12 31 13
REMARK SMILES IDX 81 14 32 15 86 16 80 17 82 18 33 19 85 20 79 21 78 22 34 24
REMARK SMILES IDX 66 25 46 26 65 27 47 28 50 29 64 30 83 31 48 32 49 33 63 35
REMARK SMILES IDX 84 36 51 37 35 38 36 39 44 40 37 41 38 42 42 43 45 44 39 45
REMARK SMILES IDX 40 46 43 47 41 48 67 49 68 50 76 51 69 52 70 53 74 54 77 55
REMARK SMILES IDX 71 56 72 57 75 58 73 59 52 60 53 61 61 62 54 63 55 64 59 65
REMARK SMILES IDX 62 66 56 67 57 68 60 69 58 70 5 71 6 72 7 73 8 74 9 76 10 77
REMARK SMILES IDX 11 78 15 79 12 80 14 81 13 82 16 83 25 84 23 85 24 87 17 88
REMARK SMILES IDX 18 89 22 90 19 91 21 92 20 93
REMARK H PARENT 3 5 82 23 50 34 7 75 25 86
REMARK Flexibility Score: inf
ROOT
ATOM      1  C   UNL A   1      32.731  32.909  26.977  1.00  0.00     0.118 C 
ENDROOT
BRANCH   1   2
ATOM      2  N   UNL A   1      32.471  34.199  27.603  1.00  0.00    -0.352 N 
ATOM      3  O   UNL A   1      32.531  35.804  29.178  1.00  0.00    -0.269 OA
ATOM      4  C   UNL A   1      33.032  34.785  28.710  1.00  0.00     0.251 C 
ATOM      5  H   UNL A   1      31.778  34.739  27.159  1.00  0.00     0.163 HD
BRANCH   4   6
ATOM      6  C   UNL A   1      34.219  34.187  29.360  1.00  0.00     0.039 A 
ATOM      7  C   UNL A   1      35.511  34.515  28.950  1.00  0.00     0.014 A 
ATOM      8  C   UNL A   1      34.030  33.306  30.428  1.00  0.00     0.014 A 
ATOM      9  C   UNL A   1      36.604  33.847  29.492  1.00  0.00     0.010 A 
ATOM     10  C   UNL A   1      35.134  32.708  31.040  1.00  0.00     0.010 A 
ATOM     11  C   UNL A   1      36.429  32.946  30.553  1.00  0.00    -0.014 A 
BRANCH  11  12
ATOM     12  C   UNL A   1      37.607  32.292  31.176  1.00  0.00     0.031 A 
ATOM     13  C   UNL A   1      38.351  31.204  30.459  1.00  0.00     0.074 A 
ATOM     14  C   UNL A   1      37.993  32.677  32.408  1.00  0.00     0.049 A 
ATOM     15  N   UNL A   1      39.353  30.472  30.876  1.00  0.00    -0.248 NA
ATOM     16  C   UNL A   1      37.903  30.887  29.094  1.00  0.00     0.031 C 
ATOM     17  C   UNL A   1      37.351  33.726  33.202  1.00  0.00     0.029 A 
ATOM     18  N   UNL A   1      39.012  32.229  33.209  1.00  0.00    -0.354 N 
ATOM     19  C   UNL A   1      39.641  29.594  29.838  1.00  0.00     0.074 A 
ATOM     20  C   UNL A   1      38.687  29.865  28.784  1.00  0.00     0.031 C 
ATOM     21  C   UNL A   1      38.000  33.852  34.368  1.00  0.00     0.029 A 
ATOM     22  C   UNL A   1      39.057  32.850  34.432  1.00  0.00     0.049 A 
ATOM     23  H   UNL A   1      39.648  31.530  32.934  1.00  0.00     0.167 HD
ATOM     24  C   UNL A   1      40.616  28.655  29.775  1.00  0.00     0.037 A 
ATOM     25  C   UNL A   1      39.839  32.616  35.503  1.00  0.00     0.037 A 
ATOM     26  C   UNL A   1      41.560  28.396  30.832  1.00  0.00     0.049 A 
ATOM     27  C   UNL A   1      40.877  31.534  35.427  1.00  0.00     0.074 A 
ATOM     28  C   UNL A   1      42.606  27.490  30.853  1.00  0.00     0.029 A 
ATOM     29  N   UNL A   1      41.564  29.037  32.063  1.00  0.00    -0.354 N 
ATOM     30  N   UNL A   1      41.163  30.731  34.431  1.00  0.00    -0.248 NA
ATOM     31  C   UNL A   1      41.704  31.326  36.623  1.00  0.00     0.031 C 
ATOM     32  C   UNL A   1      43.201  27.536  32.118  1.00  0.00     0.029 A 
ATOM     33  C   UNL A   1      42.575  28.524  32.862  1.00  0.00     0.049 A 
ATOM     34  H   UNL A   1      40.942  29.751  32.330  1.00  0.00     0.167 HD
ATOM     35  C   UNL A   1      42.221  29.946  34.866  1.00  0.00     0.074 A 
ATOM     36  C   UNL A   1      42.529  30.372  36.216  1.00  0.00     0.031 C 
ATOM     37  C   UNL A   1      42.880  28.964  34.201  1.00  0.00     0.037 A 
BRANCH  24  38
ATOM     38  C   UNL A   1      40.686  27.811  28.532  1.00  0.00     0.064 A 
ATOM     39  C   UNL A   1      41.451  28.189  27.417  1.00  0.00     0.173 A 
ATOM     40  C   UNL A   1      39.990  26.593  28.462  1.00  0.00     0.173 A 
ATOM     41  F   UNL A   1      42.130  29.345  27.424  1.00  0.00    -0.203 F 
ATOM     42  C   UNL A   1      41.480  27.403  26.266  1.00  0.00     0.198 A 
ATOM     43  C   UNL A   1      40.051  25.793  27.324  1.00  0.00     0.198 A 
ATOM     44  F   UNL A   1      39.250  26.176  29.501  1.00  0.00    -0.203 F 
ATOM     45  F   UNL A   1      42.165  27.818  25.192  1.00  0.00    -0.200 F 
ATOM     46  C   UNL A   1      40.785  26.204  26.223  1.00  0.00     0.200 A 
ATOM     47  F   UNL A   1      39.392  24.626  27.291  1.00  0.00    -0.200 F 
ATOM     48  F   UNL A   1      40.815  25.450  25.115  1.00  0.00    -0.200 F 
ENDBRANCH  24  38
BRANCH  25  49
ATOM     49  C   UNL A   1      39.650  33.426  36.733  1.00  0.00     0.064 A 
ATOM     50  C   UNL A   1      40.340  34.632  36.916  1.00  0.00     0.173 A 
ATOM     51  C   UNL A   1      38.749  33.030  37.734  1.00  0.00     0.173 A 
ATOM     52  F   UNL A   1      41.223  35.044  35.995  1.00  0.00    -0.203 F 
ATOM     53  C   UNL A   1      40.145  35.405  38.058  1.00  0.00     0.198 A 
ATOM     54  C   UNL A   1      38.531  33.819  38.860  1.00  0.00     0.198 A 
ATOM     55  F   UNL A   1      38.057  31.888  37.601  1.00  0.00    -0.203 F 
ATOM     56  F   UNL A   1      40.843  36.536  38.226  1.00  0.00    -0.200 F 
ATOM     57  C   UNL A   1      39.234  35.003  39.025  1.00  0.00     0.200 A 
ATOM     58  F   UNL A   1      37.635  33.438  39.779  1.00  0.00    -0.200 F 
ATOM     59  F   UNL A   1      39.035  35.756  40.115  1.00  0.00    -0.200 F 
ENDBRANCH  25  49
BRANCH  37  60
ATOM     60  C   UNL A   1      44.043  28.317  34.898  1.00  0.00     0.064 A 
ATOM     61  C   UNL A   1      45.335  28.861  34.850  1.00  0.00     0.173 A 
ATOM     62  C   UNL A   1      43.846  27.163  35.672  1.00  0.00     0.173 A 
ATOM     63  F   UNL A   1      45.581  29.954  34.112  1.00  0.00    -0.203 F 
ATOM     64  C   UNL A   1      46.389  28.263  35.537  1.00  0.00     0.198 A 
ATOM     65  C   UNL A   1      44.893  26.586  36.383  1.00  0.00     0.198 A 
ATOM     66  F   UNL A   1      42.629  26.604  35.754  1.00  0.00    -0.203 F 
ATOM     67  F   UNL A   1      47.624  28.774  35.442  1.00  0.00    -0.200 F 
ATOM     68  C   UNL A   1      46.165  27.133  36.310  1.00  0.00     0.200 A 
ATOM     69  F   UNL A   1      44.672  25.504  37.142  1.00  0.00    -0.200 F 
ATOM     70  F   UNL A   1      47.178  26.567  36.981  1.00  0.00    -0.200 F 
ENDBRANCH  37  60
ENDBRANCH  11  12
ENDBRANCH   4   6
ENDBRANCH   1   2
BRANCH   1  71
ATOM     71  C   UNL A   1      31.486  32.040  26.878  1.00  0.00     0.042 C 
BRANCH  71  72
ATOM     72  C   UNL A   1      31.771  30.546  26.881  1.00  0.00     0.118 C 
BRANCH  72  73
ATOM     73  N   UNL A   1      33.084  30.233  27.426  1.00  0.00    -0.352 N 
ATOM     74  C   UNL A   1      34.001  29.293  27.030  1.00  0.00     0.251 C 
ATOM     75  H   UNL A   1      33.356  30.780  28.197  1.00  0.00     0.163 HD
ATOM     76  O   UNL A   1      34.964  29.037  27.747  1.00  0.00    -0.269 OA
BRANCH  74  77
ATOM     77  C   UNL A   1      33.828  28.574  25.750  1.00  0.00     0.040 A 
ATOM     78  C   UNL A   1      33.563  29.286  24.559  1.00  0.00     0.016 A 
ATOM     79  C   UNL A   1      33.971  27.179  25.742  1.00  0.00     0.020 A 
ATOM     80  C   UNL A   1      33.344  28.609  23.361  1.00  0.00     0.027 A 
ATOM     81  C   UNL A   1      33.768  26.518  24.542  1.00  0.00    -0.011 A 
ATOM     82  C   UNL A   1      33.450  27.236  23.388  1.00  0.00     0.045 A 
ATOM     83  C   UNL A   1      33.833  25.043  24.211  1.00  0.00     0.114 C 
ATOM     84  N   UNL A   1      33.281  26.372  22.323  1.00  0.00    -0.325 N 
ATOM     85  C   UNL A   1      33.498  25.055  22.699  1.00  0.00     0.232 C 
ATOM     86  H   UNL A   1      33.037  26.655  21.414  1.00  0.00     0.169 HD
ATOM     87  O   UNL A   1      33.456  24.101  21.937  1.00  0.00    -0.274 OA
BRANCH  83  88
ATOM     88  C   UNL A   1      32.909  24.158  25.072  1.00  0.00     0.010 C 
ATOM     89  C   UNL A   1      31.538  24.815  25.315  1.00  0.00     0.033 C 
ATOM     90  C   UNL A   1      33.523  23.735  26.418  1.00  0.00     0.033 C 
ATOM     91  C   UNL A   1      30.659  23.954  26.213  1.00  0.00     0.160 C 
ATOM     92  C   UNL A   1      32.525  22.926  27.240  1.00  0.00     0.160 C 
ATOM     93  O   UNL A   1      31.322  23.661  27.441  1.00  0.00    -0.381 OA
ENDBRANCH  83  88
ENDBRANCH  74  77
ENDBRANCH  72  73
ENDBRANCH  71  72
ENDBRANCH   1  71
TORSDOF 11
ENDMDL
MODEL 2
REMARK VINA RESULT:     -13.2      0.085      1.604
REMARK SMILES O=C(NCCCNC(=O)c1ccc2c(c1)[C@@H](C1CCOCC1)C(=O)N2)c1ccc(-c2c3nc(c(-c4c(F)c(F)c(F)c(F)c4F)c4ccc([nH]4)c(-c4c(F)c(F)c(F)c(F)c4F)c4nc(c(-c5c(F)c(F)c(F)c(F)c5F)c5ccc2[nH]5)C=C4)C=C3)cc1
REMARK SMILES IDX 4 1 3 2 1 3 2 4 26 6 27 7 88 8 28 9 87 10 29 11 30 12 31 13
REMARK SMILES IDX 81 14 32 15 86 16 80 17 82 18 33 19 85 20 79 21 78 22 34 24
REMARK SMILES IDX 66 25 46 26 65 27 47 28 50 29 64 30 83 31 48 32 49 33 63 35
REMARK SMILES IDX 84 36 51 37 35 38 36 39 44 40 37 41 38 42 42 43 45 44 39 45
REMARK SMILES IDX 40 46 43 47 41 48 67 49 68 50 76 51 69 52 70 53 74 54 77 55
REMARK SMILES IDX 71 56 72 57 75 58 73 59 52 60 53 61 61 62 54 63 55 64 59 65
REMARK SMILES IDX 62 66 56 67 57 68 60 69 58 70 5 71 6 72 7 73 8 74 9 76 10 77
REMARK SMILES IDX 11 78 15 79 12 80 14 81 13 82 16 83 25 84 23 85 24 87 17 88
REMARK SMILES IDX 18 89 22 90 19 91 21 92 20 93
REMARK H PARENT 3 5 82 23 50 34 7 75 25 86
REMARK Flexibility Score: inf
ROOT
ATOM      1  C   UNL A   1      32.738  32.915  26.989  1.00  0.00     0.118 C 
ENDROOT
BRANCH   1   2
ATOM      2  N   UNL A   1      32.473  34.202  27.618  1.00  0.00    -0.352 N 
ATOM      3  O   UNL A   1      32.528  35.802  29.198  1.00  0.00    -0.269 OA
ATOM      4  C   UNL A   1      33.032  34.786  28.728  1.00  0.00     0.251 C 
ATOM      5  H   UNL A   1      31.780  34.742  27.175  1.00  0.00     0.163 HD
BRANCH   4   6
ATOM      6  C   UNL A   1      34.218  34.189  29.379  1.00  0.00     0.039 A 
ATOM      7  C   UNL A   1      35.511  34.569  29.016  1.00  0.00     0.014 A 
ATOM      8  C   UNL A   1      34.028  33.254  30.400  1.00  0.00     0.014 A 
ATOM      9  C   UNL A   1      36.608  33.904  29.553  1.00  0.00     0.010 A 
ATOM     10  C   UNL A   1      35.133  32.656  31.010  1.00  0.00     0.010 A 
ATOM     11  C   UNL A   1      36.432  32.950  30.566  1.00  0.00    -0.014 A 
BRANCH  11  12
ATOM     12  C   UNL A   1      37.612  32.298  31.188  1.00  0.00     0.031 A 
ATOM     13  C   UNL A   1      38.358  31.212  30.468  1.00  0.00     0.074 A 
ATOM     14  C   UNL A   1      37.999  32.681  32.419  1.00  0.00     0.049 A 
ATOM     15  N   UNL A   1      39.362  30.481  30.883  1.00  0.00    -0.248 NA
ATOM     16  C   UNL A   1      37.909  30.896  29.103  1.00  0.00     0.031 C 
ATOM     17  C   UNL A   1      37.356  33.728  33.216  1.00  0.00     0.029 A 
ATOM     18  N   UNL A   1      39.020  32.234  33.218  1.00  0.00    -0.354 N 
ATOM     19  C   UNL A   1      39.651  29.606  29.843  1.00  0.00     0.074 A 
ATOM     20  C   UNL A   1      38.695  29.876  28.790  1.00  0.00     0.031 C 
ATOM     21  C   UNL A   1      38.006  33.854  34.381  1.00  0.00     0.029 A 
ATOM     22  C   UNL A   1      39.065  32.854  34.442  1.00  0.00     0.049 A 
ATOM     23  H   UNL A   1      39.657  31.537  32.942  1.00  0.00     0.167 HD
ATOM     24  C   UNL A   1      40.628  28.669  29.777  1.00  0.00     0.037 A 
ATOM     25  C   UNL A   1      39.849  32.620  35.512  1.00  0.00     0.037 A 
ATOM     26  C   UNL A   1      41.574  28.410  30.833  1.00  0.00     0.049 A 
ATOM     27  C   UNL A   1      40.889  31.540  35.433  1.00  0.00     0.074 A 
ATOM     28  C   UNL A   1      42.622  27.506  30.851  1.00  0.00     0.029 A 
ATOM     29  N   UNL A   1      41.578  29.049  32.065  1.00  0.00    -0.354 N 
ATOM     30  N   UNL A   1      41.176  30.739  34.436  1.00  0.00    -0.248 NA
ATOM     31  C   UNL A   1      41.718  31.333  36.628  1.00  0.00     0.031 C 
ATOM     32  C   UNL A   1      43.218  27.552  32.115  1.00  0.00     0.029 A 
ATOM     33  C   UNL A   1      42.591  28.537  32.862  1.00  0.00     0.049 A 
ATOM     34  H   UNL A   1      40.954  29.762  32.334  1.00  0.00     0.167 HD
ATOM     35  C   UNL A   1      42.236  29.956  34.868  1.00  0.00     0.074 A 
ATOM     36  C   UNL A   1      42.545  30.381  36.218  1.00  0.00     0.031 C 
ATOM     37  C   UNL A   1      42.896  28.976  34.202  1.00  0.00     0.037 A 
BRANCH  24  38
ATOM     38  C   UNL A   1      40.698  27.826  28.533  1.00  0.00     0.064 A 
ATOM     39  C   UNL A   1      40.009  26.609  28.417  1.00  0.00     0.173 A 
ATOM     40  C   UNL A   1      41.456  28.253  27.430  1.00  0.00     0.173 A 
ATOM     41  F   UNL A   1      39.276  26.148  29.441  1.00  0.00    -0.203 F 
ATOM     42  C   UNL A   1      40.110  25.833  27.264  1.00  0.00     0.198 A 
ATOM     43  C   UNL A   1      41.525  27.493  26.266  1.00  0.00     0.198 A 
ATOM     44  F   UNL A   1      42.129  29.413  27.480  1.00  0.00    -0.203 F 
ATOM     45  F   UNL A   1      39.495  24.644  27.204  1.00  0.00    -0.200 F 
ATOM     46  C   UNL A   1      40.863  26.278  26.188  1.00  0.00     0.200 A 
ATOM     47  F   UNL A   1      42.241  27.933  25.221  1.00  0.00    -0.200 F 
ATOM     48  F   UNL A   1      40.959  25.530  25.080  1.00  0.00    -0.200 F 
ENDBRANCH  24  38
BRANCH  25  49
ATOM     49  C   UNL A   1      39.659  33.428  36.744  1.00  0.00     0.064 A 
ATOM     50  C   UNL A   1      40.364  34.624  36.937  1.00  0.00     0.173 A 
ATOM     51  C   UNL A   1      38.745  33.039  37.735  1.00  0.00     0.173 A 
ATOM     52  F   UNL A   1      41.260  35.028  36.025  1.00  0.00    -0.203 F 
ATOM     53  C   UNL A   1      40.168  35.395  38.080  1.00  0.00     0.198 A 
ATOM     54  C   UNL A   1      38.527  33.827  38.862  1.00  0.00     0.198 A 
ATOM     55  F   UNL A   1      38.041  31.907  37.592  1.00  0.00    -0.203 F 
ATOM     56  F   UNL A   1      40.879  36.517  38.258  1.00  0.00    -0.200 F 
ATOM     57  C   UNL A   1      39.244  35.002  39.037  1.00  0.00     0.200 A 
ATOM     58  F   UNL A   1      37.619  33.454  39.772  1.00  0.00    -0.200 F 
ATOM     59  F   UNL A   1      39.045  35.753  40.129  1.00  0.00    -0.200 F 
ENDBRANCH  25  49
BRANCH  37  60
ATOM     60  C   UNL A   1      44.062  28.331  34.896  1.00  0.00     0.064 A 
ATOM     61  C   UNL A   1      43.923  27.149  35.637  1.00  0.00     0.173 A 
ATOM     62  C   UNL A   1      45.348  28.879  34.768  1.00  0.00     0.173 A 
ATOM     63  F   UNL A   1      42.714  26.593  35.804  1.00  0.00    -0.203 F 
ATOM     64  C   UNL A   1      45.027  26.549  36.241  1.00  0.00     0.198 A 
ATOM     65  C   UNL A   1      46.453  28.261  35.343  1.00  0.00     0.198 A 
ATOM     66  F   UNL A   1      45.535  30.007  34.066  1.00  0.00    -0.203 F 
ATOM     67  F   UNL A   1      44.866  25.444  36.981  1.00  0.00    -0.200 F 
ATOM     68  C   UNL A   1      46.291  27.100  36.084  1.00  0.00     0.200 A 
ATOM     69  F   UNL A   1      47.675  28.784  35.178  1.00  0.00    -0.200 F 
ATOM     70  F   UNL A   1      47.354  26.513  36.653  1.00  0.00    -0.200 F 
ENDBRANCH  37  60
ENDBRANCH  11  12
ENDBRANCH   4   6
ENDBRANCH   1   2
BRANCH   1  71
ATOM     71  C   UNL A   1      31.493  32.047  26.877  1.00  0.00     0.042 C 
BRANCH  71  72
ATOM     72  C   UNL A   1      31.777  30.552  26.876  1.00  0.00     0.118 C 
BRANCH  72  73
ATOM     73  N   UNL A   1      33.086  30.236  27.431  1.00  0.00    -0.352 N 
ATOM     74  C   UNL A   1      34.004  29.295  27.041  1.00  0.00     0.251 C 
ATOM     75  H   UNL A   1      33.353  30.783  28.204  1.00  0.00     0.163 HD
ATOM     76  O   UNL A   1      34.960  29.036  27.765  1.00  0.00    -0.269 OA
BRANCH  74  77
ATOM     77  C   UNL A   1      33.838  28.577  25.759  1.00  0.00     0.040 A 
ATOM     78  C   UNL A   1      33.578  29.290  24.568  1.00  0.00     0.016 A 
ATOM     79  C   UNL A   1      33.985  27.182  25.750  1.00  0.00     0.020 A 
ATOM     80  C   UNL A   1      33.367  28.614  23.368  1.00  0.00     0.027 A 
ATOM     81  C   UNL A   1      33.789  26.523  24.549  1.00  0.00    -0.011 A 
ATOM     82  C   UNL A   1      33.475  27.241  23.394  1.00  0.00     0.045 A 
ATOM     83  C   UNL A   1      33.860  25.048  24.217  1.00  0.00     0.114 C 
ATOM     84  N   UNL A   1      33.314  26.378  22.327  1.00  0.00    -0.325 N 
ATOM     85  C   UNL A   1      33.532  25.061  22.702  1.00  0.00     0.232 C 
ATOM     86  H   UNL A   1      33.074  26.662  21.417  1.00  0.00     0.169 HD
ATOM     87  O   UNL A   1      33.496  24.108  21.940  1.00  0.00    -0.274 OA
BRANCH  83  88
ATOM     88  C   UNL A   1      32.933  24.160  25.072  1.00  0.00     0.010 C 
ATOM     89  C   UNL A   1      31.547  24.797  25.277  1.00  0.00     0.033 C 
ATOM     90  C   UNL A   1      33.527  23.768  26.436  1.00  0.00     0.033 C 
ATOM     91  C   UNL A   1      30.664  23.934  26.170  1.00  0.00     0.160 C 
ATOM     92  C   UNL A   1      32.526  22.953  27.249  1.00  0.00     0.160 C 
ATOM     93  O   UNL A   1      31.307  23.670  27.415  1.00  0.00    -0.381 OA
ENDBRANCH  83  88
ENDBRANCH  74  77
ENDBRANCH  72  73
ENDBRANCH  71  72
ENDBRANCH   1  71
TORSDOF 11
ENDMDL
MODEL 3
REMARK VINA RESULT:     -13.1      5.419     10.528
REMARK SMILES O=C(NCCCNC(=O)c1ccc2c(c1)[C@@H](C1CCOCC1)C(=O)N2)c1ccc(-c2c3nc(c(-c4c(F)c(F)c(F)c(F)c4F)c4ccc([nH]4)c(-c4c(F)c(F)c(F)c(F)c4F)c4nc(c(-c5c(F)c(F)c(F)c(F)c5F)c5ccc2[nH]5)C=C4)C=C3)cc1
REMARK SMILES IDX 4 1 3 2 1 3 2 4 26 6 27 7 88 8 28 9 87 10 29 11 30 12 31 13
REMARK SMILES IDX 81 14 32 15 86 16 80 17 82 18 33 19 85 20 79 21 78 22 34 24
REMARK SMILES IDX 66 25 46 26 65 27 47 28 50 29 64 30 83 31 48 32 49 33 63 35
REMARK SMILES IDX 84 36 51 37 35 38 36 39 44 40 37 41 38 42 42 43 45 44 39 45
REMARK SMILES IDX 40 46 43 47 41 48 67 49 68 50 76 51 69 52 70 53 74 54 77 55
REMARK SMILES IDX 71 56 72 57 75 58 73 59 52 60 53 61 61 62 54 63 55 64 59 65
REMARK SMILES IDX 62 66 56 67 57 68 60 69 58 70 5 71 6 72 7 73 8 74 9 76 10 77
REMARK SMILES IDX 11 78 15 79 12 80 14 81 13 82 16 83 25 84 23 85 24 87 17 88
REMARK SMILES IDX 18 89 22 90 19 91 21 92 20 93
REMARK H PARENT 3 5 82 23 50 34 7 75 25 86
REMARK Flexibility Score: inf
ROOT
ATOM      1  C   UNL A   1      39.171  19.925  26.034  1.00  0.00     0.118 C 
ENDROOT
BRANCH   1   2
ATOM      2  N   UNL A   1      40.322  19.039  25.917  1.00  0.00    -0.352 N 
ATOM      3  O   UNL A   1      42.476  18.438  25.683  1.00  0.00    -0.269 OA
ATOM      4  C   UNL A   1      41.666  19.303  26.001  1.00  0.00     0.251 C 
ATOM      5  H   UNL A   1      40.098  18.095  25.749  1.00  0.00     0.163 HD
BRANCH   4   6
ATOM      6  C   UNL A   1      42.147  20.629  26.446  1.00  0.00     0.039 A 
ATOM      7  C   UNL A   1      42.272  20.937  27.802  1.00  0.00     0.014 A 
ATOM      8  C   UNL A   1      42.516  21.571  25.481  1.00  0.00     0.014 A 
ATOM      9  C   UNL A   1      42.607  22.228  28.194  1.00  0.00     0.010 A 
ATOM     10  C   UNL A   1      42.948  22.839  25.878  1.00  0.00     0.010 A 
ATOM     11  C   UNL A   1      42.962  23.190  27.237  1.00  0.00    -0.014 A 
BRANCH  11  12
ATOM     12  C   UNL A   1      43.390  24.545  27.666  1.00  0.00     0.031 A 
ATOM     13  C   UNL A   1      42.377  25.593  28.027  1.00  0.00     0.074 A 
ATOM     14  C   UNL A   1      44.705  24.832  27.712  1.00  0.00     0.049 A 
ATOM     15  N   UNL A   1      42.564  26.847  28.352  1.00  0.00    -0.248 NA
ATOM     16  C   UNL A   1      40.966  25.180  28.011  1.00  0.00     0.031 C 
ATOM     17  C   UNL A   1      45.783  23.896  27.387  1.00  0.00     0.029 A 
ATOM     18  N   UNL A   1      45.360  25.992  28.043  1.00  0.00    -0.354 N 
ATOM     19  C   UNL A   1      41.297  27.379  28.557  1.00  0.00     0.074 A 
ATOM     20  C   UNL A   1      40.349  26.319  28.289  1.00  0.00     0.031 C 
ATOM     21  C   UNL A   1      46.963  24.511  27.550  1.00  0.00     0.029 A 
ATOM     22  C   UNL A   1      46.724  25.900  27.924  1.00  0.00     0.049 A 
ATOM     23  H   UNL A   1      44.896  26.808  28.336  1.00  0.00     0.167 HD
ATOM     24  C   UNL A   1      40.961  28.636  28.939  1.00  0.00     0.037 A 
ATOM     25  C   UNL A   1      47.678  26.839  28.063  1.00  0.00     0.037 A 
ATOM     26  C   UNL A   1      41.915  29.683  29.204  1.00  0.00     0.049 A 
ATOM     27  C   UNL A   1      47.278  28.238  28.436  1.00  0.00     0.074 A 
ATOM     28  C   UNL A   1      41.680  30.979  29.627  1.00  0.00     0.029 A 
ATOM     29  N   UNL A   1      43.290  29.555  29.057  1.00  0.00    -0.354 N 
ATOM     30  N   UNL A   1      46.081  28.724  28.657  1.00  0.00    -0.248 NA
ATOM     31  C   UNL A   1      48.361  29.219  28.578  1.00  0.00     0.031 C 
ATOM     32  C   UNL A   1      42.904  31.654  29.675  1.00  0.00     0.029 A 
ATOM     33  C   UNL A   1      43.912  30.759  29.353  1.00  0.00     0.049 A 
ATOM     34  H   UNL A   1      43.756  28.732  28.785  1.00  0.00     0.167 HD
ATOM     35  C   UNL A   1      46.266  30.056  28.997  1.00  0.00     0.074 A 
ATOM     36  C   UNL A   1      47.694  30.301  28.956  1.00  0.00     0.031 C 
ATOM     37  C   UNL A   1      45.336  30.988  29.319  1.00  0.00     0.037 A 
BRANCH  24  38
ATOM     38  C   UNL A   1      39.497  28.958  29.056  1.00  0.00     0.064 A 
ATOM     39  C   UNL A   1      38.814  28.886  30.280  1.00  0.00     0.173 A 
ATOM     40  C   UNL A   1      38.768  29.363  27.926  1.00  0.00     0.173 A 
ATOM     41  F   UNL A   1      39.457  28.496  31.390  1.00  0.00    -0.203 F 
ATOM     42  C   UNL A   1      37.450  29.164  30.359  1.00  0.00     0.198 A 
ATOM     43  C   UNL A   1      37.414  29.676  28.016  1.00  0.00     0.198 A 
ATOM     44  F   UNL A   1      39.370  29.460  26.731  1.00  0.00    -0.203 F 
ATOM     45  F   UNL A   1      36.808  29.024  31.527  1.00  0.00    -0.200 F 
ATOM     46  C   UNL A   1      36.754  29.564  29.229  1.00  0.00     0.200 A 
ATOM     47  F   UNL A   1      36.747  30.078  26.926  1.00  0.00    -0.200 F 
ATOM     48  F   UNL A   1      35.443  29.831  29.308  1.00  0.00    -0.200 F 
ENDBRANCH  24  38
BRANCH  25  49
ATOM     49  C   UNL A   1      49.100  26.472  27.839  1.00  0.00     0.064 A 
ATOM     50  C   UNL A   1      49.618  26.354  26.543  1.00  0.00     0.173 A 
ATOM     51  C   UNL A   1      49.976  26.266  28.916  1.00  0.00     0.173 A 
ATOM     52  F   UNL A   1      48.815  26.526  25.482  1.00  0.00    -0.203 F 
ATOM     53  C   UNL A   1      50.957  26.034  26.331  1.00  0.00     0.198 A 
ATOM     54  C   UNL A   1      51.321  25.978  28.704  1.00  0.00     0.198 A 
ATOM     55  F   UNL A   1      49.530  26.376  30.176  1.00  0.00    -0.203 F 
ATOM     56  F   UNL A   1      51.421  25.894  25.082  1.00  0.00    -0.200 F 
ATOM     57  C   UNL A   1      51.810  25.856  27.411  1.00  0.00     0.200 A 
ATOM     58  F   UNL A   1      52.146  25.827  29.749  1.00  0.00    -0.200 F 
ATOM     59  F   UNL A   1      53.102  25.564  27.206  1.00  0.00    -0.200 F 
ENDBRANCH  25  49
BRANCH  37  60
ATOM     60  C   UNL A   1      45.830  32.352  29.714  1.00  0.00     0.064 A 
ATOM     61  C   UNL A   1      45.970  33.390  28.781  1.00  0.00     0.173 A 
ATOM     62  C   UNL A   1      46.114  32.634  31.059  1.00  0.00     0.173 A 
ATOM     63  F   UNL A   1      45.726  33.168  27.481  1.00  0.00    -0.203 F 
ATOM     64  C   UNL A   1      46.394  34.656  29.179  1.00  0.00     0.198 A 
ATOM     65  C   UNL A   1      46.506  33.908  31.458  1.00  0.00     0.198 A 
ATOM     66  F   UNL A   1      45.994  31.677  31.991  1.00  0.00    -0.203 F 
ATOM     67  F   UNL A   1      46.563  35.622  28.266  1.00  0.00    -0.200 F 
ATOM     68  C   UNL A   1      46.651  34.916  30.518  1.00  0.00     0.200 A 
ATOM     69  F   UNL A   1      46.739  34.162  32.753  1.00  0.00    -0.200 F 
ATOM     70  F   UNL A   1      47.044  36.139  30.900  1.00  0.00    -0.200 F 
ENDBRANCH  37  60
ENDBRANCH  11  12
ENDBRANCH   4   6
ENDBRANCH   1   2
BRANCH   1  71
ATOM     71  C   UNL A   1      38.217  19.812  24.855  1.00  0.00     0.042 C 
BRANCH  71  72
ATOM     72  C   UNL A   1      37.396  21.067  24.598  1.00  0.00     0.118 C 
BRANCH  72  73
ATOM     73  N   UNL A   1      38.011  22.257  25.167  1.00  0.00    -0.352 N 
ATOM     74  C   UNL A   1      37.431  23.359  25.742  1.00  0.00     0.251 C 
ATOM     75  H   UNL A   1      38.994  22.273  25.135  1.00  0.00     0.163 HD
ATOM     76  O   UNL A   1      38.107  24.357  25.973  1.00  0.00    -0.269 OA
BRANCH  74  77
ATOM     77  C   UNL A   1      35.989  23.358  26.070  1.00  0.00     0.040 A 
ATOM     78  C   UNL A   1      35.416  22.274  26.770  1.00  0.00     0.016 A 
ATOM     79  C   UNL A   1      35.220  24.472  25.705  1.00  0.00     0.020 A 
ATOM     80  C   UNL A   1      34.047  22.243  27.034  1.00  0.00     0.027 A 
ATOM     81  C   UNL A   1      33.864  24.438  25.986  1.00  0.00    -0.011 A 
ATOM     82  C   UNL A   1      33.307  23.331  26.628  1.00  0.00     0.045 A 
ATOM     83  C   UNL A   1      32.779  25.456  25.713  1.00  0.00     0.114 C 
ATOM     84  N   UNL A   1      31.946  23.513  26.792  1.00  0.00    -0.325 N 
ATOM     85  C   UNL A   1      31.536  24.741  26.298  1.00  0.00     0.232 C 
ATOM     86  H   UNL A   1      31.345  22.853  27.205  1.00  0.00     0.169 HD
ATOM     87  O   UNL A   1      30.392  25.166  26.358  1.00  0.00    -0.274 OA
BRANCH  83  88
ATOM     88  C   UNL A   1      32.653  25.867  24.231  1.00  0.00     0.010 C 
ATOM     89  C   UNL A   1      32.764  24.659  23.283  1.00  0.00     0.033 C 
ATOM     90  C   UNL A   1      33.650  26.956  23.797  1.00  0.00     0.033 C 
ATOM     91  C   UNL A   1      32.694  25.089  21.823  1.00  0.00     0.160 C 
ATOM     92  C   UNL A   1      33.512  27.255  22.308  1.00  0.00     0.160 C 
ATOM     93  O   UNL A   1      33.688  26.071  21.536  1.00  0.00    -0.381 OA
ENDBRANCH  83  88
ENDBRANCH  74  77
ENDBRANCH  72  73
ENDBRANCH  71  72
ENDBRANCH   1  71
TORSDOF 11
ENDMDL
