MODEL 1
REMARK VINA RESULT:     -13.7      0.000      0.000
REMARK SMILES Cc1ccc(S(=O)(=O)N[C@@H](Cc2cccc(F)c2)C(=O)NCCCNC(=O)c2ccc(-c3c4nc(c(-c5c(F)c(F)c(F)c(F)c5F)c5ccc([nH]5)c(-c5c(F)c(F)c(F)c(F)c5F)c5nc(c(-c6c(F)c(F)c(F)c(F)c6F)c6ccc3[nH]6)C=C5)C=C4)cc2)cc1
REMARK SMILES IDX 22 1 21 2 19 3 20 4 10 6 9 7 6 9 7 10 8 11 5 12 1 13 2 14
REMARK SMILES IDX 3 15 92 16 4 17 91 18 11 19 12 20 13 21 18 22 14 23 16 24
REMARK SMILES IDX 15 25 17 26 23 27 24 28 25 29 26 30 27 32 28 33 29 34 90 35
REMARK SMILES IDX 30 36 89 37 31 38 32 39 33 40 83 41 34 42 88 43 82 44 84 45
REMARK SMILES IDX 35 46 87 47 81 48 80 49 36 51 68 52 48 53 67 54 49 55 52 56
REMARK SMILES IDX 66 57 85 58 50 59 51 60 65 62 86 63 53 64 37 65 38 66 46 67
REMARK SMILES IDX 39 68 40 69 44 70 47 71 41 72 42 73 45 74 43 75 69 76 70 77
REMARK SMILES IDX 78 78 71 79 72 80 76 81 79 82 73 83 74 84 77 85 75 86 54 87
REMARK SMILES IDX 55 88 63 89 56 90 57 91 61 92 64 93 58 94 59 95 62 96 60 97
REMARK H PARENT 21 5 9 8 25 31 84 50 52 61
REMARK Flexibility Score: inf
ROOT
ATOM      1  C   UNL A   1      35.808  21.209  25.153  1.00  0.00     0.117 C 
ENDROOT
BRANCH   1   2
ATOM      2  N   UNL A   1      35.410  21.531  26.517  1.00  0.00    -0.355 N 
ATOM      3  C   UNL A   1      34.445  22.398  26.943  1.00  0.00     0.238 C 
ATOM      4  O   UNL A   1      34.274  22.528  28.159  1.00  0.00    -0.273 OA
ATOM      5  H   UNL A   1      35.904  21.061  27.227  1.00  0.00     0.163 HD
BRANCH   3   6
ATOM      6  C   UNL A   1      33.663  23.274  25.941  1.00  0.00     0.163 C 
BRANCH   6   7
ATOM      7  N   UNL A   1      32.459  23.623  26.742  1.00  0.00    -0.198 NA
ATOM      8  H   UNL A   1      32.426  22.924  27.485  1.00  0.00     0.142 HD
BRANCH   7   9
ATOM      9  S   UNL A   1      30.900  23.741  26.200  1.00  0.00     0.241 S 
ATOM     10  O   UNL A   1      30.028  23.620  27.357  1.00  0.00    -0.207 OA
ATOM     11  O   UNL A   1      30.812  22.834  25.089  1.00  0.00    -0.207 OA
BRANCH   9  12
ATOM     12  C   UNL A   1      30.706  25.377  25.559  1.00  0.00     0.082 A 
ATOM     13  C   UNL A   1      30.692  29.356  23.954  1.00  0.00     0.044 C 
ATOM     14  C   UNL A   1      30.661  27.970  24.526  1.00  0.00    -0.051 A 
ATOM     15  C   UNL A   1      31.262  27.716  25.765  1.00  0.00     0.005 A 
ATOM     16  C   UNL A   1      30.025  26.925  23.843  1.00  0.00     0.005 A 
ATOM     17  C   UNL A   1      31.296  26.421  26.277  1.00  0.00     0.022 A 
ATOM     18  C   UNL A   1      30.031  25.630  24.365  1.00  0.00     0.022 A 
ENDBRANCH   9  12
ENDBRANCH   7   9
ENDBRANCH   6   7
BRANCH   6  19
ATOM     19  C   UNL A   1      34.413  24.469  25.313  1.00  0.00     0.065 C 
BRANCH  19  20
ATOM     20  C   UNL A   1      33.953  25.089  24.001  1.00  0.00    -0.043 A 
ATOM     21  C   UNL A   1      33.408  24.229  23.026  1.00  0.00     0.004 A 
ATOM     22  C   UNL A   1      34.018  26.455  23.698  1.00  0.00     0.043 A 
ATOM     23  C   UNL A   1      32.872  24.726  21.833  1.00  0.00     0.003 A 
ATOM     24  C   UNL A   1      33.440  26.946  22.526  1.00  0.00     0.123 A 
ATOM     25  C   UNL A   1      32.863  26.096  21.595  1.00  0.00     0.039 A 
ATOM     26  F   UNL A   1      33.425  28.268  22.307  1.00  0.00    -0.207 F 
ENDBRANCH  19  20
ENDBRANCH   6  19
ENDBRANCH   3   6
ENDBRANCH   1   2
BRANCH   1  27
ATOM     27  C   UNL A   1      37.315  21.248  24.973  1.00  0.00     0.042 C 
BRANCH  27  28
ATOM     28  C   UNL A   1      37.928  22.454  25.651  1.00  0.00     0.118 C 
BRANCH  28  29
ATOM     29  N   UNL A   1      39.255  22.232  26.208  1.00  0.00    -0.352 N 
ATOM     30  C   UNL A   1      40.210  23.142  26.626  1.00  0.00     0.251 C 
ATOM     31  H   UNL A   1      39.512  21.286  26.303  1.00  0.00     0.163 HD
ATOM     32  O   UNL A   1      41.329  22.735  26.929  1.00  0.00    -0.269 OA
BRANCH  30  33
ATOM     33  C   UNL A   1      39.851  24.563  26.881  1.00  0.00     0.039 A 
ATOM     34  C   UNL A   1      40.449  25.551  26.082  1.00  0.00     0.014 A 
ATOM     35  C   UNL A   1      39.174  24.937  28.029  1.00  0.00     0.014 A 
ATOM     36  C   UNL A   1      40.608  26.841  26.584  1.00  0.00     0.010 A 
ATOM     37  C   UNL A   1      39.491  26.137  28.608  1.00  0.00     0.010 A 
ATOM     38  C   UNL A   1      40.248  27.076  27.903  1.00  0.00    -0.014 A 
BRANCH  38  39
ATOM     39  C   UNL A   1      40.550  28.263  28.682  1.00  0.00     0.031 A 
ATOM     40  C   UNL A   1      39.507  29.303  28.797  1.00  0.00     0.074 A 
ATOM     41  C   UNL A   1      41.601  28.221  29.527  1.00  0.00     0.049 A 
ATOM     42  N   UNL A   1      39.655  30.418  29.416  1.00  0.00    -0.248 NA
ATOM     43  C   UNL A   1      38.190  29.159  28.186  1.00  0.00     0.031 C 
ATOM     44  C   UNL A   1      41.799  29.015  30.738  1.00  0.00     0.029 A 
ATOM     45  N   UNL A   1      42.822  27.547  29.357  1.00  0.00    -0.354 N 
ATOM     46  C   UNL A   1      38.418  31.016  29.523  1.00  0.00     0.074 A 
ATOM     47  C   UNL A   1      37.557  30.226  28.679  1.00  0.00     0.031 C 
ATOM     48  C   UNL A   1      43.109  29.037  31.033  1.00  0.00     0.029 A 
ATOM     49  C   UNL A   1      43.798  28.413  29.919  1.00  0.00     0.049 A 
ATOM     50  H   UNL A   1      42.967  26.668  28.939  1.00  0.00     0.167 HD
ATOM     51  C   UNL A   1      38.280  32.049  30.403  1.00  0.00     0.037 A 
ATOM     52  C   UNL A   1      44.705  29.046  29.113  1.00  0.00     0.037 A 
ATOM     53  C   UNL A   1      39.588  32.434  30.941  1.00  0.00     0.049 A 
ATOM     54  C   UNL A   1      44.612  30.560  29.118  1.00  0.00     0.074 A 
ATOM     55  C   UNL A   1      40.283  32.172  32.109  1.00  0.00     0.029 A 
ATOM     56  N   UNL A   1      40.507  32.972  30.063  1.00  0.00    -0.354 N 
ATOM     57  N   UNL A   1      43.669  31.238  29.710  1.00  0.00    -0.248 NA
ATOM     58  C   UNL A   1      45.524  31.424  28.367  1.00  0.00     0.031 C 
ATOM     59  C   UNL A   1      41.648  32.536  31.897  1.00  0.00     0.029 A 
ATOM     60  C   UNL A   1      41.769  33.032  30.611  1.00  0.00     0.049 A 
ATOM     61  H   UNL A   1      40.286  33.277  29.153  1.00  0.00     0.167 HD
ATOM     62  C   UNL A   1      43.781  32.560  29.383  1.00  0.00     0.074 A 
ATOM     63  C   UNL A   1      44.964  32.634  28.546  1.00  0.00     0.031 C 
ATOM     64  C   UNL A   1      42.867  33.493  29.777  1.00  0.00     0.037 A 
BRANCH  51  65
ATOM     65  C   UNL A   1      36.985  32.642  30.922  1.00  0.00     0.064 A 
ATOM     66  C   UNL A   1      36.214  33.479  30.083  1.00  0.00     0.173 A 
ATOM     67  C   UNL A   1      36.461  32.490  32.220  1.00  0.00     0.173 A 
ATOM     68  F   UNL A   1      36.531  33.664  28.794  1.00  0.00    -0.203 F 
ATOM     69  C   UNL A   1      35.079  34.163  30.530  1.00  0.00     0.198 A 
ATOM     70  C   UNL A   1      35.339  33.190  32.675  1.00  0.00     0.198 A 
ATOM     71  F   UNL A   1      36.970  31.631  33.101  1.00  0.00    -0.203 F 
ATOM     72  F   UNL A   1      34.407  34.956  29.684  1.00  0.00    -0.200 F 
ATOM     73  C   UNL A   1      34.654  34.037  31.834  1.00  0.00     0.200 A 
ATOM     74  F   UNL A   1      34.929  33.028  33.942  1.00  0.00    -0.200 F 
ATOM     75  F   UNL A   1      33.582  34.708  32.273  1.00  0.00    -0.200 F 
ENDBRANCH  51  65
BRANCH  52  76
ATOM     76  C   UNL A   1      45.045  28.222  27.919  1.00  0.00     0.064 A 
ATOM     77  C   UNL A   1      45.818  27.061  28.117  1.00  0.00     0.173 A 
ATOM     78  C   UNL A   1      44.261  28.294  26.760  1.00  0.00     0.173 A 
ATOM     79  F   UNL A   1      46.595  26.951  29.207  1.00  0.00    -0.203 F 
ATOM     80  C   UNL A   1      45.677  25.954  27.285  1.00  0.00     0.198 A 
ATOM     81  C   UNL A   1      44.147  27.191  25.914  1.00  0.00     0.198 A 
ATOM     82  F   UNL A   1      43.501  29.371  26.519  1.00  0.00    -0.203 F 
ATOM     83  F   UNL A   1      46.309  24.809  27.581  1.00  0.00    -0.200 F 
ATOM     84  C   UNL A   1      44.812  26.008  26.205  1.00  0.00     0.200 A 
ATOM     85  F   UNL A   1      43.303  27.238  24.873  1.00  0.00    -0.200 F 
ATOM     86  F   UNL A   1      44.583  24.911  25.471  1.00  0.00    -0.200 F 
ENDBRANCH  52  76
BRANCH  64  87
ATOM     87  C   UNL A   1      42.936  34.937  29.380  1.00  0.00     0.064 A 
ATOM     88  C   UNL A   1      42.750  35.356  28.056  1.00  0.00     0.173 A 
ATOM     89  C   UNL A   1      43.316  35.933  30.305  1.00  0.00     0.173 A 
ATOM     90  F   UNL A   1      42.418  34.474  27.102  1.00  0.00    -0.203 F 
ATOM     91  C   UNL A   1      42.918  36.692  27.685  1.00  0.00     0.198 A 
ATOM     92  C   UNL A   1      43.543  37.251  29.921  1.00  0.00     0.198 A 
ATOM     93  F   UNL A   1      43.452  35.661  31.611  1.00  0.00    -0.203 F 
ATOM     94  F   UNL A   1      42.683  37.064  26.419  1.00  0.00    -0.200 F 
ATOM     95  C   UNL A   1      43.333  37.634  28.612  1.00  0.00     0.200 A 
ATOM     96  F   UNL A   1      43.959  38.146  30.828  1.00  0.00    -0.200 F 
ATOM     97  F   UNL A   1      43.522  38.909  28.246  1.00  0.00    -0.200 F 
ENDBRANCH  64  87
ENDBRANCH  38  39
ENDBRANCH  30  33
ENDBRANCH  28  29
ENDBRANCH  27  28
ENDBRANCH   1  27
TORSDOF 15
ENDMDL
MODEL 2
REMARK VINA RESULT:     -12.9      1.604      2.260
REMARK SMILES Cc1ccc(S(=O)(=O)N[C@@H](Cc2cccc(F)c2)C(=O)NCCCNC(=O)c2ccc(-c3c4nc(c(-c5c(F)c(F)c(F)c(F)c5F)c5ccc([nH]5)c(-c5c(F)c(F)c(F)c(F)c5F)c5nc(c(-c6c(F)c(F)c(F)c(F)c6F)c6ccc3[nH]6)C=C5)C=C4)cc2)cc1
REMARK SMILES IDX 22 1 21 2 19 3 20 4 10 6 9 7 6 9 7 10 8 11 5 12 1 13 2 14
REMARK SMILES IDX 3 15 92 16 4 17 91 18 11 19 12 20 13 21 18 22 14 23 16 24
REMARK SMILES IDX 15 25 17 26 23 27 24 28 25 29 26 30 27 32 28 33 29 34 90 35
REMARK SMILES IDX 30 36 89 37 31 38 32 39 33 40 83 41 34 42 88 43 82 44 84 45
REMARK SMILES IDX 35 46 87 47 81 48 80 49 36 51 68 52 48 53 67 54 49 55 52 56
REMARK SMILES IDX 66 57 85 58 50 59 51 60 65 62 86 63 53 64 37 65 38 66 46 67
REMARK SMILES IDX 39 68 40 69 44 70 47 71 41 72 42 73 45 74 43 75 69 76 70 77
REMARK SMILES IDX 78 78 71 79 72 80 76 81 79 82 73 83 74 84 77 85 75 86 54 87
REMARK SMILES IDX 55 88 63 89 56 90 57 91 61 92 64 93 58 94 59 95 62 96 60 97
REMARK H PARENT 21 5 9 8 25 31 84 50 52 61
REMARK Flexibility Score: inf
ROOT
ATOM      1  C   UNL A   1      36.245  23.943  24.703  1.00  0.00     0.117 C 
ENDROOT
BRANCH   1   2
ATOM      2  N   UNL A   1      34.995  23.338  25.142  1.00  0.00    -0.355 N 
ATOM      3  C   UNL A   1      33.776  23.928  25.316  1.00  0.00     0.238 C 
ATOM      4  O   UNL A   1      32.839  23.226  25.706  1.00  0.00    -0.273 OA
ATOM      5  H   UNL A   1      35.034  22.375  25.341  1.00  0.00     0.163 HD
BRANCH   3   6
ATOM      6  C   UNL A   1      33.595  25.451  25.135  1.00  0.00     0.163 C 
BRANCH   6   7
ATOM      7  N   UNL A   1      33.152  25.521  23.717  1.00  0.00    -0.198 NA
ATOM      8  H   UNL A   1      33.657  24.770  23.246  1.00  0.00     0.142 HD
BRANCH   7   9
ATOM      9  S   UNL A   1      33.272  26.820  22.699  1.00  0.00     0.241 S 
ATOM     10  O   UNL A   1      33.507  26.302  21.361  1.00  0.00    -0.207 OA
ATOM     11  O   UNL A   1      34.195  27.720  23.333  1.00  0.00    -0.207 OA
BRANCH   9  12
ATOM     12  C   UNL A   1      31.690  27.609  22.691  1.00  0.00     0.082 A 
ATOM     13  C   UNL A   1      27.839  29.450  23.125  1.00  0.00     0.044 C 
ATOM     14  C   UNL A   1      29.180  28.807  22.935  1.00  0.00    -0.051 A 
ATOM     15  C   UNL A   1      29.333  27.436  23.174  1.00  0.00     0.005 A 
ATOM     16  C   UNL A   1      30.283  29.557  22.507  1.00  0.00     0.005 A 
ATOM     17  C   UNL A   1      30.586  26.838  23.064  1.00  0.00     0.022 A 
ATOM     18  C   UNL A   1      31.537  28.958  22.368  1.00  0.00     0.022 A 
ENDBRANCH   9  12
ENDBRANCH   7   9
ENDBRANCH   6   7
BRANCH   6  19
ATOM     19  C   UNL A   1      32.690  26.179  26.153  1.00  0.00     0.065 C 
BRANCH  19  20
ATOM     20  C   UNL A   1      32.782  27.686  26.355  1.00  0.00    -0.043 A 
ATOM     21  C   UNL A   1      33.986  28.204  26.874  1.00  0.00     0.004 A 
ATOM     22  C   UNL A   1      31.762  28.596  26.050  1.00  0.00     0.043 A 
ATOM     23  C   UNL A   1      34.192  29.582  27.000  1.00  0.00     0.003 A 
ATOM     24  C   UNL A   1      31.993  29.969  26.137  1.00  0.00     0.123 A 
ATOM     25  C   UNL A   1      33.199  30.470  26.602  1.00  0.00     0.039 A 
ATOM     26  F   UNL A   1      31.036  30.821  25.742  1.00  0.00    -0.207 F 
ENDBRANCH  19  20
ENDBRANCH   6  19
ENDBRANCH   3   6
ENDBRANCH   1   2
BRANCH   1  27
ATOM     27  C   UNL A   1      37.397  22.954  24.723  1.00  0.00     0.042 C 
BRANCH  27  28
ATOM     28  C   UNL A   1      37.779  22.570  26.136  1.00  0.00     0.118 C 
BRANCH  28  29
ATOM     29  N   UNL A   1      39.212  22.451  26.368  1.00  0.00    -0.352 N 
ATOM     30  C   UNL A   1      40.177  23.434  26.509  1.00  0.00     0.251 C 
ATOM     31  H   UNL A   1      39.546  21.528  26.439  1.00  0.00     0.163 HD
ATOM     32  O   UNL A   1      41.359  23.106  26.552  1.00  0.00    -0.269 OA
BRANCH  30  33
ATOM     33  C   UNL A   1      39.795  24.845  26.783  1.00  0.00     0.039 A 
ATOM     34  C   UNL A   1      40.397  25.856  26.017  1.00  0.00     0.014 A 
ATOM     35  C   UNL A   1      39.087  25.189  27.923  1.00  0.00     0.014 A 
ATOM     36  C   UNL A   1      40.529  27.138  26.546  1.00  0.00     0.010 A 
ATOM     37  C   UNL A   1      39.377  26.381  28.532  1.00  0.00     0.010 A 
ATOM     38  C   UNL A   1      40.137  27.343  27.862  1.00  0.00    -0.014 A 
BRANCH  38  39
ATOM     39  C   UNL A   1      40.408  28.518  28.669  1.00  0.00     0.031 A 
ATOM     40  C   UNL A   1      39.343  29.533  28.798  1.00  0.00     0.074 A 
ATOM     41  C   UNL A   1      41.452  28.479  29.523  1.00  0.00     0.049 A 
ATOM     42  N   UNL A   1      39.462  30.637  29.444  1.00  0.00    -0.248 NA
ATOM     43  C   UNL A   1      38.034  29.376  28.172  1.00  0.00     0.031 C 
ATOM     44  C   UNL A   1      41.623  29.249  30.754  1.00  0.00     0.029 A 
ATOM     45  N   UNL A   1      42.688  27.834  29.349  1.00  0.00    -0.354 N 
ATOM     46  C   UNL A   1      38.211  31.206  29.553  1.00  0.00     0.074 A 
ATOM     47  C   UNL A   1      37.375  30.418  28.683  1.00  0.00     0.031 C 
ATOM     48  C   UNL A   1      42.929  29.291  31.060  1.00  0.00     0.029 A 
ATOM     49  C   UNL A   1      43.641  28.708  29.939  1.00  0.00     0.049 A 
ATOM     50  H   UNL A   1      42.856  26.968  28.913  1.00  0.00     0.167 HD
ATOM     51  C   UNL A   1      38.044  32.216  30.454  1.00  0.00     0.037 A 
ATOM     52  C   UNL A   1      44.542  29.377  29.156  1.00  0.00     0.037 A 
ATOM     53  C   UNL A   1      39.339  32.616  31.013  1.00  0.00     0.049 A 
ATOM     54  C   UNL A   1      44.417  30.889  29.194  1.00  0.00     0.074 A 
ATOM     55  C   UNL A   1      40.029  32.342  32.181  1.00  0.00     0.029 A 
ATOM     56  N   UNL A   1      40.254  33.193  30.155  1.00  0.00    -0.354 N 
ATOM     57  N   UNL A   1      43.455  31.533  29.793  1.00  0.00    -0.248 NA
ATOM     58  C   UNL A   1      45.317  31.788  28.471  1.00  0.00     0.031 C 
ATOM     59  C   UNL A   1      41.388  32.739  31.989  1.00  0.00     0.029 A 
ATOM     60  C   UNL A   1      41.510  33.266  30.716  1.00  0.00     0.049 A 
ATOM     61  H   UNL A   1      40.035  33.513  29.250  1.00  0.00     0.167 HD
ATOM     62  C   UNL A   1      43.542  32.864  29.496  1.00  0.00     0.074 A 
ATOM     63  C   UNL A   1      44.730  32.981  28.672  1.00  0.00     0.031 C 
ATOM     64  C   UNL A   1      42.605  33.769  29.902  1.00  0.00     0.037 A 
BRANCH  51  65
ATOM     65  C   UNL A   1      36.732  32.770  30.974  1.00  0.00     0.064 A 
ATOM     66  C   UNL A   1      35.933  33.580  30.134  1.00  0.00     0.173 A 
ATOM     67  C   UNL A   1      36.217  32.606  32.274  1.00  0.00     0.173 A 
ATOM     68  F   UNL A   1      36.242  33.769  28.843  1.00  0.00    -0.203 F 
ATOM     69  C   UNL A   1      34.779  34.229  30.581  1.00  0.00     0.198 A 
ATOM     70  C   UNL A   1      35.075  33.272  32.729  1.00  0.00     0.198 A 
ATOM     71  F   UNL A   1      36.755  31.767  33.157  1.00  0.00    -0.203 F 
ATOM     72  F   UNL A   1      34.080  34.997  29.735  1.00  0.00    -0.200 F 
ATOM     73  C   UNL A   1      34.362  34.095  31.887  1.00  0.00     0.200 A 
ATOM     74  F   UNL A   1      34.673  33.103  33.998  1.00  0.00    -0.200 F 
ATOM     75  F   UNL A   1      33.269  34.733  32.326  1.00  0.00    -0.200 F 
ENDBRANCH  51  65
BRANCH  52  76
ATOM     76  C   UNL A   1      44.909  28.588  27.947  1.00  0.00     0.064 A 
ATOM     77  C   UNL A   1      45.737  27.460  28.122  1.00  0.00     0.173 A 
ATOM     78  C   UNL A   1      44.113  28.640  26.795  1.00  0.00     0.173 A 
ATOM     79  F   UNL A   1      46.527  27.371  29.203  1.00  0.00    -0.203 F 
ATOM     80  C   UNL A   1      45.640  26.361  27.274  1.00  0.00     0.198 A 
ATOM     81  C   UNL A   1      44.043  27.546  25.934  1.00  0.00     0.198 A 
ATOM     82  F   UNL A   1      43.302  29.685  26.576  1.00  0.00    -0.203 F 
ATOM     83  F   UNL A   1      46.327  25.242  27.548  1.00  0.00    -0.200 F 
ATOM     84  C   UNL A   1      44.764  26.391  26.202  1.00  0.00     0.200 A 
ATOM     85  F   UNL A   1      43.189  27.569  24.899  1.00  0.00    -0.200 F 
ATOM     86  F   UNL A   1      44.580  25.295  25.452  1.00  0.00    -0.200 F 
ENDBRANCH  52  76
BRANCH  64  87
ATOM     87  C   UNL A   1      42.647  35.223  29.539  1.00  0.00     0.064 A 
ATOM     88  C   UNL A   1      42.041  35.718  28.376  1.00  0.00     0.173 A 
ATOM     89  C   UNL A   1      43.409  36.144  30.290  1.00  0.00     0.173 A 
ATOM     90  F   UNL A   1      41.323  34.909  27.584  1.00  0.00    -0.203 F 
ATOM     91  C   UNL A   1      42.175  37.056  27.999  1.00  0.00     0.198 A 
ATOM     92  C   UNL A   1      43.592  37.460  29.879  1.00  0.00     0.198 A 
ATOM     93  F   UNL A   1      43.974  35.799  31.456  1.00  0.00    -0.203 F 
ATOM     94  F   UNL A   1      41.540  37.505  26.908  1.00  0.00    -0.200 F 
ATOM     95  C   UNL A   1      42.965  37.921  28.738  1.00  0.00     0.200 A 
ATOM     96  F   UNL A   1      44.373  38.279  30.598  1.00  0.00    -0.200 F 
ATOM     97  F   UNL A   1      43.117  39.196  28.358  1.00  0.00    -0.200 F 
ENDBRANCH  64  87
ENDBRANCH  38  39
ENDBRANCH  30  33
ENDBRANCH  28  29
ENDBRANCH  27  28
ENDBRANCH   1  27
TORSDOF 15
ENDMDL
MODEL 3
REMARK VINA RESULT:     -12.9      1.375      2.514
REMARK SMILES Cc1ccc(S(=O)(=O)N[C@@H](Cc2cccc(F)c2)C(=O)NCCCNC(=O)c2ccc(-c3c4nc(c(-c5c(F)c(F)c(F)c(F)c5F)c5ccc([nH]5)c(-c5c(F)c(F)c(F)c(F)c5F)c5nc(c(-c6c(F)c(F)c(F)c(F)c6F)c6ccc3[nH]6)C=C5)C=C4)cc2)cc1
REMARK SMILES IDX 22 1 21 2 19 3 20 4 10 6 9 7 6 9 7 10 8 11 5 12 1 13 2 14
REMARK SMILES IDX 3 15 92 16 4 17 91 18 11 19 12 20 13 21 18 22 14 23 16 24
REMARK SMILES IDX 15 25 17 26 23 27 24 28 25 29 26 30 27 32 28 33 29 34 90 35
REMARK SMILES IDX 30 36 89 37 31 38 32 39 33 40 83 41 34 42 88 43 82 44 84 45
REMARK SMILES IDX 35 46 87 47 81 48 80 49 36 51 68 52 48 53 67 54 49 55 52 56
REMARK SMILES IDX 66 57 85 58 50 59 51 60 65 62 86 63 53 64 37 65 38 66 46 67
REMARK SMILES IDX 39 68 40 69 44 70 47 71 41 72 42 73 45 74 43 75 69 76 70 77
REMARK SMILES IDX 78 78 71 79 72 80 76 81 79 82 73 83 74 84 77 85 75 86 54 87
REMARK SMILES IDX 55 88 63 89 56 90 57 91 61 92 64 93 58 94 59 95 62 96 60 97
REMARK H PARENT 21 5 9 8 25 31 84 50 52 61
REMARK Flexibility Score: inf
ROOT
ATOM      1  C   UNL A   1      35.932  22.975  26.430  1.00  0.00     0.117 C 
ENDROOT
BRANCH   1   2
ATOM      2  N   UNL A   1      34.803  22.611  27.275  1.00  0.00    -0.355 N 
ATOM      3  C   UNL A   1      33.492  22.973  27.150  1.00  0.00     0.238 C 
ATOM      4  O   UNL A   1      32.690  22.554  27.989  1.00  0.00    -0.273 OA
ATOM      5  H   UNL A   1      35.013  22.027  28.038  1.00  0.00     0.163 HD
BRANCH   3   6
ATOM      6  C   UNL A   1      33.040  23.964  26.056  1.00  0.00     0.163 C 
BRANCH   6   7
ATOM      7  N   UNL A   1      32.542  23.031  25.011  1.00  0.00    -0.198 NA
ATOM      8  H   UNL A   1      32.924  22.120  25.267  1.00  0.00     0.142 HD
BRANCH   7   9
ATOM      9  S   UNL A   1      32.779  23.147  23.377  1.00  0.00     0.241 S 
ATOM     10  O   UNL A   1      31.743  22.357  22.731  1.00  0.00    -0.207 OA
ATOM     11  O   UNL A   1      34.174  22.875  23.172  1.00  0.00    -0.207 OA
BRANCH   9  12
ATOM     12  C   UNL A   1      32.504  24.838  22.941  1.00  0.00     0.082 A 
ATOM     13  C   UNL A   1      31.658  28.995  22.302  1.00  0.00     0.044 C 
ATOM     14  C   UNL A   1      31.960  27.538  22.488  1.00  0.00    -0.051 A 
ATOM     15  C   UNL A   1      30.911  26.626  22.656  1.00  0.00     0.005 A 
ATOM     16  C   UNL A   1      33.281  27.072  22.482  1.00  0.00     0.005 A 
ATOM     17  C   UNL A   1      31.179  25.281  22.893  1.00  0.00     0.022 A 
ATOM     18  C   UNL A   1      33.556  25.719  22.691  1.00  0.00     0.022 A 
ENDBRANCH   9  12
ENDBRANCH   7   9
ENDBRANCH   6   7
BRANCH   6  19
ATOM     19  C   UNL A   1      32.056  25.078  26.477  1.00  0.00     0.065 C 
BRANCH  19  20
ATOM     20  C   UNL A   1      32.404  26.549  26.294  1.00  0.00    -0.043 A 
ATOM     21  C   UNL A   1      33.768  26.894  26.211  1.00  0.00     0.004 A 
ATOM     22  C   UNL A   1      31.466  27.584  26.187  1.00  0.00     0.043 A 
ATOM     23  C   UNL A   1      34.174  28.206  25.945  1.00  0.00     0.003 A 
ATOM     24  C   UNL A   1      31.878  28.881  25.878  1.00  0.00     0.123 A 
ATOM     25  C   UNL A   1      33.222  29.200  25.750  1.00  0.00     0.039 A 
ATOM     26  F   UNL A   1      30.955  29.832  25.681  1.00  0.00    -0.207 F 
ENDBRANCH  19  20
ENDBRANCH   6  19
ENDBRANCH   3   6
ENDBRANCH   1   2
BRANCH   1  27
ATOM     27  C   UNL A   1      36.537  21.770  25.733  1.00  0.00     0.042 C 
BRANCH  27  28
ATOM     28  C   UNL A   1      37.898  22.085  25.151  1.00  0.00     0.118 C 
BRANCH  28  29
ATOM     29  N   UNL A   1      39.023  21.722  26.001  1.00  0.00    -0.352 N 
ATOM     30  C   UNL A   1      39.953  22.524  26.640  1.00  0.00     0.251 C 
ATOM     31  H   UNL A   1      39.140  20.755  26.146  1.00  0.00     0.163 HD
ATOM     32  O   UNL A   1      40.915  21.997  27.192  1.00  0.00    -0.269 OA
BRANCH  30  33
ATOM     33  C   UNL A   1      39.711  23.981  26.816  1.00  0.00     0.039 A 
ATOM     34  C   UNL A   1      40.551  24.880  26.137  1.00  0.00     0.014 A 
ATOM     35  C   UNL A   1      38.879  24.456  27.817  1.00  0.00     0.014 A 
ATOM     36  C   UNL A   1      40.755  26.158  26.652  1.00  0.00     0.010 A 
ATOM     37  C   UNL A   1      39.215  25.629  28.438  1.00  0.00     0.010 A 
ATOM     38  C   UNL A   1      40.186  26.464  27.881  1.00  0.00    -0.014 A 
BRANCH  38  39
ATOM     39  C   UNL A   1      40.469  27.631  28.696  1.00  0.00     0.031 A 
ATOM     40  C   UNL A   1      39.518  28.760  28.646  1.00  0.00     0.074 A 
ATOM     41  C   UNL A   1      41.367  27.509  29.695  1.00  0.00     0.049 A 
ATOM     42  N   UNL A   1      39.667  29.867  29.279  1.00  0.00    -0.248 NA
ATOM     43  C   UNL A   1      38.304  28.723  27.837  1.00  0.00     0.031 C 
ATOM     44  C   UNL A   1      41.445  28.301  30.921  1.00  0.00     0.029 A 
ATOM     45  N   UNL A   1      42.535  26.728  29.718  1.00  0.00    -0.354 N 
ATOM     46  C   UNL A   1      38.486  30.572  29.191  1.00  0.00     0.074 A 
ATOM     47  C   UNL A   1      37.700  29.849  28.224  1.00  0.00     0.031 C 
ATOM     48  C   UNL A   1      42.690  28.211  31.416  1.00  0.00     0.029 A 
ATOM     49  C   UNL A   1      43.485  27.513  30.424  1.00  0.00     0.049 A 
ATOM     50  H   UNL A   1      42.665  25.833  29.329  1.00  0.00     0.167 HD
ATOM     51  C   UNL A   1      38.306  31.627  30.038  1.00  0.00     0.037 A 
ATOM     52  C   UNL A   1      44.560  28.052  29.769  1.00  0.00     0.037 A 
ATOM     53  C   UNL A   1      39.543  31.904  30.773  1.00  0.00     0.049 A 
ATOM     54  C   UNL A   1      44.603  29.568  29.758  1.00  0.00     0.074 A 
ATOM     55  C   UNL A   1      40.023  31.599  32.035  1.00  0.00     0.029 A 
ATOM     56  N   UNL A   1      40.633  32.346  30.048  1.00  0.00    -0.354 N 
ATOM     57  N   UNL A   1      43.643  30.335  30.195  1.00  0.00    -0.248 NA
ATOM     58  C   UNL A   1      45.693  30.337  29.157  1.00  0.00     0.031 C 
ATOM     59  C   UNL A   1      41.431  31.839  32.038  1.00  0.00     0.029 A 
ATOM     60  C   UNL A   1      41.795  32.302  30.786  1.00  0.00     0.049 A 
ATOM     61  H   UNL A   1      40.584  32.654  29.114  1.00  0.00     0.167 HD
ATOM     62  C   UNL A   1      43.922  31.637  29.887  1.00  0.00     0.074 A 
ATOM     63  C   UNL A   1      45.223  31.594  29.245  1.00  0.00     0.031 C 
ATOM     64  C   UNL A   1      43.045  32.652  30.133  1.00  0.00     0.037 A 
BRANCH  51  65
ATOM     65  C   UNL A   1      37.004  32.339  30.347  1.00  0.00     0.064 A 
ATOM     66  C   UNL A   1      36.499  33.299  29.440  1.00  0.00     0.173 A 
ATOM     67  C   UNL A   1      36.228  32.186  31.512  1.00  0.00     0.173 A 
ATOM     68  F   UNL A   1      37.075  33.508  28.248  1.00  0.00    -0.203 F 
ATOM     69  C   UNL A   1      35.378  34.086  29.715  1.00  0.00     0.198 A 
ATOM     70  C   UNL A   1      35.119  32.987  31.799  1.00  0.00     0.198 A 
ATOM     71  F   UNL A   1      36.468  31.233  32.411  1.00  0.00    -0.203 F 
ATOM     72  F   UNL A   1      34.965  34.991  28.817  1.00  0.00    -0.200 F 
ATOM     73  C   UNL A   1      34.700  33.947  30.906  1.00  0.00     0.200 A 
ATOM     74  F   UNL A   1      34.459  32.813  32.954  1.00  0.00    -0.200 F 
ATOM     75  F   UNL A   1      33.638  34.715  31.184  1.00  0.00    -0.200 F 
ENDBRANCH  51  65
BRANCH  52  76
ATOM     76  C   UNL A   1      45.006  27.183  28.643  1.00  0.00     0.064 A 
ATOM     77  C   UNL A   1      44.609  27.539  27.338  1.00  0.00     0.173 A 
ATOM     78  C   UNL A   1      46.134  26.364  28.782  1.00  0.00     0.173 A 
ATOM     79  F   UNL A   1      43.528  28.312  27.154  1.00  0.00    -0.203 F 
ATOM     80  C   UNL A   1      45.407  27.235  26.239  1.00  0.00     0.198 A 
ATOM     81  C   UNL A   1      46.912  26.039  27.672  1.00  0.00     0.198 A 
ATOM     82  F   UNL A   1      46.561  25.996  29.998  1.00  0.00    -0.203 F 
ATOM     83  F   UNL A   1      45.087  27.714  25.027  1.00  0.00    -0.200 F 
ATOM     84  C   UNL A   1      46.578  26.517  26.413  1.00  0.00     0.200 A 
ATOM     85  F   UNL A   1      48.051  25.351  27.838  1.00  0.00    -0.200 F 
ATOM     86  F   UNL A   1      47.407  26.322  25.378  1.00  0.00    -0.200 F 
ENDBRANCH  52  76
BRANCH  64  87
ATOM     87  C   UNL A   1      43.303  34.079  29.751  1.00  0.00     0.064 A 
ATOM     88  C   UNL A   1      43.394  35.101  30.705  1.00  0.00     0.173 A 
ATOM     89  C   UNL A   1      43.342  34.479  28.398  1.00  0.00     0.173 A 
ATOM     90  F   UNL A   1      43.335  34.819  32.015  1.00  0.00    -0.203 F 
ATOM     91  C   UNL A   1      43.533  36.438  30.328  1.00  0.00     0.198 A 
ATOM     92  C   UNL A   1      43.418  35.818  28.025  1.00  0.00     0.198 A 
ATOM     93  F   UNL A   1      43.335  33.582  27.401  1.00  0.00    -0.203 F 
ATOM     94  F   UNL A   1      43.667  37.383  31.269  1.00  0.00    -0.200 F 
ATOM     95  C   UNL A   1      43.525  36.798  28.991  1.00  0.00     0.200 A 
ATOM     96  F   UNL A   1      43.393  36.148  26.726  1.00  0.00    -0.200 F 
ATOM     97  F   UNL A   1      43.628  38.084  28.632  1.00  0.00    -0.200 F 
ENDBRANCH  64  87
ENDBRANCH  38  39
ENDBRANCH  30  33
ENDBRANCH  28  29
ENDBRANCH  27  28
ENDBRANCH   1  27
TORSDOF 15
ENDMDL
