MODEL 1
REMARK VINA RESULT:     -12.6      0.000      0.000
REMARK SMILES O=C(COc1ccccc1/C=C1/SC(=S)N(c2ccc(F)c(Cl)c2)C1=O)NCCCNC(=O)c1ccc(-c2c3nc(c(-c4c(F)c(F)c(F)c(F)c4F)c4ccc([nH]4)c(-c4c(F)c(F)c(F)c(F)c4F)c4nc(c(-c5c(F)c(F)c(F)c(F)c5F)c5ccc2[nH]5)C=C4)C=C3)cc1
REMARK SMILES IDX 28 1 27 2 1 3 2 4 3 6 4 7 5 8 6 9 10 10 7 11 9 12 8 13 11 14
REMARK SMILES IDX 12 15 13 16 25 17 14 18 16 19 26 20 15 21 17 22 18 23 24 24
REMARK SMILES IDX 19 25 22 26 20 27 23 28 21 29 29 30 30 31 31 32 32 33 33 35
REMARK SMILES IDX 34 36 35 37 96 38 36 39 95 40 37 41 38 42 39 43 89 44 40 45
REMARK SMILES IDX 94 46 88 47 90 48 41 49 93 50 87 51 86 52 42 54 74 55 54 56
REMARK SMILES IDX 73 57 55 58 58 59 72 60 91 61 56 62 57 63 71 65 92 66 59 67
REMARK SMILES IDX 43 68 44 69 52 70 45 71 46 72 50 73 53 74 47 75 48 76 51 77
REMARK SMILES IDX 49 78 75 79 76 80 84 81 77 82 78 83 82 84 85 85 79 86 80 87
REMARK SMILES IDX 83 88 81 89 60 90 61 91 69 92 62 93 63 94 67 95 70 96 64 97
REMARK SMILES IDX 65 98 68 99 66 100
REMARK H PARENT 27 5 31 34 90 53 58 64
REMARK Flexibility Score: inf
ROOT
ATOM      1  C   UNL A   1      35.050  29.941  27.540  1.00  0.00     0.117 C 
ENDROOT
BRANCH   1   2
ATOM      2  N   UNL A   1      33.978  28.964  27.630  1.00  0.00    -0.353 N 
ATOM      3  O   UNL A   1      34.058  28.394  25.402  1.00  0.00    -0.271 OA
ATOM      4  C   UNL A   1      33.604  28.208  26.528  1.00  0.00     0.257 C 
ATOM      5  H   UNL A   1      33.510  28.836  28.487  1.00  0.00     0.163 HD
BRANCH   4   6
ATOM      6  C   UNL A   1      32.564  27.120  26.815  1.00  0.00     0.329 C 
BRANCH   6   7
ATOM      7  O   UNL A   1      32.893  25.864  26.217  1.00  0.00    -0.483 OA
BRANCH   7   8
ATOM      8  C   UNL A   1      32.177  25.662  25.058  1.00  0.00     0.127 A 
ATOM      9  C   UNL A   1      30.784  25.757  25.083  1.00  0.00     0.047 A 
ATOM     10  C   UNL A   1      32.834  25.238  23.890  1.00  0.00     0.018 A 
ATOM     11  C   UNL A   1      30.051  25.505  23.922  1.00  0.00     0.004 A 
ATOM     12  C   UNL A   1      32.095  25.039  22.719  1.00  0.00     0.012 A 
ATOM     13  C   UNL A   1      30.705  25.171  22.736  1.00  0.00     0.001 A 
BRANCH  10  14
ATOM     14  C   UNL A   1      34.266  24.934  23.872  1.00  0.00     0.033 C 
ATOM     15  C   UNL A   1      34.753  23.690  23.989  1.00  0.00     0.081 C 
ATOM     16  S   UNL A   1      36.440  23.358  24.122  1.00  0.00    -0.054 SA
ATOM     17  C   UNL A   1      33.977  22.416  24.120  1.00  0.00     0.270 C 
ATOM     18  C   UNL A   1      36.164  21.703  24.645  1.00  0.00     0.152 C 
ATOM     19  N   UNL A   1      34.806  21.442  24.650  1.00  0.00    -0.261 N 
ATOM     20  O   UNL A   1      32.820  22.259  23.759  1.00  0.00    -0.268 OA
ATOM     21  S   UNL A   1      37.404  20.647  25.027  1.00  0.00    -0.051 S 
BRANCH  19  22
ATOM     22  C   UNL A   1      34.303  20.166  24.985  1.00  0.00     0.052 A 
ATOM     23  C   UNL A   1      33.344  20.056  25.999  1.00  0.00     0.030 A 
ATOM     24  C   UNL A   1      34.583  19.076  24.149  1.00  0.00     0.050 A 
ATOM     25  C   UNL A   1      32.612  18.877  26.127  1.00  0.00     0.043 A 
ATOM     26  C   UNL A   1      33.854  17.898  24.291  1.00  0.00     0.078 A 
ATOM     27  C   UNL A   1      32.859  17.811  25.264  1.00  0.00     0.141 A 
ATOM     28  Cl  UNL A   1      34.151  16.589  23.213  1.00  0.00    -0.081 Cl
ATOM     29  F   UNL A   1      32.100  16.711  25.367  1.00  0.00    -0.205 F 
ENDBRANCH  19  22
ENDBRANCH  10  14
ENDBRANCH   7   8
ENDBRANCH   6   7
ENDBRANCH   4   6
ENDBRANCH   1   2
BRANCH   1  30
ATOM     30  C   UNL A   1      34.586  31.394  27.541  1.00  0.00     0.042 C 
BRANCH  30  31
ATOM     31  C   UNL A   1      33.077  31.617  27.617  1.00  0.00     0.118 C 
BRANCH  31  32
ATOM     32  N   UNL A   1      32.686  33.014  27.662  1.00  0.00    -0.352 N 
ATOM     33  C   UNL A   1      33.193  34.093  28.349  1.00  0.00     0.251 C 
ATOM     34  H   UNL A   1      31.911  33.229  27.094  1.00  0.00     0.163 HD
ATOM     35  O   UNL A   1      32.594  35.162  28.226  1.00  0.00    -0.269 OA
BRANCH  33  36
ATOM     36  C   UNL A   1      34.371  34.019  29.266  1.00  0.00     0.039 A 
ATOM     37  C   UNL A   1      34.169  33.407  30.514  1.00  0.00     0.014 A 
ATOM     38  C   UNL A   1      35.655  34.473  28.953  1.00  0.00     0.014 A 
ATOM     39  C   UNL A   1      35.251  33.102  31.344  1.00  0.00     0.010 A 
ATOM     40  C   UNL A   1      36.749  34.105  29.741  1.00  0.00     0.010 A 
ATOM     41  C   UNL A   1      36.558  33.355  30.907  1.00  0.00    -0.014 A 
BRANCH  41  42
ATOM     42  C   UNL A   1      37.701  32.641  31.530  1.00  0.00     0.031 A 
ATOM     43  C   UNL A   1      38.260  33.025  32.863  1.00  0.00     0.074 A 
ATOM     44  C   UNL A   1      38.294  31.672  30.801  1.00  0.00     0.049 A 
ATOM     45  N   UNL A   1      39.242  32.471  33.531  1.00  0.00    -0.248 NA
ATOM     46  C   UNL A   1      37.667  34.193  33.525  1.00  0.00     0.031 C 
ATOM     47  C   UNL A   1      37.901  31.285  29.443  1.00  0.00     0.029 A 
ATOM     48  N   UNL A   1      39.347  30.843  31.088  1.00  0.00    -0.354 N 
ATOM     49  C   UNL A   1      39.384  33.218  34.691  1.00  0.00     0.074 A 
ATOM     50  C   UNL A   1      38.417  34.295  34.615  1.00  0.00     0.031 C 
ATOM     51  C   UNL A   1      38.674  30.270  29.031  1.00  0.00     0.029 A 
ATOM     52  C   UNL A   1      39.633  29.952  30.081  1.00  0.00     0.049 A 
ATOM     53  H   UNL A   1      39.849  30.880  31.934  1.00  0.00     0.167 HD
ATOM     54  C   UNL A   1      40.233  33.010  35.727  1.00  0.00     0.037 A 
ATOM     55  C   UNL A   1      40.556  28.977  30.013  1.00  0.00     0.037 A 
ATOM     56  C   UNL A   1      41.192  31.934  35.791  1.00  0.00     0.049 A 
ATOM     57  C   UNL A   1      41.445  28.736  31.196  1.00  0.00     0.074 A 
ATOM     58  C   UNL A   1      42.053  31.602  36.824  1.00  0.00     0.029 A 
ATOM     59  N   UNL A   1      41.422  31.020  34.773  1.00  0.00    -0.354 N 
ATOM     60  N   UNL A   1      41.498  29.385  32.332  1.00  0.00    -0.248 NA
ATOM     61  C   UNL A   1      42.392  27.619  31.093  1.00  0.00     0.031 C 
ATOM     62  C   UNL A   1      42.827  30.509  36.417  1.00  0.00     0.029 A 
ATOM     63  C   UNL A   1      42.422  30.134  35.147  1.00  0.00     0.049 A 
ATOM     64  H   UNL A   1      40.945  31.001  33.912  1.00  0.00     0.167 HD
ATOM     65  C   UNL A   1      42.466  28.744  33.090  1.00  0.00     0.074 A 
ATOM     66  C   UNL A   1      42.961  27.643  32.290  1.00  0.00     0.031 C 
ATOM     67  C   UNL A   1      42.906  29.045  34.337  1.00  0.00     0.037 A 
BRANCH  54  68
ATOM     68  C   UNL A   1      40.160  33.962  36.886  1.00  0.00     0.064 A 
ATOM     69  C   UNL A   1      40.932  35.133  36.919  1.00  0.00     0.173 A 
ATOM     70  C   UNL A   1      39.273  33.732  37.948  1.00  0.00     0.173 A 
ATOM     71  F   UNL A   1      41.798  35.398  35.930  1.00  0.00    -0.203 F 
ATOM     72  C   UNL A   1      40.837  36.026  37.985  1.00  0.00     0.198 A 
ATOM     73  C   UNL A   1      39.163  34.638  39.000  1.00  0.00     0.198 A 
ATOM     74  F   UNL A   1      38.505  32.632  37.962  1.00  0.00    -0.203 F 
ATOM     75  F   UNL A   1      41.613  37.118  38.012  1.00  0.00    -0.200 F 
ATOM     76  C   UNL A   1      39.949  35.780  39.020  1.00  0.00     0.200 A 
ATOM     77  F   UNL A   1      38.294  34.407  39.994  1.00  0.00    -0.200 F 
ATOM     78  F   UNL A   1      39.853  36.644  40.041  1.00  0.00    -0.200 F 
ENDBRANCH  54  68
BRANCH  55  79
ATOM     79  C   UNL A   1      40.632  28.122  28.802  1.00  0.00     0.064 A 
ATOM     80  C   UNL A   1      39.890  26.935  28.717  1.00  0.00     0.173 A 
ATOM     81  C   UNL A   1      41.414  28.487  27.698  1.00  0.00     0.173 A 
ATOM     82  F   UNL A   1      39.139  26.540  29.755  1.00  0.00    -0.203 F 
ATOM     83  C   UNL A   1      39.943  26.136  27.577  1.00  0.00     0.198 A 
ATOM     84  C   UNL A   1      41.445  27.700  26.548  1.00  0.00     0.198 A 
ATOM     85  F   UNL A   1      42.130  29.620  27.727  1.00  0.00    -0.203 F 
ATOM     86  F   UNL A   1      39.251  24.989  27.536  1.00  0.00    -0.200 F 
ATOM     87  C   UNL A   1      40.714  26.522  26.492  1.00  0.00     0.200 A 
ATOM     88  F   UNL A   1      42.178  28.083  25.495  1.00  0.00    -0.200 F 
ATOM     89  F   UNL A   1      40.756  25.758  25.393  1.00  0.00    -0.200 F 
ENDBRANCH  55  79
BRANCH  67  90
ATOM     90  C   UNL A   1      43.965  28.153  34.910  1.00  0.00     0.064 A 
ATOM     91  C   UNL A   1      45.329  28.436  34.748  1.00  0.00     0.173 A 
ATOM     92  C   UNL A   1      43.611  27.005  35.636  1.00  0.00     0.173 A 
ATOM     93  F   UNL A   1      45.715  29.511  34.045  1.00  0.00    -0.203 F 
ATOM     94  C   UNL A   1      46.302  27.585  35.265  1.00  0.00     0.198 A 
ATOM     95  C   UNL A   1      44.587  26.170  36.174  1.00  0.00     0.198 A 
ATOM     96  F   UNL A   1      42.320  26.692  35.819  1.00  0.00    -0.203 F 
ATOM     97  F   UNL A   1      47.598  27.847  35.053  1.00  0.00    -0.200 F 
ATOM     98  C   UNL A   1      45.930  26.457  35.981  1.00  0.00     0.200 A 
ATOM     99  F   UNL A   1      44.227  25.084  36.871  1.00  0.00    -0.200 F 
ATOM    100  F   UNL A   1      46.868  25.638  36.477  1.00  0.00    -0.200 F 
ENDBRANCH  67  90
ENDBRANCH  41  42
ENDBRANCH  33  36
ENDBRANCH  31  32
ENDBRANCH  30  31
ENDBRANCH   1  30
TORSDOF 14
ENDMDL
MODEL 2
REMARK VINA RESULT:     -12.6      1.734      2.640
REMARK SMILES O=C(COc1ccccc1/C=C1/SC(=S)N(c2ccc(F)c(Cl)c2)C1=O)NCCCNC(=O)c1ccc(-c2c3nc(c(-c4c(F)c(F)c(F)c(F)c4F)c4ccc([nH]4)c(-c4c(F)c(F)c(F)c(F)c4F)c4nc(c(-c5c(F)c(F)c(F)c(F)c5F)c5ccc2[nH]5)C=C4)C=C3)cc1
REMARK SMILES IDX 28 1 27 2 1 3 2 4 3 6 4 7 5 8 6 9 10 10 7 11 9 12 8 13 11 14
REMARK SMILES IDX 12 15 13 16 25 17 14 18 16 19 26 20 15 21 17 22 18 23 24 24
REMARK SMILES IDX 19 25 22 26 20 27 23 28 21 29 29 30 30 31 31 32 32 33 33 35
REMARK SMILES IDX 34 36 35 37 96 38 36 39 95 40 37 41 38 42 39 43 89 44 40 45
REMARK SMILES IDX 94 46 88 47 90 48 41 49 93 50 87 51 86 52 42 54 74 55 54 56
REMARK SMILES IDX 73 57 55 58 58 59 72 60 91 61 56 62 57 63 71 65 92 66 59 67
REMARK SMILES IDX 43 68 44 69 52 70 45 71 46 72 50 73 53 74 47 75 48 76 51 77
REMARK SMILES IDX 49 78 75 79 76 80 84 81 77 82 78 83 82 84 85 85 79 86 80 87
REMARK SMILES IDX 83 88 81 89 60 90 61 91 69 92 62 93 63 94 67 95 70 96 64 97
REMARK SMILES IDX 65 98 68 99 66 100
REMARK H PARENT 27 5 31 34 90 53 58 64
REMARK Flexibility Score: inf
ROOT
ATOM      1  C   UNL A   1      32.560  29.881  25.259  1.00  0.00     0.117 C 
ENDROOT
BRANCH   1   2
ATOM      2  N   UNL A   1      31.878  29.174  24.188  1.00  0.00    -0.353 N 
ATOM      3  O   UNL A   1      33.804  28.714  23.015  1.00  0.00    -0.271 OA
ATOM      4  C   UNL A   1      32.591  28.581  23.156  1.00  0.00     0.257 C 
ATOM      5  H   UNL A   1      30.896  29.113  24.195  1.00  0.00     0.163 HD
BRANCH   4   6
ATOM      6  C   UNL A   1      31.748  27.748  22.184  1.00  0.00     0.329 C 
BRANCH   6   7
ATOM      7  O   UNL A   1      31.792  26.349  22.468  1.00  0.00    -0.483 OA
BRANCH   7   8
ATOM      8  C   UNL A   1      31.101  26.053  23.622  1.00  0.00     0.127 A 
ATOM      9  C   UNL A   1      29.744  26.366  23.712  1.00  0.00     0.047 A 
ATOM     10  C   UNL A   1      31.787  25.559  24.745  1.00  0.00     0.018 A 
ATOM     11  C   UNL A   1      29.051  26.112  24.898  1.00  0.00     0.004 A 
ATOM     12  C   UNL A   1      31.073  25.260  25.911  1.00  0.00     0.012 A 
ATOM     13  C   UNL A   1      29.707  25.538  25.986  1.00  0.00     0.001 A 
BRANCH  10  14
ATOM     14  C   UNL A   1      33.243  25.404  24.759  1.00  0.00     0.033 C 
ATOM     15  C   UNL A   1      33.856  24.218  24.642  1.00  0.00     0.081 C 
ATOM     16  S   UNL A   1      35.560  24.027  24.816  1.00  0.00    -0.054 SA
ATOM     17  C   UNL A   1      33.216  22.877  24.448  1.00  0.00     0.270 C 
ATOM     18  C   UNL A   1      35.442  22.279  24.956  1.00  0.00     0.152 C 
ATOM     19  N   UNL A   1      34.121  21.894  24.814  1.00  0.00    -0.261 N 
ATOM     20  O   UNL A   1      32.100  22.692  23.985  1.00  0.00    -0.268 OA
ATOM     21  S   UNL A   1      36.769  21.289  25.188  1.00  0.00    -0.051 S 
BRANCH  19  22
ATOM     22  C   UNL A   1      33.744  20.534  24.837  1.00  0.00     0.052 A 
ATOM     23  C   UNL A   1      33.445  19.930  26.064  1.00  0.00     0.030 A 
ATOM     24  C   UNL A   1      33.442  19.886  23.631  1.00  0.00     0.050 A 
ATOM     25  C   UNL A   1      32.775  18.708  26.082  1.00  0.00     0.043 A 
ATOM     26  C   UNL A   1      32.782  18.659  23.660  1.00  0.00     0.078 A 
ATOM     27  C   UNL A   1      32.433  18.087  24.882  1.00  0.00     0.141 A 
ATOM     28  Cl  UNL A   1      32.347  17.902  22.175  1.00  0.00    -0.081 Cl
ATOM     29  F   UNL A   1      31.735  16.944  24.926  1.00  0.00    -0.205 F 
ENDBRANCH  19  22
ENDBRANCH  10  14
ENDBRANCH   7   8
ENDBRANCH   6   7
ENDBRANCH   4   6
ENDBRANCH   1   2
BRANCH   1  30
ATOM     30  C   UNL A   1      31.742  30.995  25.905  1.00  0.00     0.042 C 
BRANCH  30  31
ATOM     31  C   UNL A   1      32.083  31.323  27.356  1.00  0.00     0.118 C 
BRANCH  31  32
ATOM     32  N   UNL A   1      32.525  32.690  27.567  1.00  0.00    -0.352 N 
ATOM     33  C   UNL A   1      33.752  33.226  27.882  1.00  0.00     0.251 C 
ATOM     34  H   UNL A   1      31.810  33.360  27.465  1.00  0.00     0.163 HD
ATOM     35  O   UNL A   1      33.799  34.444  28.059  1.00  0.00    -0.269 OA
BRANCH  33  36
ATOM     36  C   UNL A   1      34.992  32.413  28.077  1.00  0.00     0.039 A 
ATOM     37  C   UNL A   1      36.205  33.114  28.164  1.00  0.00     0.014 A 
ATOM     38  C   UNL A   1      35.020  31.023  28.222  1.00  0.00     0.014 A 
ATOM     39  C   UNL A   1      37.379  32.466  28.557  1.00  0.00     0.010 A 
ATOM     40  C   UNL A   1      36.171  30.382  28.689  1.00  0.00     0.010 A 
ATOM     41  C   UNL A   1      37.339  31.115  28.926  1.00  0.00    -0.014 A 
BRANCH  41  42
ATOM     42  C   UNL A   1      38.421  30.542  29.766  1.00  0.00     0.031 A 
ATOM     43  C   UNL A   1      38.630  30.941  31.192  1.00  0.00     0.074 A 
ATOM     44  C   UNL A   1      39.289  29.700  29.165  1.00  0.00     0.049 A 
ATOM     45  N   UNL A   1      39.523  30.503  32.045  1.00  0.00    -0.248 NA
ATOM     46  C   UNL A   1      37.747  31.984  31.730  1.00  0.00     0.031 C 
ATOM     47  C   UNL A   1      39.247  29.322  27.750  1.00  0.00     0.029 A 
ATOM     48  N   UNL A   1      40.371  29.016  29.656  1.00  0.00    -0.354 N 
ATOM     49  C   UNL A   1      39.310  31.210  33.219  1.00  0.00     0.074 A 
ATOM     50  C   UNL A   1      38.232  32.142  32.955  1.00  0.00     0.031 C 
ATOM     51  C   UNL A   1      40.230  28.446  27.496  1.00  0.00     0.029 A 
ATOM     52  C   UNL A   1      40.987  28.221  28.720  1.00  0.00     0.049 A 
ATOM     53  H   UNL A   1      40.676  29.086  30.590  1.00  0.00     0.167 HD
ATOM     54  C   UNL A   1      39.949  31.079  34.407  1.00  0.00     0.037 A 
ATOM     55  C   UNL A   1      42.037  27.390  28.835  1.00  0.00     0.037 A 
ATOM     56  C   UNL A   1      41.021  30.147  34.658  1.00  0.00     0.049 A 
ATOM     57  C   UNL A   1      42.689  27.225  30.175  1.00  0.00     0.074 A 
ATOM     58  C   UNL A   1      41.690  29.895  35.844  1.00  0.00     0.029 A 
ATOM     59  N   UNL A   1      41.589  29.320  33.699  1.00  0.00    -0.354 N 
ATOM     60  N   UNL A   1      42.409  27.823  31.307  1.00  0.00    -0.248 NA
ATOM     61  C   UNL A   1      43.791  26.258  30.260  1.00  0.00     0.031 C 
ATOM     62  C   UNL A   1      42.684  28.941  35.594  1.00  0.00     0.029 A 
ATOM     63  C   UNL A   1      42.610  28.569  34.262  1.00  0.00     0.049 A 
ATOM     64  H   UNL A   1      41.309  29.273  32.756  1.00  0.00     0.167 HD
ATOM     65  C   UNL A   1      43.283  27.293  32.243  1.00  0.00     0.074 A 
ATOM     66  C   UNL A   1      44.090  26.310  31.550  1.00  0.00     0.031 C 
ATOM     67  C   UNL A   1      43.406  27.597  33.558  1.00  0.00     0.037 A 
BRANCH  54  68
ATOM     68  C   UNL A   1      39.497  31.958  35.538  1.00  0.00     0.064 A 
ATOM     69  C   UNL A   1      40.008  33.254  35.703  1.00  0.00     0.173 A 
ATOM     70  C   UNL A   1      38.509  31.525  36.433  1.00  0.00     0.173 A 
ATOM     71  F   UNL A   1      40.959  33.715  34.876  1.00  0.00    -0.203 F 
ATOM     72  C   UNL A   1      39.564  34.074  36.738  1.00  0.00     0.198 A 
ATOM     73  C   UNL A   1      38.049  32.356  37.452  1.00  0.00     0.198 A 
ATOM     74  F   UNL A   1      37.980  30.297  36.315  1.00  0.00    -0.203 F 
ATOM     75  F   UNL A   1      40.094  35.295  36.898  1.00  0.00    -0.200 F 
ATOM     76  C   UNL A   1      38.581  33.627  37.607  1.00  0.00     0.200 A 
ATOM     77  F   UNL A   1      37.089  31.927  38.283  1.00  0.00    -0.200 F 
ATOM     78  F   UNL A   1      38.148  34.420  38.597  1.00  0.00    -0.200 F 
ENDBRANCH  54  68
BRANCH  55  79
ATOM     79  C   UNL A   1      42.487  26.608  27.656  1.00  0.00     0.064 A 
ATOM     80  C   UNL A   1      43.509  27.090  26.826  1.00  0.00     0.173 A 
ATOM     81  C   UNL A   1      41.935  25.356  27.356  1.00  0.00     0.173 A 
ATOM     82  F   UNL A   1      44.058  28.289  27.068  1.00  0.00    -0.203 F 
ATOM     83  C   UNL A   1      43.949  26.355  25.728  1.00  0.00     0.198 A 
ATOM     84  C   UNL A   1      42.394  24.610  26.272  1.00  0.00     0.198 A 
ATOM     85  F   UNL A   1      40.964  24.847  28.128  1.00  0.00    -0.203 F 
ATOM     86  F   UNL A   1      44.904  26.855  24.931  1.00  0.00    -0.200 F 
ATOM     87  C   UNL A   1      43.396  25.114  25.455  1.00  0.00     0.200 A 
ATOM     88  F   UNL A   1      41.868  23.404  26.020  1.00  0.00    -0.200 F 
ATOM     89  F   UNL A   1      43.827  24.403  24.405  1.00  0.00    -0.200 F 
ENDBRANCH  55  79
BRANCH  67  90
ATOM     90  C   UNL A   1      44.443  26.839  34.330  1.00  0.00     0.064 A 
ATOM     91  C   UNL A   1      45.754  27.321  34.466  1.00  0.00     0.173 A 
ATOM     92  C   UNL A   1      44.122  25.620  34.945  1.00  0.00     0.173 A 
ATOM     93  F   UNL A   1      46.113  28.472  33.879  1.00  0.00    -0.203 F 
ATOM     94  C   UNL A   1      46.713  26.594  35.165  1.00  0.00     0.198 A 
ATOM     95  C   UNL A   1      45.077  24.908  35.665  1.00  0.00     0.198 A 
ATOM     96  F   UNL A   1      42.882  25.117  34.845  1.00  0.00    -0.203 F 
ATOM     97  F   UNL A   1      47.972  27.048  35.238  1.00  0.00    -0.200 F 
ATOM     98  C   UNL A   1      46.374  25.392  35.768  1.00  0.00     0.200 A 
ATOM     99  F   UNL A   1      44.747  23.750  36.253  1.00  0.00    -0.200 F 
ATOM    100  F   UNL A   1      47.300  24.693  36.438  1.00  0.00    -0.200 F 
ENDBRANCH  67  90
ENDBRANCH  41  42
ENDBRANCH  33  36
ENDBRANCH  31  32
ENDBRANCH  30  31
ENDBRANCH   1  30
TORSDOF 14
ENDMDL
MODEL 3
REMARK VINA RESULT:     -12.5      0.558      7.219
REMARK SMILES O=C(COc1ccccc1/C=C1/SC(=S)N(c2ccc(F)c(Cl)c2)C1=O)NCCCNC(=O)c1ccc(-c2c3nc(c(-c4c(F)c(F)c(F)c(F)c4F)c4ccc([nH]4)c(-c4c(F)c(F)c(F)c(F)c4F)c4nc(c(-c5c(F)c(F)c(F)c(F)c5F)c5ccc2[nH]5)C=C4)C=C3)cc1
REMARK SMILES IDX 28 1 27 2 1 3 2 4 3 6 4 7 5 8 6 9 10 10 7 11 9 12 8 13 11 14
REMARK SMILES IDX 12 15 13 16 25 17 14 18 16 19 26 20 15 21 17 22 18 23 24 24
REMARK SMILES IDX 19 25 22 26 20 27 23 28 21 29 29 30 30 31 31 32 32 33 33 35
REMARK SMILES IDX 34 36 35 37 96 38 36 39 95 40 37 41 38 42 39 43 89 44 40 45
REMARK SMILES IDX 94 46 88 47 90 48 41 49 93 50 87 51 86 52 42 54 74 55 54 56
REMARK SMILES IDX 73 57 55 58 58 59 72 60 91 61 56 62 57 63 71 65 92 66 59 67
REMARK SMILES IDX 43 68 44 69 52 70 45 71 46 72 50 73 53 74 47 75 48 76 51 77
REMARK SMILES IDX 49 78 75 79 76 80 84 81 77 82 78 83 82 84 85 85 79 86 80 87
REMARK SMILES IDX 83 88 81 89 60 90 61 91 69 92 62 93 63 94 67 95 70 96 64 97
REMARK SMILES IDX 65 98 68 99 66 100
REMARK H PARENT 27 5 31 34 90 53 58 64
REMARK Flexibility Score: inf
ROOT
ATOM      1  C   UNL A   1      34.971  30.216  27.376  1.00  0.00     0.117 C 
ENDROOT
BRANCH   1   2
ATOM      2  N   UNL A   1      33.924  29.219  27.519  1.00  0.00    -0.353 N 
ATOM      3  O   UNL A   1      34.107  28.448  25.358  1.00  0.00    -0.271 OA
ATOM      4  C   UNL A   1      33.615  28.353  26.480  1.00  0.00     0.257 C 
ATOM      5  H   UNL A   1      33.428  29.155  28.366  1.00  0.00     0.163 HD
BRANCH   4   6
ATOM      6  C   UNL A   1      32.596  27.263  26.829  1.00  0.00     0.329 C 
BRANCH   6   7
ATOM      7  O   UNL A   1      32.937  25.987  26.285  1.00  0.00    -0.483 OA
BRANCH   7   8
ATOM      8  C   UNL A   1      32.180  25.703  25.169  1.00  0.00     0.127 A 
ATOM      9  C   UNL A   1      30.789  25.795  25.239  1.00  0.00     0.047 A 
ATOM     10  C   UNL A   1      32.797  25.201  24.010  1.00  0.00     0.018 A 
ATOM     11  C   UNL A   1      30.016  25.461  24.126  1.00  0.00     0.004 A 
ATOM     12  C   UNL A   1      32.017  24.920  22.884  1.00  0.00     0.012 A 
ATOM     13  C   UNL A   1      30.628  25.049  22.943  1.00  0.00     0.001 A 
BRANCH  10  14
ATOM     14  C   UNL A   1      34.229  24.901  23.961  1.00  0.00     0.033 C 
ATOM     15  C   UNL A   1      34.721  23.657  24.049  1.00  0.00     0.081 C 
ATOM     16  S   UNL A   1      36.410  23.326  24.146  1.00  0.00    -0.054 SA
ATOM     17  C   UNL A   1      33.950  22.378  24.175  1.00  0.00     0.270 C 
ATOM     18  C   UNL A   1      36.148  21.662  24.647  1.00  0.00     0.152 C 
ATOM     19  N   UNL A   1      34.790  21.398  24.673  1.00  0.00    -0.261 N 
ATOM     20  O   UNL A   1      32.786  22.225  23.833  1.00  0.00    -0.268 OA
ATOM     21  S   UNL A   1      37.396  20.603  24.990  1.00  0.00    -0.051 S 
BRANCH  19  22
ATOM     22  C   UNL A   1      34.296  20.116  24.998  1.00  0.00     0.052 A 
ATOM     23  C   UNL A   1      33.368  19.986  26.037  1.00  0.00     0.030 A 
ATOM     24  C   UNL A   1      34.551  19.043  24.132  1.00  0.00     0.050 A 
ATOM     25  C   UNL A   1      32.639  18.805  26.164  1.00  0.00     0.043 A 
ATOM     26  C   UNL A   1      33.824  17.863  24.272  1.00  0.00     0.078 A 
ATOM     27  C   UNL A   1      32.859  17.756  25.272  1.00  0.00     0.141 A 
ATOM     28  Cl  UNL A   1      34.088  16.575  23.159  1.00  0.00    -0.081 Cl
ATOM     29  F   UNL A   1      32.102  16.655  25.376  1.00  0.00    -0.205 F 
ENDBRANCH  19  22
ENDBRANCH  10  14
ENDBRANCH   7   8
ENDBRANCH   6   7
ENDBRANCH   4   6
ENDBRANCH   1   2
BRANCH   1  30
ATOM     30  C   UNL A   1      34.520  31.651  27.633  1.00  0.00     0.042 C 
BRANCH  30  31
ATOM     31  C   UNL A   1      33.012  31.892  27.624  1.00  0.00     0.118 C 
BRANCH  31  32
ATOM     32  N   UNL A   1      32.635  33.289  27.730  1.00  0.00    -0.352 N 
ATOM     33  C   UNL A   1      33.166  34.338  28.444  1.00  0.00     0.251 C 
ATOM     34  H   UNL A   1      31.850  33.532  27.186  1.00  0.00     0.163 HD
ATOM     35  O   UNL A   1      32.575  35.416  28.374  1.00  0.00    -0.269 OA
BRANCH  33  36
ATOM     36  C   UNL A   1      34.364  34.221  29.331  1.00  0.00     0.039 A 
ATOM     37  C   UNL A   1      34.151  33.712  30.623  1.00  0.00     0.014 A 
ATOM     38  C   UNL A   1      35.671  34.538  28.953  1.00  0.00     0.014 A 
ATOM     39  C   UNL A   1      35.230  33.368  31.442  1.00  0.00     0.010 A 
ATOM     40  C   UNL A   1      36.755  34.127  29.733  1.00  0.00     0.010 A 
ATOM     41  C   UNL A   1      36.538  33.475  30.953  1.00  0.00    -0.014 A 
BRANCH  41  42
ATOM     42  C   UNL A   1      37.635  32.705  31.591  1.00  0.00     0.031 A 
ATOM     43  C   UNL A   1      38.284  31.529  30.932  1.00  0.00     0.074 A 
ATOM     44  C   UNL A   1      37.975  33.046  32.852  1.00  0.00     0.049 A 
ATOM     45  N   UNL A   1      39.267  30.782  31.370  1.00  0.00    -0.248 NA
ATOM     46  C   UNL A   1      37.751  31.117  29.628  1.00  0.00     0.031 C 
ATOM     47  C   UNL A   1      37.337  34.108  33.636  1.00  0.00     0.029 A 
ATOM     48  N   UNL A   1      38.929  32.542  33.698  1.00  0.00    -0.354 N 
ATOM     49  C   UNL A   1      39.473  29.814  30.398  1.00  0.00     0.074 A 
ATOM     50  C   UNL A   1      38.481  30.040  29.367  1.00  0.00     0.031 C 
ATOM     51  C   UNL A   1      37.940  34.202  34.829  1.00  0.00     0.029 A 
ATOM     52  C   UNL A   1      38.989  33.194  34.907  1.00  0.00     0.049 A 
ATOM     53  H   UNL A   1      39.517  31.788  33.463  1.00  0.00     0.167 HD
ATOM     54  C   UNL A   1      40.415  28.839  30.369  1.00  0.00     0.037 A 
ATOM     55  C   UNL A   1      39.806  33.010  35.959  1.00  0.00     0.037 A 
ATOM     56  C   UNL A   1      41.398  28.624  31.403  1.00  0.00     0.049 A 
ATOM     57  C   UNL A   1      40.872  31.960  35.875  1.00  0.00     0.074 A 
ATOM     58  C   UNL A   1      42.432  27.704  31.436  1.00  0.00     0.029 A 
ATOM     59  N   UNL A   1      41.461  29.334  32.593  1.00  0.00    -0.354 N 
ATOM     60  N   UNL A   1      41.126  31.119  34.904  1.00  0.00    -0.248 NA
ATOM     61  C   UNL A   1      41.777  31.844  37.025  1.00  0.00     0.031 C 
ATOM     62  C   UNL A   1      43.098  27.834  32.660  1.00  0.00     0.029 A 
ATOM     63  C   UNL A   1      42.505  28.863  33.374  1.00  0.00     0.049 A 
ATOM     64  H   UNL A   1      40.853  30.067  32.847  1.00  0.00     0.167 HD
ATOM     65  C   UNL A   1      42.230  30.388  35.313  1.00  0.00     0.074 A 
ATOM     66  C   UNL A   1      42.609  30.899  36.614  1.00  0.00     0.031 C 
ATOM     67  C   UNL A   1      42.869  29.381  34.668  1.00  0.00     0.037 A 
BRANCH  54  68
ATOM     68  C   UNL A   1      40.437  27.933  29.172  1.00  0.00     0.064 A 
ATOM     69  C   UNL A   1      39.656  26.767  29.125  1.00  0.00     0.173 A 
ATOM     70  C   UNL A   1      41.202  28.255  28.042  1.00  0.00     0.173 A 
ATOM     71  F   UNL A   1      38.910  26.412  30.181  1.00  0.00    -0.203 F 
ATOM     72  C   UNL A   1      39.661  25.946  28.000  1.00  0.00     0.198 A 
ATOM     73  C   UNL A   1      41.186  27.444  26.909  1.00  0.00     0.198 A 
ATOM     74  F   UNL A   1      41.959  29.362  28.031  1.00  0.00    -0.203 F 
ATOM     75  F   UNL A   1      38.937  24.818  27.993  1.00  0.00    -0.200 F 
ATOM     76  C   UNL A   1      40.420  26.289  26.891  1.00  0.00     0.200 A 
ATOM     77  F   UNL A   1      41.909  27.783  25.833  1.00  0.00    -0.200 F 
ATOM     78  F   UNL A   1      40.417  25.501  25.806  1.00  0.00    -0.200 F 
ENDBRANCH  54  68
BRANCH  55  79
ATOM     79  C   UNL A   1      39.678  33.889  37.149  1.00  0.00     0.064 A 
ATOM     80  C   UNL A   1      40.302  35.144  37.181  1.00  0.00     0.173 A 
ATOM     81  C   UNL A   1      38.906  33.511  38.256  1.00  0.00     0.173 A 
ATOM     82  F   UNL A   1      41.061  35.541  36.150  1.00  0.00    -0.203 F 
ATOM     83  C   UNL A   1      40.173  35.981  38.287  1.00  0.00     0.198 A 
ATOM     84  C   UNL A   1      38.756  34.361  39.350  1.00  0.00     0.198 A 
ATOM     85  F   UNL A   1      38.279  32.327  38.265  1.00  0.00    -0.203 F 
ATOM     86  F   UNL A   1      40.808  37.161  38.307  1.00  0.00    -0.200 F 
ATOM     87  C   UNL A   1      39.396  35.593  39.367  1.00  0.00     0.200 A 
ATOM     88  F   UNL A   1      37.992  33.990  40.385  1.00  0.00    -0.200 F 
ATOM     89  F   UNL A   1      39.264  36.403  40.425  1.00  0.00    -0.200 F 
ENDBRANCH  55  79
BRANCH  67  90
ATOM     90  C   UNL A   1      44.055  28.783  35.362  1.00  0.00     0.064 A 
ATOM     91  C   UNL A   1      43.921  27.700  36.243  1.00  0.00     0.173 A 
ATOM     92  C   UNL A   1      45.341  29.296  35.138  1.00  0.00     0.173 A 
ATOM     93  F   UNL A   1      42.709  27.189  36.504  1.00  0.00    -0.203 F 
ATOM     94  C   UNL A   1      45.029  27.171  36.899  1.00  0.00     0.198 A 
ATOM     95  C   UNL A   1      46.451  28.748  35.776  1.00  0.00     0.198 A 
ATOM     96  F   UNL A   1      45.522  30.331  34.303  1.00  0.00    -0.203 F 
ATOM     97  F   UNL A   1      44.871  26.171  37.776  1.00  0.00    -0.200 F 
ATOM     98  C   UNL A   1      46.293  27.692  36.661  1.00  0.00     0.200 A 
ATOM     99  F   UNL A   1      47.672  29.247  35.541  1.00  0.00    -0.200 F 
ATOM    100  F   UNL A   1      47.358  27.183  37.296  1.00  0.00    -0.200 F 
ENDBRANCH  67  90
ENDBRANCH  41  42
ENDBRANCH  33  36
ENDBRANCH  31  32
ENDBRANCH  30  31
ENDBRANCH   1  30
TORSDOF 14
ENDMDL
