MODEL 1
REMARK VINA RESULT:     -13.2      0.000      0.000
REMARK SMILES Cc1ccc2nc(Cl)c([C@@H]3CC(c4cccs4)=NN3C(=O)CCCC(=O)NCCCNC(=O)c3ccc(-c4c5nc(c(-c6c(F)c(F)c(F)c(F)c6F)c6ccc([nH]6)c(-c6c(F)c(F)c(F)c(F)c6F)c6nc(c(-c7c(F)c(F)c(F)c(F)c7F)c7ccc4[nH]7)C=C6)C=C5)cc3)cc2c1
REMARK SMILES IDX 25 1 26 2 27 3 24 5 23 6 22 7 20 8 21 9 19 10 10 11 11 12
REMARK SMILES IDX 12 13 18 14 9 15 1 16 2 17 3 18 99 19 4 20 98 21 5 22 97 23
REMARK SMILES IDX 6 24 7 25 8 26 13 27 14 28 17 29 15 30 16 31 28 32 29 33
REMARK SMILES IDX 30 34 31 35 32 36 33 38 34 39 35 40 96 41 36 42 95 43 37 44
REMARK SMILES IDX 38 45 39 46 89 47 40 48 94 49 88 50 90 51 41 52 93 53 87 54
REMARK SMILES IDX 86 55 42 57 74 58 54 59 73 60 55 61 58 62 72 63 91 64 56 65
REMARK SMILES IDX 57 66 71 68 92 69 59 70 43 71 44 72 52 73 45 74 46 75 50 76
REMARK SMILES IDX 53 77 47 78 48 79 51 80 49 81 75 82 76 83 84 84 77 85 78 86
REMARK SMILES IDX 82 87 85 88 79 89 80 90 83 91 81 92 60 93 61 94 69 95 62 96
REMARK SMILES IDX 63 97 67 98 70 99 64 100 65 101 68 102 66 103
REMARK H PARENT 27 4 31 37 90 56 58 67
REMARK Flexibility Score: inf
ROOT
ATOM      1  C   UNL A   1      33.253  27.161  22.530  1.00  0.00     0.220 C 
ATOM      2  O   UNL A   1      34.026  27.503  21.630  1.00  0.00    -0.275 OA
ATOM      3  N   UNL A   1      33.303  27.870  23.685  1.00  0.00    -0.356 N 
ATOM      4  H   UNL A   1      34.162  28.321  23.853  1.00  0.00     0.163 HD
ENDROOT
BRANCH   1   5
ATOM      5  C   UNL A   1      32.244  26.056  22.282  1.00  0.00     0.100 C 
BRANCH   5   6
ATOM      6  C   UNL A   1      32.701  24.614  22.416  1.00  0.00     0.020 C 
BRANCH   6   7
ATOM      7  C   UNL A   1      31.744  23.617  23.060  1.00  0.00     0.103 C 
BRANCH   7   8
ATOM      8  C   UNL A   1      32.091  22.135  22.975  1.00  0.00     0.243 C 
ATOM      9  O   UNL A   1      31.428  21.446  22.188  1.00  0.00    -0.273 OA
BRANCH   8  10
ATOM     10  N   UNL A   1      33.218  21.617  23.648  1.00  0.00    -0.225 N 
ATOM     11  C   UNL A   1      33.622  21.950  25.057  1.00  0.00     0.150 C 
ATOM     12  C   UNL A   1      33.438  20.640  25.818  1.00  0.00     0.092 C 
ATOM     13  C   UNL A   1      33.355  19.686  24.671  1.00  0.00     0.081 C 
ATOM     14  N   UNL A   1      33.288  20.229  23.495  1.00  0.00    -0.173 NA
BRANCH  11  15
ATOM     15  C   UNL A   1      35.023  22.544  25.239  1.00  0.00     0.015 A 
ATOM     16  C   UNL A   1      40.705  20.632  26.831  1.00  0.00     0.044 C 
ATOM     17  C   UNL A   1      39.670  21.640  26.420  1.00  0.00    -0.050 A 
ATOM     18  C   UNL A   1      39.809  22.984  26.769  1.00  0.00     0.005 A 
ATOM     19  C   UNL A   1      38.507  21.231  25.749  1.00  0.00     0.013 A 
ATOM     20  C   UNL A   1      38.776  23.886  26.500  1.00  0.00     0.029 A 
ATOM     21  C   UNL A   1      37.438  22.131  25.538  1.00  0.00     0.001 A 
ATOM     22  C   UNL A   1      37.579  23.470  25.934  1.00  0.00     0.072 A 
ATOM     23  C   UNL A   1      36.158  21.712  25.108  1.00  0.00     0.019 A 
ATOM     24  N   UNL A   1      36.553  24.323  25.894  1.00  0.00    -0.236 NA
ATOM     25  C   UNL A   1      35.318  23.862  25.581  1.00  0.00     0.135 A 
ATOM     26  Cl  UNL A   1      34.175  25.128  25.734  1.00  0.00    -0.062 Cl
ENDBRANCH  11  15
BRANCH  13  27
ATOM     27  C   UNL A   1      33.243  18.269  24.877  1.00  0.00     0.050 A 
ATOM     28  C   UNL A   1      32.517  17.611  25.849  1.00  0.00     0.022 A 
ATOM     29  S   UNL A   1      34.013  17.182  23.810  1.00  0.00    -0.142 S 
ATOM     30  C   UNL A   1      32.556  16.196  25.678  1.00  0.00     0.012 A 
ATOM     31  C   UNL A   1      33.351  15.827  24.616  1.00  0.00     0.065 A 
ENDBRANCH  13  27
ENDBRANCH   8  10
ENDBRANCH   7   8
ENDBRANCH   6   7
ENDBRANCH   5   6
ENDBRANCH   1   5
BRANCH   3  32
ATOM     32  C   UNL A   1      32.305  28.072  24.712  1.00  0.00     0.117 C 
BRANCH  32  33
ATOM     33  C   UNL A   1      32.088  29.527  25.097  1.00  0.00     0.042 C 
BRANCH  33  34
ATOM     34  C   UNL A   1      32.987  29.902  26.265  1.00  0.00     0.118 C 
BRANCH  34  35
ATOM     35  N   UNL A   1      32.744  31.232  26.821  1.00  0.00    -0.352 N 
ATOM     36  C   UNL A   1      33.620  31.954  27.605  1.00  0.00     0.251 C 
ATOM     37  H   UNL A   1      31.876  31.650  26.619  1.00  0.00     0.163 HD
ATOM     38  O   UNL A   1      33.336  33.036  28.105  1.00  0.00    -0.269 OA
BRANCH  36  39
ATOM     39  C   UNL A   1      34.929  31.334  27.867  1.00  0.00     0.039 A 
ATOM     40  C   UNL A   1      36.045  32.156  28.020  1.00  0.00     0.014 A 
ATOM     41  C   UNL A   1      34.966  29.980  28.203  1.00  0.00     0.014 A 
ATOM     42  C   UNL A   1      37.185  31.637  28.632  1.00  0.00     0.010 A 
ATOM     43  C   UNL A   1      36.063  29.496  28.894  1.00  0.00     0.010 A 
ATOM     44  C   UNL A   1      37.172  30.326  29.134  1.00  0.00    -0.014 A 
BRANCH  44  45
ATOM     45  C   UNL A   1      38.286  29.787  29.946  1.00  0.00     0.031 A 
ATOM     46  C   UNL A   1      38.456  30.264  31.357  1.00  0.00     0.074 A 
ATOM     47  C   UNL A   1      39.215  28.998  29.371  1.00  0.00     0.049 A 
ATOM     48  N   UNL A   1      39.458  30.088  32.178  1.00  0.00    -0.248 NA
ATOM     49  C   UNL A   1      37.373  31.102  31.897  1.00  0.00     0.031 C 
ATOM     50  C   UNL A   1      39.192  28.534  27.981  1.00  0.00     0.029 A 
ATOM     51  N   UNL A   1      40.378  28.474  29.875  1.00  0.00    -0.354 N 
ATOM     52  C   UNL A   1      39.148  30.831  33.307  1.00  0.00     0.074 A 
ATOM     53  C   UNL A   1      37.890  31.496  33.050  1.00  0.00     0.031 C 
ATOM     54  C   UNL A   1      40.283  27.786  27.749  1.00  0.00     0.029 A 
ATOM     55  C   UNL A   1      41.099  27.749  28.958  1.00  0.00     0.049 A 
ATOM     56  H   UNL A   1      40.668  28.605  30.807  1.00  0.00     0.167 HD
ATOM     57  C   UNL A   1      39.845  30.932  34.463  1.00  0.00     0.037 A 
ATOM     58  C   UNL A   1      42.293  27.136  29.079  1.00  0.00     0.037 A 
ATOM     59  C   UNL A   1      41.061  30.214  34.726  1.00  0.00     0.049 A 
ATOM     60  C   UNL A   1      43.013  27.199  30.399  1.00  0.00     0.074 A 
ATOM     61  C   UNL A   1      41.794  30.159  35.897  1.00  0.00     0.029 A 
ATOM     62  N   UNL A   1      41.717  29.413  33.801  1.00  0.00    -0.354 N 
ATOM     63  N   UNL A   1      42.675  27.842  31.490  1.00  0.00    -0.248 NA
ATOM     64  C   UNL A   1      44.273  26.451  30.507  1.00  0.00     0.031 C 
ATOM     65  C   UNL A   1      42.912  29.349  35.672  1.00  0.00     0.029 A 
ATOM     66  C   UNL A   1      42.854  28.870  34.372  1.00  0.00     0.049 A 
ATOM     67  H   UNL A   1      41.419  29.258  32.876  1.00  0.00     0.167 HD
ATOM     68  C   UNL A   1      43.662  27.556  32.422  1.00  0.00     0.074 A 
ATOM     69  C   UNL A   1      44.611  26.677  31.770  1.00  0.00     0.031 C 
ATOM     70  C   UNL A   1      43.771  27.981  33.704  1.00  0.00     0.037 A 
BRANCH  57  71
ATOM     71  C   UNL A   1      39.300  31.847  35.519  1.00  0.00     0.064 A 
ATOM     72  C   UNL A   1      39.661  33.201  35.581  1.00  0.00     0.173 A 
ATOM     73  C   UNL A   1      38.404  31.361  36.482  1.00  0.00     0.173 A 
ATOM     74  F   UNL A   1      40.528  33.710  34.692  1.00  0.00    -0.203 F 
ATOM     75  C   UNL A   1      39.180  34.025  36.595  1.00  0.00     0.198 A 
ATOM     76  C   UNL A   1      37.899  32.196  37.476  1.00  0.00     0.198 A 
ATOM     77  F   UNL A   1      38.023  30.074  36.466  1.00  0.00    -0.203 F 
ATOM     78  F   UNL A   1      39.591  35.297  36.673  1.00  0.00    -0.200 F 
ATOM     79  C   UNL A   1      38.295  33.523  37.537  1.00  0.00     0.200 A 
ATOM     80  F   UNL A   1      37.036  31.712  38.381  1.00  0.00    -0.200 F 
ATOM     81  F   UNL A   1      37.834  34.316  38.514  1.00  0.00    -0.200 F 
ENDBRANCH  57  71
BRANCH  58  82
ATOM     82  C   UNL A   1      42.856  26.382  27.929  1.00  0.00     0.064 A 
ATOM     83  C   UNL A   1      43.607  27.037  26.943  1.00  0.00     0.173 A 
ATOM     84  C   UNL A   1      42.682  24.997  27.805  1.00  0.00     0.173 A 
ATOM     85  F   UNL A   1      43.786  28.365  27.009  1.00  0.00    -0.203 F 
ATOM     86  C   UNL A   1      44.154  26.335  25.871  1.00  0.00     0.198 A 
ATOM     87  C   UNL A   1      43.248  24.293  26.744  1.00  0.00     0.198 A 
ATOM     88  F   UNL A   1      41.979  24.323  28.728  1.00  0.00    -0.203 F 
ATOM     89  F   UNL A   1      44.842  26.990  24.925  1.00  0.00    -0.200 F 
ATOM     90  C   UNL A   1      43.979  24.963  25.776  1.00  0.00     0.200 A 
ATOM     91  F   UNL A   1      43.089  22.964  26.662  1.00  0.00    -0.200 F 
ATOM     92  F   UNL A   1      44.513  24.287  24.748  1.00  0.00    -0.200 F 
ENDBRANCH  58  82
BRANCH  70  93
ATOM     93  C   UNL A   1      44.932  27.475  34.504  1.00  0.00     0.064 A 
ATOM     94  C   UNL A   1      46.153  28.162  34.537  1.00  0.00     0.173 A 
ATOM     95  C   UNL A   1      44.788  26.339  35.316  1.00  0.00     0.173 A 
ATOM     96  F   UNL A   1      46.338  29.245  33.767  1.00  0.00    -0.203 F 
ATOM     97  C   UNL A   1      47.193  27.727  35.353  1.00  0.00     0.198 A 
ATOM     98  C   UNL A   1      45.822  25.921  36.147  1.00  0.00     0.198 A 
ATOM     99  F   UNL A   1      43.635  25.654  35.321  1.00  0.00    -0.203 F 
ATOM    100  F   UNL A   1      48.360  28.385  35.356  1.00  0.00    -0.200 F 
ATOM    101  C   UNL A   1      47.023  26.614  36.164  1.00  0.00     0.200 A 
ATOM    102  F   UNL A   1      45.652  24.854  36.939  1.00  0.00    -0.200 F 
ATOM    103  F   UNL A   1      48.019  26.209  36.964  1.00  0.00    -0.200 F 
ENDBRANCH  70  93
ENDBRANCH  44  45
ENDBRANCH  36  39
ENDBRANCH  34  35
ENDBRANCH  33  34
ENDBRANCH  32  33
ENDBRANCH   3  32
TORSDOF 16
ENDMDL
MODEL 2
REMARK VINA RESULT:     -13.0      5.230     10.796
REMARK SMILES Cc1ccc2nc(Cl)c([C@@H]3CC(c4cccs4)=NN3C(=O)CCCC(=O)NCCCNC(=O)c3ccc(-c4c5nc(c(-c6c(F)c(F)c(F)c(F)c6F)c6ccc([nH]6)c(-c6c(F)c(F)c(F)c(F)c6F)c6nc(c(-c7c(F)c(F)c(F)c(F)c7F)c7ccc4[nH]7)C=C6)C=C5)cc3)cc2c1
REMARK SMILES IDX 25 1 26 2 27 3 24 5 23 6 22 7 20 8 21 9 19 10 10 11 11 12
REMARK SMILES IDX 12 13 18 14 9 15 1 16 2 17 3 18 99 19 4 20 98 21 5 22 97 23
REMARK SMILES IDX 6 24 7 25 8 26 13 27 14 28 17 29 15 30 16 31 28 32 29 33
REMARK SMILES IDX 30 34 31 35 32 36 33 38 34 39 35 40 96 41 36 42 95 43 37 44
REMARK SMILES IDX 38 45 39 46 89 47 40 48 94 49 88 50 90 51 41 52 93 53 87 54
REMARK SMILES IDX 86 55 42 57 74 58 54 59 73 60 55 61 58 62 72 63 91 64 56 65
REMARK SMILES IDX 57 66 71 68 92 69 59 70 43 71 44 72 52 73 45 74 46 75 50 76
REMARK SMILES IDX 53 77 47 78 48 79 51 80 49 81 75 82 76 83 84 84 77 85 78 86
REMARK SMILES IDX 82 87 85 88 79 89 80 90 83 91 81 92 60 93 61 94 69 95 62 96
REMARK SMILES IDX 63 97 67 98 70 99 64 100 65 101 68 102 66 103
REMARK H PARENT 27 4 31 37 90 56 58 67
REMARK Flexibility Score: inf
ROOT
ATOM      1  C   UNL A   1      41.456  20.951  27.506  1.00  0.00     0.220 C 
ATOM      2  O   UNL A   1      41.567  22.007  28.135  1.00  0.00    -0.275 OA
ATOM      3  N   UNL A   1      42.358  19.976  27.778  1.00  0.00    -0.356 N 
ATOM      4  H   UNL A   1      43.212  20.298  28.146  1.00  0.00     0.163 HD
ENDROOT
BRANCH   1   5
ATOM      5  C   UNL A   1      40.294  20.758  26.550  1.00  0.00     0.100 C 
BRANCH   5   6
ATOM      6  C   UNL A   1      39.572  21.989  26.030  1.00  0.00     0.020 C 
BRANCH   6   7
ATOM      7  C   UNL A   1      38.077  21.876  25.749  1.00  0.00     0.103 C 
BRANCH   7   8
ATOM      8  C   UNL A   1      37.200  23.086  26.052  1.00  0.00     0.243 C 
ATOM      9  O   UNL A   1      37.776  24.159  26.271  1.00  0.00    -0.273 OA
BRANCH   8  10
ATOM     10  N   UNL A   1      35.795  23.008  25.933  1.00  0.00    -0.225 N 
ATOM     11  C   UNL A   1      34.974  23.655  24.854  1.00  0.00     0.150 C 
ATOM     12  C   UNL A   1      34.404  22.480  24.063  1.00  0.00     0.092 C 
ATOM     13  C   UNL A   1      34.648  21.373  25.037  1.00  0.00     0.081 C 
ATOM     14  N   UNL A   1      35.361  21.686  26.074  1.00  0.00    -0.173 NA
BRANCH  11  15
ATOM     15  C   UNL A   1      33.888  24.632  25.319  1.00  0.00     0.015 A 
ATOM     16  C   UNL A   1      33.402  30.599  26.942  1.00  0.00     0.044 C 
ATOM     17  C   UNL A   1      32.895  29.206  26.695  1.00  0.00    -0.050 A 
ATOM     18  C   UNL A   1      31.781  28.724  27.382  1.00  0.00     0.005 A 
ATOM     19  C   UNL A   1      33.584  28.342  25.829  1.00  0.00     0.013 A 
ATOM     20  C   UNL A   1      31.402  27.385  27.245  1.00  0.00     0.029 A 
ATOM     21  C   UNL A   1      33.239  26.975  25.745  1.00  0.00     0.001 A 
ATOM     22  C   UNL A   1      32.140  26.497  26.476  1.00  0.00     0.072 A 
ATOM     23  C   UNL A   1      34.055  26.018  25.098  1.00  0.00     0.019 A 
ATOM     24  N   UNL A   1      31.862  25.193  26.548  1.00  0.00    -0.236 NA
ATOM     25  C   UNL A   1      32.725  24.299  26.008  1.00  0.00     0.135 A 
ATOM     26  Cl  UNL A   1      32.197  22.707  26.358  1.00  0.00    -0.062 Cl
ENDBRANCH  11  15
BRANCH  13  27
ATOM     27  C   UNL A   1      34.212  20.030  24.774  1.00  0.00     0.050 A 
ATOM     28  C   UNL A   1      34.992  18.901  24.627  1.00  0.00     0.022 A 
ATOM     29  S   UNL A   1      32.545  19.672  24.676  1.00  0.00    -0.142 S 
ATOM     30  C   UNL A   1      34.203  17.722  24.483  1.00  0.00     0.012 A 
ATOM     31  C   UNL A   1      32.855  18.002  24.475  1.00  0.00     0.065 A 
ENDBRANCH  13  27
ENDBRANCH   8  10
ENDBRANCH   7   8
ENDBRANCH   6   7
ENDBRANCH   5   6
ENDBRANCH   1   5
BRANCH   3  32
ATOM     32  C   UNL A   1      42.274  18.541  27.616  1.00  0.00     0.117 C 
BRANCH  32  33
ATOM     33  C   UNL A   1      43.335  17.951  26.701  1.00  0.00     0.042 C 
BRANCH  33  34
ATOM     34  C   UNL A   1      43.294  18.630  25.341  1.00  0.00     0.118 C 
BRANCH  34  35
ATOM     35  N   UNL A   1      44.541  18.554  24.582  1.00  0.00    -0.352 N 
ATOM     36  C   UNL A   1      45.365  19.617  24.273  1.00  0.00     0.251 C 
ATOM     37  H   UNL A   1      44.818  17.666  24.262  1.00  0.00     0.163 HD
ATOM     38  O   UNL A   1      46.364  19.508  23.572  1.00  0.00    -0.269 OA
BRANCH  36  39
ATOM     39  C   UNL A   1      44.961  20.933  24.793  1.00  0.00     0.039 A 
ATOM     40  C   UNL A   1      45.229  21.243  26.126  1.00  0.00     0.014 A 
ATOM     41  C   UNL A   1      44.561  21.911  23.880  1.00  0.00     0.014 A 
ATOM     42  C   UNL A   1      45.207  22.578  26.524  1.00  0.00     0.010 A 
ATOM     43  C   UNL A   1      44.633  23.241  24.257  1.00  0.00     0.010 A 
ATOM     44  C   UNL A   1      44.979  23.587  25.574  1.00  0.00    -0.014 A 
BRANCH  44  45
ATOM     45  C   UNL A   1      45.121  25.023  25.906  1.00  0.00     0.031 A 
ATOM     46  C   UNL A   1      46.474  25.661  25.816  1.00  0.00     0.074 A 
ATOM     47  C   UNL A   1      44.076  25.697  26.425  1.00  0.00     0.049 A 
ATOM     48  N   UNL A   1      46.870  26.831  26.243  1.00  0.00    -0.248 NA
ATOM     49  C   UNL A   1      47.540  24.845  25.213  1.00  0.00     0.031 C 
ATOM     50  C   UNL A   1      42.731  25.153  26.631  1.00  0.00     0.029 A 
ATOM     51  N   UNL A   1      43.991  26.980  26.906  1.00  0.00    -0.354 N 
ATOM     52  C   UNL A   1      48.236  26.870  26.005  1.00  0.00     0.074 A 
ATOM     53  C   UNL A   1      48.609  25.592  25.439  1.00  0.00     0.031 C 
ATOM     54  C   UNL A   1      41.954  26.099  27.184  1.00  0.00     0.029 A 
ATOM     55  C   UNL A   1      42.752  27.299  27.407  1.00  0.00     0.049 A 
ATOM     56  H   UNL A   1      44.746  27.611  26.892  1.00  0.00     0.167 HD
ATOM     57  C   UNL A   1      49.097  27.891  26.223  1.00  0.00     0.037 A 
ATOM     58  C   UNL A   1      42.317  28.432  27.993  1.00  0.00     0.037 A 
ATOM     59  C   UNL A   1      48.699  29.177  26.725  1.00  0.00     0.049 A 
ATOM     60  C   UNL A   1      43.275  29.581  28.155  1.00  0.00     0.074 A 
ATOM     61  C   UNL A   1      49.466  30.316  26.886  1.00  0.00     0.029 A 
ATOM     62  N   UNL A   1      47.413  29.495  27.139  1.00  0.00    -0.354 N 
ATOM     63  N   UNL A   1      44.550  29.638  27.856  1.00  0.00    -0.248 NA
ATOM     64  C   UNL A   1      42.736  30.822  28.729  1.00  0.00     0.031 C 
ATOM     65  C   UNL A   1      48.651  31.315  27.426  1.00  0.00     0.029 A 
ATOM     66  C   UNL A   1      47.368  30.810  27.566  1.00  0.00     0.049 A 
ATOM     67  H   UNL A   1      46.647  28.876  27.131  1.00  0.00     0.167 HD
ATOM     68  C   UNL A   1      44.961  30.924  28.178  1.00  0.00     0.074 A 
ATOM     69  C   UNL A   1      43.796  31.617  28.692  1.00  0.00     0.031 C 
ATOM     70  C   UNL A   1      46.190  31.480  28.056  1.00  0.00     0.037 A 
BRANCH  57  71
ATOM     71  C   UNL A   1      50.544  27.651  25.912  1.00  0.00     0.064 A 
ATOM     72  C   UNL A   1      51.456  27.254  26.901  1.00  0.00     0.173 A 
ATOM     73  C   UNL A   1      51.025  27.822  24.605  1.00  0.00     0.173 A 
ATOM     74  F   UNL A   1      51.049  27.093  28.169  1.00  0.00    -0.203 F 
ATOM     75  C   UNL A   1      52.805  27.079  26.603  1.00  0.00     0.198 A 
ATOM     76  C   UNL A   1      52.369  27.613  24.304  1.00  0.00     0.198 A 
ATOM     77  F   UNL A   1      50.194  28.197  23.620  1.00  0.00    -0.203 F 
ATOM     78  F   UNL A   1      53.669  26.764  27.577  1.00  0.00    -0.200 F 
ATOM     79  C   UNL A   1      53.258  27.253  25.304  1.00  0.00     0.200 A 
ATOM     80  F   UNL A   1      52.804  27.772  23.046  1.00  0.00    -0.200 F 
ATOM     81  F   UNL A   1      54.557  27.086  25.019  1.00  0.00    -0.200 F 
ENDBRANCH  57  71
BRANCH  58  82
ATOM     82  C   UNL A   1      40.903  28.539  28.433  1.00  0.00     0.064 A 
ATOM     83  C   UNL A   1      40.534  28.213  29.746  1.00  0.00     0.173 A 
ATOM     84  C   UNL A   1      39.899  28.994  27.567  1.00  0.00     0.173 A 
ATOM     85  F   UNL A   1      41.456  27.757  30.606  1.00  0.00    -0.203 F 
ATOM     86  C   UNL A   1      39.212  28.328  30.171  1.00  0.00     0.198 A 
ATOM     87  C   UNL A   1      38.582  29.130  28.000  1.00  0.00     0.198 A 
ATOM     88  F   UNL A   1      40.203  29.328  26.303  1.00  0.00    -0.203 F 
ATOM     89  F   UNL A   1      38.881  27.981  31.423  1.00  0.00    -0.200 F 
ATOM     90  C   UNL A   1      38.238  28.792  29.300  1.00  0.00     0.200 A 
ATOM     91  F   UNL A   1      37.645  29.591  27.159  1.00  0.00    -0.200 F 
ATOM     92  F   UNL A   1      36.968  28.911  29.714  1.00  0.00    -0.200 F 
ENDBRANCH  58  82
BRANCH  70  93
ATOM     93  C   UNL A   1      46.339  32.919  28.445  1.00  0.00     0.064 A 
ATOM     94  C   UNL A   1      46.731  33.290  29.739  1.00  0.00     0.173 A 
ATOM     95  C   UNL A   1      46.174  33.930  27.487  1.00  0.00     0.173 A 
ATOM     96  F   UNL A   1      46.887  32.356  30.690  1.00  0.00    -0.203 F 
ATOM     97  C   UNL A   1      46.950  34.626  30.060  1.00  0.00     0.198 A 
ATOM     98  C   UNL A   1      46.415  35.263  27.807  1.00  0.00     0.198 A 
ATOM     99  F   UNL A   1      45.805  33.621  26.235  1.00  0.00    -0.203 F 
ATOM    100  F   UNL A   1      47.304  34.963  31.308  1.00  0.00    -0.200 F 
ATOM    101  C   UNL A   1      46.802  35.609  29.093  1.00  0.00     0.200 A 
ATOM    102  F   UNL A   1      46.285  36.210  26.867  1.00  0.00    -0.200 F 
ATOM    103  F   UNL A   1      47.032  36.893  29.400  1.00  0.00    -0.200 F 
ENDBRANCH  70  93
ENDBRANCH  44  45
ENDBRANCH  36  39
ENDBRANCH  34  35
ENDBRANCH  33  34
ENDBRANCH  32  33
ENDBRANCH   3  32
TORSDOF 16
ENDMDL
MODEL 3
REMARK VINA RESULT:     -12.6      5.294     10.948
REMARK SMILES Cc1ccc2nc(Cl)c([C@@H]3CC(c4cccs4)=NN3C(=O)CCCC(=O)NCCCNC(=O)c3ccc(-c4c5nc(c(-c6c(F)c(F)c(F)c(F)c6F)c6ccc([nH]6)c(-c6c(F)c(F)c(F)c(F)c6F)c6nc(c(-c7c(F)c(F)c(F)c(F)c7F)c7ccc4[nH]7)C=C6)C=C5)cc3)cc2c1
REMARK SMILES IDX 25 1 26 2 27 3 24 5 23 6 22 7 20 8 21 9 19 10 10 11 11 12
REMARK SMILES IDX 12 13 18 14 9 15 1 16 2 17 3 18 99 19 4 20 98 21 5 22 97 23
REMARK SMILES IDX 6 24 7 25 8 26 13 27 14 28 17 29 15 30 16 31 28 32 29 33
REMARK SMILES IDX 30 34 31 35 32 36 33 38 34 39 35 40 96 41 36 42 95 43 37 44
REMARK SMILES IDX 38 45 39 46 89 47 40 48 94 49 88 50 90 51 41 52 93 53 87 54
REMARK SMILES IDX 86 55 42 57 74 58 54 59 73 60 55 61 58 62 72 63 91 64 56 65
REMARK SMILES IDX 57 66 71 68 92 69 59 70 43 71 44 72 52 73 45 74 46 75 50 76
REMARK SMILES IDX 53 77 47 78 48 79 51 80 49 81 75 82 76 83 84 84 77 85 78 86
REMARK SMILES IDX 82 87 85 88 79 89 80 90 83 91 81 92 60 93 61 94 69 95 62 96
REMARK SMILES IDX 63 97 67 98 70 99 64 100 65 101 68 102 66 103
REMARK H PARENT 27 4 31 37 90 56 58 67
REMARK Flexibility Score: inf
ROOT
ATOM      1  C   UNL A   1      41.471  21.154  27.356  1.00  0.00     0.220 C 
ATOM      2  O   UNL A   1      41.705  22.244  27.887  1.00  0.00    -0.275 OA
ATOM      3  N   UNL A   1      42.373  20.163  27.562  1.00  0.00    -0.356 N 
ATOM      4  H   UNL A   1      43.282  20.474  27.779  1.00  0.00     0.163 HD
ENDROOT
BRANCH   1   5
ATOM      5  C   UNL A   1      40.176  20.946  26.595  1.00  0.00     0.100 C 
BRANCH   5   6
ATOM      6  C   UNL A   1      39.406  22.168  26.126  1.00  0.00     0.020 C 
BRANCH   6   7
ATOM      7  C   UNL A   1      37.942  21.989  25.743  1.00  0.00     0.103 C 
BRANCH   7   8
ATOM      8  C   UNL A   1      37.009  23.184  25.905  1.00  0.00     0.243 C 
ATOM      9  O   UNL A   1      37.464  24.180  26.482  1.00  0.00    -0.273 OA
BRANCH   8  10
ATOM     10  N   UNL A   1      35.740  23.200  25.286  1.00  0.00    -0.225 N 
ATOM     11  C   UNL A   1      34.455  22.741  25.916  1.00  0.00     0.150 C 
ATOM     12  C   UNL A   1      33.629  24.017  26.051  1.00  0.00     0.092 C 
ATOM     13  C   UNL A   1      34.386  24.913  25.124  1.00  0.00     0.081 C 
ATOM     14  N   UNL A   1      35.506  24.436  24.675  1.00  0.00    -0.173 NA
BRANCH  11  15
ATOM     15  C   UNL A   1      33.700  21.626  25.185  1.00  0.00     0.015 A 
ATOM     16  C   UNL A   1      33.223  15.444  25.377  1.00  0.00     0.044 C 
ATOM     17  C   UNL A   1      32.922  16.821  24.855  1.00  0.00    -0.050 A 
ATOM     18  C   UNL A   1      32.529  17.007  23.529  1.00  0.00     0.005 A 
ATOM     19  C   UNL A   1      33.109  17.947  25.671  1.00  0.00     0.013 A 
ATOM     20  C   UNL A   1      32.384  18.301  23.020  1.00  0.00     0.029 A 
ATOM     21  C   UNL A   1      33.026  19.252  25.136  1.00  0.00     0.001 A 
ATOM     22  C   UNL A   1      32.671  19.420  23.788  1.00  0.00     0.072 A 
ATOM     23  C   UNL A   1      33.458  20.398  25.842  1.00  0.00     0.019 A 
ATOM     24  N   UNL A   1      32.722  20.615  23.196  1.00  0.00    -0.236 NA
ATOM     25  C   UNL A   1      33.243  21.669  23.870  1.00  0.00     0.135 A 
ATOM     26  Cl  UNL A   1      33.311  23.035  22.838  1.00  0.00    -0.062 Cl
ENDBRANCH  11  15
BRANCH  13  27
ATOM     27  C   UNL A   1      33.949  26.252  24.848  1.00  0.00     0.050 A 
ATOM     28  C   UNL A   1      33.664  26.811  23.618  1.00  0.00     0.022 A 
ATOM     29  S   UNL A   1      33.656  27.342  26.128  1.00  0.00    -0.142 S 
ATOM     30  C   UNL A   1      33.150  28.136  23.740  1.00  0.00     0.012 A 
ATOM     31  C   UNL A   1      33.112  28.554  25.051  1.00  0.00     0.065 A 
ENDBRANCH  13  27
ENDBRANCH   8  10
ENDBRANCH   7   8
ENDBRANCH   6   7
ENDBRANCH   5   6
ENDBRANCH   1   5
BRANCH   3  32
ATOM     32  C   UNL A   1      42.224  18.725  27.515  1.00  0.00     0.117 C 
BRANCH  32  33
ATOM     33  C   UNL A   1      43.220  18.022  26.608  1.00  0.00     0.042 C 
BRANCH  33  34
ATOM     34  C   UNL A   1      43.314  18.740  25.271  1.00  0.00     0.118 C 
BRANCH  34  35
ATOM     35  N   UNL A   1      44.618  18.647  24.616  1.00  0.00    -0.352 N 
ATOM     36  C   UNL A   1      45.478  19.698  24.372  1.00  0.00     0.251 C 
ATOM     37  H   UNL A   1      44.908  17.753  24.322  1.00  0.00     0.163 HD
ATOM     38  O   UNL A   1      46.528  19.573  23.755  1.00  0.00    -0.269 OA
BRANCH  36  39
ATOM     39  C   UNL A   1      45.050  21.021  24.853  1.00  0.00     0.039 A 
ATOM     40  C   UNL A   1      45.242  21.345  26.196  1.00  0.00     0.014 A 
ATOM     41  C   UNL A   1      44.706  21.989  23.909  1.00  0.00     0.014 A 
ATOM     42  C   UNL A   1      45.202  22.684  26.578  1.00  0.00     0.010 A 
ATOM     43  C   UNL A   1      44.762  23.323  24.274  1.00  0.00     0.010 A 
ATOM     44  C   UNL A   1      45.032  23.683  25.606  1.00  0.00    -0.014 A 
BRANCH  44  45
ATOM     45  C   UNL A   1      45.161  25.122  25.929  1.00  0.00     0.031 A 
ATOM     46  C   UNL A   1      46.508  25.773  25.833  1.00  0.00     0.074 A 
ATOM     47  C   UNL A   1      44.111  25.789  26.447  1.00  0.00     0.049 A 
ATOM     48  N   UNL A   1      46.893  26.949  26.253  1.00  0.00    -0.248 NA
ATOM     49  C   UNL A   1      47.581  24.965  25.232  1.00  0.00     0.031 C 
ATOM     50  C   UNL A   1      42.772  25.233  26.659  1.00  0.00     0.029 A 
ATOM     51  N   UNL A   1      44.014  27.073  26.921  1.00  0.00    -0.354 N 
ATOM     52  C   UNL A   1      48.258  27.000  26.012  1.00  0.00     0.074 A 
ATOM     53  C   UNL A   1      48.643  25.723  25.452  1.00  0.00     0.031 C 
ATOM     54  C   UNL A   1      41.987  26.173  27.208  1.00  0.00     0.029 A 
ATOM     55  C   UNL A   1      42.773  27.383  27.424  1.00  0.00     0.049 A 
ATOM     56  H   UNL A   1      44.763  27.712  26.902  1.00  0.00     0.167 HD
ATOM     57  C   UNL A   1      49.109  28.031  26.222  1.00  0.00     0.037 A 
ATOM     58  C   UNL A   1      42.328  28.514  28.004  1.00  0.00     0.037 A 
ATOM     59  C   UNL A   1      48.699  29.315  26.719  1.00  0.00     0.049 A 
ATOM     60  C   UNL A   1      43.275  29.673  28.158  1.00  0.00     0.074 A 
ATOM     61  C   UNL A   1      49.456  30.463  26.871  1.00  0.00     0.029 A 
ATOM     62  N   UNL A   1      47.411  29.623  27.134  1.00  0.00    -0.354 N 
ATOM     63  N   UNL A   1      44.549  29.742  27.856  1.00  0.00    -0.248 NA
ATOM     64  C   UNL A   1      42.725  30.912  28.726  1.00  0.00     0.031 C 
ATOM     65  C   UNL A   1      48.632  31.457  27.408  1.00  0.00     0.029 A 
ATOM     66  C   UNL A   1      47.354  30.940  27.554  1.00  0.00     0.049 A 
ATOM     67  H   UNL A   1      46.652  28.996  27.131  1.00  0.00     0.167 HD
ATOM     68  C   UNL A   1      44.947  31.033  28.170  1.00  0.00     0.074 A 
ATOM     69  C   UNL A   1      43.777  31.718  28.683  1.00  0.00     0.031 C 
ATOM     70  C   UNL A   1      46.170  31.601  28.042  1.00  0.00     0.037 A 
BRANCH  57  71
ATOM     71  C   UNL A   1      50.558  27.803  25.909  1.00  0.00     0.064 A 
ATOM     72  C   UNL A   1      51.057  27.909  24.602  1.00  0.00     0.173 A 
ATOM     73  C   UNL A   1      51.460  27.473  26.932  1.00  0.00     0.173 A 
ATOM     74  F   UNL A   1      50.232  28.206  23.587  1.00  0.00    -0.203 F 
ATOM     75  C   UNL A   1      52.396  27.650  24.324  1.00  0.00     0.198 A 
ATOM     76  C   UNL A   1      52.806  27.248  26.654  1.00  0.00     0.198 A 
ATOM     77  F   UNL A   1      51.036  27.362  28.200  1.00  0.00    -0.203 F 
ATOM     78  F   UNL A   1      52.835  27.693  23.058  1.00  0.00    -0.200 F 
ATOM     79  C   UNL A   1      53.270  27.326  25.350  1.00  0.00     0.200 A 
ATOM     80  F   UNL A   1      53.652  26.943  27.648  1.00  0.00    -0.200 F 
ATOM     81  F   UNL A   1      54.559  27.075  25.081  1.00  0.00    -0.200 F 
ENDBRANCH  57  71
BRANCH  58  82
ATOM     82  C   UNL A   1      40.914  28.610  28.446  1.00  0.00     0.064 A 
ATOM     83  C   UNL A   1      40.555  28.314  29.769  1.00  0.00     0.173 A 
ATOM     84  C   UNL A   1      39.899  29.025  27.572  1.00  0.00     0.173 A 
ATOM     85  F   UNL A   1      41.488  27.896  30.638  1.00  0.00    -0.203 F 
ATOM     86  C   UNL A   1      39.233  28.418  30.196  1.00  0.00     0.198 A 
ATOM     87  C   UNL A   1      38.582  29.150  28.007  1.00  0.00     0.198 A 
ATOM     88  F   UNL A   1      40.194  29.328  26.299  1.00  0.00    -0.203 F 
ATOM     89  F   UNL A   1      38.912  28.100  31.458  1.00  0.00    -0.200 F 
ATOM     90  C   UNL A   1      38.249  28.842  29.317  1.00  0.00     0.200 A 
ATOM     91  F   UNL A   1      37.634  29.573  27.157  1.00  0.00    -0.200 F 
ATOM     92  F   UNL A   1      36.978  28.951  29.732  1.00  0.00    -0.200 F 
ENDBRANCH  58  82
BRANCH  70  93
ATOM     93  C   UNL A   1      46.307  33.043  28.423  1.00  0.00     0.064 A 
ATOM     94  C   UNL A   1      46.079  34.070  27.496  1.00  0.00     0.173 A 
ATOM     95  C   UNL A   1      46.581  33.399  29.753  1.00  0.00     0.173 A 
ATOM     96  F   UNL A   1      45.827  33.775  26.212  1.00  0.00    -0.203 F 
ATOM     97  C   UNL A   1      46.124  35.405  27.888  1.00  0.00     0.198 A 
ATOM     98  C   UNL A   1      46.603  34.734  30.144  1.00  0.00     0.198 A 
ATOM     99  F   UNL A   1      46.799  32.450  30.675  1.00  0.00    -0.203 F 
ATOM    100  F   UNL A   1      45.924  36.373  26.983  1.00  0.00    -0.200 F 
ATOM    101  C   UNL A   1      46.376  35.735  29.212  1.00  0.00     0.200 A 
ATOM    102  F   UNL A   1      46.832  35.051  31.426  1.00  0.00    -0.200 F 
ATOM    103  F   UNL A   1      46.399  37.021  29.590  1.00  0.00    -0.200 F 
ENDBRANCH  70  93
ENDBRANCH  44  45
ENDBRANCH  36  39
ENDBRANCH  34  35
ENDBRANCH  33  34
ENDBRANCH  32  33
ENDBRANCH   3  32
TORSDOF 16
ENDMDL
