MODEL 1
REMARK VINA RESULT:     -13.7      0.000      0.000
REMARK SMILES CC(C)c1noc(C[N@@H+]2[C@@H](C(=O)NCCCNC(=O)c3ccc(-c4c5nc(c(-c6c(F)c(F)c(F)c(F)c6F)c6ccc([nH]6)c(-c6c(F)c(F)c(F)c(F)c6F)c6nc(c(-c7c(F)c(F)c(F)c(F)c7F)c7ccc4[nH]7)C=C6)C=C5)cc3)C[C@H]3CCCC[C@@H]32)n1
REMARK SMILES IDX 14 1 13 2 11 3 12 4 10 6 9 7 89 8 83 10 84 11 88 12 85 13
REMARK SMILES IDX 87 14 86 15 8 16 7 17 4 18 5 19 90 20 6 21 2 22 1 23 3 24
REMARK SMILES IDX 15 25 16 26 17 27 18 28 19 30 20 31 21 32 82 33 22 34 81 35
REMARK SMILES IDX 23 36 24 37 25 38 75 39 26 40 80 41 74 42 76 43 27 44 79 45
REMARK SMILES IDX 73 46 72 47 28 49 60 50 40 51 59 52 41 53 44 54 58 55 77 56
REMARK SMILES IDX 42 57 43 58 57 60 78 61 45 62 29 63 30 64 38 65 31 66 32 67
REMARK SMILES IDX 36 68 39 69 33 70 34 71 37 72 35 73 61 74 62 75 70 76 63 77
REMARK SMILES IDX 64 78 68 79 71 80 65 81 66 82 69 83 67 84 46 85 47 86 55 87
REMARK SMILES IDX 48 88 49 89 53 90 56 91 50 92 51 93 54 94 52 95
REMARK H PARENT 13 5 9 9 17 29 76 48 44 59
REMARK Flexibility Score: inf
ROOT
ATOM      1  C   UNL A   1      31.953  30.460  25.948  1.00  0.00     0.118 C 
ENDROOT
BRANCH   1   2
ATOM      2  N   UNL A   1      31.794  29.254  26.742  1.00  0.00    -0.351 N 
ATOM      3  C   UNL A   1      31.480  27.986  26.329  1.00  0.00     0.278 C 
ATOM      4  O   UNL A   1      31.351  27.118  27.193  1.00  0.00    -0.268 OA
ATOM      5  H   UNL A   1      31.931  29.363  27.712  1.00  0.00     0.163 HD
BRANCH   3   6
ATOM      6  C   UNL A   1      31.354  27.733  24.812  1.00  0.00     0.275 C 
ATOM      7  N   UNL A   1      30.407  26.620  24.529  1.00  0.00    -0.314 N 
ATOM      8  C   UNL A   1      31.248  25.442  24.266  1.00  0.00     0.188 C 
ATOM      9  H   UNL A   1      29.799  26.401  25.320  1.00  0.00     0.349 HD
ATOM     10  C   UNL A   1      32.731  27.302  24.268  1.00  0.00     0.085 C 
ATOM     11  C   UNL A   1      32.451  26.014  23.524  1.00  0.00     0.054 C 
ATOM     12  C   UNL A   1      30.692  24.203  23.559  1.00  0.00     0.065 C 
ATOM     13  C   UNL A   1      33.577  25.001  23.441  1.00  0.00     0.010 C 
ATOM     14  C   UNL A   1      31.804  23.177  23.286  1.00  0.00     0.006 C 
ATOM     15  C   UNL A   1      33.069  23.783  22.665  1.00  0.00     0.001 C 
BRANCH   7  16
ATOM     16  C   UNL A   1      29.371  26.967  23.534  1.00  0.00     0.364 C 
BRANCH  16  17
ATOM     17  C   UNL A   1      29.389  28.361  22.992  1.00  0.00     0.281 A 
ATOM     18  C   UNL A   1      28.916  30.294  22.342  1.00  0.00     0.174 A 
ATOM     19  N   UNL A   1      29.879  29.913  21.490  1.00  0.00    -0.062 NA
ATOM     20  N   UNL A   1      28.625  29.379  23.317  1.00  0.00    -0.191 NA
ATOM     21  O   UNL A   1      30.199  28.621  21.924  1.00  0.00    -0.333 OA
BRANCH  18  22
ATOM     22  C   UNL A   1      28.171  31.585  22.212  1.00  0.00     0.055 C 
ATOM     23  C   UNL A   1      28.823  32.702  23.033  1.00  0.00     0.016 C 
ATOM     24  C   UNL A   1      28.062  32.037  20.750  1.00  0.00     0.016 C 
ENDBRANCH  18  22
ENDBRANCH  16  17
ENDBRANCH   7  16
ENDBRANCH   3   6
ENDBRANCH   1   2
BRANCH   1  25
ATOM     25  C   UNL A   1      31.571  31.706  26.736  1.00  0.00     0.042 C 
BRANCH  25  26
ATOM     26  C   UNL A   1      32.767  32.466  27.298  1.00  0.00     0.118 C 
BRANCH  26  27
ATOM     27  N   UNL A   1      32.467  33.866  27.568  1.00  0.00    -0.352 N 
ATOM     28  C   UNL A   1      33.017  34.733  28.480  1.00  0.00     0.251 C 
ATOM     29  H   UNL A   1      31.756  34.253  27.008  1.00  0.00     0.163 HD
ATOM     30  O   UNL A   1      32.491  35.826  28.676  1.00  0.00    -0.269 OA
BRANCH  28  31
ATOM     31  C   UNL A   1      34.217  34.348  29.250  1.00  0.00     0.039 A 
ATOM     32  C   UNL A   1      34.051  33.767  30.510  1.00  0.00     0.014 A 
ATOM     33  C   UNL A   1      35.501  34.553  28.738  1.00  0.00     0.014 A 
ATOM     34  C   UNL A   1      35.165  33.303  31.212  1.00  0.00     0.010 A 
ATOM     35  C   UNL A   1      36.604  34.023  29.403  1.00  0.00     0.010 A 
ATOM     36  C   UNL A   1      36.444  33.375  30.637  1.00  0.00    -0.014 A 
BRANCH  36  37
ATOM     37  C   UNL A   1      37.616  32.725  31.279  1.00  0.00     0.031 A 
ATOM     38  C   UNL A   1      38.304  31.566  30.620  1.00  0.00     0.074 A 
ATOM     39  C   UNL A   1      38.004  33.135  32.503  1.00  0.00     0.049 A 
ATOM     40  N   UNL A   1      39.265  30.804  31.079  1.00  0.00    -0.248 NA
ATOM     41  C   UNL A   1      37.837  31.196  29.275  1.00  0.00     0.031 C 
ATOM     42  C   UNL A   1      37.391  34.226  33.263  1.00  0.00     0.029 A 
ATOM     43  N   UNL A   1      38.994  32.671  33.333  1.00  0.00    -0.354 N 
ATOM     44  C   UNL A   1      39.518  29.871  30.083  1.00  0.00     0.074 A 
ATOM     45  C   UNL A   1      38.574  30.125  29.016  1.00  0.00     0.031 C 
ATOM     46  C   UNL A   1      38.021  34.353  34.441  1.00  0.00     0.029 A 
ATOM     47  C   UNL A   1      39.047  33.321  34.544  1.00  0.00     0.049 A 
ATOM     48  H   UNL A   1      39.608  31.942  33.086  1.00  0.00     0.167 HD
ATOM     49  C   UNL A   1      40.467  28.903  30.056  1.00  0.00     0.037 A 
ATOM     50  C   UNL A   1      39.815  33.093  35.626  1.00  0.00     0.037 A 
ATOM     51  C   UNL A   1      41.405  28.656  31.120  1.00  0.00     0.049 A 
ATOM     52  C   UNL A   1      40.825  31.977  35.585  1.00  0.00     0.074 A 
ATOM     53  C   UNL A   1      42.430  27.727  31.165  1.00  0.00     0.029 A 
ATOM     54  N   UNL A   1      41.429  29.336  32.329  1.00  0.00    -0.354 N 
ATOM     55  N   UNL A   1      41.098  31.142  34.613  1.00  0.00    -0.248 NA
ATOM     56  C   UNL A   1      41.633  31.771  36.796  1.00  0.00     0.031 C 
ATOM     57  C   UNL A   1      43.038  27.806  32.422  1.00  0.00     0.029 A 
ATOM     58  C   UNL A   1      42.431  28.824  33.139  1.00  0.00     0.049 A 
ATOM     59  H   UNL A   1      40.825  30.073  32.574  1.00  0.00     0.167 HD
ATOM     60  C   UNL A   1      42.120  30.330  35.083  1.00  0.00     0.074 A 
ATOM     61  C   UNL A   1      42.438  30.788  36.419  1.00  0.00     0.031 C 
ATOM     62  C   UNL A   1      42.737  29.291  34.467  1.00  0.00     0.037 A 
BRANCH  49  63
ATOM     63  C   UNL A   1      40.544  28.036  28.833  1.00  0.00     0.064 A 
ATOM     64  C   UNL A   1      39.812  26.844  28.731  1.00  0.00     0.173 A 
ATOM     65  C   UNL A   1      41.306  28.432  27.723  1.00  0.00     0.173 A 
ATOM     66  F   UNL A   1      39.074  26.414  29.766  1.00  0.00    -0.203 F 
ATOM     67  C   UNL A   1      39.855  26.071  27.573  1.00  0.00     0.198 A 
ATOM     68  C   UNL A   1      41.322  27.674  26.555  1.00  0.00     0.198 A 
ATOM     69  F   UNL A   1      42.021  29.568  27.763  1.00  0.00    -0.203 F 
ATOM     70  F   UNL A   1      39.176  24.917  27.514  1.00  0.00    -0.200 F 
ATOM     71  C   UNL A   1      40.602  26.492  26.483  1.00  0.00     0.200 A 
ATOM     72  F   UNL A   1      42.032  28.090  25.497  1.00  0.00    -0.200 F 
ATOM     73  F   UNL A   1      40.628  25.755  25.364  1.00  0.00    -0.200 F 
ENDBRANCH  49  63
BRANCH  50  74
ATOM     74  C   UNL A   1      39.651  33.924  36.849  1.00  0.00     0.064 A 
ATOM     75  C   UNL A   1      38.857  33.487  37.920  1.00  0.00     0.173 A 
ATOM     76  C   UNL A   1      40.257  35.184  36.960  1.00  0.00     0.173 A 
ATOM     77  F   UNL A   1      38.239  32.300  37.853  1.00  0.00    -0.203 F 
ATOM     78  C   UNL A   1      38.651  34.292  39.039  1.00  0.00     0.198 A 
ATOM     79  C   UNL A   1      40.079  35.973  38.095  1.00  0.00     0.198 A 
ATOM     80  F   UNL A   1      41.030  35.649  35.968  1.00  0.00    -0.203 F 
ATOM     81  F   UNL A   1      37.837  33.876  40.019  1.00  0.00    -0.200 F 
ATOM     82  C   UNL A   1      39.266  35.532  39.127  1.00  0.00     0.200 A 
ATOM     83  F   UNL A   1      40.689  37.162  38.184  1.00  0.00    -0.200 F 
ATOM     84  F   UNL A   1      39.066  36.306  40.203  1.00  0.00    -0.200 F 
ENDBRANCH  50  74
BRANCH  62  85
ATOM     85  C   UNL A   1      43.830  28.593  35.224  1.00  0.00     0.064 A 
ATOM     86  C   UNL A   1      43.553  27.552  36.123  1.00  0.00     0.173 A 
ATOM     87  C   UNL A   1      45.173  28.944  35.021  1.00  0.00     0.173 A 
ATOM     88  F   UNL A   1      42.284  27.189  36.365  1.00  0.00    -0.203 F 
ATOM     89  C   UNL A   1      44.578  26.908  36.811  1.00  0.00     0.198 A 
ATOM     90  C   UNL A   1      46.198  28.274  35.685  1.00  0.00     0.198 A 
ATOM     91  F   UNL A   1      45.495  29.929  34.169  1.00  0.00    -0.203 F 
ATOM     92  F   UNL A   1      44.285  25.952  37.704  1.00  0.00    -0.200 F 
ATOM     93  C   UNL A   1      45.899  27.262  36.585  1.00  0.00     0.200 A 
ATOM     94  F   UNL A   1      47.474  28.609  35.454  1.00  0.00    -0.200 F 
ATOM     95  F   UNL A   1      46.885  26.635  37.241  1.00  0.00    -0.200 F 
ENDBRANCH  62  85
ENDBRANCH  36  37
ENDBRANCH  28  31
ENDBRANCH  26  27
ENDBRANCH  25  26
ENDBRANCH   1  25
TORSDOF 13
ENDMDL
MODEL 2
REMARK VINA RESULT:     -13.6      0.685      1.341
REMARK SMILES CC(C)c1noc(C[N@@H+]2[C@@H](C(=O)NCCCNC(=O)c3ccc(-c4c5nc(c(-c6c(F)c(F)c(F)c(F)c6F)c6ccc([nH]6)c(-c6c(F)c(F)c(F)c(F)c6F)c6nc(c(-c7c(F)c(F)c(F)c(F)c7F)c7ccc4[nH]7)C=C6)C=C5)cc3)C[C@H]3CCCC[C@@H]32)n1
REMARK SMILES IDX 14 1 13 2 11 3 12 4 10 6 9 7 89 8 83 10 84 11 88 12 85 13
REMARK SMILES IDX 87 14 86 15 8 16 7 17 4 18 5 19 90 20 6 21 2 22 1 23 3 24
REMARK SMILES IDX 15 25 16 26 17 27 18 28 19 30 20 31 21 32 82 33 22 34 81 35
REMARK SMILES IDX 23 36 24 37 25 38 75 39 26 40 80 41 74 42 76 43 27 44 79 45
REMARK SMILES IDX 73 46 72 47 28 49 60 50 40 51 59 52 41 53 44 54 58 55 77 56
REMARK SMILES IDX 42 57 43 58 57 60 78 61 45 62 29 63 30 64 38 65 31 66 32 67
REMARK SMILES IDX 36 68 39 69 33 70 34 71 37 72 35 73 61 74 62 75 70 76 63 77
REMARK SMILES IDX 64 78 68 79 71 80 65 81 66 82 69 83 67 84 46 85 47 86 55 87
REMARK SMILES IDX 48 88 49 89 53 90 56 91 50 92 51 93 54 94 52 95
REMARK H PARENT 13 5 9 9 17 29 76 48 44 59
REMARK Flexibility Score: inf
ROOT
ATOM      1  C   UNL A   1      32.067  30.473  26.031  1.00  0.00     0.118 C 
ENDROOT
BRANCH   1   2
ATOM      2  N   UNL A   1      31.723  29.396  26.943  1.00  0.00    -0.351 N 
ATOM      3  C   UNL A   1      31.680  28.047  26.707  1.00  0.00     0.278 C 
ATOM      4  O   UNL A   1      31.312  27.316  27.626  1.00  0.00    -0.268 OA
ATOM      5  H   UNL A   1      31.488  29.674  27.858  1.00  0.00     0.163 HD
BRANCH   3   6
ATOM      6  C   UNL A   1      32.138  27.543  25.321  1.00  0.00     0.275 C 
ATOM      7  N   UNL A   1      31.392  26.318  24.922  1.00  0.00    -0.314 N 
ATOM      8  C   UNL A   1      32.299  25.194  25.202  1.00  0.00     0.188 C 
ATOM      9  H   UNL A   1      30.539  26.175  25.463  1.00  0.00     0.349 HD
ATOM     10  C   UNL A   1      33.628  27.158  25.404  1.00  0.00     0.085 C 
ATOM     11  C   UNL A   1      33.678  25.747  24.857  1.00  0.00     0.054 C 
ATOM     12  C   UNL A   1      32.079  23.813  24.580  1.00  0.00     0.065 C 
ATOM     13  C   UNL A   1      34.778  24.840  25.376  1.00  0.00     0.010 C 
ATOM     14  C   UNL A   1      33.236  22.861  24.923  1.00  0.00     0.006 C 
ATOM     15  C   UNL A   1      34.627  23.472  24.705  1.00  0.00     0.001 C 
BRANCH   7  16
ATOM     16  C   UNL A   1      30.795  26.406  23.573  1.00  0.00     0.364 C 
BRANCH  16  17
ATOM     17  C   UNL A   1      30.283  27.743  23.141  1.00  0.00     0.281 A 
ATOM     18  C   UNL A   1      29.119  29.371  22.526  1.00  0.00     0.174 A 
ATOM     19  N   UNL A   1      30.286  29.577  21.898  1.00  0.00    -0.062 NA
ATOM     20  N   UNL A   1      29.099  28.275  23.345  1.00  0.00    -0.191 NA
ATOM     21  O   UNL A   1      31.068  28.491  22.309  1.00  0.00    -0.333 OA
BRANCH  18  22
ATOM     22  C   UNL A   1      27.910  30.227  22.310  1.00  0.00     0.055 C 
ATOM     23  C   UNL A   1      27.653  31.155  23.501  1.00  0.00     0.016 C 
ATOM     24  C   UNL A   1      28.028  31.070  21.034  1.00  0.00     0.016 C 
ENDBRANCH  18  22
ENDBRANCH  16  17
ENDBRANCH   7  16
ENDBRANCH   3   6
ENDBRANCH   1   2
BRANCH   1  25
ATOM     25  C   UNL A   1      31.674  31.832  26.592  1.00  0.00     0.042 C 
BRANCH  25  26
ATOM     26  C   UNL A   1      32.800  32.532  27.346  1.00  0.00     0.118 C 
BRANCH  26  27
ATOM     27  N   UNL A   1      32.505  33.932  27.624  1.00  0.00    -0.352 N 
ATOM     28  C   UNL A   1      33.044  34.785  28.555  1.00  0.00     0.251 C 
ATOM     29  H   UNL A   1      31.808  34.330  27.054  1.00  0.00     0.163 HD
ATOM     30  O   UNL A   1      32.523  35.880  28.751  1.00  0.00    -0.269 OA
BRANCH  28  31
ATOM     31  C   UNL A   1      34.226  34.384  29.344  1.00  0.00     0.039 A 
ATOM     32  C   UNL A   1      34.031  33.799  30.598  1.00  0.00     0.014 A 
ATOM     33  C   UNL A   1      35.521  34.577  28.855  1.00  0.00     0.014 A 
ATOM     34  C   UNL A   1      35.127  33.319  31.317  1.00  0.00     0.010 A 
ATOM     35  C   UNL A   1      36.606  34.032  29.538  1.00  0.00     0.010 A 
ATOM     36  C   UNL A   1      36.417  33.380  30.766  1.00  0.00    -0.014 A 
BRANCH  36  37
ATOM     37  C   UNL A   1      37.570  32.715  31.425  1.00  0.00     0.031 A 
ATOM     38  C   UNL A   1      38.233  31.526  30.791  1.00  0.00     0.074 A 
ATOM     39  C   UNL A   1      37.963  33.138  32.642  1.00  0.00     0.049 A 
ATOM     40  N   UNL A   1      39.174  30.751  31.269  1.00  0.00    -0.248 NA
ATOM     41  C   UNL A   1      37.763  31.143  29.451  1.00  0.00     0.031 C 
ATOM     42  C   UNL A   1      37.374  34.258  33.379  1.00  0.00     0.029 A 
ATOM     43  N   UNL A   1      38.938  32.666  33.486  1.00  0.00    -0.354 N 
ATOM     44  C   UNL A   1      39.408  29.793  30.292  1.00  0.00     0.074 A 
ATOM     45  C   UNL A   1      38.474  30.050  29.216  1.00  0.00     0.031 C 
ATOM     46  C   UNL A   1      38.002  34.392  34.557  1.00  0.00     0.029 A 
ATOM     47  C   UNL A   1      39.003  33.338  34.684  1.00  0.00     0.049 A 
ATOM     48  H   UNL A   1      39.535  31.918  33.255  1.00  0.00     0.167 HD
ATOM     49  C   UNL A   1      40.333  28.802  30.287  1.00  0.00     0.037 A 
ATOM     50  C   UNL A   1      39.760  33.112  35.774  1.00  0.00     0.037 A 
ATOM     51  C   UNL A   1      41.261  28.553  31.359  1.00  0.00     0.049 A 
ATOM     52  C   UNL A   1      40.743  31.971  35.759  1.00  0.00     0.074 A 
ATOM     53  C   UNL A   1      42.263  27.600  31.428  1.00  0.00     0.029 A 
ATOM     54  N   UNL A   1      41.296  29.255  32.555  1.00  0.00    -0.354 N 
ATOM     55  N   UNL A   1      40.999  31.112  34.804  1.00  0.00    -0.248 NA
ATOM     56  C   UNL A   1      41.541  31.768  36.977  1.00  0.00     0.031 C 
ATOM     57  C   UNL A   1      42.867  27.688  32.686  1.00  0.00     0.029 A 
ATOM     58  C   UNL A   1      42.282  28.734  33.380  1.00  0.00     0.049 A 
ATOM     59  H   UNL A   1      40.709  30.010  32.784  1.00  0.00     0.167 HD
ATOM     60  C   UNL A   1      42.000  30.284  35.294  1.00  0.00     0.074 A 
ATOM     61  C   UNL A   1      42.323  30.759  36.623  1.00  0.00     0.031 C 
ATOM     62  C   UNL A   1      42.593  29.219  34.701  1.00  0.00     0.037 A 
BRANCH  49  63
ATOM     63  C   UNL A   1      40.394  27.910  29.081  1.00  0.00     0.064 A 
ATOM     64  C   UNL A   1      39.644  26.727  29.005  1.00  0.00     0.173 A 
ATOM     65  C   UNL A   1      41.159  28.274  27.962  1.00  0.00     0.173 A 
ATOM     66  F   UNL A   1      38.903  26.328  30.050  1.00  0.00    -0.203 F 
ATOM     67  C   UNL A   1      39.673  25.931  27.861  1.00  0.00     0.198 A 
ATOM     68  C   UNL A   1      41.160  27.493  26.809  1.00  0.00     0.198 A 
ATOM     69  F   UNL A   1      41.889  29.399  27.978  1.00  0.00    -0.203 F 
ATOM     70  F   UNL A   1      38.978  24.786  27.828  1.00  0.00    -0.200 F 
ATOM     71  C   UNL A   1      40.422  26.320  26.762  1.00  0.00     0.200 A 
ATOM     72  F   UNL A   1      41.873  27.877  25.741  1.00  0.00    -0.200 F 
ATOM     73  F   UNL A   1      40.435  25.561  25.657  1.00  0.00    -0.200 F 
ENDBRANCH  49  63
BRANCH  50  74
ATOM     74  C   UNL A   1      39.611  33.969  36.980  1.00  0.00     0.064 A 
ATOM     75  C   UNL A   1      38.800  33.574  38.054  1.00  0.00     0.173 A 
ATOM     76  C   UNL A   1      40.250  35.215  37.072  1.00  0.00     0.173 A 
ATOM     77  F   UNL A   1      38.150  32.403  38.005  1.00  0.00    -0.203 F 
ATOM     78  C   UNL A   1      38.609  34.405  39.156  1.00  0.00     0.198 A 
ATOM     79  C   UNL A   1      40.087  36.029  38.191  1.00  0.00     0.198 A 
ATOM     80  F   UNL A   1      41.042  35.640  36.076  1.00  0.00    -0.203 F 
ATOM     81  F   UNL A   1      37.778  34.030  40.138  1.00  0.00    -0.200 F 
ATOM     82  C   UNL A   1      39.256  35.629  39.226  1.00  0.00     0.200 A 
ATOM     83  F   UNL A   1      40.729  37.203  38.261  1.00  0.00    -0.200 F 
ATOM     84  F   UNL A   1      39.071  36.428  40.285  1.00  0.00    -0.200 F 
ENDBRANCH  50  74
BRANCH  62  85
ATOM     85  C   UNL A   1      43.667  28.509  35.476  1.00  0.00     0.064 A 
ATOM     86  C   UNL A   1      45.018  28.868  35.357  1.00  0.00     0.173 A 
ATOM     87  C   UNL A   1      43.336  27.484  36.374  1.00  0.00     0.173 A 
ATOM     88  F   UNL A   1      45.388  29.830  34.499  1.00  0.00    -0.203 F 
ATOM     89  C   UNL A   1      46.001  28.206  36.088  1.00  0.00     0.198 A 
ATOM     90  C   UNL A   1      44.319  26.848  37.129  1.00  0.00     0.198 A 
ATOM     91  F   UNL A   1      42.059  27.105  36.530  1.00  0.00    -0.203 F 
ATOM     92  F   UNL A   1      47.290  28.530  35.918  1.00  0.00    -0.200 F 
ATOM     93  C   UNL A   1      45.651  27.204  36.980  1.00  0.00     0.200 A 
ATOM     94  F   UNL A   1      43.976  25.890  38.001  1.00  0.00    -0.200 F 
ATOM     95  F   UNL A   1      46.597  26.574  37.689  1.00  0.00    -0.200 F 
ENDBRANCH  62  85
ENDBRANCH  36  37
ENDBRANCH  28  31
ENDBRANCH  26  27
ENDBRANCH  25  26
ENDBRANCH   1  25
TORSDOF 13
ENDMDL
MODEL 3
REMARK VINA RESULT:     -13.5      6.279     11.784
REMARK SMILES CC(C)c1noc(C[N@@H+]2[C@@H](C(=O)NCCCNC(=O)c3ccc(-c4c5nc(c(-c6c(F)c(F)c(F)c(F)c6F)c6ccc([nH]6)c(-c6c(F)c(F)c(F)c(F)c6F)c6nc(c(-c7c(F)c(F)c(F)c(F)c7F)c7ccc4[nH]7)C=C6)C=C5)cc3)C[C@H]3CCCC[C@@H]32)n1
REMARK SMILES IDX 14 1 13 2 11 3 12 4 10 6 9 7 89 8 83 10 84 11 88 12 85 13
REMARK SMILES IDX 87 14 86 15 8 16 7 17 4 18 5 19 90 20 6 21 2 22 1 23 3 24
REMARK SMILES IDX 15 25 16 26 17 27 18 28 19 30 20 31 21 32 82 33 22 34 81 35
REMARK SMILES IDX 23 36 24 37 25 38 75 39 26 40 80 41 74 42 76 43 27 44 79 45
REMARK SMILES IDX 73 46 72 47 28 49 60 50 40 51 59 52 41 53 44 54 58 55 77 56
REMARK SMILES IDX 42 57 43 58 57 60 78 61 45 62 29 63 30 64 38 65 31 66 32 67
REMARK SMILES IDX 36 68 39 69 33 70 34 71 37 72 35 73 61 74 62 75 70 76 63 77
REMARK SMILES IDX 64 78 68 79 71 80 65 81 66 82 69 83 67 84 46 85 47 86 55 87
REMARK SMILES IDX 48 88 49 89 53 90 56 91 50 92 51 93 54 94 52 95
REMARK H PARENT 13 5 9 9 17 29 76 48 44 59
REMARK Flexibility Score: inf
ROOT
ATOM      1  C   UNL A   1      36.818  20.834  25.263  1.00  0.00     0.118 C 
ENDROOT
BRANCH   1   2
ATOM      2  N   UNL A   1      36.652  21.895  24.285  1.00  0.00    -0.351 N 
ATOM      3  C   UNL A   1      35.495  22.454  23.808  1.00  0.00     0.278 C 
ATOM      4  O   UNL A   1      35.593  23.319  22.938  1.00  0.00    -0.268 OA
ATOM      5  H   UNL A   1      37.486  22.264  23.913  1.00  0.00     0.163 HD
BRANCH   3   6
ATOM      6  C   UNL A   1      34.161  21.989  24.429  1.00  0.00     0.275 C 
ATOM      7  N   UNL A   1      33.028  22.195  23.485  1.00  0.00    -0.314 N 
ATOM      8  C   UNL A   1      32.361  23.428  23.930  1.00  0.00     0.188 C 
ATOM      9  H   UNL A   1      33.331  22.333  22.520  1.00  0.00     0.349 HD
ATOM     10  C   UNL A   1      33.870  22.848  25.676  1.00  0.00     0.085 C 
ATOM     11  C   UNL A   1      32.467  23.369  25.450  1.00  0.00     0.054 C 
ATOM     12  C   UNL A   1      30.940  23.776  23.482  1.00  0.00     0.065 C 
ATOM     13  C   UNL A   1      32.112  24.704  26.077  1.00  0.00     0.010 C 
ATOM     14  C   UNL A   1      30.429  25.040  24.193  1.00  0.00     0.006 C 
ATOM     15  C   UNL A   1      30.664  25.036  25.710  1.00  0.00     0.001 C 
BRANCH   7  16
ATOM     16  C   UNL A   1      32.196  20.988  23.293  1.00  0.00     0.364 C 
BRANCH  16  17
ATOM     17  C   UNL A   1      32.584  19.765  24.060  1.00  0.00     0.281 A 
ATOM     18  C   UNL A   1      33.054  17.823  24.686  1.00  0.00     0.174 A 
ATOM     19  N   UNL A   1      32.467  18.358  25.767  1.00  0.00    -0.062 NA
ATOM     20  N   UNL A   1      33.191  18.682  23.630  1.00  0.00    -0.191 NA
ATOM     21  O   UNL A   1      32.153  19.658  25.352  1.00  0.00    -0.333 OA
BRANCH  18  22
ATOM     22  C   UNL A   1      33.474  16.389  24.606  1.00  0.00     0.055 C 
ATOM     23  C   UNL A   1      34.942  16.205  25.004  1.00  0.00     0.016 C 
ATOM     24  C   UNL A   1      32.600  15.489  25.488  1.00  0.00     0.016 C 
ENDBRANCH  18  22
ENDBRANCH  16  17
ENDBRANCH   7  16
ENDBRANCH   3   6
ENDBRANCH   1   2
BRANCH   1  25
ATOM     25  C   UNL A   1      38.026  19.963  24.946  1.00  0.00     0.042 C 
BRANCH  25  26
ATOM     26  C   UNL A   1      39.267  20.320  25.757  1.00  0.00     0.118 C 
BRANCH  26  27
ATOM     27  N   UNL A   1      40.215  19.217  25.847  1.00  0.00    -0.352 N 
ATOM     28  C   UNL A   1      41.574  19.227  26.044  1.00  0.00     0.251 C 
ATOM     29  H   UNL A   1      39.820  18.320  25.750  1.00  0.00     0.163 HD
ATOM     30  O   UNL A   1      42.219  18.191  25.902  1.00  0.00    -0.269 OA
BRANCH  28  31
ATOM     31  C   UNL A   1      42.271  20.482  26.395  1.00  0.00     0.039 A 
ATOM     32  C   UNL A   1      42.899  21.210  25.380  1.00  0.00     0.014 A 
ATOM     33  C   UNL A   1      42.305  20.945  27.713  1.00  0.00     0.014 A 
ATOM     34  C   UNL A   1      43.475  22.447  25.670  1.00  0.00     0.010 A 
ATOM     35  C   UNL A   1      42.813  22.213  27.987  1.00  0.00     0.010 A 
ATOM     36  C   UNL A   1      43.385  22.985  26.965  1.00  0.00    -0.014 A 
BRANCH  36  37
ATOM     37  C   UNL A   1      43.825  24.373  27.255  1.00  0.00     0.031 A 
ATOM     38  C   UNL A   1      42.842  25.404  27.731  1.00  0.00     0.074 A 
ATOM     39  C   UNL A   1      45.103  24.722  27.008  1.00  0.00     0.049 A 
ATOM     40  N   UNL A   1      43.018  26.687  27.927  1.00  0.00    -0.248 NA
ATOM     41  C   UNL A   1      41.473  24.938  28.002  1.00  0.00     0.031 C 
ATOM     42  C   UNL A   1      46.143  23.821  26.509  1.00  0.00     0.029 A 
ATOM     43  N   UNL A   1      45.742  25.932  27.123  1.00  0.00    -0.354 N 
ATOM     44  C   UNL A   1      41.788  27.178  28.343  1.00  0.00     0.074 A 
ATOM     45  C   UNL A   1      40.860  26.068  28.320  1.00  0.00     0.031 C 
ATOM     46  C   UNL A   1      47.290  24.504  26.368  1.00  0.00     0.029 A 
ATOM     47  C   UNL A   1      47.056  25.901  26.716  1.00  0.00     0.049 A 
ATOM     48  H   UNL A   1      45.303  26.744  27.464  1.00  0.00     0.167 HD
ATOM     49  C   UNL A   1      41.471  28.438  28.728  1.00  0.00     0.037 A 
ATOM     50  C   UNL A   1      47.961  26.892  26.607  1.00  0.00     0.037 A 
ATOM     51  C   UNL A   1      42.400  29.538  28.751  1.00  0.00     0.049 A 
ATOM     52  C   UNL A   1      47.563  28.292  26.993  1.00  0.00     0.074 A 
ATOM     53  C   UNL A   1      42.182  30.841  29.166  1.00  0.00     0.029 A 
ATOM     54  N   UNL A   1      43.721  29.469  28.334  1.00  0.00    -0.354 N 
ATOM     55  N   UNL A   1      46.416  28.732  27.447  1.00  0.00    -0.248 NA
ATOM     56  C   UNL A   1      48.590  29.335  26.850  1.00  0.00     0.031 C 
ATOM     57  C   UNL A   1      43.354  31.573  28.948  1.00  0.00     0.029 A 
ATOM     58  C   UNL A   1      44.321  30.713  28.452  1.00  0.00     0.049 A 
ATOM     59  H   UNL A   1      44.166  28.655  28.003  1.00  0.00     0.167 HD
ATOM     60  C   UNL A   1      46.587  30.092  27.664  1.00  0.00     0.074 A 
ATOM     61  C   UNL A   1      47.958  30.401  27.318  1.00  0.00     0.031 C 
ATOM     62  C   UNL A   1      45.688  31.006  28.104  1.00  0.00     0.037 A 
BRANCH  49  63
ATOM     63  C   UNL A   1      40.058  28.701  29.163  1.00  0.00     0.064 A 
ATOM     64  C   UNL A   1      39.071  29.099  28.250  1.00  0.00     0.173 A 
ATOM     65  C   UNL A   1      39.669  28.488  30.495  1.00  0.00     0.173 A 
ATOM     66  F   UNL A   1      39.390  29.325  26.966  1.00  0.00    -0.203 F 
ATOM     67  C   UNL A   1      37.753  29.294  28.656  1.00  0.00     0.198 A 
ATOM     68  C   UNL A   1      38.345  28.652  30.891  1.00  0.00     0.198 A 
ATOM     69  F   UNL A   1      40.572  28.099  31.409  1.00  0.00    -0.203 F 
ATOM     70  F   UNL A   1      36.836  29.711  27.772  1.00  0.00    -0.200 F 
ATOM     71  C   UNL A   1      37.390  29.060  29.974  1.00  0.00     0.200 A 
ATOM     72  F   UNL A   1      37.992  28.412  32.162  1.00  0.00    -0.200 F 
ATOM     73  F   UNL A   1      36.117  29.233  30.359  1.00  0.00    -0.200 F 
ENDBRANCH  49  63
BRANCH  50  74
ATOM     74  C   UNL A   1      49.327  26.605  26.094  1.00  0.00     0.064 A 
ATOM     75  C   UNL A   1      50.337  26.138  26.948  1.00  0.00     0.173 A 
ATOM     76  C   UNL A   1      49.660  26.820  24.748  1.00  0.00     0.173 A 
ATOM     77  F   UNL A   1      50.076  25.937  28.246  1.00  0.00    -0.203 F 
ATOM     78  C   UNL A   1      51.634  25.929  26.481  1.00  0.00     0.198 A 
ATOM     79  C   UNL A   1      50.948  26.575  24.276  1.00  0.00     0.198 A 
ATOM     80  F   UNL A   1      48.731  27.261  23.888  1.00  0.00    -0.203 F 
ATOM     81  F   UNL A   1      52.595  25.543  27.333  1.00  0.00    -0.200 F 
ATOM     82  C   UNL A   1      51.937  26.143  25.146  1.00  0.00     0.200 A 
ATOM     83  F   UNL A   1      51.231  26.767  22.981  1.00  0.00    -0.200 F 
ATOM     84  F   UNL A   1      53.184  25.943  24.699  1.00  0.00    -0.200 F 
ENDBRANCH  50  74
BRANCH  62  85
ATOM     85  C   UNL A   1      46.164  32.423  28.255  1.00  0.00     0.064 A 
ATOM     86  C   UNL A   1      45.938  33.384  27.258  1.00  0.00     0.173 A 
ATOM     87  C   UNL A   1      46.820  32.833  29.425  1.00  0.00     0.173 A 
ATOM     88  F   UNL A   1      45.330  33.039  26.113  1.00  0.00    -0.203 F 
ATOM     89  C   UNL A   1      46.377  34.696  27.416  1.00  0.00     0.198 A 
ATOM     90  C   UNL A   1      47.227  34.154  29.594  1.00  0.00     0.198 A 
ATOM     91  F   UNL A   1      47.057  31.955  30.412  1.00  0.00    -0.203 F 
ATOM     92  F   UNL A   1      46.198  35.583  26.428  1.00  0.00    -0.200 F 
ATOM     93  C   UNL A   1      47.013  35.082  28.586  1.00  0.00     0.200 A 
ATOM     94  F   UNL A   1      47.828  34.528  30.731  1.00  0.00    -0.200 F 
ATOM     95  F   UNL A   1      47.427  36.347  28.740  1.00  0.00    -0.200 F 
ENDBRANCH  62  85
ENDBRANCH  36  37
ENDBRANCH  28  31
ENDBRANCH  26  27
ENDBRANCH  25  26
ENDBRANCH   1  25
TORSDOF 13
ENDMDL
