MODEL 1
REMARK VINA RESULT:     -10.8      0.000      0.000
REMARK SMILES O=C(CCCOc1ccc([N+](=O)[O-])cc1F)NCCCNC(=O)c1ccc(-c2c3nc(c(-c4c(F)c(F)c(F)c(F)c4F)c4ccc([nH]4)c(-c4c(F)c(F)c(F)c(F)c4F)c4nc(c(-c5c(F)c(F)c(F)c(F)c5F)c5ccc2[nH]5)C=C4)C=C3)cc1
REMARK SMILES IDX 1 1 2 2 17 3 3 5 4 6 5 7 6 8 7 9 8 10 15 11 9 12 14 13 16 14
REMARK SMILES IDX 10 15 11 16 12 17 13 18 18 19 19 20 20 21 21 22 22 23 23 25
REMARK SMILES IDX 24 26 25 27 86 28 26 29 85 30 27 31 28 32 29 33 79 34 30 35
REMARK SMILES IDX 84 36 78 37 80 38 31 39 83 40 77 41 76 42 32 44 64 45 44 46
REMARK SMILES IDX 63 47 45 48 48 49 62 50 81 51 46 52 47 53 61 55 82 56 49 57
REMARK SMILES IDX 33 58 34 59 42 60 35 61 36 62 40 63 43 64 37 65 38 66 41 67
REMARK SMILES IDX 39 68 65 69 66 70 74 71 67 72 68 73 72 74 75 75 69 76 70 77
REMARK SMILES IDX 73 78 71 79 50 80 51 81 59 82 52 83 53 84 57 85 60 86 54 87
REMARK SMILES IDX 55 88 58 89 56 90
REMARK H PARENT 17 4 21 24 80 43 48 54
REMARK Flexibility Score: inf
ROOT
ATOM      1  O   UNL A   1      32.901  37.442  30.331  1.00  0.00    -0.275 OA
ATOM      2  C   UNL A   1      32.931  36.397  30.969  1.00  0.00     0.220 C 
ATOM      3  N   UNL A   1      33.141  35.163  30.398  1.00  0.00    -0.356 N 
ATOM      4  H   UNL A   1      33.200  34.369  30.977  1.00  0.00     0.163 HD
ENDROOT
BRANCH   2   5
ATOM      5  C   UNL A   1      32.749  36.357  32.471  1.00  0.00     0.103 C 
BRANCH   5   6
ATOM      6  C   UNL A   1      34.056  36.492  33.258  1.00  0.00     0.051 C 
BRANCH   6   7
ATOM      7  C   UNL A   1      34.774  35.199  33.676  1.00  0.00     0.230 C 
BRANCH   7   8
ATOM      8  O   UNL A   1      35.860  34.841  32.806  1.00  0.00    -0.490 OA
BRANCH   8   9
ATOM      9  C   UNL A   1      36.346  33.584  33.017  1.00  0.00     0.155 A 
ATOM     10  C   UNL A   1      35.758  32.475  32.409  1.00  0.00     0.056 A 
ATOM     11  C   UNL A   1      37.394  33.411  33.922  1.00  0.00     0.171 A 
ATOM     12  C   UNL A   1      36.293  31.201  32.638  1.00  0.00     0.089 A 
ATOM     13  C   UNL A   1      37.957  32.160  34.138  1.00  0.00     0.128 A 
ATOM     14  F   UNL A   1      37.925  34.474  34.541  1.00  0.00    -0.203 F 
ATOM     15  C   UNL A   1      37.408  31.057  33.481  1.00  0.00     0.272 A 
BRANCH  15  16
ATOM     16  N   UNL A   1      38.018  29.737  33.665  1.00  0.00     0.062 N 
ATOM     17  O   UNL A   1      39.108  29.689  34.249  1.00  0.00    -0.258 OA
ATOM     18  O   UNL A   1      37.392  28.756  33.246  1.00  0.00    -0.258 OA
ENDBRANCH  15  16
ENDBRANCH   8   9
ENDBRANCH   7   8
ENDBRANCH   6   7
ENDBRANCH   5   6
ENDBRANCH   2   5
BRANCH   3  19
ATOM     19  C   UNL A   1      33.280  35.006  28.964  1.00  0.00     0.117 C 
BRANCH  19  20
ATOM     20  C   UNL A   1      34.648  34.467  28.568  1.00  0.00     0.042 C 
BRANCH  20  21
ATOM     21  C   UNL A   1      34.892  33.011  28.951  1.00  0.00     0.118 C 
BRANCH  21  22
ATOM     22  N   UNL A   1      34.125  32.061  28.165  1.00  0.00    -0.352 N 
ATOM     23  C   UNL A   1      34.456  30.801  27.722  1.00  0.00     0.251 C 
ATOM     24  H   UNL A   1      33.225  32.366  27.909  1.00  0.00     0.163 HD
ATOM     25  O   UNL A   1      33.701  30.201  26.968  1.00  0.00    -0.269 OA
BRANCH  23  26
ATOM     26  C   UNL A   1      35.740  30.180  28.119  1.00  0.00     0.039 A 
ATOM     27  C   UNL A   1      36.807  30.226  27.219  1.00  0.00     0.014 A 
ATOM     28  C   UNL A   1      35.898  29.558  29.361  1.00  0.00     0.014 A 
ATOM     29  C   UNL A   1      38.058  29.732  27.598  1.00  0.00     0.010 A 
ATOM     30  C   UNL A   1      37.162  29.132  29.765  1.00  0.00     0.010 A 
ATOM     31  C   UNL A   1      38.258  29.229  28.894  1.00  0.00    -0.014 A 
BRANCH  31  32
ATOM     32  C   UNL A   1      39.615  28.848  29.368  1.00  0.00     0.031 A 
ATOM     33  C   UNL A   1      40.384  29.748  30.292  1.00  0.00     0.074 A 
ATOM     34  C   UNL A   1      40.182  27.715  28.908  1.00  0.00     0.049 A 
ATOM     35  N   UNL A   1      41.609  29.621  30.738  1.00  0.00    -0.248 NA
ATOM     36  C   UNL A   1      39.695  30.959  30.765  1.00  0.00     0.031 C 
ATOM     37  C   UNL A   1      39.551  26.772  27.984  1.00  0.00     0.029 A 
ATOM     38  N   UNL A   1      41.420  27.167  29.144  1.00  0.00    -0.354 N 
ATOM     39  C   UNL A   1      41.839  30.734  31.535  1.00  0.00     0.074 A 
ATOM     40  C   UNL A   1      40.645  31.550  31.477  1.00  0.00     0.031 C 
ATOM     41  C   UNL A   1      40.392  25.752  27.751  1.00  0.00     0.029 A 
ATOM     42  C   UNL A   1      41.642  25.993  28.467  1.00  0.00     0.049 A 
ATOM     43  H   UNL A   1      42.085  27.578  29.742  1.00  0.00     0.167 HD
ATOM     44  C   UNL A   1      42.937  31.034  32.266  1.00  0.00     0.037 A 
ATOM     45  C   UNL A   1      42.732  25.203  28.414  1.00  0.00     0.037 A 
ATOM     46  C   UNL A   1      44.116  30.208  32.339  1.00  0.00     0.049 A 
ATOM     47  C   UNL A   1      43.956  25.581  29.202  1.00  0.00     0.074 A 
ATOM     48  C   UNL A   1      45.258  30.408  33.094  1.00  0.00     0.029 A 
ATOM     49  N   UNL A   1      44.305  29.032  31.628  1.00  0.00    -0.354 N 
ATOM     50  N   UNL A   1      44.142  26.610  29.993  1.00  0.00    -0.248 NA
ATOM     51  C   UNL A   1      45.122  24.691  29.094  1.00  0.00     0.031 C 
ATOM     52  C   UNL A   1      46.161  29.383  32.800  1.00  0.00     0.029 A 
ATOM     53  C   UNL A   1      45.559  28.511  31.908  1.00  0.00     0.049 A 
ATOM     54  H   UNL A   1      43.648  28.627  31.017  1.00  0.00     0.167 HD
ATOM     55  C   UNL A   1      45.430  26.479  30.493  1.00  0.00     0.074 A 
ATOM     56  C   UNL A   1      45.980  25.266  29.926  1.00  0.00     0.031 C 
ATOM     57  C   UNL A   1      46.094  27.296  31.346  1.00  0.00     0.037 A 
BRANCH  44  58
ATOM     58  C   UNL A   1      42.929  32.305  33.065  1.00  0.00     0.064 A 
ATOM     59  C   UNL A   1      42.361  32.337  34.347  1.00  0.00     0.173 A 
ATOM     60  C   UNL A   1      43.404  33.510  32.527  1.00  0.00     0.173 A 
ATOM     61  F   UNL A   1      41.886  31.213  34.905  1.00  0.00    -0.203 F 
ATOM     62  C   UNL A   1      42.252  33.531  35.054  1.00  0.00     0.198 A 
ATOM     63  C   UNL A   1      43.320  34.698  33.248  1.00  0.00     0.198 A 
ATOM     64  F   UNL A   1      43.965  33.532  31.308  1.00  0.00    -0.203 F 
ATOM     65  F   UNL A   1      41.670  33.545  36.260  1.00  0.00    -0.200 F 
ATOM     66  C   UNL A   1      42.734  34.710  34.505  1.00  0.00     0.200 A 
ATOM     67  F   UNL A   1      43.807  35.832  32.726  1.00  0.00    -0.200 F 
ATOM     68  F   UNL A   1      42.635  35.859  35.188  1.00  0.00    -0.200 F 
ENDBRANCH  44  58
BRANCH  45  69
ATOM     69  C   UNL A   1      42.701  23.964  27.594  1.00  0.00     0.064 A 
ATOM     70  C   UNL A   1      42.331  22.728  28.147  1.00  0.00     0.173 A 
ATOM     71  C   UNL A   1      43.076  23.987  26.243  1.00  0.00     0.173 A 
ATOM     72  F   UNL A   1      41.969  22.651  29.435  1.00  0.00    -0.203 F 
ATOM     73  C   UNL A   1      42.361  21.561  27.386  1.00  0.00     0.198 A 
ATOM     74  C   UNL A   1      43.078  22.824  25.477  1.00  0.00     0.198 A 
ATOM     75  F   UNL A   1      43.418  25.147  25.664  1.00  0.00    -0.203 F 
ATOM     76  F   UNL A   1      42.042  20.389  27.950  1.00  0.00    -0.200 F 
ATOM     77  C   UNL A   1      42.730  21.611  26.051  1.00  0.00     0.200 A 
ATOM     78  F   UNL A   1      43.413  22.880  24.180  1.00  0.00    -0.200 F 
ATOM     79  F   UNL A   1      42.749  20.490  25.317  1.00  0.00    -0.200 F 
ENDBRANCH  45  69
BRANCH  57  80
ATOM     80  C   UNL A   1      47.485  26.906  31.755  1.00  0.00     0.064 A 
ATOM     81  C   UNL A   1      48.594  27.387  31.041  1.00  0.00     0.173 A 
ATOM     82  C   UNL A   1      47.715  25.977  32.780  1.00  0.00     0.173 A 
ATOM     83  F   UNL A   1      48.426  28.271  30.046  1.00  0.00    -0.203 F 
ATOM     84  C   UNL A   1      49.879  26.932  31.321  1.00  0.00     0.198 A 
ATOM     85  C   UNL A   1      49.006  25.547  33.076  1.00  0.00     0.198 A 
ATOM     86  F   UNL A   1      46.690  25.499  33.499  1.00  0.00    -0.203 F 
ATOM     87  F   UNL A   1      50.917  27.370  30.595  1.00  0.00    -0.200 F 
ATOM     88  C   UNL A   1      50.084  26.013  32.339  1.00  0.00     0.200 A 
ATOM     89  F   UNL A   1      49.206  24.674  34.074  1.00  0.00    -0.200 F 
ATOM     90  F   UNL A   1      51.322  25.575  32.607  1.00  0.00    -0.200 F 
ENDBRANCH  57  80
ENDBRANCH  31  32
ENDBRANCH  23  26
ENDBRANCH  21  22
ENDBRANCH  20  21
ENDBRANCH  19  20
ENDBRANCH   3  19
TORSDOF 15
ENDMDL
MODEL 2
REMARK VINA RESULT:     -10.5      0.399      7.449
REMARK SMILES O=C(CCCOc1ccc([N+](=O)[O-])cc1F)NCCCNC(=O)c1ccc(-c2c3nc(c(-c4c(F)c(F)c(F)c(F)c4F)c4ccc([nH]4)c(-c4c(F)c(F)c(F)c(F)c4F)c4nc(c(-c5c(F)c(F)c(F)c(F)c5F)c5ccc2[nH]5)C=C4)C=C3)cc1
REMARK SMILES IDX 1 1 2 2 17 3 3 5 4 6 5 7 6 8 7 9 8 10 15 11 9 12 14 13 16 14
REMARK SMILES IDX 10 15 11 16 12 17 13 18 18 19 19 20 20 21 21 22 22 23 23 25
REMARK SMILES IDX 24 26 25 27 86 28 26 29 85 30 27 31 28 32 29 33 79 34 30 35
REMARK SMILES IDX 84 36 78 37 80 38 31 39 83 40 77 41 76 42 32 44 64 45 44 46
REMARK SMILES IDX 63 47 45 48 48 49 62 50 81 51 46 52 47 53 61 55 82 56 49 57
REMARK SMILES IDX 33 58 34 59 42 60 35 61 36 62 40 63 43 64 37 65 38 66 41 67
REMARK SMILES IDX 39 68 65 69 66 70 74 71 67 72 68 73 72 74 75 75 69 76 70 77
REMARK SMILES IDX 73 78 71 79 50 80 51 81 59 82 52 83 53 84 57 85 60 86 54 87
REMARK SMILES IDX 55 88 58 89 56 90
REMARK H PARENT 17 4 21 24 80 43 48 54
REMARK Flexibility Score: inf
ROOT
ATOM      1  O   UNL A   1      32.653  37.159  30.534  1.00  0.00    -0.275 OA
ATOM      2  C   UNL A   1      32.894  36.062  31.026  1.00  0.00     0.220 C 
ATOM      3  N   UNL A   1      33.238  34.955  30.284  1.00  0.00    -0.356 N 
ATOM      4  H   UNL A   1      33.465  34.117  30.748  1.00  0.00     0.163 HD
ENDROOT
BRANCH   2   5
ATOM      5  C   UNL A   1      32.849  35.814  32.518  1.00  0.00     0.103 C 
BRANCH   5   6
ATOM      6  C   UNL A   1      34.142  36.192  33.248  1.00  0.00     0.051 C 
BRANCH   6   7
ATOM      7  C   UNL A   1      34.951  35.059  33.899  1.00  0.00     0.230 C 
BRANCH   7   8
ATOM      8  O   UNL A   1      36.215  34.819  33.260  1.00  0.00    -0.490 OA
BRANCH   8   9
ATOM      9  C   UNL A   1      36.641  33.527  33.346  1.00  0.00     0.155 A 
ATOM     10  C   UNL A   1      36.035  32.519  32.596  1.00  0.00     0.056 A 
ATOM     11  C   UNL A   1      37.643  33.207  34.263  1.00  0.00     0.171 A 
ATOM     12  C   UNL A   1      36.507  31.205  32.699  1.00  0.00     0.089 A 
ATOM     13  C   UNL A   1      38.146  31.916  34.358  1.00  0.00     0.128 A 
ATOM     14  F   UNL A   1      38.190  34.171  35.017  1.00  0.00    -0.203 F 
ATOM     15  C   UNL A   1      37.580  30.918  33.561  1.00  0.00     0.272 A 
BRANCH  15  16
ATOM     16  N   UNL A   1      38.129  29.561  33.617  1.00  0.00     0.062 N 
ATOM     17  O   UNL A   1      37.395  28.633  33.251  1.00  0.00    -0.258 OA
ATOM     18  O   UNL A   1      39.298  29.433  34.002  1.00  0.00    -0.258 OA
ENDBRANCH  15  16
ENDBRANCH   8   9
ENDBRANCH   7   8
ENDBRANCH   6   7
ENDBRANCH   5   6
ENDBRANCH   2   5
BRANCH   3  19
ATOM     19  C   UNL A   1      33.276  34.996  28.836  1.00  0.00     0.117 C 
BRANCH  19  20
ATOM     20  C   UNL A   1      34.560  34.403  28.271  1.00  0.00     0.042 C 
BRANCH  20  21
ATOM     21  C   UNL A   1      34.881  32.998  28.767  1.00  0.00     0.118 C 
BRANCH  21  22
ATOM     22  N   UNL A   1      34.082  31.958  28.145  1.00  0.00    -0.352 N 
ATOM     23  C   UNL A   1      34.407  30.662  27.814  1.00  0.00     0.251 C 
ATOM     24  H   UNL A   1      33.159  32.221  27.924  1.00  0.00     0.163 HD
ATOM     25  O   UNL A   1      33.614  29.975  27.186  1.00  0.00    -0.269 OA
BRANCH  23  26
ATOM     26  C   UNL A   1      35.730  30.106  28.179  1.00  0.00     0.039 A 
ATOM     27  C   UNL A   1      36.770  30.201  27.251  1.00  0.00     0.014 A 
ATOM     28  C   UNL A   1      35.951  29.497  29.418  1.00  0.00     0.014 A 
ATOM     29  C   UNL A   1      38.053  29.770  27.598  1.00  0.00     0.010 A 
ATOM     30  C   UNL A   1      37.244  29.134  29.790  1.00  0.00     0.010 A 
ATOM     31  C   UNL A   1      38.311  29.281  28.889  1.00  0.00    -0.014 A 
BRANCH  31  32
ATOM     32  C   UNL A   1      39.697  28.969  29.329  1.00  0.00     0.031 A 
ATOM     33  C   UNL A   1      40.383  27.715  28.868  1.00  0.00     0.074 A 
ATOM     34  C   UNL A   1      40.313  29.790  30.203  1.00  0.00     0.049 A 
ATOM     35  N   UNL A   1      41.551  27.238  29.216  1.00  0.00    -0.248 NA
ATOM     36  C   UNL A   1      39.655  26.877  27.903  1.00  0.00     0.031 C 
ATOM     37  C   UNL A   1      39.743  31.022  30.748  1.00  0.00     0.029 A 
ATOM     38  N   UNL A   1      41.551  29.708  30.796  1.00  0.00    -0.354 N 
ATOM     39  C   UNL A   1      41.696  26.045  28.520  1.00  0.00     0.074 A 
ATOM     40  C   UNL A   1      40.477  25.846  27.765  1.00  0.00     0.031 C 
ATOM     41  C   UNL A   1      40.634  31.593  31.574  1.00  0.00     0.029 A 
ATOM     42  C   UNL A   1      41.819  30.743  31.658  1.00  0.00     0.049 A 
ATOM     43  H   UNL A   1      42.185  28.976  30.619  1.00  0.00     0.167 HD
ATOM     44  C   UNL A   1      42.757  25.206  28.497  1.00  0.00     0.037 A 
ATOM     45  C   UNL A   1      42.889  30.978  32.441  1.00  0.00     0.037 A 
ATOM     46  C   UNL A   1      43.977  25.419  29.234  1.00  0.00     0.049 A 
ATOM     47  C   UNL A   1      44.039  30.008  32.430  1.00  0.00     0.074 A 
ATOM     48  C   UNL A   1      45.126  24.648  29.232  1.00  0.00     0.029 A 
ATOM     49  N   UNL A   1      44.204  26.474  30.105  1.00  0.00    -0.354 N 
ATOM     50  N   UNL A   1      44.184  28.910  31.728  1.00  0.00    -0.248 NA
ATOM     51  C   UNL A   1      45.174  30.306  33.316  1.00  0.00     0.031 C 
ATOM     52  C   UNL A   1      46.027  25.204  30.143  1.00  0.00     0.029 A 
ATOM     53  C   UNL A   1      45.466  26.357  30.668  1.00  0.00     0.049 A 
ATOM     54  H   UNL A   1      43.565  27.199  30.296  1.00  0.00     0.167 HD
ATOM     55  C   UNL A   1      45.430  28.402  32.068  1.00  0.00     0.074 A 
ATOM     56  C   UNL A   1      46.007  29.315  33.032  1.00  0.00     0.031 C 
ATOM     57  C   UNL A   1      46.037  27.277  31.619  1.00  0.00     0.037 A 
BRANCH  44  58
ATOM     58  C   UNL A   1      42.668  23.977  27.642  1.00  0.00     0.064 A 
ATOM     59  C   UNL A   1      42.277  22.749  28.197  1.00  0.00     0.173 A 
ATOM     60  C   UNL A   1      43.054  23.994  26.294  1.00  0.00     0.173 A 
ATOM     61  F   UNL A   1      41.905  22.676  29.484  1.00  0.00    -0.203 F 
ATOM     62  C   UNL A   1      42.293  21.581  27.439  1.00  0.00     0.198 A 
ATOM     63  C   UNL A   1      43.042  22.830  25.530  1.00  0.00     0.198 A 
ATOM     64  F   UNL A   1      43.428  25.144  25.712  1.00  0.00    -0.203 F 
ATOM     65  F   UNL A   1      41.953  20.414  28.001  1.00  0.00    -0.200 F 
ATOM     66  C   UNL A   1      42.672  21.623  26.106  1.00  0.00     0.200 A 
ATOM     67  F   UNL A   1      43.386  22.876  24.236  1.00  0.00    -0.200 F 
ATOM     68  F   UNL A   1      42.681  20.500  25.374  1.00  0.00    -0.200 F 
ENDBRANCH  44  58
BRANCH  45  69
ATOM     69  C   UNL A   1      42.925  32.200  33.287  1.00  0.00     0.064 A 
ATOM     70  C   UNL A   1      42.339  32.227  34.561  1.00  0.00     0.173 A 
ATOM     71  C   UNL A   1      43.521  33.379  32.819  1.00  0.00     0.173 A 
ATOM     72  F   UNL A   1      41.752  31.126  35.053  1.00  0.00    -0.203 F 
ATOM     73  C   UNL A   1      42.325  33.393  35.323  1.00  0.00     0.198 A 
ATOM     74  C   UNL A   1      43.531  34.537  33.593  1.00  0.00     0.198 A 
ATOM     75  F   UNL A   1      44.112  33.398  31.616  1.00  0.00    -0.203 F 
ATOM     76  F   UNL A   1      41.722  33.402  36.520  1.00  0.00    -0.200 F 
ATOM     77  C   UNL A   1      42.926  34.546  34.841  1.00  0.00     0.200 A 
ATOM     78  F   UNL A   1      44.133  35.642  33.134  1.00  0.00    -0.200 F 
ATOM     79  F   UNL A   1      42.921  35.665  35.578  1.00  0.00    -0.200 F 
ENDBRANCH  45  69
BRANCH  57  80
ATOM     80  C   UNL A   1      47.413  26.966  32.132  1.00  0.00     0.064 A 
ATOM     81  C   UNL A   1      47.578  26.212  33.306  1.00  0.00     0.173 A 
ATOM     82  C   UNL A   1      48.559  27.500  31.528  1.00  0.00     0.173 A 
ATOM     83  F   UNL A   1      46.511  25.686  33.927  1.00  0.00    -0.203 F 
ATOM     84  C   UNL A   1      48.837  26.028  33.868  1.00  0.00     0.198 A 
ATOM     85  C   UNL A   1      49.821  27.289  32.078  1.00  0.00     0.198 A 
ATOM     86  F   UNL A   1      48.455  28.216  30.399  1.00  0.00    -0.203 F 
ATOM     87  F   UNL A   1      48.964  25.345  35.014  1.00  0.00    -0.200 F 
ATOM     88  C   UNL A   1      49.957  26.566  33.254  1.00  0.00     0.200 A 
ATOM     89  F   UNL A   1      50.906  27.791  31.472  1.00  0.00    -0.200 F 
ATOM     90  F   UNL A   1      51.170  26.389  33.797  1.00  0.00    -0.200 F 
ENDBRANCH  57  80
ENDBRANCH  31  32
ENDBRANCH  23  26
ENDBRANCH  21  22
ENDBRANCH  20  21
ENDBRANCH  19  20
ENDBRANCH   3  19
TORSDOF 15
ENDMDL
MODEL 3
REMARK VINA RESULT:     -10.5      6.120     10.746
REMARK SMILES O=C(CCCOc1ccc([N+](=O)[O-])cc1F)NCCCNC(=O)c1ccc(-c2c3nc(c(-c4c(F)c(F)c(F)c(F)c4F)c4ccc([nH]4)c(-c4c(F)c(F)c(F)c(F)c4F)c4nc(c(-c5c(F)c(F)c(F)c(F)c5F)c5ccc2[nH]5)C=C4)C=C3)cc1
REMARK SMILES IDX 1 1 2 2 17 3 3 5 4 6 5 7 6 8 7 9 8 10 15 11 9 12 14 13 16 14
REMARK SMILES IDX 10 15 11 16 12 17 13 18 18 19 19 20 20 21 21 22 22 23 23 25
REMARK SMILES IDX 24 26 25 27 86 28 26 29 85 30 27 31 28 32 29 33 79 34 30 35
REMARK SMILES IDX 84 36 78 37 80 38 31 39 83 40 77 41 76 42 32 44 64 45 44 46
REMARK SMILES IDX 63 47 45 48 48 49 62 50 81 51 46 52 47 53 61 55 82 56 49 57
REMARK SMILES IDX 33 58 34 59 42 60 35 61 36 62 40 63 43 64 37 65 38 66 41 67
REMARK SMILES IDX 39 68 65 69 66 70 74 71 67 72 68 73 72 74 75 75 69 76 70 77
REMARK SMILES IDX 73 78 71 79 50 80 51 81 59 82 52 83 53 84 57 85 60 86 54 87
REMARK SMILES IDX 55 88 58 89 56 90
REMARK H PARENT 17 4 21 24 80 43 48 54
REMARK Flexibility Score: inf
ROOT
ATOM      1  O   UNL A   1      36.234  23.628  25.459  1.00  0.00    -0.275 OA
ATOM      2  C   UNL A   1      35.727  22.605  25.906  1.00  0.00     0.220 C 
ATOM      3  N   UNL A   1      36.168  21.339  25.595  1.00  0.00    -0.356 N 
ATOM      4  H   UNL A   1      35.744  20.563  26.027  1.00  0.00     0.163 HD
ENDROOT
BRANCH   2   5
ATOM      5  C   UNL A   1      34.557  22.630  26.865  1.00  0.00     0.103 C 
BRANCH   5   6
ATOM      6  C   UNL A   1      33.260  23.162  26.246  1.00  0.00     0.051 C 
BRANCH   6   7
ATOM      7  C   UNL A   1      32.844  22.607  24.874  1.00  0.00     0.230 C 
BRANCH   7   8
ATOM      8  O   UNL A   1      31.842  21.580  24.953  1.00  0.00    -0.490 OA
BRANCH   8   9
ATOM      9  C   UNL A   1      32.315  20.326  24.698  1.00  0.00     0.155 A 
ATOM     10  C   UNL A   1      32.893  19.557  25.708  1.00  0.00     0.056 A 
ATOM     11  C   UNL A   1      32.290  19.850  23.386  1.00  0.00     0.171 A 
ATOM     12  C   UNL A   1      33.355  18.269  25.413  1.00  0.00     0.089 A 
ATOM     13  C   UNL A   1      32.715  18.565  23.080  1.00  0.00     0.128 A 
ATOM     14  F   UNL A   1      31.777  20.612  22.410  1.00  0.00    -0.203 F 
ATOM     15  C   UNL A   1      33.237  17.771  24.104  1.00  0.00     0.272 A 
BRANCH  15  16
ATOM     16  N   UNL A   1      33.648  16.397  23.806  1.00  0.00     0.062 N 
ATOM     17  O   UNL A   1      33.328  15.517  24.615  1.00  0.00    -0.258 OA
ATOM     18  O   UNL A   1      34.267  16.203  22.752  1.00  0.00    -0.258 OA
ENDBRANCH  15  16
ENDBRANCH   8   9
ENDBRANCH   7   8
ENDBRANCH   6   7
ENDBRANCH   5   6
ENDBRANCH   2   5
BRANCH   3  19
ATOM     19  C   UNL A   1      37.244  21.124  24.648  1.00  0.00     0.117 C 
BRANCH  19  20
ATOM     20  C   UNL A   1      38.073  19.891  24.980  1.00  0.00     0.042 C 
BRANCH  20  21
ATOM     21  C   UNL A   1      39.237  20.147  25.933  1.00  0.00     0.118 C 
BRANCH  21  22
ATOM     22  N   UNL A   1      40.256  19.113  25.905  1.00  0.00    -0.352 N 
ATOM     23  C   UNL A   1      41.620  19.204  26.064  1.00  0.00     0.251 C 
ATOM     24  H   UNL A   1      39.918  18.202  25.748  1.00  0.00     0.163 HD
ATOM     25  O   UNL A   1      42.322  18.217  25.892  1.00  0.00    -0.269 OA
BRANCH  23  26
ATOM     26  C   UNL A   1      42.250  20.500  26.405  1.00  0.00     0.039 A 
ATOM     27  C   UNL A   1      42.806  21.260  25.373  1.00  0.00     0.014 A 
ATOM     28  C   UNL A   1      42.297  20.968  27.721  1.00  0.00     0.014 A 
ATOM     29  C   UNL A   1      43.326  22.528  25.645  1.00  0.00     0.010 A 
ATOM     30  C   UNL A   1      42.749  22.260  27.981  1.00  0.00     0.010 A 
ATOM     31  C   UNL A   1      43.253  23.060  26.943  1.00  0.00    -0.014 A 
BRANCH  31  32
ATOM     32  C   UNL A   1      43.653  24.464  27.220  1.00  0.00     0.031 A 
ATOM     33  C   UNL A   1      42.652  25.459  27.735  1.00  0.00     0.074 A 
ATOM     34  C   UNL A   1      44.911  24.861  26.942  1.00  0.00     0.049 A 
ATOM     35  N   UNL A   1      42.799  26.742  27.950  1.00  0.00    -0.248 NA
ATOM     36  C   UNL A   1      41.304  24.950  28.031  1.00  0.00     0.031 C 
ATOM     37  C   UNL A   1      45.968  23.999  26.411  1.00  0.00     0.029 A 
ATOM     38  N   UNL A   1      45.514  26.090  27.056  1.00  0.00    -0.354 N 
ATOM     39  C   UNL A   1      41.565  27.194  28.399  1.00  0.00     0.074 A 
ATOM     40  C   UNL A   1      40.667  26.059  28.382  1.00  0.00     0.031 C 
ATOM     41  C   UNL A   1      47.093  24.718  26.268  1.00  0.00     0.029 A 
ATOM     42  C   UNL A   1      46.825  26.102  26.649  1.00  0.00     0.049 A 
ATOM     43  H   UNL A   1      45.049  26.888  27.397  1.00  0.00     0.167 HD
ATOM     44  C   UNL A   1      41.221  28.437  28.808  1.00  0.00     0.037 A 
ATOM     45  C   UNL A   1      47.712  27.113  26.573  1.00  0.00     0.037 A 
ATOM     46  C   UNL A   1      42.124  29.560  28.844  1.00  0.00     0.049 A 
ATOM     47  C   UNL A   1      47.294  28.495  26.995  1.00  0.00     0.074 A 
ATOM     48  C   UNL A   1      41.877  30.845  29.293  1.00  0.00     0.029 A 
ATOM     49  N   UNL A   1      43.442  29.532  28.412  1.00  0.00    -0.354 N 
ATOM     50  N   UNL A   1      46.139  28.898  27.465  1.00  0.00    -0.248 NA
ATOM     51  C   UNL A   1      48.297  29.563  26.876  1.00  0.00     0.031 C 
ATOM     52  C   UNL A   1      43.027  31.610  29.081  1.00  0.00     0.029 A 
ATOM     53  C   UNL A   1      44.011  30.788  28.557  1.00  0.00     0.049 A 
ATOM     54  H   UNL A   1      43.904  28.739  28.055  1.00  0.00     0.167 HD
ATOM     55  C   UNL A   1      46.283  30.255  27.721  1.00  0.00     0.074 A 
ATOM     56  C   UNL A   1      47.640  30.607  27.363  1.00  0.00     0.031 C 
ATOM     57  C   UNL A   1      45.368  31.126  28.209  1.00  0.00     0.037 A 
BRANCH  44  58
ATOM     58  C   UNL A   1      39.811  28.665  29.267  1.00  0.00     0.064 A 
ATOM     59  C   UNL A   1      38.852  29.191  28.388  1.00  0.00     0.173 A 
ATOM     60  C   UNL A   1      39.430  28.448  30.599  1.00  0.00     0.173 A 
ATOM     61  F   UNL A   1      39.166  29.424  27.104  1.00  0.00    -0.203 F 
ATOM     62  C   UNL A   1      37.570  29.507  28.829  1.00  0.00     0.198 A 
ATOM     63  C   UNL A   1      38.139  28.738  31.032  1.00  0.00     0.198 A 
ATOM     64  F   UNL A   1      40.307  27.939  31.478  1.00  0.00    -0.203 F 
ATOM     65  F   UNL A   1      36.683  30.043  27.981  1.00  0.00    -0.200 F 
ATOM     66  C   UNL A   1      37.214  29.277  30.150  1.00  0.00     0.200 A 
ATOM     67  F   UNL A   1      37.789  28.494  32.301  1.00  0.00    -0.200 F 
ATOM     68  F   UNL A   1      35.978  29.575  30.573  1.00  0.00    -0.200 F 
ENDBRANCH  44  58
BRANCH  45  69
ATOM     69  C   UNL A   1      49.094  26.843  26.094  1.00  0.00     0.064 A 
ATOM     70  C   UNL A   1      49.450  27.015  24.748  1.00  0.00     0.173 A 
ATOM     71  C   UNL A   1      50.079  26.373  26.974  1.00  0.00     0.173 A 
ATOM     72  F   UNL A   1      48.543  27.458  23.865  1.00  0.00    -0.203 F 
ATOM     73  C   UNL A   1      50.731  26.703  24.297  1.00  0.00     0.198 A 
ATOM     74  C   UNL A   1      51.366  26.089  26.527  1.00  0.00     0.198 A 
ATOM     75  F   UNL A   1      49.792  26.212  28.274  1.00  0.00    -0.203 F 
ATOM     76  F   UNL A   1      51.032  26.838  22.999  1.00  0.00    -0.200 F 
ATOM     77  C   UNL A   1      51.689  26.245  25.188  1.00  0.00     0.200 A 
ATOM     78  F   UNL A   1      52.297  25.668  27.395  1.00  0.00    -0.200 F 
ATOM     79  F   UNL A   1      52.924  25.955  24.755  1.00  0.00    -0.200 F 
ENDBRANCH  45  69
BRANCH  57  80
ATOM     80  C   UNL A   1      45.794  32.550  28.419  1.00  0.00     0.064 A 
ATOM     81  C   UNL A   1      46.244  32.977  29.680  1.00  0.00     0.173 A 
ATOM     82  C   UNL A   1      45.657  33.514  27.410  1.00  0.00     0.173 A 
ATOM     83  F   UNL A   1      46.384  32.095  30.681  1.00  0.00    -0.203 F 
ATOM     84  C   UNL A   1      46.515  34.319  29.928  1.00  0.00     0.198 A 
ATOM     85  C   UNL A   1      45.957  34.852  27.655  1.00  0.00     0.198 A 
ATOM     86  F   UNL A   1      45.244  33.155  26.187  1.00  0.00    -0.203 F 
ATOM     87  F   UNL A   1      46.898  34.708  31.152  1.00  0.00    -0.200 F 
ATOM     88  C   UNL A   1      46.373  35.254  28.915  1.00  0.00     0.200 A 
ATOM     89  F   UNL A   1      45.840  35.753  26.670  1.00  0.00    -0.200 F 
ATOM     90  F   UNL A   1      46.633  36.547  29.155  1.00  0.00    -0.200 F 
ENDBRANCH  57  80
ENDBRANCH  31  32
ENDBRANCH  23  26
ENDBRANCH  21  22
ENDBRANCH  20  21
ENDBRANCH  19  20
ENDBRANCH   3  19
TORSDOF 15
ENDMDL
