MODEL 1
REMARK VINA RESULT:     -13.0      0.000      0.000
REMARK SMILES O=C(NCCCNC(=O)c1noc(-c2ccccc2C(F)(F)F)n1)c1ccc(-c2c3nc(c(-c4c(F)c(F)c(F)c(F)c4F)c4ccc([nH]4)c(-c4c(F)c(F)c(F)c(F)c4F)c4nc(c(-c5c(F)c(F)c(F)c(F)c5F)c5ccc2[nH]5)C=C4)C=C3)cc1
REMARK SMILES IDX 5 1 4 2 3 3 1 4 2 5 25 7 26 8 87 9 27 10 86 11 28 12 29 13
REMARK SMILES IDX 30 14 80 15 31 16 85 17 79 18 81 19 32 20 84 21 78 22 77 23
REMARK SMILES IDX 33 25 65 26 45 27 64 28 46 29 49 30 63 31 82 32 47 33 48 34
REMARK SMILES IDX 62 36 83 37 50 38 34 39 35 40 43 41 36 42 37 43 41 44 44 45
REMARK SMILES IDX 38 46 39 47 42 48 40 49 66 50 67 51 75 52 68 53 69 54 73 55
REMARK SMILES IDX 76 56 70 57 71 58 74 59 72 60 51 61 52 62 60 63 53 64 54 65
REMARK SMILES IDX 58 66 61 67 55 68 56 69 59 70 57 71 6 72 7 73 8 74 9 76
REMARK SMILES IDX 10 77 11 78 24 79 12 80 13 81 14 82 15 83 19 84 16 85 18 86
REMARK SMILES IDX 17 87 20 88 21 89 22 90 23 91
REMARK H PARENT 3 6 81 24 49 35 7 75
REMARK Flexibility Score: inf
ROOT
ATOM      1  C   UNL A   1      31.919  28.165  25.545  1.00  0.00     0.042 C 
ENDROOT
BRANCH   1   2
ATOM      2  C   UNL A   1      33.037  29.202  25.479  1.00  0.00     0.118 C 
BRANCH   2   3
ATOM      3  N   UNL A   1      32.618  30.510  25.968  1.00  0.00    -0.352 N 
ATOM      4  O   UNL A   1      32.518  32.289  27.340  1.00  0.00    -0.269 OA
ATOM      5  C   UNL A   1      33.136  31.294  26.969  1.00  0.00     0.251 C 
ATOM      6  H   UNL A   1      31.840  30.894  25.504  1.00  0.00     0.163 HD
BRANCH   5   7
ATOM      7  C   UNL A   1      34.416  30.944  27.622  1.00  0.00     0.039 A 
ATOM      8  C   UNL A   1      34.680  29.642  28.049  1.00  0.00     0.014 A 
ATOM      9  C   UNL A   1      35.390  31.936  27.774  1.00  0.00     0.014 A 
ATOM     10  C   UNL A   1      35.845  29.368  28.761  1.00  0.00     0.010 A 
ATOM     11  C   UNL A   1      36.597  31.641  28.416  1.00  0.00     0.010 A 
ATOM     12  C   UNL A   1      36.816  30.363  28.952  1.00  0.00    -0.014 A 
BRANCH  12  13
ATOM     13  C   UNL A   1      38.059  30.036  29.697  1.00  0.00     0.031 A 
ATOM     14  C   UNL A   1      38.266  30.518  31.106  1.00  0.00     0.074 A 
ATOM     15  C   UNL A   1      38.989  29.262  29.107  1.00  0.00     0.049 A 
ATOM     16  N   UNL A   1      39.263  30.282  31.922  1.00  0.00    -0.248 NA
ATOM     17  C   UNL A   1      37.225  31.388  31.672  1.00  0.00     0.031 C 
ATOM     18  C   UNL A   1      38.911  28.747  27.739  1.00  0.00     0.029 A 
ATOM     19  N   UNL A   1      40.169  28.752  29.588  1.00  0.00    -0.354 N 
ATOM     20  C   UNL A   1      38.983  30.991  33.082  1.00  0.00     0.074 A 
ATOM     21  C   UNL A   1      37.733  31.685  32.860  1.00  0.00     0.031 C 
ATOM     22  C   UNL A   1      39.964  27.949  27.510  1.00  0.00     0.029 A 
ATOM     23  C   UNL A   1      40.815  27.933  28.696  1.00  0.00     0.049 A 
ATOM     24  H   UNL A   1      40.518  28.954  30.486  1.00  0.00     0.167 HD
ATOM     25  C   UNL A   1      39.700  31.050  34.230  1.00  0.00     0.037 A 
ATOM     26  C   UNL A   1      41.964  27.244  28.818  1.00  0.00     0.037 A 
ATOM     27  C   UNL A   1      40.926  30.332  34.464  1.00  0.00     0.049 A 
ATOM     28  C   UNL A   1      42.730  27.317  30.107  1.00  0.00     0.074 A 
ATOM     29  C   UNL A   1      41.698  30.289  35.612  1.00  0.00     0.029 A 
ATOM     30  N   UNL A   1      41.560  29.527  33.528  1.00  0.00    -0.354 N 
ATOM     31  N   UNL A   1      42.433  27.959  31.210  1.00  0.00    -0.248 NA
ATOM     32  C   UNL A   1      43.993  26.568  30.166  1.00  0.00     0.031 C 
ATOM     33  C   UNL A   1      42.817  29.487  35.360  1.00  0.00     0.029 A 
ATOM     34  C   UNL A   1      42.721  28.998  34.067  1.00  0.00     0.049 A 
ATOM     35  H   UNL A   1      41.232  29.358  32.615  1.00  0.00     0.167 HD
ATOM     36  C   UNL A   1      43.459  27.679  32.100  1.00  0.00     0.074 A 
ATOM     37  C   UNL A   1      44.380  26.795  31.414  1.00  0.00     0.031 C 
ATOM     38  C   UNL A   1      43.623  28.115  33.373  1.00  0.00     0.037 A 
BRANCH  25  39
ATOM     39  C   UNL A   1      39.183  31.938  35.325  1.00  0.00     0.064 A 
ATOM     40  C   UNL A   1      38.409  31.434  36.379  1.00  0.00     0.173 A 
ATOM     41  C   UNL A   1      39.496  33.305  35.334  1.00  0.00     0.173 A 
ATOM     42  F   UNL A   1      38.071  30.135  36.410  1.00  0.00    -0.203 F 
ATOM     43  C   UNL A   1      37.946  32.272  37.391  1.00  0.00     0.198 A 
ATOM     44  C   UNL A   1      39.053  34.136  36.360  1.00  0.00     0.198 A 
ATOM     45  F   UNL A   1      40.239  33.836  34.350  1.00  0.00    -0.203 F 
ATOM     46  F   UNL A   1      37.172  31.777  38.368  1.00  0.00    -0.200 F 
ATOM     47  C   UNL A   1      38.273  33.620  37.384  1.00  0.00     0.200 A 
ATOM     48  F   UNL A   1      39.376  35.436  36.356  1.00  0.00    -0.200 F 
ATOM     49  F   UNL A   1      37.829  34.424  38.360  1.00  0.00    -0.200 F 
ENDBRANCH  25  39
BRANCH  26  50
ATOM     50  C   UNL A   1      42.434  26.398  27.694  1.00  0.00     0.064 A 
ATOM     51  C   UNL A   1      41.914  25.110  27.500  1.00  0.00     0.173 A 
ATOM     52  C   UNL A   1      43.387  26.865  26.780  1.00  0.00     0.173 A 
ATOM     53  F   UNL A   1      41.014  24.616  28.362  1.00  0.00    -0.203 F 
ATOM     54  C   UNL A   1      42.338  24.319  26.436  1.00  0.00     0.198 A 
ATOM     55  C   UNL A   1      43.792  26.081  25.702  1.00  0.00     0.198 A 
ATOM     56  F   UNL A   1      43.909  28.092  26.921  1.00  0.00    -0.203 F 
ATOM     57  F   UNL A   1      41.848  23.080  26.289  1.00  0.00    -0.200 F 
ATOM     58  C   UNL A   1      43.270  24.807  25.533  1.00  0.00     0.200 A 
ATOM     59  F   UNL A   1      44.683  26.562  24.823  1.00  0.00    -0.200 F 
ATOM     60  F   UNL A   1      43.669  24.049  24.503  1.00  0.00    -0.200 F 
ENDBRANCH  26  50
BRANCH  38  61
ATOM     61  C   UNL A   1      44.827  27.619  34.113  1.00  0.00     0.064 A 
ATOM     62  C   UNL A   1      46.035  28.332  34.112  1.00  0.00     0.173 A 
ATOM     63  C   UNL A   1      44.766  26.427  34.850  1.00  0.00     0.173 A 
ATOM     64  F   UNL A   1      46.147  29.468  33.407  1.00  0.00    -0.203 F 
ATOM     65  C   UNL A   1      47.145  27.856  34.804  1.00  0.00     0.198 A 
ATOM     66  C   UNL A   1      45.870  25.967  35.560  1.00  0.00     0.198 A 
ATOM     67  F   UNL A   1      43.631  25.712  34.885  1.00  0.00    -0.203 F 
ATOM     68  F   UNL A   1      48.303  28.530  34.754  1.00  0.00    -0.200 F 
ATOM     69  C   UNL A   1      47.061  26.678  35.531  1.00  0.00     0.200 A 
ATOM     70  F   UNL A   1      45.786  24.832  36.268  1.00  0.00    -0.200 F 
ATOM     71  F   UNL A   1      48.131  26.222  36.196  1.00  0.00    -0.200 F 
ENDBRANCH  38  61
ENDBRANCH  12  13
ENDBRANCH   5   7
ENDBRANCH   2   3
ENDBRANCH   1   2
BRANCH   1  72
ATOM     72  C   UNL A   1      31.703  27.406  24.239  1.00  0.00     0.118 C 
BRANCH  72  73
ATOM     73  N   UNL A   1      32.511  27.960  23.165  1.00  0.00    -0.349 N 
ATOM     74  C   UNL A   1      33.491  27.365  22.401  1.00  0.00     0.292 C 
ATOM     75  H   UNL A   1      32.331  28.904  22.952  1.00  0.00     0.163 HD
ATOM     76  O   UNL A   1      34.224  28.118  21.747  1.00  0.00    -0.266 OA
BRANCH  74  77
ATOM     77  C   UNL A   1      33.628  25.902  22.372  1.00  0.00     0.260 A 
ATOM     78  N   UNL A   1      33.411  25.182  21.256  1.00  0.00    -0.051 NA
ATOM     79  N   UNL A   1      33.910  25.126  23.484  1.00  0.00    -0.182 NA
ATOM     80  O   UNL A   1      33.555  23.861  21.677  1.00  0.00    -0.333 OA
ATOM     81  C   UNL A   1      33.828  23.907  23.011  1.00  0.00     0.259 A 
BRANCH  81  82
ATOM     82  C   UNL A   1      33.957  22.635  23.701  1.00  0.00     0.052 A 
ATOM     83  C   UNL A   1      32.804  21.851  23.900  1.00  0.00     0.014 A 
ATOM     84  C   UNL A   1      35.204  22.150  24.148  1.00  0.00     0.068 A 
ATOM     85  C   UNL A   1      32.883  20.598  24.509  1.00  0.00     0.001 A 
ATOM     86  C   UNL A   1      35.263  20.876  24.750  1.00  0.00     0.014 A 
ATOM     87  C   UNL A   1      34.113  20.108  24.928  1.00  0.00     0.001 A 
BRANCH  84  88
ATOM     88  C   UNL A   1      36.496  22.924  23.995  1.00  0.00     0.417 C 
ATOM     89  F   UNL A   1      37.575  22.204  24.425  1.00  0.00    -0.166 F 
ATOM     90  F   UNL A   1      36.763  23.238  22.698  1.00  0.00    -0.166 F 
ATOM     91  F   UNL A   1      36.556  24.086  24.698  1.00  0.00    -0.166 F 
ENDBRANCH  84  88
ENDBRANCH  81  82
ENDBRANCH  74  77
ENDBRANCH  72  73
ENDBRANCH   1  72
TORSDOF 12
ENDMDL
MODEL 2
REMARK VINA RESULT:     -13.0      5.166     10.474
REMARK SMILES O=C(NCCCNC(=O)c1noc(-c2ccccc2C(F)(F)F)n1)c1ccc(-c2c3nc(c(-c4c(F)c(F)c(F)c(F)c4F)c4ccc([nH]4)c(-c4c(F)c(F)c(F)c(F)c4F)c4nc(c(-c5c(F)c(F)c(F)c(F)c5F)c5ccc2[nH]5)C=C4)C=C3)cc1
REMARK SMILES IDX 5 1 4 2 3 3 1 4 2 5 25 7 26 8 87 9 27 10 86 11 28 12 29 13
REMARK SMILES IDX 30 14 80 15 31 16 85 17 79 18 81 19 32 20 84 21 78 22 77 23
REMARK SMILES IDX 33 25 65 26 45 27 64 28 46 29 49 30 63 31 82 32 47 33 48 34
REMARK SMILES IDX 62 36 83 37 50 38 34 39 35 40 43 41 36 42 37 43 41 44 44 45
REMARK SMILES IDX 38 46 39 47 42 48 40 49 66 50 67 51 75 52 68 53 69 54 73 55
REMARK SMILES IDX 76 56 70 57 71 58 74 59 72 60 51 61 52 62 60 63 53 64 54 65
REMARK SMILES IDX 58 66 61 67 55 68 56 69 59 70 57 71 6 72 7 73 8 74 9 76
REMARK SMILES IDX 10 77 11 78 24 79 12 80 13 81 14 82 15 83 19 84 16 85 18 86
REMARK SMILES IDX 17 87 20 88 21 89 22 90 23 91
REMARK H PARENT 3 6 81 24 49 35 7 75
REMARK Flexibility Score: inf
ROOT
ATOM      1  C   UNL A   1      41.591  20.212  27.266  1.00  0.00     0.042 C 
ENDROOT
BRANCH   1   2
ATOM      2  C   UNL A   1      41.146  21.656  27.054  1.00  0.00     0.118 C 
BRANCH   2   3
ATOM      3  N   UNL A   1      39.804  21.753  26.491  1.00  0.00    -0.352 N 
ATOM      4  O   UNL A   1      37.755  22.603  26.119  1.00  0.00    -0.269 OA
ATOM      5  C   UNL A   1      38.909  22.793  26.498  1.00  0.00     0.251 C 
ATOM      6  H   UNL A   1      39.490  20.941  26.031  1.00  0.00     0.163 HD
BRANCH   5   7
ATOM      7  C   UNL A   1      39.308  24.135  26.976  1.00  0.00     0.039 A 
ATOM      8  C   UNL A   1      39.697  25.136  26.085  1.00  0.00     0.014 A 
ATOM      9  C   UNL A   1      39.253  24.407  28.347  1.00  0.00     0.014 A 
ATOM     10  C   UNL A   1      40.174  26.351  26.571  1.00  0.00     0.010 A 
ATOM     11  C   UNL A   1      39.654  25.657  28.830  1.00  0.00     0.010 A 
ATOM     12  C   UNL A   1      40.158  26.625  27.948  1.00  0.00    -0.014 A 
BRANCH  12  13
ATOM     13  C   UNL A   1      40.654  27.938  28.436  1.00  0.00     0.031 A 
ATOM     14  C   UNL A   1      42.125  28.243  28.474  1.00  0.00     0.074 A 
ATOM     15  C   UNL A   1      39.762  28.875  28.809  1.00  0.00     0.049 A 
ATOM     16  N   UNL A   1      42.730  29.353  28.818  1.00  0.00    -0.248 NA
ATOM     17  C   UNL A   1      43.041  27.160  28.087  1.00  0.00     0.031 C 
ATOM     18  C   UNL A   1      38.310  28.692  28.832  1.00  0.00     0.029 A 
ATOM     19  N   UNL A   1      39.941  30.173  29.214  1.00  0.00    -0.354 N 
ATOM     20  C   UNL A   1      44.090  29.095  28.714  1.00  0.00     0.074 A 
ATOM     21  C   UNL A   1      44.226  27.716  28.295  1.00  0.00     0.031 C 
ATOM     22  C   UNL A   1      37.727  29.851  29.174  1.00  0.00     0.029 A 
ATOM     23  C   UNL A   1      38.764  30.843  29.440  1.00  0.00     0.049 A 
ATOM     24  H   UNL A   1      40.828  30.584  29.332  1.00  0.00     0.167 HD
ATOM     25  C   UNL A   1      45.130  29.934  28.939  1.00  0.00     0.037 A 
ATOM     26  C   UNL A   1      38.544  32.116  29.816  1.00  0.00     0.037 A 
ATOM     27  C   UNL A   1      44.994  31.315  29.322  1.00  0.00     0.049 A 
ATOM     28  C   UNL A   1      39.714  33.028  30.045  1.00  0.00     0.074 A 
ATOM     29  C   UNL A   1      45.987  32.259  29.524  1.00  0.00     0.029 A 
ATOM     30  N   UNL A   1      43.784  31.953  29.560  1.00  0.00    -0.354 N 
ATOM     31  N   UNL A   1      40.993  32.782  29.904  1.00  0.00    -0.248 NA
ATOM     32  C   UNL A   1      39.407  34.395  30.487  1.00  0.00     0.031 C 
ATOM     33  C   UNL A   1      45.380  33.458  29.918  1.00  0.00     0.029 A 
ATOM     34  C   UNL A   1      44.007  33.271  29.924  1.00  0.00     0.049 A 
ATOM     35  H   UNL A   1      42.899  31.531  29.482  1.00  0.00     0.167 HD
ATOM     36  C   UNL A   1      41.644  33.965  30.220  1.00  0.00     0.074 A 
ATOM     37  C   UNL A   1      40.618  34.934  30.546  1.00  0.00     0.031 C 
ATOM     38  C   UNL A   1      42.974  34.224  30.238  1.00  0.00     0.037 A 
BRANCH  25  39
ATOM     39  C   UNL A   1      46.515  29.376  28.791  1.00  0.00     0.064 A 
ATOM     40  C   UNL A   1      47.163  29.331  27.549  1.00  0.00     0.173 A 
ATOM     41  C   UNL A   1      47.215  28.913  29.915  1.00  0.00     0.173 A 
ATOM     42  F   UNL A   1      46.532  29.750  26.441  1.00  0.00    -0.203 F 
ATOM     43  C   UNL A   1      48.453  28.818  27.433  1.00  0.00     0.198 A 
ATOM     44  C   UNL A   1      48.513  28.424  29.800  1.00  0.00     0.198 A 
ATOM     45  F   UNL A   1      46.641  28.940  31.128  1.00  0.00    -0.203 F 
ATOM     46  F   UNL A   1      49.038  28.745  26.229  1.00  0.00    -0.200 F 
ATOM     47  C   UNL A   1      49.129  28.370  28.559  1.00  0.00     0.200 A 
ATOM     48  F   UNL A   1      49.168  27.999  30.889  1.00  0.00    -0.200 F 
ATOM     49  F   UNL A   1      50.371  27.880  28.446  1.00  0.00    -0.200 F 
ENDBRANCH  25  39
BRANCH  26  50
ATOM     50  C   UNL A   1      37.151  32.604  29.964  1.00  0.00     0.064 A 
ATOM     51  C   UNL A   1      36.457  32.437  31.171  1.00  0.00     0.173 A 
ATOM     52  C   UNL A   1      36.496  33.268  28.918  1.00  0.00     0.173 A 
ATOM     53  F   UNL A   1      37.038  31.792  32.193  1.00  0.00    -0.203 F 
ATOM     54  C   UNL A   1      35.157  32.910  31.322  1.00  0.00     0.198 A 
ATOM     55  C   UNL A   1      35.204  33.762  29.078  1.00  0.00     0.198 A 
ATOM     56  F   UNL A   1      37.121  33.456  27.746  1.00  0.00    -0.203 F 
ATOM     57  F   UNL A   1      34.504  32.713  32.475  1.00  0.00    -0.200 F 
ATOM     58  C   UNL A   1      34.533  33.579  30.279  1.00  0.00     0.200 A 
ATOM     59  F   UNL A   1      34.610  34.420  28.073  1.00  0.00    -0.200 F 
ATOM     60  F   UNL A   1      33.285  34.044  30.429  1.00  0.00    -0.200 F 
ENDBRANCH  26  50
BRANCH  38  61
ATOM     61  C   UNL A   1      43.391  35.619  30.595  1.00  0.00     0.064 A 
ATOM     62  C   UNL A   1      43.678  35.984  31.918  1.00  0.00     0.173 A 
ATOM     63  C   UNL A   1      43.526  36.596  29.597  1.00  0.00     0.173 A 
ATOM     64  F   UNL A   1      43.546  35.088  32.908  1.00  0.00    -0.203 F 
ATOM     65  C   UNL A   1      44.063  37.284  32.233  1.00  0.00     0.198 A 
ATOM     66  C   UNL A   1      43.934  37.888  29.912  1.00  0.00     0.198 A 
ATOM     67  F   UNL A   1      43.267  36.293  28.316  1.00  0.00    -0.203 F 
ATOM     68  F   UNL A   1      44.289  37.623  33.510  1.00  0.00    -0.200 F 
ATOM     69  C   UNL A   1      44.195  38.232  31.230  1.00  0.00     0.200 A 
ATOM     70  F   UNL A   1      44.069  38.803  28.942  1.00  0.00    -0.200 F 
ATOM     71  F   UNL A   1      44.566  39.484  31.536  1.00  0.00    -0.200 F 
ENDBRANCH  38  61
ENDBRANCH  12  13
ENDBRANCH   5   7
ENDBRANCH   2   3
ENDBRANCH   1   2
BRANCH   1  72
ATOM     72  C   UNL A   1      41.842  19.446  25.970  1.00  0.00     0.118 C 
BRANCH  72  73
ATOM     73  N   UNL A   1      43.100  18.718  26.021  1.00  0.00    -0.349 N 
ATOM     74  C   UNL A   1      44.306  18.999  25.419  1.00  0.00     0.292 C 
ATOM     75  H   UNL A   1      43.086  17.901  26.569  1.00  0.00     0.163 HD
ATOM     76  O   UNL A   1      45.140  18.084  25.386  1.00  0.00    -0.266 OA
BRANCH  74  77
ATOM     77  C   UNL A   1      44.570  20.333  24.863  1.00  0.00     0.260 A 
ATOM     78  N   UNL A   1      44.524  20.582  23.540  1.00  0.00    -0.051 NA
ATOM     79  N   UNL A   1      44.961  21.426  25.617  1.00  0.00    -0.182 NA
ATOM     80  O   UNL A   1      44.917  21.916  23.438  1.00  0.00    -0.333 OA
ATOM     81  C   UNL A   1      45.180  22.341  24.705  1.00  0.00     0.259 A 
BRANCH  81  82
ATOM     82  C   UNL A   1      45.678  23.698  24.855  1.00  0.00     0.052 A 
ATOM     83  C   UNL A   1      47.056  23.937  24.695  1.00  0.00     0.014 A 
ATOM     84  C   UNL A   1      44.819  24.784  25.123  1.00  0.00     0.068 A 
ATOM     85  C   UNL A   1      47.576  25.229  24.775  1.00  0.00     0.001 A 
ATOM     86  C   UNL A   1      45.362  26.083  25.188  1.00  0.00     0.014 A 
ATOM     87  C   UNL A   1      46.728  26.303  25.016  1.00  0.00     0.001 A 
BRANCH  84  88
ATOM     88  C   UNL A   1      43.326  24.627  25.327  1.00  0.00     0.417 C 
ATOM     89  F   UNL A   1      43.017  24.364  26.632  1.00  0.00    -0.166 F 
ATOM     90  F   UNL A   1      42.638  25.758  25.012  1.00  0.00    -0.166 F 
ATOM     91  F   UNL A   1      42.753  23.613  24.627  1.00  0.00    -0.166 F 
ENDBRANCH  84  88
ENDBRANCH  81  82
ENDBRANCH  74  77
ENDBRANCH  72  73
ENDBRANCH   1  72
TORSDOF 12
ENDMDL
MODEL 3
REMARK VINA RESULT:     -13.0      0.209      1.624
REMARK SMILES O=C(NCCCNC(=O)c1noc(-c2ccccc2C(F)(F)F)n1)c1ccc(-c2c3nc(c(-c4c(F)c(F)c(F)c(F)c4F)c4ccc([nH]4)c(-c4c(F)c(F)c(F)c(F)c4F)c4nc(c(-c5c(F)c(F)c(F)c(F)c5F)c5ccc2[nH]5)C=C4)C=C3)cc1
REMARK SMILES IDX 5 1 4 2 3 3 1 4 2 5 25 7 26 8 87 9 27 10 86 11 28 12 29 13
REMARK SMILES IDX 30 14 80 15 31 16 85 17 79 18 81 19 32 20 84 21 78 22 77 23
REMARK SMILES IDX 33 25 65 26 45 27 64 28 46 29 49 30 63 31 82 32 47 33 48 34
REMARK SMILES IDX 62 36 83 37 50 38 34 39 35 40 43 41 36 42 37 43 41 44 44 45
REMARK SMILES IDX 38 46 39 47 42 48 40 49 66 50 67 51 75 52 68 53 69 54 73 55
REMARK SMILES IDX 76 56 70 57 71 58 74 59 72 60 51 61 52 62 60 63 53 64 54 65
REMARK SMILES IDX 58 66 61 67 55 68 56 69 59 70 57 71 6 72 7 73 8 74 9 76
REMARK SMILES IDX 10 77 11 78 24 79 12 80 13 81 14 82 15 83 19 84 16 85 18 86
REMARK SMILES IDX 17 87 20 88 21 89 22 90 23 91
REMARK H PARENT 3 6 81 24 49 35 7 75
REMARK Flexibility Score: inf
ROOT
ATOM      1  C   UNL A   1      31.990  28.207  25.320  1.00  0.00     0.042 C 
ENDROOT
BRANCH   1   2
ATOM      2  C   UNL A   1      33.110  29.244  25.329  1.00  0.00     0.118 C 
BRANCH   2   3
ATOM      3  N   UNL A   1      32.677  30.534  25.851  1.00  0.00    -0.352 N 
ATOM      4  O   UNL A   1      32.540  32.267  27.279  1.00  0.00    -0.269 OA
ATOM      5  C   UNL A   1      33.169  31.286  26.888  1.00  0.00     0.251 C 
ATOM      6  H   UNL A   1      31.906  30.931  25.384  1.00  0.00     0.163 HD
BRANCH   5   7
ATOM      7  C   UNL A   1      34.437  30.918  27.557  1.00  0.00     0.039 A 
ATOM      8  C   UNL A   1      34.672  29.616  28.001  1.00  0.00     0.014 A 
ATOM      9  C   UNL A   1      35.429  31.893  27.706  1.00  0.00     0.014 A 
ATOM     10  C   UNL A   1      35.825  29.328  28.726  1.00  0.00     0.010 A 
ATOM     11  C   UNL A   1      36.624  31.582  28.362  1.00  0.00     0.010 A 
ATOM     12  C   UNL A   1      36.813  30.306  28.915  1.00  0.00    -0.014 A 
BRANCH  12  13
ATOM     13  C   UNL A   1      38.043  29.963  29.674  1.00  0.00     0.031 A 
ATOM     14  C   UNL A   1      38.241  30.446  31.084  1.00  0.00     0.074 A 
ATOM     15  C   UNL A   1      38.969  29.175  29.097  1.00  0.00     0.049 A 
ATOM     16  N   UNL A   1      39.226  30.197  31.912  1.00  0.00    -0.248 NA
ATOM     17  C   UNL A   1      37.206  31.332  31.637  1.00  0.00     0.031 C 
ATOM     18  C   UNL A   1      38.899  28.657  27.729  1.00  0.00     0.029 A 
ATOM     19  N   UNL A   1      40.136  28.650  29.592  1.00  0.00    -0.354 N 
ATOM     20  C   UNL A   1      38.943  30.914  33.067  1.00  0.00     0.074 A 
ATOM     21  C   UNL A   1      37.705  31.625  32.830  1.00  0.00     0.031 C 
ATOM     22  C   UNL A   1      39.943  27.844  27.513  1.00  0.00     0.029 A 
ATOM     23  C   UNL A   1      40.781  27.820  28.709  1.00  0.00     0.049 A 
ATOM     24  H   UNL A   1      40.478  28.849  30.493  1.00  0.00     0.167 HD
ATOM     25  C   UNL A   1      39.648  30.965  34.224  1.00  0.00     0.037 A 
ATOM     26  C   UNL A   1      41.918  27.114  28.846  1.00  0.00     0.037 A 
ATOM     27  C   UNL A   1      40.861  30.231  34.472  1.00  0.00     0.049 A 
ATOM     28  C   UNL A   1      42.671  27.180  30.143  1.00  0.00     0.074 A 
ATOM     29  C   UNL A   1      41.619  30.180  35.629  1.00  0.00     0.029 A 
ATOM     30  N   UNL A   1      41.493  29.415  33.545  1.00  0.00    -0.354 N 
ATOM     31  N   UNL A   1      42.371  27.828  31.241  1.00  0.00    -0.248 NA
ATOM     32  C   UNL A   1      43.922  26.413  30.218  1.00  0.00     0.031 C 
ATOM     33  C   UNL A   1      42.729  29.361  35.392  1.00  0.00     0.029 A 
ATOM     34  C   UNL A   1      42.641  28.871  34.099  1.00  0.00     0.049 A 
ATOM     35  H   UNL A   1      41.173  29.248  32.630  1.00  0.00     0.167 HD
ATOM     36  C   UNL A   1      43.382  27.537  32.144  1.00  0.00     0.074 A 
ATOM     37  C   UNL A   1      44.298  26.638  31.470  1.00  0.00     0.031 C 
ATOM     38  C   UNL A   1      43.538  27.974  33.417  1.00  0.00     0.037 A 
BRANCH  25  39
ATOM     39  C   UNL A   1      39.131  31.863  35.310  1.00  0.00     0.064 A 
ATOM     40  C   UNL A   1      38.340  31.372  36.358  1.00  0.00     0.173 A 
ATOM     41  C   UNL A   1      39.461  33.227  35.318  1.00  0.00     0.173 A 
ATOM     42  F   UNL A   1      37.986  30.078  36.390  1.00  0.00    -0.203 F 
ATOM     43  C   UNL A   1      37.878  32.219  37.363  1.00  0.00     0.198 A 
ATOM     44  C   UNL A   1      39.018  34.066  36.337  1.00  0.00     0.198 A 
ATOM     45  F   UNL A   1      40.220  33.744  34.340  1.00  0.00    -0.203 F 
ATOM     46  F   UNL A   1      37.088  31.737  38.333  1.00  0.00    -0.200 F 
ATOM     47  C   UNL A   1      38.222  33.564  37.354  1.00  0.00     0.200 A 
ATOM     48  F   UNL A   1      39.357  35.362  36.332  1.00  0.00    -0.200 F 
ATOM     49  F   UNL A   1      37.778  34.376  38.324  1.00  0.00    -0.200 F 
ENDBRANCH  25  39
BRANCH  26  50
ATOM     50  C   UNL A   1      42.389  26.259  27.729  1.00  0.00     0.064 A 
ATOM     51  C   UNL A   1      43.367  26.719  26.837  1.00  0.00     0.173 A 
ATOM     52  C   UNL A   1      41.892  24.962  27.545  1.00  0.00     0.173 A 
ATOM     53  F   UNL A   1      43.857  27.961  26.964  1.00  0.00    -0.203 F 
ATOM     54  C   UNL A   1      43.826  25.914  25.799  1.00  0.00     0.198 A 
ATOM     55  C   UNL A   1      42.369  24.149  26.520  1.00  0.00     0.198 A 
ATOM     56  F   UNL A   1      40.958  24.476  28.376  1.00  0.00    -0.203 F 
ATOM     57  F   UNL A   1      44.741  26.387  24.941  1.00  0.00    -0.200 F 
ATOM     58  C   UNL A   1      43.333  24.627  25.644  1.00  0.00     0.200 A 
ATOM     59  F   UNL A   1      41.901  22.900  26.384  1.00  0.00    -0.200 F 
ATOM     60  F   UNL A   1      43.784  23.849  24.651  1.00  0.00    -0.200 F 
ENDBRANCH  26  50
BRANCH  38  61
ATOM     61  C   UNL A   1      44.727  27.462  34.172  1.00  0.00     0.064 A 
ATOM     62  C   UNL A   1      44.674  26.263  34.898  1.00  0.00     0.173 A 
ATOM     63  C   UNL A   1      45.939  28.167  34.150  1.00  0.00     0.173 A 
ATOM     64  F   UNL A   1      43.531  25.563  34.963  1.00  0.00    -0.203 F 
ATOM     65  C   UNL A   1      45.787  25.802  35.595  1.00  0.00     0.198 A 
ATOM     66  C   UNL A   1      47.057  27.690  34.828  1.00  0.00     0.198 A 
ATOM     67  F   UNL A   1      46.040  29.316  33.465  1.00  0.00    -0.203 F 
ATOM     68  F   UNL A   1      45.703  24.677  36.320  1.00  0.00    -0.200 F 
ATOM     69  C   UNL A   1      46.977  26.512  35.556  1.00  0.00     0.200 A 
ATOM     70  F   UNL A   1      48.209  28.373  34.783  1.00  0.00    -0.200 F 
ATOM     71  F   UNL A   1      48.048  26.065  36.227  1.00  0.00    -0.200 F 
ENDBRANCH  38  61
ENDBRANCH  12  13
ENDBRANCH   5   7
ENDBRANCH   2   3
ENDBRANCH   1   2
BRANCH   1  72
ATOM     72  C   UNL A   1      31.602  27.730  23.924  1.00  0.00     0.118 C 
BRANCH  72  73
ATOM     73  N   UNL A   1      32.553  28.189  22.924  1.00  0.00    -0.349 N 
ATOM     74  C   UNL A   1      33.550  27.498  22.272  1.00  0.00     0.292 C 
ATOM     75  H   UNL A   1      32.470  29.138  22.676  1.00  0.00     0.163 HD
ATOM     76  O   UNL A   1      34.401  28.173  21.678  1.00  0.00    -0.266 OA
BRANCH  74  77
ATOM     77  C   UNL A   1      33.570  26.029  22.286  1.00  0.00     0.260 A 
ATOM     78  N   UNL A   1      33.278  25.295  21.195  1.00  0.00    -0.051 NA
ATOM     79  N   UNL A   1      33.808  25.265  23.416  1.00  0.00    -0.182 NA
ATOM     80  O   UNL A   1      33.325  23.980  21.654  1.00  0.00    -0.333 OA
ATOM     81  C   UNL A   1      33.623  24.043  22.982  1.00  0.00     0.259 A 
BRANCH  81  82
ATOM     82  C   UNL A   1      33.662  22.786  23.709  1.00  0.00     0.052 A 
ATOM     83  C   UNL A   1      32.449  22.136  24.007  1.00  0.00     0.014 A 
ATOM     84  C   UNL A   1      34.878  22.183  24.095  1.00  0.00     0.068 A 
ATOM     85  C   UNL A   1      32.435  20.901  24.655  1.00  0.00     0.001 A 
ATOM     86  C   UNL A   1      34.842  20.929  24.738  1.00  0.00     0.014 A 
ATOM     87  C   UNL A   1      33.632  20.294  25.015  1.00  0.00     0.001 A 
BRANCH  84  88
ATOM     88  C   UNL A   1      36.231  22.810  23.835  1.00  0.00     0.417 C 
ATOM     89  F   UNL A   1      37.254  22.001  24.244  1.00  0.00    -0.166 F 
ATOM     90  F   UNL A   1      36.453  23.034  22.511  1.00  0.00    -0.166 F 
ATOM     91  F   UNL A   1      36.451  23.990  24.473  1.00  0.00    -0.166 F 
ENDBRANCH  84  88
ENDBRANCH  81  82
ENDBRANCH  74  77
ENDBRANCH  72  73
ENDBRANCH   1  72
TORSDOF 12
ENDMDL
