MODEL 1
REMARK VINA RESULT:     -10.1      0.000      0.000
REMARK SMILES CC(C)[C@@H](CO)Nc1ccc(C(=O)NCCCNC(=O)c2ccc(-c3c4nc(c(-c5c(F)c(F)c(F)c(F)c5F)c5ccc([nH]5)c(-c5c(F)c(F)c(F)c(F)c5F)c5nc(c(-c6c(F)c(F)c(F)c(F)c6F)c6ccc3[nH]6)C=C5)C=C4)cc2)nn1
REMARK SMILES IDX 15 1 14 2 12 3 13 4 11 6 8 7 9 8 85 9 10 10 84 11 7 12 4 14
REMARK SMILES IDX 2 15 1 16 3 17 5 18 6 19 16 21 17 22 18 23 19 24 20 26 21 27
REMARK SMILES IDX 22 28 83 29 23 30 82 31 24 32 25 33 26 34 76 35 27 36 81 37
REMARK SMILES IDX 75 38 77 39 28 40 80 41 74 42 73 43 29 45 61 46 41 47 60 48
REMARK SMILES IDX 42 49 45 50 59 51 78 52 43 53 44 54 58 56 79 57 46 58 30 59
REMARK SMILES IDX 31 60 39 61 32 62 33 63 37 64 40 65 34 66 35 67 38 68 36 69
REMARK SMILES IDX 62 70 63 71 71 72 64 73 65 74 69 75 72 76 66 77 67 78 70 79
REMARK SMILES IDX 68 80 47 81 48 82 56 83 49 84 50 85 54 86 57 87 51 88 52 89
REMARK SMILES IDX 55 90 53 91
REMARK H PARENT 14 5 7 13 6 20 18 25 77 44 45 55
REMARK Flexibility Score: inf
ROOT
ATOM      1  C   UNL A   1      42.564  19.922  26.706  1.00  0.00     0.118 C 
ENDROOT
BRANCH   1   2
ATOM      2  N   UNL A   1      43.283  19.578  25.494  1.00  0.00    -0.351 N 
ATOM      3  C   UNL A   1      44.087  20.308  24.646  1.00  0.00     0.271 C 
ATOM      4  O   UNL A   1      44.586  19.691  23.703  1.00  0.00    -0.267 OA
ATOM      5  H   UNL A   1      43.175  18.638  25.223  1.00  0.00     0.163 HD
BRANCH   3   6
ATOM      6  C   UNL A   1      44.397  21.759  24.837  1.00  0.00     0.150 A 
ATOM      7  C   UNL A   1      44.730  24.488  24.995  1.00  0.00     0.148 A 
ATOM      8  C   UNL A   1      45.762  23.649  25.376  1.00  0.00     0.051 A 
ATOM      9  N   UNL A   1      43.555  23.963  24.609  1.00  0.00    -0.132 NA
ATOM     10  C   UNL A   1      45.586  22.265  25.328  1.00  0.00     0.040 A 
ATOM     11  N   UNL A   1      43.389  22.595  24.505  1.00  0.00    -0.143 NA
BRANCH   7  12
ATOM     12  N   UNL A   1      44.861  25.863  24.975  1.00  0.00    -0.363 N 
ATOM     13  H   UNL A   1      45.235  26.314  24.183  1.00  0.00     0.162 HD
BRANCH  12  14
ATOM     14  C   UNL A   1      44.437  26.648  26.140  1.00  0.00     0.108 C 
BRANCH  14  15
ATOM     15  C   UNL A   1      45.663  27.427  26.703  1.00  0.00     0.007 C 
ATOM     16  C   UNL A   1      45.245  28.717  27.417  1.00  0.00     0.009 C 
ATOM     17  C   UNL A   1      46.478  26.570  27.685  1.00  0.00     0.009 C 
ENDBRANCH  14  15
BRANCH  14  18
ATOM     18  C   UNL A   1      43.250  27.555  25.728  1.00  0.00     0.181 C 
BRANCH  18  19
ATOM     19  O   UNL A   1      43.050  27.631  24.318  1.00  0.00    -0.394 OA
ATOM     20  H   UNL A   1      42.262  27.122  24.075  1.00  0.00     0.210 HD
ENDBRANCH  18  19
ENDBRANCH  14  18
ENDBRANCH  12  14
ENDBRANCH   7  12
ENDBRANCH   3   6
ENDBRANCH   1   2
BRANCH   1  21
ATOM     21  C   UNL A   1      41.095  20.221  26.407  1.00  0.00     0.042 C 
BRANCH  21  22
ATOM     22  C   UNL A   1      40.711  21.678  26.658  1.00  0.00     0.118 C 
BRANCH  22  23
ATOM     23  N   UNL A   1      39.527  22.066  25.903  1.00  0.00    -0.352 N 
ATOM     24  C   UNL A   1      38.748  23.192  25.991  1.00  0.00     0.251 C 
ATOM     25  H   UNL A   1      39.240  21.415  25.222  1.00  0.00     0.163 HD
ATOM     26  O   UNL A   1      37.661  23.217  25.422  1.00  0.00    -0.269 OA
BRANCH  24  27
ATOM     27  C   UNL A   1      39.197  24.371  26.764  1.00  0.00     0.039 A 
ATOM     28  C   UNL A   1      38.770  24.505  28.089  1.00  0.00     0.014 A 
ATOM     29  C   UNL A   1      39.974  25.374  26.178  1.00  0.00     0.014 A 
ATOM     30  C   UNL A   1      39.160  25.617  28.840  1.00  0.00     0.010 A 
ATOM     31  C   UNL A   1      40.419  26.448  26.946  1.00  0.00     0.010 A 
ATOM     32  C   UNL A   1      40.009  26.586  28.281  1.00  0.00    -0.014 A 
BRANCH  32  33
ATOM     33  C   UNL A   1      40.474  27.750  29.075  1.00  0.00     0.031 A 
ATOM     34  C   UNL A   1      41.843  27.748  29.695  1.00  0.00     0.074 A 
ATOM     35  C   UNL A   1      39.631  28.775  29.304  1.00  0.00     0.049 A 
ATOM     36  N   UNL A   1      42.396  28.631  30.487  1.00  0.00    -0.248 NA
ATOM     37  C   UNL A   1      42.691  26.581  29.411  1.00  0.00     0.031 C 
ATOM     38  C   UNL A   1      38.258  28.863  28.809  1.00  0.00     0.029 A 
ATOM     39  N   UNL A   1      39.799  29.925  30.033  1.00  0.00    -0.354 N 
ATOM     40  C   UNL A   1      43.643  28.117  30.816  1.00  0.00     0.074 A 
ATOM     41  C   UNL A   1      43.747  26.823  30.174  1.00  0.00     0.031 C 
ATOM     42  C   UNL A   1      37.708  30.007  29.244  1.00  0.00     0.029 A 
ATOM     43  C   UNL A   1      38.679  30.717  30.073  1.00  0.00     0.049 A 
ATOM     44  H   UNL A   1      40.642  30.160  30.483  1.00  0.00     0.167 HD
ATOM     45  C   UNL A   1      44.619  28.679  31.568  1.00  0.00     0.037 A 
ATOM     46  C   UNL A   1      38.453  31.877  30.716  1.00  0.00     0.037 A 
ATOM     47  C   UNL A   1      44.520  29.979  32.179  1.00  0.00     0.049 A 
ATOM     48  C   UNL A   1      39.560  32.501  31.519  1.00  0.00     0.074 A 
ATOM     49  C   UNL A   1      45.484  30.677  32.887  1.00  0.00     0.029 A 
ATOM     50  N   UNL A   1      43.384  30.775  32.160  1.00  0.00    -0.354 N 
ATOM     51  N   UNL A   1      40.766  32.046  31.753  1.00  0.00    -0.248 NA
ATOM     52  C   UNL A   1      39.278  33.803  32.136  1.00  0.00     0.031 C 
ATOM     53  C   UNL A   1      44.914  31.876  33.335  1.00  0.00     0.029 A 
ATOM     54  C   UNL A   1      43.612  31.947  32.865  1.00  0.00     0.049 A 
ATOM     55  H   UNL A   1      42.539  30.543  31.711  1.00  0.00     0.167 HD
ATOM     56  C   UNL A   1      41.394  33.009  32.530  1.00  0.00     0.074 A 
ATOM     57  C   UNL A   1      40.439  34.084  32.713  1.00  0.00     0.031 C 
ATOM     58  C   UNL A   1      42.649  33.003  33.045  1.00  0.00     0.037 A 
BRANCH  45  59
ATOM     59  C   UNL A   1      45.876  27.883  31.775  1.00  0.00     0.064 A 
ATOM     60  C   UNL A   1      47.021  28.095  30.991  1.00  0.00     0.173 A 
ATOM     61  C   UNL A   1      45.938  26.900  32.773  1.00  0.00     0.173 A 
ATOM     62  F   UNL A   1      47.012  29.017  30.016  1.00  0.00    -0.203 F 
ATOM     63  C   UNL A   1      48.166  27.322  31.171  1.00  0.00     0.198 A 
ATOM     64  C   UNL A   1      47.096  26.150  32.971  1.00  0.00     0.198 A 
ATOM     65  F   UNL A   1      44.876  26.661  33.556  1.00  0.00    -0.203 F 
ATOM     66  F   UNL A   1      49.225  27.499  30.369  1.00  0.00    -0.200 F 
ATOM     67  C   UNL A   1      48.204  26.354  32.162  1.00  0.00     0.200 A 
ATOM     68  F   UNL A   1      47.137  25.223  33.938  1.00  0.00    -0.200 F 
ATOM     69  F   UNL A   1      49.306  25.609  32.332  1.00  0.00    -0.200 F 
ENDBRANCH  45  59
BRANCH  46  70
ATOM     70  C   UNL A   1      37.123  32.528  30.598  1.00  0.00     0.064 A 
ATOM     71  C   UNL A   1      36.135  32.330  31.571  1.00  0.00     0.173 A 
ATOM     72  C   UNL A   1      36.832  33.395  29.535  1.00  0.00     0.173 A 
ATOM     73  F   UNL A   1      36.363  31.497  32.597  1.00  0.00    -0.203 F 
ATOM     74  C   UNL A   1      34.901  32.970  31.482  1.00  0.00     0.198 A 
ATOM     75  C   UNL A   1      35.606  34.053  29.460  1.00  0.00     0.198 A 
ATOM     76  F   UNL A   1      37.749  33.624  28.585  1.00  0.00    -0.203 F 
ATOM     77  F   UNL A   1      33.964  32.744  32.412  1.00  0.00    -0.200 F 
ATOM     78  C   UNL A   1      34.640  33.837  30.432  1.00  0.00     0.200 A 
ATOM     79  F   UNL A   1      35.366  34.904  28.454  1.00  0.00    -0.200 F 
ATOM     80  F   UNL A   1      33.460  34.466  30.356  1.00  0.00    -0.200 F 
ENDBRANCH  46  70
BRANCH  58  81
ATOM     81  C   UNL A   1      43.067  34.203  33.844  1.00  0.00     0.064 A 
ATOM     82  C   UNL A   1      43.609  35.341  33.230  1.00  0.00     0.173 A 
ATOM     83  C   UNL A   1      42.885  34.229  35.235  1.00  0.00     0.173 A 
ATOM     84  F   UNL A   1      43.818  35.357  31.904  1.00  0.00    -0.203 F 
ATOM     85  C   UNL A   1      43.975  36.454  33.982  1.00  0.00     0.198 A 
ATOM     86  C   UNL A   1      43.226  35.354  35.980  1.00  0.00     0.198 A 
ATOM     87  F   UNL A   1      42.366  33.167  35.869  1.00  0.00    -0.203 F 
ATOM     88  F   UNL A   1      44.531  37.515  33.379  1.00  0.00    -0.200 F 
ATOM     89  C   UNL A   1      43.776  36.463  35.354  1.00  0.00     0.200 A 
ATOM     90  F   UNL A   1      43.023  35.366  37.305  1.00  0.00    -0.200 F 
ATOM     91  F   UNL A   1      44.121  37.538  36.076  1.00  0.00    -0.200 F 
ENDBRANCH  58  81
ENDBRANCH  32  33
ENDBRANCH  24  27
ENDBRANCH  22  23
ENDBRANCH  21  22
ENDBRANCH   1  21
TORSDOF 15
ENDMDL
MODEL 2
REMARK VINA RESULT:     -10.0      4.986      9.734
REMARK SMILES CC(C)[C@@H](CO)Nc1ccc(C(=O)NCCCNC(=O)c2ccc(-c3c4nc(c(-c5c(F)c(F)c(F)c(F)c5F)c5ccc([nH]5)c(-c5c(F)c(F)c(F)c(F)c5F)c5nc(c(-c6c(F)c(F)c(F)c(F)c6F)c6ccc3[nH]6)C=C5)C=C4)cc2)nn1
REMARK SMILES IDX 15 1 14 2 12 3 13 4 11 6 8 7 9 8 85 9 10 10 84 11 7 12 4 14
REMARK SMILES IDX 2 15 1 16 3 17 5 18 6 19 16 21 17 22 18 23 19 24 20 26 21 27
REMARK SMILES IDX 22 28 83 29 23 30 82 31 24 32 25 33 26 34 76 35 27 36 81 37
REMARK SMILES IDX 75 38 77 39 28 40 80 41 74 42 73 43 29 45 61 46 41 47 60 48
REMARK SMILES IDX 42 49 45 50 59 51 78 52 43 53 44 54 58 56 79 57 46 58 30 59
REMARK SMILES IDX 31 60 39 61 32 62 33 63 37 64 40 65 34 66 35 67 38 68 36 69
REMARK SMILES IDX 62 70 63 71 71 72 64 73 65 74 69 75 72 76 66 77 67 78 70 79
REMARK SMILES IDX 68 80 47 81 48 82 56 83 49 84 50 85 54 86 57 87 51 88 52 89
REMARK SMILES IDX 55 90 53 91
REMARK H PARENT 14 5 7 13 6 20 18 25 77 44 45 55
REMARK Flexibility Score: inf
ROOT
ATOM      1  C   UNL A   1      31.384  30.944  26.324  1.00  0.00     0.118 C 
ENDROOT
BRANCH   1   2
ATOM      2  N   UNL A   1      32.563  30.351  26.925  1.00  0.00    -0.351 N 
ATOM      3  C   UNL A   1      33.036  29.058  26.975  1.00  0.00     0.271 C 
ATOM      4  O   UNL A   1      34.114  28.895  27.549  1.00  0.00    -0.267 OA
ATOM      5  H   UNL A   1      33.140  31.000  27.389  1.00  0.00     0.163 HD
BRANCH   3   6
ATOM      6  C   UNL A   1      32.335  27.892  26.355  1.00  0.00     0.150 A 
ATOM      7  C   UNL A   1      30.975  25.654  25.500  1.00  0.00     0.148 A 
ATOM      8  C   UNL A   1      31.859  26.287  24.644  1.00  0.00     0.051 A 
ATOM      9  N   UNL A   1      30.744  26.172  26.718  1.00  0.00    -0.132 NA
ATOM     10  C   UNL A   1      32.526  27.440  25.062  1.00  0.00     0.040 A 
ATOM     11  N   UNL A   1      31.441  27.281  27.161  1.00  0.00    -0.143 NA
BRANCH   7  12
ATOM     12  N   UNL A   1      30.323  24.485  25.162  1.00  0.00    -0.363 N 
ATOM     13  H   UNL A   1      29.485  24.516  24.645  1.00  0.00     0.162 HD
BRANCH  12  14
ATOM     14  C   UNL A   1      30.887  23.195  25.576  1.00  0.00     0.108 C 
BRANCH  14  15
ATOM     15  C   UNL A   1      32.441  23.307  25.614  1.00  0.00     0.007 C 
ATOM     16  C   UNL A   1      33.025  22.757  26.920  1.00  0.00     0.009 C 
ATOM     17  C   UNL A   1      33.092  22.560  24.439  1.00  0.00     0.009 C 
ENDBRANCH  14  15
BRANCH  14  18
ATOM     18  C   UNL A   1      30.253  22.782  26.928  1.00  0.00     0.181 C 
BRANCH  18  19
ATOM     19  O   UNL A   1      29.189  23.634  27.345  1.00  0.00    -0.394 OA
ATOM     20  H   UNL A   1      29.554  24.463  27.690  1.00  0.00     0.210 HD
ENDBRANCH  18  19
ENDBRANCH  14  18
ENDBRANCH  12  14
ENDBRANCH   7  12
ENDBRANCH   3   6
ENDBRANCH   1   2
BRANCH   1  21
ATOM     21  C   UNL A   1      31.346  32.454  26.561  1.00  0.00     0.042 C 
BRANCH  21  22
ATOM     22  C   UNL A   1      32.625  32.999  27.193  1.00  0.00     0.118 C 
BRANCH  22  23
ATOM     23  N   UNL A   1      32.440  34.344  27.719  1.00  0.00    -0.352 N 
ATOM     24  C   UNL A   1      33.018  34.961  28.800  1.00  0.00     0.251 C 
ATOM     25  H   UNL A   1      31.798  34.899  27.220  1.00  0.00     0.163 HD
ATOM     26  O   UNL A   1      32.551  36.020  29.208  1.00  0.00    -0.269 OA
BRANCH  24  27
ATOM     27  C   UNL A   1      34.189  34.367  29.482  1.00  0.00     0.039 A 
ATOM     28  C   UNL A   1      33.983  33.650  30.664  1.00  0.00     0.014 A 
ATOM     29  C   UNL A   1      35.488  34.566  29.006  1.00  0.00     0.014 A 
ATOM     30  C   UNL A   1      35.069  33.092  31.342  1.00  0.00     0.010 A 
ATOM     31  C   UNL A   1      36.565  33.954  29.644  1.00  0.00     0.010 A 
ATOM     32  C   UNL A   1      36.368  33.219  30.823  1.00  0.00    -0.014 A 
BRANCH  32  33
ATOM     33  C   UNL A   1      37.531  32.596  31.502  1.00  0.00     0.031 A 
ATOM     34  C   UNL A   1      38.237  31.426  30.877  1.00  0.00     0.074 A 
ATOM     35  C   UNL A   1      37.900  33.034  32.720  1.00  0.00     0.049 A 
ATOM     36  N   UNL A   1      39.215  30.697  31.352  1.00  0.00    -0.248 NA
ATOM     37  C   UNL A   1      37.757  30.999  29.554  1.00  0.00     0.031 C 
ATOM     38  C   UNL A   1      37.255  34.120  33.457  1.00  0.00     0.029 A 
ATOM     39  N   UNL A   1      38.893  32.601  33.563  1.00  0.00    -0.354 N 
ATOM     40  C   UNL A   1      39.450  29.713  30.401  1.00  0.00     0.074 A 
ATOM     41  C   UNL A   1      38.482  29.910  29.343  1.00  0.00     0.031 C 
ATOM     42  C   UNL A   1      37.868  34.273  34.640  1.00  0.00     0.029 A 
ATOM     43  C   UNL A   1      38.930  33.276  34.758  1.00  0.00     0.049 A 
ATOM     44  H   UNL A   1      39.519  31.878  33.333  1.00  0.00     0.167 HD
ATOM     45  C   UNL A   1      40.399  28.746  30.400  1.00  0.00     0.037 A 
ATOM     46  C   UNL A   1      39.721  33.104  35.833  1.00  0.00     0.037 A 
ATOM     47  C   UNL A   1      41.378  28.574  31.441  1.00  0.00     0.049 A 
ATOM     48  C   UNL A   1      40.788  32.047  35.800  1.00  0.00     0.074 A 
ATOM     49  C   UNL A   1      42.435  27.681  31.495  1.00  0.00     0.029 A 
ATOM     50  N   UNL A   1      41.414  29.307  32.619  1.00  0.00    -0.354 N 
ATOM     51  N   UNL A   1      41.058  31.176  34.858  1.00  0.00    -0.248 NA
ATOM     52  C   UNL A   1      41.668  31.955  36.972  1.00  0.00     0.031 C 
ATOM     53  C   UNL A   1      43.082  27.845  32.726  1.00  0.00     0.029 A 
ATOM     54  C   UNL A   1      42.459  28.872  33.418  1.00  0.00     0.049 A 
ATOM     55  H   UNL A   1      40.790  30.032  32.852  1.00  0.00     0.167 HD
ATOM     56  C   UNL A   1      42.144  30.443  35.313  1.00  0.00     0.074 A 
ATOM     57  C   UNL A   1      42.497  30.986  36.610  1.00  0.00     0.031 C 
ATOM     58  C   UNL A   1      42.792  29.416  34.710  1.00  0.00     0.037 A 
BRANCH  45  59
ATOM     59  C   UNL A   1      40.415  27.796  29.236  1.00  0.00     0.064 A 
ATOM     60  C   UNL A   1      39.594  26.658  29.200  1.00  0.00     0.173 A 
ATOM     61  C   UNL A   1      41.259  28.030  28.140  1.00  0.00     0.173 A 
ATOM     62  F   UNL A   1      38.775  26.383  30.227  1.00  0.00    -0.203 F 
ATOM     63  C   UNL A   1      39.649  25.768  28.130  1.00  0.00     0.198 A 
ATOM     64  C   UNL A   1      41.288  27.154  27.058  1.00  0.00     0.198 A 
ATOM     65  F   UNL A   1      42.059  29.105  28.118  1.00  0.00    -0.203 F 
ATOM     66  F   UNL A   1      38.901  24.656  28.147  1.00  0.00    -0.200 F 
ATOM     67  C   UNL A   1      40.492  26.018  27.059  1.00  0.00     0.200 A 
ATOM     68  F   UNL A   1      42.094  27.403  26.016  1.00  0.00    -0.200 F 
ATOM     69  F   UNL A   1      40.546  25.158  26.031  1.00  0.00    -0.200 F 
ENDBRANCH  45  59
BRANCH  46  70
ATOM     70  C   UNL A   1      39.537  33.979  37.019  1.00  0.00     0.064 A 
ATOM     71  C   UNL A   1      38.785  33.551  38.120  1.00  0.00     0.173 A 
ATOM     72  C   UNL A   1      40.148  35.239  37.092  1.00  0.00     0.173 A 
ATOM     73  F   UNL A   1      38.170  32.360  38.089  1.00  0.00    -0.203 F 
ATOM     74  C   UNL A   1      38.645  34.355  39.249  1.00  0.00     0.198 A 
ATOM     75  C   UNL A   1      40.026  36.032  38.231  1.00  0.00     0.198 A 
ATOM     76  F   UNL A   1      40.886  35.688  36.067  1.00  0.00    -0.203 F 
ATOM     77  F   UNL A   1      37.899  33.933  40.280  1.00  0.00    -0.200 F 
ATOM     78  C   UNL A   1      39.271  35.590  39.308  1.00  0.00     0.200 A 
ATOM     79  F   UNL A   1      40.648  37.217  38.290  1.00  0.00    -0.200 F 
ATOM     80  F   UNL A   1      39.150  36.356  40.401  1.00  0.00    -0.200 F 
ENDBRANCH  46  70
BRANCH  58  81
ATOM     81  C   UNL A   1      43.958  28.818  35.442  1.00  0.00     0.064 A 
ATOM     82  C   UNL A   1      45.266  29.287  35.245  1.00  0.00     0.173 A 
ATOM     83  C   UNL A   1      43.761  27.793  36.379  1.00  0.00     0.173 A 
ATOM     84  F   UNL A   1      45.508  30.253  34.347  1.00  0.00    -0.203 F 
ATOM     85  C   UNL A   1      46.336  28.735  35.945  1.00  0.00     0.198 A 
ATOM     86  C   UNL A   1      44.829  27.264  37.097  1.00  0.00     0.198 A 
ATOM     87  F   UNL A   1      42.528  27.314  36.606  1.00  0.00    -0.203 F 
ATOM     88  F   UNL A   1      47.582  29.169  35.711  1.00  0.00    -0.200 F 
ATOM     89  C   UNL A   1      46.115  27.730  36.875  1.00  0.00     0.200 A 
ATOM     90  F   UNL A   1      44.613  26.300  38.004  1.00  0.00    -0.200 F 
ATOM     91  F   UNL A   1      47.146  27.206  37.553  1.00  0.00    -0.200 F 
ENDBRANCH  58  81
ENDBRANCH  32  33
ENDBRANCH  24  27
ENDBRANCH  22  23
ENDBRANCH  21  22
ENDBRANCH   1  21
TORSDOF 15
ENDMDL
MODEL 3
REMARK VINA RESULT:     -10.0      4.196     10.127
REMARK SMILES CC(C)[C@@H](CO)Nc1ccc(C(=O)NCCCNC(=O)c2ccc(-c3c4nc(c(-c5c(F)c(F)c(F)c(F)c5F)c5ccc([nH]5)c(-c5c(F)c(F)c(F)c(F)c5F)c5nc(c(-c6c(F)c(F)c(F)c(F)c6F)c6ccc3[nH]6)C=C5)C=C4)cc2)nn1
REMARK SMILES IDX 15 1 14 2 12 3 13 4 11 6 8 7 9 8 85 9 10 10 84 11 7 12 4 14
REMARK SMILES IDX 2 15 1 16 3 17 5 18 6 19 16 21 17 22 18 23 19 24 20 26 21 27
REMARK SMILES IDX 22 28 83 29 23 30 82 31 24 32 25 33 26 34 76 35 27 36 81 37
REMARK SMILES IDX 75 38 77 39 28 40 80 41 74 42 73 43 29 45 61 46 41 47 60 48
REMARK SMILES IDX 42 49 45 50 59 51 78 52 43 53 44 54 58 56 79 57 46 58 30 59
REMARK SMILES IDX 31 60 39 61 32 62 33 63 37 64 40 65 34 66 35 67 38 68 36 69
REMARK SMILES IDX 62 70 63 71 71 72 64 73 65 74 69 75 72 76 66 77 67 78 70 79
REMARK SMILES IDX 68 80 47 81 48 82 56 83 49 84 50 85 54 86 57 87 51 88 52 89
REMARK SMILES IDX 55 90 53 91
REMARK H PARENT 14 5 7 13 6 20 18 25 77 44 45 55
REMARK Flexibility Score: inf
ROOT
ATOM      1  C   UNL A   1      37.431  20.714  24.723  1.00  0.00     0.118 C 
ENDROOT
BRANCH   1   2
ATOM      2  N   UNL A   1      37.973  21.950  25.255  1.00  0.00    -0.351 N 
ATOM      3  C   UNL A   1      37.407  23.175  25.534  1.00  0.00     0.271 C 
ATOM      4  O   UNL A   1      38.156  24.022  26.025  1.00  0.00    -0.267 OA
ATOM      5  H   UNL A   1      38.936  21.906  25.457  1.00  0.00     0.163 HD
BRANCH   3   6
ATOM      6  C   UNL A   1      35.965  23.496  25.305  1.00  0.00     0.150 A 
ATOM      7  C   UNL A   1      33.252  23.950  25.155  1.00  0.00     0.148 A 
ATOM      8  C   UNL A   1      34.023  24.025  24.009  1.00  0.00     0.051 A 
ATOM      9  N   UNL A   1      33.843  23.716  26.339  1.00  0.00    -0.132 NA
ATOM     10  C   UNL A   1      35.403  23.828  24.086  1.00  0.00     0.040 A 
ATOM     11  N   UNL A   1      35.200  23.464  26.417  1.00  0.00    -0.143 NA
BRANCH   7  12
ATOM     12  N   UNL A   1      31.878  24.088  25.135  1.00  0.00    -0.363 N 
ATOM     13  H   UNL A   1      31.375  23.923  24.304  1.00  0.00     0.162 HD
BRANCH  12  14
ATOM     14  C   UNL A   1      31.172  24.479  26.361  1.00  0.00     0.108 C 
BRANCH  14  15
ATOM     15  C   UNL A   1      30.392  25.803  26.099  1.00  0.00     0.007 C 
ATOM     16  C   UNL A   1      31.209  27.039  26.493  1.00  0.00     0.009 C 
ATOM     17  C   UNL A   1      29.986  25.939  24.623  1.00  0.00     0.009 C 
ENDBRANCH  14  15
BRANCH  14  18
ATOM     18  C   UNL A   1      30.275  23.301  26.820  1.00  0.00     0.181 C 
BRANCH  18  19
ATOM     19  O   UNL A   1      28.979  23.704  27.255  1.00  0.00    -0.394 OA
ATOM     20  H   UNL A   1      28.579  24.283  26.588  1.00  0.00     0.210 HD
ENDBRANCH  18  19
ENDBRANCH  14  18
ENDBRANCH  12  14
ENDBRANCH   7  12
ENDBRANCH   3   6
ENDBRANCH   1   2
BRANCH   1  21
ATOM     21  C   UNL A   1      38.389  19.548  24.958  1.00  0.00     0.042 C 
BRANCH  21  22
ATOM     22  C   UNL A   1      39.332  19.767  26.139  1.00  0.00     0.118 C 
BRANCH  22  23
ATOM     23  N   UNL A   1      40.501  18.901  26.069  1.00  0.00    -0.352 N 
ATOM     24  C   UNL A   1      41.837  19.215  26.040  1.00  0.00     0.251 C 
ATOM     25  H   UNL A   1      40.301  17.938  26.037  1.00  0.00     0.163 HD
ATOM     26  O   UNL A   1      42.652  18.346  25.746  1.00  0.00    -0.269 OA
BRANCH  24  27
ATOM     27  C   UNL A   1      42.307  20.583  26.353  1.00  0.00     0.039 A 
ATOM     28  C   UNL A   1      42.515  21.476  25.297  1.00  0.00     0.014 A 
ATOM     29  C   UNL A   1      42.605  20.970  27.662  1.00  0.00     0.014 A 
ATOM     30  C   UNL A   1      42.976  22.769  25.557  1.00  0.00     0.010 A 
ATOM     31  C   UNL A   1      43.000  22.279  27.928  1.00  0.00     0.010 A 
ATOM     32  C   UNL A   1      43.199  23.189  26.878  1.00  0.00    -0.014 A 
BRANCH  32  33
ATOM     33  C   UNL A   1      43.644  24.572  27.180  1.00  0.00     0.031 A 
ATOM     34  C   UNL A   1      42.662  25.592  27.685  1.00  0.00     0.074 A 
ATOM     35  C   UNL A   1      44.916  24.930  26.923  1.00  0.00     0.049 A 
ATOM     36  N   UNL A   1      42.840  26.866  27.926  1.00  0.00    -0.248 NA
ATOM     37  C   UNL A   1      41.288  25.122  27.919  1.00  0.00     0.031 C 
ATOM     38  C   UNL A   1      45.945  24.048  26.375  1.00  0.00     0.029 A 
ATOM     39  N   UNL A   1      45.552  26.138  27.066  1.00  0.00    -0.354 N 
ATOM     40  C   UNL A   1      41.600  27.355  28.315  1.00  0.00     0.074 A 
ATOM     41  C   UNL A   1      40.668  26.250  28.233  1.00  0.00     0.031 C 
ATOM     42  C   UNL A   1      47.085  24.740  26.230  1.00  0.00     0.029 A 
ATOM     43  C   UNL A   1      46.858  26.122  26.647  1.00  0.00     0.049 A 
ATOM     44  H   UNL A   1      45.113  26.938  27.435  1.00  0.00     0.167 HD
ATOM     45  C   UNL A   1      41.272  28.605  28.721  1.00  0.00     0.037 A 
ATOM     46  C   UNL A   1      47.769  27.112  26.591  1.00  0.00     0.037 A 
ATOM     47  C   UNL A   1      42.210  29.691  28.827  1.00  0.00     0.049 A 
ATOM     48  C   UNL A   1      47.395  28.484  27.076  1.00  0.00     0.074 A 
ATOM     49  C   UNL A   1      41.999  30.972  29.310  1.00  0.00     0.029 A 
ATOM     50  N   UNL A   1      43.540  29.627  28.436  1.00  0.00    -0.354 N 
ATOM     51  N   UNL A   1      46.240  28.914  27.524  1.00  0.00    -0.248 NA
ATOM     52  C   UNL A   1      48.451  29.503  27.061  1.00  0.00     0.031 C 
ATOM     53  C   UNL A   1      43.190  31.694  29.169  1.00  0.00     0.029 A 
ATOM     54  C   UNL A   1      44.156  30.851  28.643  1.00  0.00     0.049 A 
ATOM     55  H   UNL A   1      43.982  28.828  28.067  1.00  0.00     0.167 HD
ATOM     56  C   UNL A   1      46.432  30.248  27.857  1.00  0.00     0.074 A 
ATOM     57  C   UNL A   1      47.822  30.550  27.577  1.00  0.00     0.031 C 
ATOM     58  C   UNL A   1      45.538  31.139  28.351  1.00  0.00     0.037 A 
BRANCH  45  59
ATOM     59  C   UNL A   1      39.834  28.861  29.073  1.00  0.00     0.064 A 
ATOM     60  C   UNL A   1      38.903  29.286  28.113  1.00  0.00     0.173 A 
ATOM     61  C   UNL A   1      39.381  28.673  30.387  1.00  0.00     0.173 A 
ATOM     62  F   UNL A   1      39.287  29.491  26.844  1.00  0.00    -0.203 F 
ATOM     63  C   UNL A   1      37.582  29.555  28.465  1.00  0.00     0.198 A 
ATOM     64  C   UNL A   1      38.052  28.913  30.729  1.00  0.00     0.198 A 
ATOM     65  F   UNL A   1      40.226  28.260  31.344  1.00  0.00    -0.203 F 
ATOM     66  F   UNL A   1      36.727  30.021  27.545  1.00  0.00    -0.200 F 
ATOM     67  C   UNL A   1      37.157  29.365  29.771  1.00  0.00     0.200 A 
ATOM     68  F   UNL A   1      37.638  28.716  31.989  1.00  0.00    -0.200 F 
ATOM     69  F   UNL A   1      35.886  29.627  30.108  1.00  0.00    -0.200 F 
ENDBRANCH  45  59
BRANCH  46  70
ATOM     70  C   UNL A   1      49.130  26.820  26.074  1.00  0.00     0.064 A 
ATOM     71  C   UNL A   1      50.120  26.288  26.910  1.00  0.00     0.173 A 
ATOM     72  C   UNL A   1      49.452  27.025  24.724  1.00  0.00     0.173 A 
ATOM     73  F   UNL A   1      49.862  26.090  28.211  1.00  0.00    -0.203 F 
ATOM     74  C   UNL A   1      51.385  25.977  26.417  1.00  0.00     0.198 A 
ATOM     75  C   UNL A   1      50.710  26.691  24.228  1.00  0.00     0.198 A 
ATOM     76  F   UNL A   1      48.535  27.522  23.883  1.00  0.00    -0.203 F 
ATOM     77  F   UNL A   1      52.323  25.493  27.243  1.00  0.00    -0.200 F 
ATOM     78  C   UNL A   1      51.678  26.171  25.076  1.00  0.00     0.200 A 
ATOM     79  F   UNL A   1      50.982  26.863  22.927  1.00  0.00    -0.200 F 
ATOM     80  F   UNL A   1      52.889  25.856  24.599  1.00  0.00    -0.200 F 
ENDBRANCH  46  70
BRANCH  58  81
ATOM     81  C   UNL A   1      46.038  32.525  28.635  1.00  0.00     0.064 A 
ATOM     82  C   UNL A   1      45.959  33.544  27.674  1.00  0.00     0.173 A 
ATOM     83  C   UNL A   1      46.565  32.849  29.894  1.00  0.00     0.173 A 
ATOM     84  F   UNL A   1      45.480  33.281  26.449  1.00  0.00    -0.203 F 
ATOM     85  C   UNL A   1      46.410  34.831  27.957  1.00  0.00     0.198 A 
ATOM     86  C   UNL A   1      46.988  34.143  30.183  1.00  0.00     0.198 A 
ATOM     87  F   UNL A   1      46.657  31.911  30.849  1.00  0.00    -0.203 F 
ATOM     88  F   UNL A   1      46.365  35.778  27.010  1.00  0.00    -0.200 F 
ATOM     89  C   UNL A   1      46.916  35.131  29.213  1.00  0.00     0.200 A 
ATOM     90  F   UNL A   1      47.466  34.434  31.400  1.00  0.00    -0.200 F 
ATOM     91  F   UNL A   1      47.342  36.371  29.486  1.00  0.00    -0.200 F 
ENDBRANCH  58  81
ENDBRANCH  32  33
ENDBRANCH  24  27
ENDBRANCH  22  23
ENDBRANCH  21  22
ENDBRANCH   1  21
TORSDOF 15
ENDMDL
