MODEL 1
REMARK VINA RESULT:     -13.1      0.000      0.000
REMARK SMILES C[C@H]1C[N@H+]2CCC[C@@H]2CN1c1cc(Cl)ccc1C(=O)NCCCNC(=O)c1ccc(-c2c3nc(c(-c4c(F)c(F)c(F)c(F)c4F)c4ccc([nH]4)c(-c4c(F)c(F)c(F)c(F)c4F)c4nc(c(-c5c(F)c(F)c(F)c(F)c5F)c5ccc2[nH]5)C=C4)C=C3)cc1
REMARK SMILES IDX 22 1 21 2 20 3 18 4 19 5 17 7 11 8 12 9 13 10 16 11 14 12
REMARK SMILES IDX 15 13 10 14 1 15 2 16 3 17 4 18 9 19 5 20 8 21 6 23 7 24
REMARK SMILES IDX 23 25 24 26 25 27 26 29 27 30 28 31 89 32 29 33 88 34 30 35
REMARK SMILES IDX 31 36 32 37 82 38 33 39 87 40 81 41 83 42 34 43 86 44 80 45
REMARK SMILES IDX 79 46 35 48 67 49 47 50 66 51 48 52 51 53 65 54 84 55 49 56
REMARK SMILES IDX 50 57 64 59 85 60 52 61 36 62 37 63 45 64 38 65 39 66 43 67
REMARK SMILES IDX 46 68 40 69 41 70 44 71 42 72 68 73 69 74 77 75 70 76 71 77
REMARK SMILES IDX 75 78 78 79 72 80 73 81 76 82 74 83 53 84 54 85 62 86 55 87
REMARK SMILES IDX 56 88 60 89 63 90 57 91 58 92 61 93 59 94
REMARK H PARENT 20 6 4 22 24 28 83 47 51 58
REMARK Flexibility Score: inf
ROOT
ATOM      1  C   UNL A   1      31.782  28.524  26.594  1.00  0.00     0.042 C 
ENDROOT
BRANCH   1   2
ATOM      2  C   UNL A   1      32.397  27.136  26.594  1.00  0.00     0.118 C 
BRANCH   2   3
ATOM      3  N   UNL A   1      31.516  26.013  26.453  1.00  0.00    -0.352 N 
ATOM      4  C   UNL A   1      31.712  24.928  25.621  1.00  0.00     0.253 C 
ATOM      5  O   UNL A   1      31.369  23.832  26.076  1.00  0.00    -0.269 OA
ATOM      6  H   UNL A   1      30.696  26.016  26.998  1.00  0.00     0.163 HD
BRANCH   4   7
ATOM      7  C   UNL A   1      32.104  24.994  24.167  1.00  0.00     0.063 A 
ATOM      8  C   UNL A   1      33.164  24.365  23.460  1.00  0.00     0.052 A 
ATOM      9  C   UNL A   1      33.236  24.580  22.059  1.00  0.00     0.047 A 
ATOM     10  C   UNL A   1      32.339  25.403  21.380  1.00  0.00     0.043 A 
ATOM     11  C   UNL A   1      31.198  25.811  23.439  1.00  0.00     0.017 A 
ATOM     12  Cl  UNL A   1      32.509  25.646  19.685  1.00  0.00    -0.084 Cl
ATOM     13  C   UNL A   1      31.314  26.024  22.066  1.00  0.00     0.021 A 
BRANCH   8  14
ATOM     14  N   UNL A   1      34.132  23.537  24.037  1.00  0.00    -0.357 N 
ATOM     15  C   UNL A   1      32.840  21.409  23.607  1.00  0.00     0.037 C 
ATOM     16  C   UNL A   1      33.757  22.181  24.573  1.00  0.00     0.134 C 
ATOM     17  C   UNL A   1      35.033  21.301  24.823  1.00  0.00     0.287 C 
ATOM     18  N   UNL A   1      36.066  22.003  25.593  1.00  0.00    -0.329 N 
ATOM     19  C   UNL A   1      35.210  24.226  24.794  1.00  0.00     0.182 C 
ATOM     20  C   UNL A   1      37.343  21.292  25.684  1.00  0.00     0.262 C 
ATOM     21  C   UNL A   1      36.406  23.270  24.921  1.00  0.00     0.203 C 
ATOM     22  H   UNL A   1      35.663  22.109  26.525  1.00  0.00     0.348 HD
ATOM     23  C   UNL A   1      38.371  22.409  25.908  1.00  0.00     0.068 C 
ATOM     24  C   UNL A   1      37.598  23.720  25.735  1.00  0.00     0.073 C 
ENDBRANCH   8  14
ENDBRANCH   4   7
ENDBRANCH   2   3
ENDBRANCH   1   2
BRANCH   1  25
ATOM     25  C   UNL A   1      32.602  29.567  25.847  1.00  0.00     0.118 C 
BRANCH  25  26
ATOM     26  N   UNL A   1      32.468  30.921  26.379  1.00  0.00    -0.352 N 
ATOM     27  C   UNL A   1      33.217  31.732  27.195  1.00  0.00     0.251 C 
ATOM     28  H   UNL A   1      31.640  31.360  26.078  1.00  0.00     0.163 HD
ATOM     29  O   UNL A   1      32.728  32.815  27.516  1.00  0.00    -0.269 OA
BRANCH  27  30
ATOM     30  C   UNL A   1      34.566  31.390  27.717  1.00  0.00     0.039 A 
ATOM     31  C   UNL A   1      34.794  30.067  28.141  1.00  0.00     0.014 A 
ATOM     32  C   UNL A   1      35.561  32.338  27.935  1.00  0.00     0.014 A 
ATOM     33  C   UNL A   1      35.993  29.706  28.770  1.00  0.00     0.010 A 
ATOM     34  C   UNL A   1      36.789  31.965  28.483  1.00  0.00     0.010 A 
ATOM     35  C   UNL A   1      36.999  30.660  28.949  1.00  0.00    -0.014 A 
BRANCH  35  36
ATOM     36  C   UNL A   1      38.222  30.395  29.750  1.00  0.00     0.031 A 
ATOM     37  C   UNL A   1      39.263  29.464  29.185  1.00  0.00     0.074 A 
ATOM     38  C   UNL A   1      38.354  30.890  30.994  1.00  0.00     0.049 A 
ATOM     39  N   UNL A   1      40.270  28.875  29.777  1.00  0.00    -0.248 NA
ATOM     40  C   UNL A   1      39.112  29.108  27.764  1.00  0.00     0.031 C 
ATOM     41  C   UNL A   1      37.410  31.790  31.653  1.00  0.00     0.029 A 
ATOM     42  N   UNL A   1      39.328  30.675  31.936  1.00  0.00    -0.354 N 
ATOM     43  C   UNL A   1      40.827  28.033  28.821  1.00  0.00     0.074 A 
ATOM     44  C   UNL A   1      40.030  28.164  27.622  1.00  0.00     0.031 C 
ATOM     45  C   UNL A   1      37.850  32.049  32.896  1.00  0.00     0.029 A 
ATOM     46  C   UNL A   1      39.082  31.302  33.131  1.00  0.00     0.049 A 
ATOM     47  H   UNL A   1      40.126  30.122  31.770  1.00  0.00     0.167 HD
ATOM     48  C   UNL A   1      41.916  27.233  28.931  1.00  0.00     0.037 A 
ATOM     49  C   UNL A   1      39.770  31.261  34.289  1.00  0.00     0.037 A 
ATOM     50  C   UNL A   1      42.741  27.167  30.108  1.00  0.00     0.049 A 
ATOM     51  C   UNL A   1      41.017  30.422  34.365  1.00  0.00     0.074 A 
ATOM     52  C   UNL A   1      43.894  26.434  30.320  1.00  0.00     0.029 A 
ATOM     53  N   UNL A   1      42.504  27.887  31.271  1.00  0.00    -0.354 N 
ATOM     54  N   UNL A   1      41.538  29.628  33.460  1.00  0.00    -0.248 NA
ATOM     55  C   UNL A   1      41.778  30.481  35.620  1.00  0.00     0.031 C 
ATOM     56  C   UNL A   1      44.347  26.697  31.619  1.00  0.00     0.029 A 
ATOM     57  C   UNL A   1      43.496  27.623  32.201  1.00  0.00     0.049 A 
ATOM     58  H   UNL A   1      41.745  28.497  31.414  1.00  0.00     0.167 HD
ATOM     59  C   UNL A   1      42.697  29.113  34.025  1.00  0.00     0.074 A 
ATOM     60  C   UNL A   1      42.812  29.700  35.344  1.00  0.00     0.031 C 
ATOM     61  C   UNL A   1      43.586  28.230  33.504  1.00  0.00     0.037 A 
BRANCH  48  62
ATOM     62  C   UNL A   1      42.267  26.370  27.752  1.00  0.00     0.064 A 
ATOM     63  C   UNL A   1      41.650  25.128  27.533  1.00  0.00     0.173 A 
ATOM     64  C   UNL A   1      43.233  26.791  26.825  1.00  0.00     0.173 A 
ATOM     65  F   UNL A   1      40.732  24.669  28.397  1.00  0.00    -0.203 F 
ATOM     66  C   UNL A   1      42.015  24.325  26.455  1.00  0.00     0.198 A 
ATOM     67  C   UNL A   1      43.570  26.000  25.729  1.00  0.00     0.198 A 
ATOM     68  F   UNL A   1      43.853  27.971  26.982  1.00  0.00    -0.203 F 
ATOM     69  F   UNL A   1      41.458  23.115  26.305  1.00  0.00    -0.200 F 
ATOM     70  C   UNL A   1      42.970  24.764  25.551  1.00  0.00     0.200 A 
ATOM     71  F   UNL A   1      44.486  26.431  24.850  1.00  0.00    -0.200 F 
ATOM     72  F   UNL A   1      43.320  23.989  24.515  1.00  0.00    -0.200 F 
ENDBRANCH  48  62
BRANCH  49  73
ATOM     73  C   UNL A   1      39.312  32.062  35.453  1.00  0.00     0.064 A 
ATOM     74  C   UNL A   1      39.689  33.406  35.588  1.00  0.00     0.173 A 
ATOM     75  C   UNL A   1      38.482  31.515  36.441  1.00  0.00     0.173 A 
ATOM     76  F   UNL A   1      40.498  33.967  34.679  1.00  0.00    -0.203 F 
ATOM     77  C   UNL A   1      39.267  34.167  36.676  1.00  0.00     0.198 A 
ATOM     78  C   UNL A   1      38.039  32.286  37.516  1.00  0.00     0.198 A 
ATOM     79  F   UNL A   1      38.086  30.237  36.356  1.00  0.00    -0.203 F 
ATOM     80  F   UNL A   1      39.675  35.438  36.800  1.00  0.00    -0.200 F 
ATOM     81  C   UNL A   1      38.437  33.609  37.635  1.00  0.00     0.200 A 
ATOM     82  F   UNL A   1      37.225  31.747  38.435  1.00  0.00    -0.200 F 
ATOM     83  F   UNL A   1      38.024  34.344  38.677  1.00  0.00    -0.200 F 
ENDBRANCH  49  73
BRANCH  61  84
ATOM     84  C   UNL A   1      44.774  27.886  34.352  1.00  0.00     0.064 A 
ATOM     85  C   UNL A   1      44.755  26.794  35.233  1.00  0.00     0.173 A 
ATOM     86  C   UNL A   1      45.947  28.651  34.273  1.00  0.00     0.173 A 
ATOM     87  F   UNL A   1      43.651  26.042  35.353  1.00  0.00    -0.203 F 
ATOM     88  C   UNL A   1      45.859  26.502  36.030  1.00  0.00     0.198 A 
ATOM     89  C   UNL A   1      47.057  28.339  35.051  1.00  0.00     0.198 A 
ATOM     90  F   UNL A   1      46.015  29.700  33.440  1.00  0.00    -0.203 F 
ATOM     91  F   UNL A   1      45.800  25.489  36.905  1.00  0.00    -0.200 F 
ATOM     92  C   UNL A   1      47.009  27.272  35.936  1.00  0.00     0.200 A 
ATOM     93  F   UNL A   1      48.171  29.077  34.952  1.00  0.00    -0.200 F 
ATOM     94  F   UNL A   1      48.068  26.993  36.707  1.00  0.00    -0.200 F 
ENDBRANCH  61  84
ENDBRANCH  35  36
ENDBRANCH  27  30
ENDBRANCH  25  26
ENDBRANCH   1  25
TORSDOF 11
ENDMDL
MODEL 2
REMARK VINA RESULT:     -13.0      3.360      7.999
REMARK SMILES C[C@H]1C[N@H+]2CCC[C@@H]2CN1c1cc(Cl)ccc1C(=O)NCCCNC(=O)c1ccc(-c2c3nc(c(-c4c(F)c(F)c(F)c(F)c4F)c4ccc([nH]4)c(-c4c(F)c(F)c(F)c(F)c4F)c4nc(c(-c5c(F)c(F)c(F)c(F)c5F)c5ccc2[nH]5)C=C4)C=C3)cc1
REMARK SMILES IDX 22 1 21 2 20 3 18 4 19 5 17 7 11 8 12 9 13 10 16 11 14 12
REMARK SMILES IDX 15 13 10 14 1 15 2 16 3 17 4 18 9 19 5 20 8 21 6 23 7 24
REMARK SMILES IDX 23 25 24 26 25 27 26 29 27 30 28 31 89 32 29 33 88 34 30 35
REMARK SMILES IDX 31 36 32 37 82 38 33 39 87 40 81 41 83 42 34 43 86 44 80 45
REMARK SMILES IDX 79 46 35 48 67 49 47 50 66 51 48 52 51 53 65 54 84 55 49 56
REMARK SMILES IDX 50 57 64 59 85 60 52 61 36 62 37 63 45 64 38 65 39 66 43 67
REMARK SMILES IDX 46 68 40 69 41 70 44 71 42 72 68 73 69 74 77 75 70 76 71 77
REMARK SMILES IDX 75 78 78 79 72 80 73 81 76 82 74 83 53 84 54 85 62 86 55 87
REMARK SMILES IDX 56 88 60 89 63 90 57 91 58 92 61 93 59 94
REMARK H PARENT 20 6 4 22 24 28 83 47 51 58
REMARK Flexibility Score: inf
ROOT
ATOM      1  C   UNL A   1      33.901  28.035  26.448  1.00  0.00     0.042 C 
ENDROOT
BRANCH   1   2
ATOM      2  C   UNL A   1      33.935  28.643  25.058  1.00  0.00     0.118 C 
BRANCH   2   3
ATOM      3  N   UNL A   1      34.002  27.749  23.938  1.00  0.00    -0.352 N 
ATOM      4  C   UNL A   1      33.116  27.709  22.879  1.00  0.00     0.253 C 
ATOM      5  O   UNL A   1      33.615  27.493  21.769  1.00  0.00    -0.269 OA
ATOM      6  H   UNL A   1      34.747  27.105  23.923  1.00  0.00     0.163 HD
BRANCH   4   7
ATOM      7  C   UNL A   1      31.613  27.698  22.990  1.00  0.00     0.063 A 
ATOM      8  C   UNL A   1      30.724  26.699  23.469  1.00  0.00     0.052 A 
ATOM      9  C   UNL A   1      29.341  27.015  23.504  1.00  0.00     0.047 A 
ATOM     10  C   UNL A   1      28.839  28.236  23.056  1.00  0.00     0.043 A 
ATOM     11  C   UNL A   1      31.069  28.937  22.558  1.00  0.00     0.017 A 
ATOM     12  Cl  UNL A   1      27.146  28.537  23.095  1.00  0.00    -0.084 Cl
ATOM     13  C   UNL A   1      29.701  29.204  22.580  1.00  0.00     0.021 A 
BRANCH   8  14
ATOM     14  N   UNL A   1      31.109  25.434  23.924  1.00  0.00    -0.357 N 
ATOM     15  C   UNL A   1      30.778  26.003  26.363  1.00  0.00     0.037 C 
ATOM     16  C   UNL A   1      31.630  25.251  25.325  1.00  0.00     0.134 C 
ATOM     17  C   UNL A   1      31.643  23.734  25.728  1.00  0.00     0.287 C 
ATOM     18  N   UNL A   1      32.282  22.882  24.718  1.00  0.00    -0.329 N 
ATOM     19  C   UNL A   1      31.726  24.539  22.912  1.00  0.00     0.182 C 
ATOM     20  C   UNL A   1      32.146  21.446  24.964  1.00  0.00     0.262 C 
ATOM     21  C   UNL A   1      31.627  23.089  23.414  1.00  0.00     0.203 C 
ATOM     22  H   UNL A   1      33.268  23.146  24.747  1.00  0.00     0.348 HD
ATOM     23  C   UNL A   1      32.265  20.822  23.566  1.00  0.00     0.068 C 
ATOM     24  C   UNL A   1      32.273  22.001  22.589  1.00  0.00     0.073 C 
ENDBRANCH   8  14
ENDBRANCH   4   7
ENDBRANCH   2   3
ENDBRANCH   1   2
BRANCH   1  25
ATOM     25  C   UNL A   1      32.975  28.756  27.419  1.00  0.00     0.118 C 
BRANCH  25  26
ATOM     26  N   UNL A   1      33.328  30.154  27.651  1.00  0.00    -0.352 N 
ATOM     27  C   UNL A   1      34.455  30.827  28.051  1.00  0.00     0.251 C 
ATOM     28  H   UNL A   1      32.573  30.763  27.479  1.00  0.00     0.163 HD
ATOM     29  O   UNL A   1      34.352  32.040  28.235  1.00  0.00    -0.269 OA
BRANCH  27  30
ATOM     30  C   UNL A   1      35.780  30.195  28.280  1.00  0.00     0.039 A 
ATOM     31  C   UNL A   1      36.030  29.625  29.543  1.00  0.00     0.014 A 
ATOM     32  C   UNL A   1      36.824  30.260  27.363  1.00  0.00     0.014 A 
ATOM     33  C   UNL A   1      37.300  29.135  29.876  1.00  0.00     0.010 A 
ATOM     34  C   UNL A   1      38.065  29.696  27.658  1.00  0.00     0.010 A 
ATOM     35  C   UNL A   1      38.330  29.173  28.931  1.00  0.00    -0.014 A 
BRANCH  35  36
ATOM     36  C   UNL A   1      39.736  28.827  29.264  1.00  0.00     0.031 A 
ATOM     37  C   UNL A   1      40.569  29.840  30.006  1.00  0.00     0.074 A 
ATOM     38  C   UNL A   1      40.288  27.682  28.826  1.00  0.00     0.049 A 
ATOM     39  N   UNL A   1      41.863  29.894  30.182  1.00  0.00    -0.248 NA
ATOM     40  C   UNL A   1      39.838  30.982  30.583  1.00  0.00     0.031 C 
ATOM     41  C   UNL A   1      39.590  26.630  28.089  1.00  0.00     0.029 A 
ATOM     42  N   UNL A   1      41.581  27.229  28.915  1.00  0.00    -0.354 N 
ATOM     43  C   UNL A   1      42.105  31.100  30.830  1.00  0.00     0.074 A 
ATOM     44  C   UNL A   1      40.829  31.762  30.987  1.00  0.00     0.031 C 
ATOM     45  C   UNL A   1      40.463  25.654  27.790  1.00  0.00     0.029 A 
ATOM     46  C   UNL A   1      41.786  26.031  28.278  1.00  0.00     0.049 A 
ATOM     47  H   UNL A   1      42.292  27.717  29.388  1.00  0.00     0.167 HD
ATOM     48  C   UNL A   1      43.286  31.603  31.265  1.00  0.00     0.037 A 
ATOM     49  C   UNL A   1      42.922  25.329  28.097  1.00  0.00     0.037 A 
ATOM     50  C   UNL A   1      44.538  30.901  31.165  1.00  0.00     0.049 A 
ATOM     51  C   UNL A   1      44.210  25.874  28.654  1.00  0.00     0.074 A 
ATOM     52  C   UNL A   1      45.788  31.286  31.614  1.00  0.00     0.029 A 
ATOM     53  N   UNL A   1      44.688  29.648  30.588  1.00  0.00    -0.354 N 
ATOM     54  N   UNL A   1      44.434  27.014  29.263  1.00  0.00    -0.248 NA
ATOM     55  C   UNL A   1      45.403  25.029  28.508  1.00  0.00     0.031 C 
ATOM     56  C   UNL A   1      46.699  30.272  31.293  1.00  0.00     0.029 A 
ATOM     57  C   UNL A   1      46.008  29.240  30.678  1.00  0.00     0.049 A 
ATOM     58  H   UNL A   1      43.962  29.125  30.176  1.00  0.00     0.167 HD
ATOM     59  C   UNL A   1      45.782  27.014  29.593  1.00  0.00     0.074 A 
ATOM     60  C   UNL A   1      46.321  25.751  29.134  1.00  0.00     0.031 C 
ATOM     61  C   UNL A   1      46.512  27.972  30.217  1.00  0.00     0.037 A 
BRANCH  48  62
ATOM     62  C   UNL A   1      43.272  32.974  31.883  1.00  0.00     0.064 A 
ATOM     63  C   UNL A   1      43.132  33.162  33.267  1.00  0.00     0.173 A 
ATOM     64  C   UNL A   1      43.404  34.117  31.080  1.00  0.00     0.173 A 
ATOM     65  F   UNL A   1      42.986  32.104  34.080  1.00  0.00    -0.203 F 
ATOM     66  C   UNL A   1      43.085  34.440  33.817  1.00  0.00     0.198 A 
ATOM     67  C   UNL A   1      43.390  35.393  31.638  1.00  0.00     0.198 A 
ATOM     68  F   UNL A   1      43.544  33.998  29.750  1.00  0.00    -0.203 F 
ATOM     69  F   UNL A   1      42.884  34.594  35.134  1.00  0.00    -0.200 F 
ATOM     70  C   UNL A   1      43.219  35.554  33.004  1.00  0.00     0.200 A 
ATOM     71  F   UNL A   1      43.531  36.469  30.850  1.00  0.00    -0.200 F 
ATOM     72  F   UNL A   1      43.172  36.784  33.535  1.00  0.00    -0.200 F 
ENDBRANCH  48  62
BRANCH  49  73
ATOM     73  C   UNL A   1      42.883  24.025  27.388  1.00  0.00     0.064 A 
ATOM     74  C   UNL A   1      43.214  23.942  26.028  1.00  0.00     0.173 A 
ATOM     75  C   UNL A   1      42.534  22.838  28.047  1.00  0.00     0.173 A 
ATOM     76  F   UNL A   1      43.534  25.053  25.349  1.00  0.00    -0.203 F 
ATOM     77  C   UNL A   1      43.180  22.726  25.350  1.00  0.00     0.198 A 
ATOM     78  C   UNL A   1      42.526  21.616  27.375  1.00  0.00     0.198 A 
ATOM     79  F   UNL A   1      42.216  22.861  29.350  1.00  0.00    -0.203 F 
ATOM     80  F   UNL A   1      43.462  22.682  24.041  1.00  0.00    -0.200 F 
ATOM     81  C   UNL A   1      42.843  21.563  26.026  1.00  0.00     0.200 A 
ATOM     82  F   UNL A   1      42.214  20.492  28.034  1.00  0.00    -0.200 F 
ATOM     83  F   UNL A   1      42.820  20.391  25.376  1.00  0.00    -0.200 F 
ENDBRANCH  49  73
BRANCH  61  84
ATOM     84  C   UNL A   1      47.958  27.665  30.468  1.00  0.00     0.064 A 
ATOM     85  C   UNL A   1      48.382  27.043  31.652  1.00  0.00     0.173 A 
ATOM     86  C   UNL A   1      48.929  27.988  29.508  1.00  0.00     0.173 A 
ATOM     87  F   UNL A   1      47.492  26.728  32.605  1.00  0.00    -0.203 F 
ATOM     88  C   UNL A   1      49.732  26.787  31.879  1.00  0.00     0.198 A 
ATOM     89  C   UNL A   1      50.273  27.705  29.727  1.00  0.00     0.198 A 
ATOM     90  F   UNL A   1      48.571  28.577  28.358  1.00  0.00    -0.203 F 
ATOM     91  F   UNL A   1      50.120  26.242  33.040  1.00  0.00    -0.200 F 
ATOM     92  C   UNL A   1      50.674  27.114  30.916  1.00  0.00     0.200 A 
ATOM     93  F   UNL A   1      51.182  28.013  28.792  1.00  0.00    -0.200 F 
ATOM     94  F   UNL A   1      51.973  26.871  31.139  1.00  0.00    -0.200 F 
ENDBRANCH  61  84
ENDBRANCH  35  36
ENDBRANCH  27  30
ENDBRANCH  25  26
ENDBRANCH   1  25
TORSDOF 11
ENDMDL
MODEL 3
REMARK VINA RESULT:     -13.0      3.421      7.999
REMARK SMILES C[C@H]1C[N@H+]2CCC[C@@H]2CN1c1cc(Cl)ccc1C(=O)NCCCNC(=O)c1ccc(-c2c3nc(c(-c4c(F)c(F)c(F)c(F)c4F)c4ccc([nH]4)c(-c4c(F)c(F)c(F)c(F)c4F)c4nc(c(-c5c(F)c(F)c(F)c(F)c5F)c5ccc2[nH]5)C=C4)C=C3)cc1
REMARK SMILES IDX 22 1 21 2 20 3 18 4 19 5 17 7 11 8 12 9 13 10 16 11 14 12
REMARK SMILES IDX 15 13 10 14 1 15 2 16 3 17 4 18 9 19 5 20 8 21 6 23 7 24
REMARK SMILES IDX 23 25 24 26 25 27 26 29 27 30 28 31 89 32 29 33 88 34 30 35
REMARK SMILES IDX 31 36 32 37 82 38 33 39 87 40 81 41 83 42 34 43 86 44 80 45
REMARK SMILES IDX 79 46 35 48 67 49 47 50 66 51 48 52 51 53 65 54 84 55 49 56
REMARK SMILES IDX 50 57 64 59 85 60 52 61 36 62 37 63 45 64 38 65 39 66 43 67
REMARK SMILES IDX 46 68 40 69 41 70 44 71 42 72 68 73 69 74 77 75 70 76 71 77
REMARK SMILES IDX 75 78 78 79 72 80 73 81 76 82 74 83 53 84 54 85 62 86 55 87
REMARK SMILES IDX 56 88 60 89 63 90 57 91 58 92 61 93 59 94
REMARK H PARENT 20 6 4 22 24 28 83 47 51 58
REMARK Flexibility Score: inf
ROOT
ATOM      1  C   UNL A   1      33.957  28.008  26.370  1.00  0.00     0.042 C 
ENDROOT
BRANCH   1   2
ATOM      2  C   UNL A   1      33.460  27.876  24.942  1.00  0.00     0.118 C 
BRANCH   2   3
ATOM      3  N   UNL A   1      33.969  26.792  24.152  1.00  0.00    -0.352 N 
ATOM      4  C   UNL A   1      33.276  25.652  23.799  1.00  0.00     0.253 C 
ATOM      5  O   UNL A   1      33.487  25.226  22.658  1.00  0.00    -0.269 OA
ATOM      6  H   UNL A   1      34.898  26.868  23.834  1.00  0.00     0.163 HD
BRANCH   4   7
ATOM      7  C   UNL A   1      32.466  24.789  24.733  1.00  0.00     0.063 A 
ATOM      8  C   UNL A   1      32.831  23.645  25.492  1.00  0.00     0.052 A 
ATOM      9  C   UNL A   1      31.844  23.079  26.341  1.00  0.00     0.047 A 
ATOM     10  C   UNL A   1      30.546  23.581  26.418  1.00  0.00     0.043 A 
ATOM     11  C   UNL A   1      31.140  25.284  24.851  1.00  0.00     0.017 A 
ATOM     12  Cl  UNL A   1      29.390  22.822  27.442  1.00  0.00    -0.084 Cl
ATOM     13  C   UNL A   1      30.186  24.686  25.673  1.00  0.00     0.021 A 
BRANCH   8  14
ATOM     14  N   UNL A   1      34.094  23.044  25.480  1.00  0.00    -0.357 N 
ATOM     15  C   UNL A   1      33.293  20.950  24.316  1.00  0.00     0.037 C 
ATOM     16  C   UNL A   1      34.227  21.547  25.383  1.00  0.00     0.134 C 
ATOM     17  C   UNL A   1      35.696  21.135  25.016  1.00  0.00     0.287 C 
ATOM     18  N   UNL A   1      36.700  21.788  25.864  1.00  0.00    -0.329 N 
ATOM     19  C   UNL A   1      35.138  23.707  26.303  1.00  0.00     0.182 C 
ATOM     20  C   UNL A   1      38.084  21.581  25.434  1.00  0.00     0.262 C 
ATOM     21  C   UNL A   1      36.518  23.250  25.804  1.00  0.00     0.203 C 
ATOM     22  H   UNL A   1      36.560  21.378  26.788  1.00  0.00     0.348 HD
ATOM     23  C   UNL A   1      38.828  22.802  25.992  1.00  0.00     0.068 C 
ATOM     24  C   UNL A   1      37.742  23.725  26.552  1.00  0.00     0.073 C 
ENDBRANCH   8  14
ENDBRANCH   4   7
ENDBRANCH   2   3
ENDBRANCH   1   2
BRANCH   1  25
ATOM     25  C   UNL A   1      32.953  28.642  27.322  1.00  0.00     0.118 C 
BRANCH  25  26
ATOM     26  N   UNL A   1      33.241  30.036  27.650  1.00  0.00    -0.352 N 
ATOM     27  C   UNL A   1      34.339  30.732  28.089  1.00  0.00     0.251 C 
ATOM     28  H   UNL A   1      32.457  30.619  27.526  1.00  0.00     0.163 HD
ATOM     29  O   UNL A   1      34.182  31.923  28.358  1.00  0.00    -0.269 OA
BRANCH  27  30
ATOM     30  C   UNL A   1      35.695  30.149  28.263  1.00  0.00     0.039 A 
ATOM     31  C   UNL A   1      36.019  29.596  29.517  1.00  0.00     0.014 A 
ATOM     32  C   UNL A   1      36.696  30.246  27.302  1.00  0.00     0.014 A 
ATOM     33  C   UNL A   1      37.319  29.154  29.798  1.00  0.00     0.010 A 
ATOM     34  C   UNL A   1      37.969  29.729  27.547  1.00  0.00     0.010 A 
ATOM     35  C   UNL A   1      38.306  29.223  28.810  1.00  0.00    -0.014 A 
BRANCH  35  36
ATOM     36  C   UNL A   1      39.737  28.930  29.084  1.00  0.00     0.031 A 
ATOM     37  C   UNL A   1      40.574  29.994  29.746  1.00  0.00     0.074 A 
ATOM     38  C   UNL A   1      40.300  27.785  28.661  1.00  0.00     0.049 A 
ATOM     39  N   UNL A   1      41.873  30.090  29.855  1.00  0.00    -0.248 NA
ATOM     40  C   UNL A   1      39.838  31.135  30.316  1.00  0.00     0.031 C 
ATOM     41  C   UNL A   1      39.598  26.687  27.999  1.00  0.00     0.029 A 
ATOM     42  N   UNL A   1      41.608  27.372  28.701  1.00  0.00    -0.354 N 
ATOM     43  C   UNL A   1      42.110  31.327  30.445  1.00  0.00     0.074 A 
ATOM     44  C   UNL A   1      40.824  31.957  30.641  1.00  0.00     0.031 C 
ATOM     45  C   UNL A   1      40.484  25.724  27.692  1.00  0.00     0.029 A 
ATOM     46  C   UNL A   1      41.818  26.157  28.099  1.00  0.00     0.049 A 
ATOM     47  H   UNL A   1      42.327  27.898  29.120  1.00  0.00     0.167 HD
ATOM     48  C   UNL A   1      43.296  31.879  30.801  1.00  0.00     0.037 A 
ATOM     49  C   UNL A   1      42.964  25.481  27.888  1.00  0.00     0.037 A 
ATOM     50  C   UNL A   1      44.561  31.209  30.664  1.00  0.00     0.049 A 
ATOM     51  C   UNL A   1      44.261  26.082  28.359  1.00  0.00     0.074 A 
ATOM     52  C   UNL A   1      45.820  31.645  31.035  1.00  0.00     0.029 A 
ATOM     53  N   UNL A   1      44.720  29.939  30.126  1.00  0.00    -0.354 N 
ATOM     54  N   UNL A   1      44.480  27.251  28.913  1.00  0.00    -0.248 NA
ATOM     55  C   UNL A   1      45.470  25.267  28.183  1.00  0.00     0.031 C 
ATOM     56  C   UNL A   1      46.744  30.646  30.706  1.00  0.00     0.029 A 
ATOM     57  C   UNL A   1      46.055  29.572  30.165  1.00  0.00     0.049 A 
ATOM     58  H   UNL A   1      43.992  29.381  29.771  1.00  0.00     0.167 HD
ATOM     59  C   UNL A   1      45.842  27.301  29.175  1.00  0.00     0.074 A 
ATOM     60  C   UNL A   1      46.396  26.037  28.736  1.00  0.00     0.031 C 
ATOM     61  C   UNL A   1      46.574  28.302  29.725  1.00  0.00     0.037 A 
BRANCH  48  62
ATOM     62  C   UNL A   1      43.272  33.271  31.368  1.00  0.00     0.064 A 
ATOM     63  C   UNL A   1      43.349  34.407  30.547  1.00  0.00     0.173 A 
ATOM     64  C   UNL A   1      43.167  33.473  32.753  1.00  0.00     0.173 A 
ATOM     65  F   UNL A   1      43.467  34.271  29.218  1.00  0.00    -0.203 F 
ATOM     66  C   UNL A   1      43.362  35.688  31.093  1.00  0.00     0.198 A 
ATOM     67  C   UNL A   1      43.146  34.757  33.293  1.00  0.00     0.198 A 
ATOM     68  F   UNL A   1      43.087  32.424  33.586  1.00  0.00    -0.203 F 
ATOM     69  F   UNL A   1      43.503  36.754  30.292  1.00  0.00    -0.200 F 
ATOM     70  C   UNL A   1      43.256  35.862  32.464  1.00  0.00     0.200 A 
ATOM     71  F   UNL A   1      43.032  34.923  34.618  1.00  0.00    -0.200 F 
ATOM     72  F   UNL A   1      43.270  37.096  32.987  1.00  0.00    -0.200 F 
ENDBRANCH  48  62
BRANCH  49  73
ATOM     73  C   UNL A   1      42.930  24.150  27.229  1.00  0.00     0.064 A 
ATOM     74  C   UNL A   1      43.261  24.015  25.873  1.00  0.00     0.173 A 
ATOM     75  C   UNL A   1      42.584  22.989  27.934  1.00  0.00     0.173 A 
ATOM     76  F   UNL A   1      43.578  25.100  25.152  1.00  0.00    -0.203 F 
ATOM     77  C   UNL A   1      43.231  22.774  25.243  1.00  0.00     0.198 A 
ATOM     78  C   UNL A   1      42.580  21.742  27.309  1.00  0.00     0.198 A 
ATOM     79  F   UNL A   1      42.265  23.061  29.235  1.00  0.00    -0.203 F 
ATOM     80  F   UNL A   1      43.514  22.680  23.937  1.00  0.00    -0.200 F 
ATOM     81  C   UNL A   1      42.897  21.637  25.963  1.00  0.00     0.200 A 
ATOM     82  F   UNL A   1      42.271  20.643  28.012  1.00  0.00    -0.200 F 
ATOM     83  F   UNL A   1      42.878  20.440  25.359  1.00  0.00    -0.200 F 
ENDBRANCH  49  73
BRANCH  61  84
ATOM     84  C   UNL A   1      48.039  28.046  29.915  1.00  0.00     0.064 A 
ATOM     85  C   UNL A   1      48.974  28.364  28.919  1.00  0.00     0.173 A 
ATOM     86  C   UNL A   1      48.512  27.485  31.110  1.00  0.00     0.173 A 
ATOM     87  F   UNL A   1      48.568  28.888  27.753  1.00  0.00    -0.203 F 
ATOM     88  C   UNL A   1      50.329  28.097  29.102  1.00  0.00     0.198 A 
ATOM     89  C   UNL A   1      49.869  27.246  31.300  1.00  0.00     0.198 A 
ATOM     90  F   UNL A   1      47.656  27.171  32.094  1.00  0.00    -0.203 F 
ATOM     91  F   UNL A   1      51.198  28.357  28.116  1.00  0.00    -0.200 F 
ATOM     92  C   UNL A   1      50.774  27.543  30.293  1.00  0.00     0.200 A 
ATOM     93  F   UNL A   1      50.300  26.720  32.454  1.00  0.00    -0.200 F 
ATOM     94  F   UNL A   1      52.078  27.282  30.464  1.00  0.00    -0.200 F 
ENDBRANCH  61  84
ENDBRANCH  35  36
ENDBRANCH  27  30
ENDBRANCH  25  26
ENDBRANCH   1  25
TORSDOF 11
ENDMDL
