MODEL 1
REMARK VINA RESULT:     -15.1      0.000      0.000
REMARK SMILES Cc1ccc(S(=O)(=O)N2c3ccc(C(=O)NCCCNC(=O)c4ccc(-c5c6nc(c(-c7c(F)c(F)c(F)c(F)c7F)c7ccc([nH]7)c(-c7c(F)c(F)c(F)c(F)c7F)c7nc(c(-c8c(F)c(F)c(F)c(F)c8F)c8ccc5[nH]8)C=C7)C=C6)cc4)cc3C[C@H]2C)cc1
REMARK SMILES IDX 18 1 17 2 16 3 14 4 15 5 13 7 9 8 10 9 89 10 11 11 87 12
REMARK SMILES IDX 88 13 90 14 12 15 86 16 6 17 7 18 8 19 5 20 1 21 2 22 3 23
REMARK SMILES IDX 92 24 4 25 91 26 19 27 20 28 21 29 22 31 23 32 24 33 85 34
REMARK SMILES IDX 25 35 84 36 26 37 27 38 28 39 78 40 29 41 83 42 77 43 79 44
REMARK SMILES IDX 30 45 82 46 76 47 75 48 31 50 63 51 43 52 62 53 44 54 47 55
REMARK SMILES IDX 61 56 80 57 45 58 46 59 60 61 81 62 48 63 32 64 33 65 41 66
REMARK SMILES IDX 34 67 35 68 39 69 42 70 36 71 37 72 40 73 38 74 64 75 65 76
REMARK SMILES IDX 73 77 66 78 67 79 71 80 74 81 68 82 69 83 72 84 70 85 49 86
REMARK SMILES IDX 50 87 58 88 51 89 52 90 56 91 59 92 53 93 54 94 57 95 55 96
REMARK H PARENT 16 6 20 30 79 49 47 60
REMARK Flexibility Score: inf
ROOT
ATOM      1  C   UNL A   1      32.513  30.572  26.898  1.00  0.00     0.042 C 
ENDROOT
BRANCH   1   2
ATOM      2  C   UNL A   1      31.902  29.487  26.007  1.00  0.00     0.118 C 
BRANCH   2   3
ATOM      3  N   UNL A   1      32.393  29.568  24.639  1.00  0.00    -0.352 N 
ATOM      4  C   UNL A   1      32.984  28.655  23.798  1.00  0.00     0.251 C 
ATOM      5  O   UNL A   1      33.218  29.046  22.651  1.00  0.00    -0.269 OA
ATOM      6  H   UNL A   1      32.279  30.457  24.233  1.00  0.00     0.163 HD
BRANCH   4   7
ATOM      7  C   UNL A   1      33.377  27.258  24.174  1.00  0.00     0.040 A 
ATOM      8  N   UNL A   1      34.649  23.265  24.779  1.00  0.00    -0.263 N 
ATOM      9  C   UNL A   1      34.229  24.643  24.706  1.00  0.00     0.055 A 
ATOM     10  C   UNL A   1      34.992  22.921  23.337  1.00  0.00     0.101 C 
ATOM     11  C   UNL A   1      34.019  25.496  25.763  1.00  0.00     0.028 A 
ATOM     12  C   UNL A   1      34.021  25.063  23.398  1.00  0.00    -0.021 A 
ATOM     13  C   UNL A   1      34.234  23.932  22.448  1.00  0.00     0.063 C 
ATOM     14  C   UNL A   1      36.511  23.087  23.174  1.00  0.00     0.032 C 
ATOM     15  C   UNL A   1      33.577  26.791  25.485  1.00  0.00     0.016 A 
ATOM     16  C   UNL A   1      33.600  26.357  23.116  1.00  0.00     0.019 A 
BRANCH   8  17
ATOM     17  S   UNL A   1      33.438  22.289  25.535  1.00  0.00     0.264 S 
ATOM     18  O   UNL A   1      32.146  22.858  25.206  1.00  0.00    -0.201 OA
ATOM     19  O   UNL A   1      33.830  22.084  26.918  1.00  0.00    -0.201 OA
BRANCH  17  20
ATOM     20  C   UNL A   1      33.471  20.667  24.801  1.00  0.00     0.088 A 
ATOM     21  C   UNL A   1      33.639  16.565  23.510  1.00  0.00     0.044 C 
ATOM     22  C   UNL A   1      33.596  18.007  23.923  1.00  0.00    -0.051 A 
ATOM     23  C   UNL A   1      34.680  18.575  24.601  1.00  0.00     0.005 A 
ATOM     24  C   UNL A   1      32.485  18.803  23.627  1.00  0.00     0.005 A 
ATOM     25  C   UNL A   1      34.617  19.896  25.043  1.00  0.00     0.022 A 
ATOM     26  C   UNL A   1      32.427  20.134  24.052  1.00  0.00     0.022 A 
ENDBRANCH  17  20
ENDBRANCH   8  17
ENDBRANCH   4   7
ENDBRANCH   2   3
ENDBRANCH   1   2
BRANCH   1  27
ATOM     27  C   UNL A   1      33.776  30.135  27.607  1.00  0.00     0.118 C 
BRANCH  27  28
ATOM     28  N   UNL A   1      34.406  31.191  28.392  1.00  0.00    -0.352 N 
ATOM     29  C   UNL A   1      35.613  31.176  29.075  1.00  0.00     0.251 C 
ATOM     30  H   UNL A   1      33.902  32.034  28.444  1.00  0.00     0.163 HD
ATOM     31  O   UNL A   1      35.962  32.130  29.737  1.00  0.00    -0.269 OA
BRANCH  29  32
ATOM     32  C   UNL A   1      36.526  30.025  28.869  1.00  0.00     0.039 A 
ATOM     33  C   UNL A   1      36.836  29.232  29.979  1.00  0.00     0.014 A 
ATOM     34  C   UNL A   1      37.244  29.897  27.685  1.00  0.00     0.014 A 
ATOM     35  C   UNL A   1      38.021  28.501  29.978  1.00  0.00     0.010 A 
ATOM     36  C   UNL A   1      38.477  29.285  27.730  1.00  0.00     0.010 A 
ATOM     37  C   UNL A   1      38.890  28.632  28.895  1.00  0.00    -0.014 A 
BRANCH  37  38
ATOM     38  C   UNL A   1      40.282  28.209  28.927  1.00  0.00     0.031 A 
ATOM     39  C   UNL A   1      40.670  26.884  28.404  1.00  0.00     0.074 A 
ATOM     40  C   UNL A   1      41.240  29.059  29.361  1.00  0.00     0.049 A 
ATOM     41  N   UNL A   1      41.692  26.223  28.835  1.00  0.00    -0.248 NA
ATOM     42  C   UNL A   1      39.922  26.177  27.368  1.00  0.00     0.031 C 
ATOM     43  C   UNL A   1      42.684  28.905  29.196  1.00  0.00     0.029 A 
ATOM     44  N   UNL A   1      41.102  30.178  30.201  1.00  0.00    -0.354 N 
ATOM     45  C   UNL A   1      41.891  25.170  27.978  1.00  0.00     0.074 A 
ATOM     46  C   UNL A   1      40.729  25.140  27.121  1.00  0.00     0.031 C 
ATOM     47  C   UNL A   1      43.311  29.671  30.100  1.00  0.00     0.029 A 
ATOM     48  C   UNL A   1      42.291  30.238  30.964  1.00  0.00     0.049 A 
ATOM     49  H   UNL A   1      40.335  30.793  30.248  1.00  0.00     0.167 HD
ATOM     50  C   UNL A   1      43.080  24.510  27.978  1.00  0.00     0.037 A 
ATOM     51  C   UNL A   1      42.288  30.143  32.323  1.00  0.00     0.037 A 
ATOM     52  C   UNL A   1      44.017  25.076  28.937  1.00  0.00     0.049 A 
ATOM     53  C   UNL A   1      43.116  29.003  32.859  1.00  0.00     0.074 A 
ATOM     54  C   UNL A   1      45.042  25.998  28.798  1.00  0.00     0.029 A 
ATOM     55  N   UNL A   1      43.762  24.973  30.300  1.00  0.00    -0.354 N 
ATOM     56  N   UNL A   1      43.424  27.947  32.163  1.00  0.00    -0.248 NA
ATOM     57  C   UNL A   1      43.634  28.951  34.221  1.00  0.00     0.031 C 
ATOM     58  C   UNL A   1      45.403  26.455  30.084  1.00  0.00     0.029 A 
ATOM     59  C   UNL A   1      44.603  25.809  31.009  1.00  0.00     0.049 A 
ATOM     60  H   UNL A   1      43.079  24.390  30.703  1.00  0.00     0.167 HD
ATOM     61  C   UNL A   1      44.144  27.078  32.946  1.00  0.00     0.074 A 
ATOM     62  C   UNL A   1      44.261  27.761  34.220  1.00  0.00     0.031 C 
ATOM     63  C   UNL A   1      44.574  25.875  32.462  1.00  0.00     0.037 A 
BRANCH  50  64
ATOM     64  C   UNL A   1      43.458  23.557  26.878  1.00  0.00     0.064 A 
ATOM     65  C   UNL A   1      43.062  22.205  26.906  1.00  0.00     0.173 A 
ATOM     66  C   UNL A   1      44.260  23.931  25.785  1.00  0.00     0.173 A 
ATOM     67  F   UNL A   1      42.251  21.730  27.859  1.00  0.00    -0.203 F 
ATOM     68  C   UNL A   1      43.510  21.278  25.964  1.00  0.00     0.198 A 
ATOM     69  C   UNL A   1      44.747  22.995  24.868  1.00  0.00     0.198 A 
ATOM     70  F   UNL A   1      44.587  25.217  25.584  1.00  0.00    -0.203 F 
ATOM     71  F   UNL A   1      43.113  20.000  26.047  1.00  0.00    -0.200 F 
ATOM     72  C   UNL A   1      44.379  21.667  24.963  1.00  0.00     0.200 A 
ATOM     73  F   UNL A   1      45.590  23.384  23.902  1.00  0.00    -0.200 F 
ATOM     74  F   UNL A   1      44.851  20.765  24.092  1.00  0.00    -0.200 F 
ENDBRANCH  50  64
BRANCH  51  75
ATOM     75  C   UNL A   1      41.044  30.656  32.947  1.00  0.00     0.064 A 
ATOM     76  C   UNL A   1      40.861  32.049  33.014  1.00  0.00     0.173 A 
ATOM     77  C   UNL A   1      39.914  29.841  33.088  1.00  0.00     0.173 A 
ATOM     78  F   UNL A   1      41.914  32.870  32.883  1.00  0.00    -0.203 F 
ATOM     79  C   UNL A   1      39.586  32.605  33.099  1.00  0.00     0.198 A 
ATOM     80  C   UNL A   1      38.639  30.404  33.178  1.00  0.00     0.198 A 
ATOM     81  F   UNL A   1      40.027  28.508  33.014  1.00  0.00    -0.203 F 
ATOM     82  F   UNL A   1      39.434  33.937  33.049  1.00  0.00    -0.200 F 
ATOM     83  C   UNL A   1      38.475  31.781  33.148  1.00  0.00     0.200 A 
ATOM     84  F   UNL A   1      37.560  29.608  33.197  1.00  0.00    -0.200 F 
ATOM     85  F   UNL A   1      37.244  32.312  33.124  1.00  0.00    -0.200 F 
ENDBRANCH  51  75
BRANCH  63  86
ATOM     86  C   UNL A   1      45.131  24.710  33.255  1.00  0.00     0.064 A 
ATOM     87  C   UNL A   1      44.434  23.520  33.516  1.00  0.00     0.173 A 
ATOM     88  C   UNL A   1      46.487  24.713  33.678  1.00  0.00     0.173 A 
ATOM     89  F   UNL A   1      43.190  23.321  33.063  1.00  0.00    -0.203 F 
ATOM     90  C   UNL A   1      45.017  22.450  34.204  1.00  0.00     0.198 A 
ATOM     91  C   UNL A   1      47.083  23.621  34.309  1.00  0.00     0.198 A 
ATOM     92  F   UNL A   1      47.294  25.763  33.466  1.00  0.00    -0.203 F 
ATOM     93  F   UNL A   1      44.287  21.356  34.466  1.00  0.00    -0.200 F 
ATOM     94  C   UNL A   1      46.342  22.496  34.590  1.00  0.00     0.200 A 
ATOM     95  F   UNL A   1      48.386  23.664  34.622  1.00  0.00    -0.200 F 
ATOM     96  F   UNL A   1      46.909  21.450  35.207  1.00  0.00    -0.200 F 
ENDBRANCH  63  86
ENDBRANCH  37  38
ENDBRANCH  29  32
ENDBRANCH  27  28
ENDBRANCH   1  27
TORSDOF 12
ENDMDL
MODEL 2
REMARK VINA RESULT:     -15.0      1.139      1.832
REMARK SMILES Cc1ccc(S(=O)(=O)N2c3ccc(C(=O)NCCCNC(=O)c4ccc(-c5c6nc(c(-c7c(F)c(F)c(F)c(F)c7F)c7ccc([nH]7)c(-c7c(F)c(F)c(F)c(F)c7F)c7nc(c(-c8c(F)c(F)c(F)c(F)c8F)c8ccc5[nH]8)C=C7)C=C6)cc4)cc3C[C@H]2C)cc1
REMARK SMILES IDX 18 1 17 2 16 3 14 4 15 5 13 7 9 8 10 9 89 10 11 11 87 12
REMARK SMILES IDX 88 13 90 14 12 15 86 16 6 17 7 18 8 19 5 20 1 21 2 22 3 23
REMARK SMILES IDX 92 24 4 25 91 26 19 27 20 28 21 29 22 31 23 32 24 33 85 34
REMARK SMILES IDX 25 35 84 36 26 37 27 38 28 39 78 40 29 41 83 42 77 43 79 44
REMARK SMILES IDX 30 45 82 46 76 47 75 48 31 50 63 51 43 52 62 53 44 54 47 55
REMARK SMILES IDX 61 56 80 57 45 58 46 59 60 61 81 62 48 63 32 64 33 65 41 66
REMARK SMILES IDX 34 67 35 68 39 69 42 70 36 71 37 72 40 73 38 74 64 75 65 76
REMARK SMILES IDX 73 77 66 78 67 79 71 80 74 81 68 82 69 83 72 84 70 85 49 86
REMARK SMILES IDX 50 87 58 88 51 89 52 90 56 91 59 92 53 93 54 94 57 95 55 96
REMARK H PARENT 16 6 20 30 79 49 47 60
REMARK Flexibility Score: inf
ROOT
ATOM      1  C   UNL A   1      32.352  30.585  26.803  1.00  0.00     0.042 C 
ENDROOT
BRANCH   1   2
ATOM      2  C   UNL A   1      32.010  29.722  25.585  1.00  0.00     0.118 C 
BRANCH   2   3
ATOM      3  N   UNL A   1      33.104  29.679  24.626  1.00  0.00    -0.352 N 
ATOM      4  C   UNL A   1      33.609  28.687  23.821  1.00  0.00     0.251 C 
ATOM      5  O   UNL A   1      34.521  29.017  23.058  1.00  0.00    -0.269 OA
ATOM      6  H   UNL A   1      33.579  30.536  24.535  1.00  0.00     0.163 HD
BRANCH   4   7
ATOM      7  C   UNL A   1      33.156  27.257  23.821  1.00  0.00     0.040 A 
ATOM      8  N   UNL A   1      31.895  23.245  24.311  1.00  0.00    -0.263 N 
ATOM      9  C   UNL A   1      32.263  24.609  24.024  1.00  0.00     0.055 A 
ATOM     10  C   UNL A   1      32.111  23.126  25.812  1.00  0.00     0.101 C 
ATOM     11  C   UNL A   1      32.045  25.291  22.850  1.00  0.00     0.028 A 
ATOM     12  C   UNL A   1      32.917  25.215  25.090  1.00  0.00    -0.021 A 
ATOM     13  C   UNL A   1      33.103  24.243  26.207  1.00  0.00     0.063 C 
ATOM     14  C   UNL A   1      30.750  23.345  26.491  1.00  0.00     0.032 C 
ATOM     15  C   UNL A   1      32.511  26.604  22.756  1.00  0.00     0.016 A 
ATOM     16  C   UNL A   1      33.364  26.528  25.008  1.00  0.00     0.019 A 
BRANCH   8  17
ATOM     17  S   UNL A   1      32.784  22.143  23.317  1.00  0.00     0.264 S 
ATOM     18  O   UNL A   1      32.911  22.741  22.003  1.00  0.00    -0.201 OA
ATOM     19  O   UNL A   1      32.197  20.825  23.480  1.00  0.00    -0.201 OA
BRANCH  17  20
ATOM     20  C   UNL A   1      34.436  21.996  23.962  1.00  0.00     0.088 A 
ATOM     21  C   UNL A   1      38.381  22.137  25.676  1.00  0.00     0.044 C 
ATOM     22  C   UNL A   1      37.020  22.060  25.050  1.00  0.00    -0.051 A 
ATOM     23  C   UNL A   1      36.653  22.974  24.056  1.00  0.00     0.005 A 
ATOM     24  C   UNL A   1      36.108  21.073  25.438  1.00  0.00     0.005 A 
ATOM     25  C   UNL A   1      35.366  22.947  23.518  1.00  0.00     0.022 A 
ATOM     26  C   UNL A   1      34.825  21.031  24.886  1.00  0.00     0.022 A 
ENDBRANCH  17  20
ENDBRANCH   8  17
ENDBRANCH   4   7
ENDBRANCH   2   3
ENDBRANCH   1   2
BRANCH   1  27
ATOM     27  C   UNL A   1      33.620  30.161  27.511  1.00  0.00     0.118 C 
BRANCH  27  28
ATOM     28  N   UNL A   1      34.249  31.228  28.282  1.00  0.00    -0.352 N 
ATOM     29  C   UNL A   1      35.450  31.219  28.977  1.00  0.00     0.251 C 
ATOM     30  H   UNL A   1      33.750  32.076  28.313  1.00  0.00     0.163 HD
ATOM     31  O   UNL A   1      35.798  32.184  29.623  1.00  0.00    -0.269 OA
BRANCH  29  32
ATOM     32  C   UNL A   1      36.357  30.059  28.802  1.00  0.00     0.039 A 
ATOM     33  C   UNL A   1      36.679  29.306  29.935  1.00  0.00     0.014 A 
ATOM     34  C   UNL A   1      37.061  29.887  27.614  1.00  0.00     0.014 A 
ATOM     35  C   UNL A   1      37.861  28.571  29.947  1.00  0.00     0.010 A 
ATOM     36  C   UNL A   1      38.293  29.273  27.667  1.00  0.00     0.010 A 
ATOM     37  C   UNL A   1      38.718  28.662  28.850  1.00  0.00    -0.014 A 
BRANCH  37  38
ATOM     38  C   UNL A   1      40.109  28.236  28.881  1.00  0.00     0.031 A 
ATOM     39  C   UNL A   1      40.491  26.901  28.377  1.00  0.00     0.074 A 
ATOM     40  C   UNL A   1      41.072  29.090  29.295  1.00  0.00     0.049 A 
ATOM     41  N   UNL A   1      41.514  26.245  28.814  1.00  0.00    -0.248 NA
ATOM     42  C   UNL A   1      39.735  26.179  27.357  1.00  0.00     0.031 C 
ATOM     43  C   UNL A   1      42.514  28.931  29.125  1.00  0.00     0.029 A 
ATOM     44  N   UNL A   1      40.940  30.224  30.117  1.00  0.00    -0.354 N 
ATOM     45  C   UNL A   1      41.706  25.178  27.973  1.00  0.00     0.074 A 
ATOM     46  C   UNL A   1      40.539  25.137  27.123  1.00  0.00     0.031 C 
ATOM     47  C   UNL A   1      43.148  29.711  30.012  1.00  0.00     0.029 A 
ATOM     48  C   UNL A   1      42.134  30.294  30.873  1.00  0.00     0.049 A 
ATOM     49  H   UNL A   1      40.175  30.841  30.159  1.00  0.00     0.167 HD
ATOM     50  C   UNL A   1      42.894  24.516  27.977  1.00  0.00     0.037 A 
ATOM     51  C   UNL A   1      42.139  30.221  32.233  1.00  0.00     0.037 A 
ATOM     52  C   UNL A   1      43.837  25.095  28.921  1.00  0.00     0.049 A 
ATOM     53  C   UNL A   1      42.967  29.088  32.783  1.00  0.00     0.074 A 
ATOM     54  C   UNL A   1      44.863  26.012  28.761  1.00  0.00     0.029 A 
ATOM     55  N   UNL A   1      43.589  25.015  30.287  1.00  0.00    -0.354 N 
ATOM     56  N   UNL A   1      43.269  28.019  32.103  1.00  0.00    -0.248 NA
ATOM     57  C   UNL A   1      43.493  29.057  34.143  1.00  0.00     0.031 C 
ATOM     58  C   UNL A   1      45.233  26.490  30.037  1.00  0.00     0.029 A 
ATOM     59  C   UNL A   1      44.437  25.861  30.978  1.00  0.00     0.049 A 
ATOM     60  H   UNL A   1      42.908  24.440  30.704  1.00  0.00     0.167 HD
ATOM     61  C   UNL A   1      43.991  27.163  32.897  1.00  0.00     0.074 A 
ATOM     62  C   UNL A   1      44.117  27.866  34.158  1.00  0.00     0.031 C 
ATOM     63  C   UNL A   1      44.416  25.951  32.429  1.00  0.00     0.037 A 
BRANCH  50  64
ATOM     64  C   UNL A   1      43.263  23.544  26.891  1.00  0.00     0.064 A 
ATOM     65  C   UNL A   1      42.884  22.188  26.954  1.00  0.00     0.173 A 
ATOM     66  C   UNL A   1      44.041  23.903  25.776  1.00  0.00     0.173 A 
ATOM     67  F   UNL A   1      42.097  21.725  27.932  1.00  0.00    -0.203 F 
ATOM     68  C   UNL A   1      43.327  21.247  26.024  1.00  0.00     0.198 A 
ATOM     69  C   UNL A   1      44.523  22.954  24.870  1.00  0.00     0.198 A 
ATOM     70  F   UNL A   1      44.349  25.189  25.541  1.00  0.00    -0.203 F 
ATOM     71  F   UNL A   1      42.947  19.966  26.141  1.00  0.00    -0.200 F 
ATOM     72  C   UNL A   1      44.172  21.624  25.000  1.00  0.00     0.200 A 
ATOM     73  F   UNL A   1      45.344  23.333  23.881  1.00  0.00    -0.200 F 
ATOM     74  F   UNL A   1      44.640  20.709  24.139  1.00  0.00    -0.200 F 
ENDBRANCH  50  64
BRANCH  51  75
ATOM     75  C   UNL A   1      40.899  30.747  32.856  1.00  0.00     0.064 A 
ATOM     76  C   UNL A   1      40.731  32.142  32.925  1.00  0.00     0.173 A 
ATOM     77  C   UNL A   1      39.760  29.944  32.994  1.00  0.00     0.173 A 
ATOM     78  F   UNL A   1      41.793  32.951  32.796  1.00  0.00    -0.203 F 
ATOM     79  C   UNL A   1      39.463  32.712  33.008  1.00  0.00     0.198 A 
ATOM     80  C   UNL A   1      38.491  30.521  33.082  1.00  0.00     0.198 A 
ATOM     81  F   UNL A   1      39.858  28.610  32.918  1.00  0.00    -0.203 F 
ATOM     82  F   UNL A   1      39.326  34.045  32.959  1.00  0.00    -0.200 F 
ATOM     83  C   UNL A   1      38.342  31.900  33.053  1.00  0.00     0.200 A 
ATOM     84  F   UNL A   1      37.404  29.737  33.098  1.00  0.00    -0.200 F 
ATOM     85  F   UNL A   1      37.118  32.445  33.028  1.00  0.00    -0.200 F 
ENDBRANCH  51  75
BRANCH  63  86
ATOM     86  C   UNL A   1      44.975  24.798  33.239  1.00  0.00     0.064 A 
ATOM     87  C   UNL A   1      44.285  23.604  33.503  1.00  0.00     0.173 A 
ATOM     88  C   UNL A   1      46.327  24.816  33.674  1.00  0.00     0.173 A 
ATOM     89  F   UNL A   1      43.048  23.391  33.040  1.00  0.00    -0.203 F 
ATOM     90  C   UNL A   1      44.871  22.545  34.207  1.00  0.00     0.198 A 
ATOM     91  C   UNL A   1      46.926  23.735  34.321  1.00  0.00     0.198 A 
ATOM     92  F   UNL A   1      47.127  25.870  33.460  1.00  0.00    -0.203 F 
ATOM     93  F   UNL A   1      44.148  21.447  34.471  1.00  0.00    -0.200 F 
ATOM     94  C   UNL A   1      46.192  22.606  34.605  1.00  0.00     0.200 A 
ATOM     95  F   UNL A   1      48.226  23.791  34.646  1.00  0.00    -0.200 F 
ATOM     96  F   UNL A   1      46.761  21.570  35.237  1.00  0.00    -0.200 F 
ENDBRANCH  63  86
ENDBRANCH  37  38
ENDBRANCH  29  32
ENDBRANCH  27  28
ENDBRANCH   1  27
TORSDOF 12
ENDMDL
MODEL 3
REMARK VINA RESULT:     -14.9      3.719     10.140
REMARK SMILES Cc1ccc(S(=O)(=O)N2c3ccc(C(=O)NCCCNC(=O)c4ccc(-c5c6nc(c(-c7c(F)c(F)c(F)c(F)c7F)c7ccc([nH]7)c(-c7c(F)c(F)c(F)c(F)c7F)c7nc(c(-c8c(F)c(F)c(F)c(F)c8F)c8ccc5[nH]8)C=C7)C=C6)cc4)cc3C[C@H]2C)cc1
REMARK SMILES IDX 18 1 17 2 16 3 14 4 15 5 13 7 9 8 10 9 89 10 11 11 87 12
REMARK SMILES IDX 88 13 90 14 12 15 86 16 6 17 7 18 8 19 5 20 1 21 2 22 3 23
REMARK SMILES IDX 92 24 4 25 91 26 19 27 20 28 21 29 22 31 23 32 24 33 85 34
REMARK SMILES IDX 25 35 84 36 26 37 27 38 28 39 78 40 29 41 83 42 77 43 79 44
REMARK SMILES IDX 30 45 82 46 76 47 75 48 31 50 63 51 43 52 62 53 44 54 47 55
REMARK SMILES IDX 61 56 80 57 45 58 46 59 60 61 81 62 48 63 32 64 33 65 41 66
REMARK SMILES IDX 34 67 35 68 39 69 42 70 36 71 37 72 40 73 38 74 64 75 65 76
REMARK SMILES IDX 73 77 66 78 67 79 71 80 74 81 68 82 69 83 72 84 70 85 49 86
REMARK SMILES IDX 50 87 58 88 51 89 52 90 56 91 59 92 53 93 54 94 57 95 55 96
REMARK H PARENT 16 6 20 30 79 49 47 60
REMARK Flexibility Score: inf
ROOT
ATOM      1  C   UNL A   1      38.350  21.298  25.487  1.00  0.00     0.042 C 
ENDROOT
BRANCH   1   2
ATOM      2  C   UNL A   1      36.891  21.255  25.024  1.00  0.00     0.118 C 
BRANCH   2   3
ATOM      3  N   UNL A   1      35.966  21.210  26.146  1.00  0.00    -0.352 N 
ATOM      4  C   UNL A   1      34.823  21.910  26.450  1.00  0.00     0.251 C 
ATOM      5  O   UNL A   1      34.230  21.563  27.474  1.00  0.00    -0.269 OA
ATOM      6  H   UNL A   1      36.208  20.542  26.827  1.00  0.00     0.163 HD
BRANCH   4   7
ATOM      7  C   UNL A   1      34.272  23.056  25.654  1.00  0.00     0.040 A 
ATOM      8  N   UNL A   1      32.701  26.538  23.830  1.00  0.00    -0.263 N 
ATOM      9  C   UNL A   1      33.287  25.320  24.330  1.00  0.00     0.055 A 
ATOM     10  C   UNL A   1      32.406  27.336  25.091  1.00  0.00     0.101 C 
ATOM     11  C   UNL A   1      33.928  24.352  23.594  1.00  0.00     0.028 A 
ATOM     12  C   UNL A   1      33.125  25.181  25.704  1.00  0.00    -0.021 A 
ATOM     13  C   UNL A   1      32.327  26.317  26.250  1.00  0.00     0.063 C 
ATOM     14  C   UNL A   1      33.575  28.310  25.304  1.00  0.00     0.032 C 
ATOM     15  C   UNL A   1      34.398  23.220  24.264  1.00  0.00     0.016 A 
ATOM     16  C   UNL A   1      33.608  24.066  26.377  1.00  0.00     0.019 A 
BRANCH   8  17
ATOM     17  S   UNL A   1      31.353  26.200  22.801  1.00  0.00     0.264 S 
ATOM     18  O   UNL A   1      30.614  25.103  23.392  1.00  0.00    -0.201 OA
ATOM     19  O   UNL A   1      31.843  26.116  21.437  1.00  0.00    -0.201 OA
BRANCH  17  20
ATOM     20  C   UNL A   1      30.259  27.604  22.811  1.00  0.00     0.088 A 
ATOM     21  C   UNL A   1      27.683  31.016  22.319  1.00  0.00     0.044 C 
ATOM     22  C   UNL A   1      28.591  29.841  22.529  1.00  0.00    -0.051 A 
ATOM     23  C   UNL A   1      29.919  29.895  22.093  1.00  0.00     0.005 A 
ATOM     24  C   UNL A   1      28.132  28.686  23.171  1.00  0.00     0.005 A 
ATOM     25  C   UNL A   1      30.748  28.781  22.227  1.00  0.00     0.022 A 
ATOM     26  C   UNL A   1      28.966  27.575  23.325  1.00  0.00     0.022 A 
ENDBRANCH  17  20
ENDBRANCH   8  17
ENDBRANCH   4   7
ENDBRANCH   2   3
ENDBRANCH   1   2
BRANCH   1  27
ATOM     27  C   UNL A   1      38.775  22.645  26.029  1.00  0.00     0.118 C 
BRANCH  27  28
ATOM     28  N   UNL A   1      40.200  22.736  26.330  1.00  0.00    -0.352 N 
ATOM     29  C   UNL A   1      40.950  23.840  26.706  1.00  0.00     0.251 C 
ATOM     30  H   UNL A   1      40.700  21.891  26.257  1.00  0.00     0.163 HD
ATOM     31  O   UNL A   1      42.149  23.752  26.859  1.00  0.00    -0.269 OA
BRANCH  29  32
ATOM     32  C   UNL A   1      40.236  25.095  27.045  1.00  0.00     0.039 A 
ATOM     33  C   UNL A   1      40.587  26.255  26.348  1.00  0.00     0.014 A 
ATOM     34  C   UNL A   1      39.439  25.167  28.183  1.00  0.00     0.014 A 
ATOM     35  C   UNL A   1      40.353  27.495  26.935  1.00  0.00     0.010 A 
ATOM     36  C   UNL A   1      39.326  26.380  28.827  1.00  0.00     0.010 A 
ATOM     37  C   UNL A   1      39.831  27.537  28.229  1.00  0.00    -0.014 A 
BRANCH  37  38
ATOM     38  C   UNL A   1      39.865  28.725  29.070  1.00  0.00     0.031 A 
ATOM     39  C   UNL A   1      38.823  29.763  28.936  1.00  0.00     0.074 A 
ATOM     40  C   UNL A   1      40.805  28.847  30.035  1.00  0.00     0.049 A 
ATOM     41  N   UNL A   1      39.025  31.008  29.209  1.00  0.00    -0.248 NA
ATOM     42  C   UNL A   1      37.472  29.489  28.454  1.00  0.00     0.031 C 
ATOM     43  C   UNL A   1      40.811  29.813  31.130  1.00  0.00     0.029 A 
ATOM     44  N   UNL A   1      42.054  28.208  30.124  1.00  0.00    -0.354 N 
ATOM     45  C   UNL A   1      37.803  31.632  29.206  1.00  0.00     0.074 A 
ATOM     46  C   UNL A   1      36.874  30.666  28.665  1.00  0.00     0.031 C 
ATOM     47  C   UNL A   1      42.060  29.928  31.604  1.00  0.00     0.029 A 
ATOM     48  C   UNL A   1      42.921  29.141  30.740  1.00  0.00     0.049 A 
ATOM     49  H   UNL A   1      42.280  27.299  29.821  1.00  0.00     0.167 HD
ATOM     50  C   UNL A   1      37.661  32.852  29.789  1.00  0.00     0.037 A 
ATOM     51  C   UNL A   1      44.037  29.616  30.119  1.00  0.00     0.037 A 
ATOM     52  C   UNL A   1      38.906  33.322  30.377  1.00  0.00     0.049 A 
ATOM     53  C   UNL A   1      44.061  31.115  29.965  1.00  0.00     0.074 A 
ATOM     54  C   UNL A   1      39.401  33.261  31.670  1.00  0.00     0.029 A 
ATOM     55  N   UNL A   1      39.982  33.645  29.558  1.00  0.00    -0.354 N 
ATOM     56  N   UNL A   1      42.992  31.858  29.975  1.00  0.00    -0.248 NA
ATOM     57  C   UNL A   1      45.281  31.888  29.762  1.00  0.00     0.031 C 
ATOM     58  C   UNL A   1      40.783  33.547  31.629  1.00  0.00     0.029 A 
ATOM     59  C   UNL A   1      41.132  33.787  30.312  1.00  0.00     0.049 A 
ATOM     60  H   UNL A   1      39.933  33.757  28.581  1.00  0.00     0.167 HD
ATOM     61  C   UNL A   1      43.345  33.169  29.769  1.00  0.00     0.074 A 
ATOM     62  C   UNL A   1      44.791  33.135  29.656  1.00  0.00     0.031 C 
ATOM     63  C   UNL A   1      42.403  34.157  29.710  1.00  0.00     0.037 A 
BRANCH  50  64
ATOM     64  C   UNL A   1      36.308  33.443  30.073  1.00  0.00     0.064 A 
ATOM     65  C   UNL A   1      35.513  33.991  29.046  1.00  0.00     0.173 A 
ATOM     66  C   UNL A   1      35.769  33.531  31.368  1.00  0.00     0.173 A 
ATOM     67  F   UNL A   1      35.881  33.923  27.761  1.00  0.00    -0.203 F 
ATOM     68  C   UNL A   1      34.315  34.658  29.308  1.00  0.00     0.198 A 
ATOM     69  C   UNL A   1      34.594  34.239  31.636  1.00  0.00     0.198 A 
ATOM     70  F   UNL A   1      36.373  32.929  32.404  1.00  0.00    -0.203 F 
ATOM     71  F   UNL A   1      33.606  35.174  28.293  1.00  0.00    -0.200 F 
ATOM     72  C   UNL A   1      33.872  34.810  30.606  1.00  0.00     0.200 A 
ATOM     73  F   UNL A   1      34.174  34.380  32.902  1.00  0.00    -0.200 F 
ATOM     74  F   UNL A   1      32.750  35.498  30.861  1.00  0.00    -0.200 F 
ENDBRANCH  50  64
BRANCH  51  75
ATOM     75  C   UNL A   1      44.631  28.654  29.159  1.00  0.00     0.064 A 
ATOM     76  C   UNL A   1      45.437  27.619  29.668  1.00  0.00     0.173 A 
ATOM     77  C   UNL A   1      44.109  28.500  27.869  1.00  0.00     0.173 A 
ATOM     78  F   UNL A   1      45.958  27.722  30.900  1.00  0.00    -0.203 F 
ATOM     79  C   UNL A   1      45.612  26.430  28.965  1.00  0.00     0.198 A 
ATOM     80  C   UNL A   1      44.291  27.307  27.166  1.00  0.00     0.198 A 
ATOM     81  F   UNL A   1      43.320  29.446  27.340  1.00  0.00    -0.203 F 
ATOM     82  F   UNL A   1      46.292  25.418  29.523  1.00  0.00    -0.200 F 
ATOM     83  C   UNL A   1      45.011  26.263  27.728  1.00  0.00     0.200 A 
ATOM     84  F   UNL A   1      43.688  27.134  25.981  1.00  0.00    -0.200 F 
ATOM     85  F   UNL A   1      45.092  25.083  27.097  1.00  0.00    -0.200 F 
ENDBRANCH  51  75
BRANCH  63  86
ATOM     86  C   UNL A   1      42.594  35.582  29.230  1.00  0.00     0.064 A 
ATOM     87  C   UNL A   1      41.975  36.127  28.093  1.00  0.00     0.173 A 
ATOM     88  C   UNL A   1      43.332  36.510  30.011  1.00  0.00     0.173 A 
ATOM     89  F   UNL A   1      41.143  35.405  27.333  1.00  0.00    -0.203 F 
ATOM     90  C   UNL A   1      42.138  37.468  27.727  1.00  0.00     0.198 A 
ATOM     91  C   UNL A   1      43.443  37.860  29.676  1.00  0.00     0.198 A 
ATOM     92  F   UNL A   1      43.948  36.150  31.146  1.00  0.00    -0.203 F 
ATOM     93  F   UNL A   1      41.561  37.921  26.605  1.00  0.00    -0.200 F 
ATOM     94  C   UNL A   1      42.861  38.335  28.522  1.00  0.00     0.200 A 
ATOM     95  F   UNL A   1      44.099  38.697  30.492  1.00  0.00    -0.200 F 
ATOM     96  F   UNL A   1      42.976  39.628  28.191  1.00  0.00    -0.200 F 
ENDBRANCH  63  86
ENDBRANCH  37  38
ENDBRANCH  29  32
ENDBRANCH  27  28
ENDBRANCH   1  27
TORSDOF 12
ENDMDL
