MODEL 1
REMARK VINA RESULT:     -12.1      0.000      0.000
REMARK SMILES CC(C)[NH2+][C@]1(C(=O)NCCCNC(=O)c2ccc(-c3c4nc(c(-c5c(F)c(F)c(F)c(F)c5F)c5ccc([nH]5)c(-c5c(F)c(F)c(F)c(F)c5F)c5nc(c(-c6c(F)c(F)c(F)c(F)c6F)c6ccc3[nH]6)C=C5)C=C4)cc2)CCC[C@H]([N@H+](C)C2CCCCC2)C1
REMARK SMILES IDX 10 1 9 2 8 3 6 4 7 5 5 7 78 8 90 9 79 10 81 11 80 12 4 13
REMARK SMILES IDX 2 16 1 17 3 18 82 19 83 20 84 22 85 23 89 24 86 25 88 26
REMARK SMILES IDX 87 27 11 28 12 29 13 30 14 32 15 33 16 34 77 35 17 36 76 37
REMARK SMILES IDX 18 38 19 39 20 40 70 41 21 42 75 43 69 44 71 45 22 46 74 47
REMARK SMILES IDX 68 48 67 49 23 51 55 52 35 53 54 54 36 55 39 56 53 57 72 58
REMARK SMILES IDX 37 59 38 60 52 62 73 63 40 64 24 65 25 66 33 67 26 68 27 69
REMARK SMILES IDX 31 70 34 71 28 72 29 73 32 74 30 75 56 76 57 77 65 78 58 79
REMARK SMILES IDX 59 80 63 81 66 82 60 83 61 84 64 85 62 86 41 87 42 88 50 89
REMARK SMILES IDX 43 90 44 91 48 92 51 93 45 94 46 95 49 96 47 97
REMARK H PARENT 8 6 4 14 4 15 82 21 12 31 71 50 39 61
REMARK Flexibility Score: inf
ROOT
ATOM      1  C   UNL A   1      31.241  31.801  26.136  1.00  0.00     0.042 C 
ENDROOT
BRANCH   1   2
ATOM      2  C   UNL A   1      31.468  30.384  25.632  1.00  0.00     0.118 C 
BRANCH   2   3
ATOM      3  N   UNL A   1      30.713  30.153  24.427  1.00  0.00    -0.351 N 
ATOM      4  C   UNL A   1      30.843  29.258  23.423  1.00  0.00     0.281 C 
ATOM      5  O   UNL A   1      30.234  29.580  22.390  1.00  0.00    -0.268 OA
ATOM      6  H   UNL A   1      29.954  30.769  24.312  1.00  0.00     0.163 HD
BRANCH   4   7
ATOM      7  C   UNL A   1      31.560  27.863  23.536  1.00  0.00     0.181 C 
ATOM      8  C   UNL A   1      31.124  27.154  22.200  1.00  0.00     0.079 C 
ATOM      9  C   UNL A   1      33.095  27.756  23.628  1.00  0.00     0.144 C 
ATOM     10  C   UNL A   1      32.026  26.122  21.504  1.00  0.00     0.013 C 
ATOM     11  C   UNL A   1      33.643  26.300  23.530  1.00  0.00     0.190 C 
ATOM     12  C   UNL A   1      33.383  25.804  22.108  1.00  0.00     0.065 C 
BRANCH   7  13
ATOM     13  N   UNL A   1      30.961  27.163  24.714  1.00  0.00    -0.331 N 
ATOM     14  H   UNL A   1      31.733  26.745  25.232  1.00  0.00     0.347 HD
ATOM     15  H   UNL A   1      30.431  27.899  25.183  1.00  0.00     0.347 HD
BRANCH  13  16
ATOM     16  C   UNL A   1      29.963  26.102  24.502  1.00  0.00     0.176 C 
ATOM     17  C   UNL A   1      29.810  25.363  25.838  1.00  0.00     0.075 C 
ATOM     18  C   UNL A   1      28.572  26.570  24.066  1.00  0.00     0.075 C 
ENDBRANCH  13  16
ENDBRANCH   7  13
BRANCH  11  19
ATOM     19  N   UNL A   1      33.243  25.495  24.733  1.00  0.00    -0.332 N 
ATOM     20  C   UNL A   1      33.884  26.090  25.920  1.00  0.00     0.333 C 
ATOM     21  H   UNL A   1      32.227  25.563  24.769  1.00  0.00     0.348 HD
BRANCH  19  22
ATOM     22  C   UNL A   1      33.393  24.010  24.684  1.00  0.00     0.184 C 
ATOM     23  C   UNL A   1      34.856  23.507  24.499  1.00  0.00     0.065 C 
ATOM     24  C   UNL A   1      32.927  23.362  26.005  1.00  0.00     0.065 C 
ATOM     25  C   UNL A   1      34.967  21.976  24.505  1.00  0.00     0.006 C 
ATOM     26  C   UNL A   1      32.891  21.846  25.914  1.00  0.00     0.006 C 
ATOM     27  C   UNL A   1      34.298  21.317  25.708  1.00  0.00     0.000 C 
ENDBRANCH  19  22
ENDBRANCH  11  19
ENDBRANCH   4   7
ENDBRANCH   2   3
ENDBRANCH   1   2
BRANCH   1  28
ATOM     28  C   UNL A   1      32.271  32.217  27.182  1.00  0.00     0.118 C 
BRANCH  28  29
ATOM     29  N   UNL A   1      32.278  33.662  27.383  1.00  0.00    -0.352 N 
ATOM     30  C   UNL A   1      32.977  34.413  28.286  1.00  0.00     0.251 C 
ATOM     31  H   UNL A   1      31.691  34.171  26.779  1.00  0.00     0.163 HD
ATOM     32  O   UNL A   1      32.611  35.561  28.546  1.00  0.00    -0.269 OA
BRANCH  30  33
ATOM     33  C   UNL A   1      34.173  33.855  28.940  1.00  0.00     0.039 A 
ATOM     34  C   UNL A   1      35.424  34.418  28.676  1.00  0.00     0.014 A 
ATOM     35  C   UNL A   1      34.064  32.741  29.777  1.00  0.00     0.014 A 
ATOM     36  C   UNL A   1      36.559  33.888  29.287  1.00  0.00     0.010 A 
ATOM     37  C   UNL A   1      35.179  32.275  30.458  1.00  0.00     0.010 A 
ATOM     38  C   UNL A   1      36.440  32.828  30.202  1.00  0.00    -0.014 A 
BRANCH  38  39
ATOM     39  C   UNL A   1      37.628  32.259  30.880  1.00  0.00     0.031 A 
ATOM     40  C   UNL A   1      38.432  31.184  30.204  1.00  0.00     0.074 A 
ATOM     41  C   UNL A   1      37.936  32.664  32.126  1.00  0.00     0.049 A 
ATOM     42  N   UNL A   1      39.460  30.512  30.655  1.00  0.00    -0.248 NA
ATOM     43  C   UNL A   1      38.003  30.786  28.854  1.00  0.00     0.031 C 
ATOM     44  C   UNL A   1      37.189  33.658  32.900  1.00  0.00     0.029 A 
ATOM     45  N   UNL A   1      38.952  32.283  32.963  1.00  0.00    -0.354 N 
ATOM     46  C   UNL A   1      39.785  29.605  29.655  1.00  0.00     0.074 A 
ATOM     47  C   UNL A   1      38.811  29.768  28.599  1.00  0.00     0.031 C 
ATOM     48  C   UNL A   1      37.790  33.829  34.089  1.00  0.00     0.029 A 
ATOM     49  C   UNL A   1      38.937  32.932  34.173  1.00  0.00     0.049 A 
ATOM     50  H   UNL A   1      39.627  31.610  32.720  1.00  0.00     0.167 HD
ATOM     51  C   UNL A   1      40.821  28.734  29.611  1.00  0.00     0.037 A 
ATOM     52  C   UNL A   1      39.760  32.810  35.232  1.00  0.00     0.037 A 
ATOM     53  C   UNL A   1      41.805  28.604  30.652  1.00  0.00     0.049 A 
ATOM     54  C   UNL A   1      40.912  31.846  35.151  1.00  0.00     0.074 A 
ATOM     55  C   UNL A   1      42.933  27.804  30.680  1.00  0.00     0.029 A 
ATOM     56  N   UNL A   1      41.775  29.298  31.854  1.00  0.00    -0.354 N 
ATOM     57  N   UNL A   1      41.254  31.046  34.171  1.00  0.00    -0.248 NA
ATOM     58  C   UNL A   1      41.795  31.773  36.322  1.00  0.00     0.031 C 
ATOM     59  C   UNL A   1      43.562  27.981  31.917  1.00  0.00     0.029 A 
ATOM     60  C   UNL A   1      42.853  28.928  32.641  1.00  0.00     0.049 A 
ATOM     61  H   UNL A   1      41.088  29.954  32.110  1.00  0.00     0.167 HD
ATOM     62  C   UNL A   1      42.405  30.394  34.593  1.00  0.00     0.074 A 
ATOM     63  C   UNL A   1      42.710  30.907  35.913  1.00  0.00     0.031 C 
ATOM     64  C   UNL A   1      43.139  29.455  33.950  1.00  0.00     0.037 A 
BRANCH  51  65
ATOM     65  C   UNL A   1      40.945  27.862  28.394  1.00  0.00     0.064 A 
ATOM     66  C   UNL A   1      40.321  26.607  28.321  1.00  0.00     0.173 A 
ATOM     67  C   UNL A   1      41.673  28.296  27.277  1.00  0.00     0.173 A 
ATOM     68  F   UNL A   1      39.623  26.137  29.367  1.00  0.00    -0.203 F 
ATOM     69  C   UNL A   1      40.447  25.807  27.188  1.00  0.00     0.198 A 
ATOM     70  C   UNL A   1      41.771  27.508  26.134  1.00  0.00     0.198 A 
ATOM     71  F   UNL A   1      42.286  29.490  27.291  1.00  0.00    -0.203 F 
ATOM     72  F   UNL A   1      39.886  24.591  27.164  1.00  0.00    -0.200 F 
ATOM     73  C   UNL A   1      41.165  26.262  26.093  1.00  0.00     0.200 A 
ATOM     74  F   UNL A   1      42.455  27.954  25.071  1.00  0.00    -0.200 F 
ATOM     75  F   UNL A   1      41.280  25.494  25.000  1.00  0.00    -0.200 F 
ENDBRANCH  51  65
BRANCH  52  76
ATOM     76  C   UNL A   1      39.542  33.647  36.440  1.00  0.00     0.064 A 
ATOM     77  C   UNL A   1      40.083  34.937  36.527  1.00  0.00     0.173 A 
ATOM     78  C   UNL A   1      38.788  33.181  37.526  1.00  0.00     0.173 A 
ATOM     79  F   UNL A   1      40.825  35.421  35.520  1.00  0.00    -0.203 F 
ATOM     80  C   UNL A   1      39.896  35.721  37.663  1.00  0.00     0.198 A 
ATOM     81  C   UNL A   1      38.579  33.977  38.651  1.00  0.00     0.198 A 
ATOM     82  F   UNL A   1      38.240  31.957  37.489  1.00  0.00    -0.203 F 
ATOM     83  F   UNL A   1      40.461  36.934  37.737  1.00  0.00    -0.200 F 
ATOM     84  C   UNL A   1      39.140  35.243  38.722  1.00  0.00     0.200 A 
ATOM     85  F   UNL A   1      37.832  33.518  39.664  1.00  0.00    -0.200 F 
ATOM     86  F   UNL A   1      38.955  36.000  39.812  1.00  0.00    -0.200 F 
ENDBRANCH  52  76
BRANCH  64  87
ATOM     87  C   UNL A   1      44.361  28.943  34.655  1.00  0.00     0.064 A 
ATOM     88  C   UNL A   1      44.316  27.800  35.466  1.00  0.00     0.173 A 
ATOM     89  C   UNL A   1      45.599  29.584  34.486  1.00  0.00     0.173 A 
ATOM     90  F   UNL A   1      43.154  27.163  35.670  1.00  0.00    -0.203 F 
ATOM     91  C   UNL A   1      45.461  27.333  36.105  1.00  0.00     0.198 A 
ATOM     92  C   UNL A   1      46.746  29.095  35.102  1.00  0.00     0.198 A 
ATOM     93  F   UNL A   1      45.695  30.676  33.714  1.00  0.00    -0.203 F 
ATOM     94  F   UNL A   1      45.385  26.269  36.917  1.00  0.00    -0.200 F 
ATOM     95  C   UNL A   1      46.676  27.976  35.917  1.00  0.00     0.200 A 
ATOM     96  F   UNL A   1      47.921  29.709  34.908  1.00  0.00    -0.200 F 
ATOM     97  F   UNL A   1      47.777  27.521  36.529  1.00  0.00    -0.200 F 
ENDBRANCH  64  87
ENDBRANCH  38  39
ENDBRANCH  30  33
ENDBRANCH  28  29
ENDBRANCH   1  28
TORSDOF 14
ENDMDL
MODEL 2
REMARK VINA RESULT:     -12.0      0.427      1.982
REMARK SMILES CC(C)[NH2+][C@]1(C(=O)NCCCNC(=O)c2ccc(-c3c4nc(c(-c5c(F)c(F)c(F)c(F)c5F)c5ccc([nH]5)c(-c5c(F)c(F)c(F)c(F)c5F)c5nc(c(-c6c(F)c(F)c(F)c(F)c6F)c6ccc3[nH]6)C=C5)C=C4)cc2)CCC[C@H]([N@H+](C)C2CCCCC2)C1
REMARK SMILES IDX 10 1 9 2 8 3 6 4 7 5 5 7 78 8 90 9 79 10 81 11 80 12 4 13
REMARK SMILES IDX 2 16 1 17 3 18 82 19 83 20 84 22 85 23 89 24 86 25 88 26
REMARK SMILES IDX 87 27 11 28 12 29 13 30 14 32 15 33 16 34 77 35 17 36 76 37
REMARK SMILES IDX 18 38 19 39 20 40 70 41 21 42 75 43 69 44 71 45 22 46 74 47
REMARK SMILES IDX 68 48 67 49 23 51 55 52 35 53 54 54 36 55 39 56 53 57 72 58
REMARK SMILES IDX 37 59 38 60 52 62 73 63 40 64 24 65 25 66 33 67 26 68 27 69
REMARK SMILES IDX 31 70 34 71 28 72 29 73 32 74 30 75 56 76 57 77 65 78 58 79
REMARK SMILES IDX 59 80 63 81 66 82 60 83 61 84 64 85 62 86 41 87 42 88 50 89
REMARK SMILES IDX 43 90 44 91 48 92 51 93 45 94 46 95 49 96 47 97
REMARK H PARENT 8 6 4 14 4 15 82 21 12 31 71 50 39 61
REMARK Flexibility Score: inf
ROOT
ATOM      1  C   UNL A   1      31.300  31.929  26.125  1.00  0.00     0.042 C 
ENDROOT
BRANCH   1   2
ATOM      2  C   UNL A   1      31.449  30.485  25.673  1.00  0.00     0.118 C 
BRANCH   2   3
ATOM      3  N   UNL A   1      30.650  30.242  24.498  1.00  0.00    -0.351 N 
ATOM      4  C   UNL A   1      30.751  29.346  23.491  1.00  0.00     0.281 C 
ATOM      5  O   UNL A   1      30.099  29.659  22.482  1.00  0.00    -0.268 OA
ATOM      6  H   UNL A   1      29.879  30.848  24.412  1.00  0.00     0.163 HD
BRANCH   4   7
ATOM      7  C   UNL A   1      31.489  27.961  23.579  1.00  0.00     0.181 C 
ATOM      8  C   UNL A   1      31.057  27.267  22.234  1.00  0.00     0.079 C 
ATOM      9  C   UNL A   1      33.025  27.874  23.662  1.00  0.00     0.144 C 
ATOM     10  C   UNL A   1      31.970  26.259  21.516  1.00  0.00     0.013 C 
ATOM     11  C   UNL A   1      33.594  26.428  23.537  1.00  0.00     0.190 C 
ATOM     12  C   UNL A   1      33.335  25.951  22.109  1.00  0.00     0.065 C 
BRANCH   7  13
ATOM     13  N   UNL A   1      30.906  27.233  24.748  1.00  0.00    -0.331 N 
ATOM     14  H   UNL A   1      31.687  26.827  25.263  1.00  0.00     0.347 HD
ATOM     15  H   UNL A   1      30.358  27.950  25.224  1.00  0.00     0.347 HD
BRANCH  13  16
ATOM     16  C   UNL A   1      29.934  26.151  24.523  1.00  0.00     0.176 C 
ATOM     17  C   UNL A   1      29.914  25.300  25.800  1.00  0.00     0.075 C 
ATOM     18  C   UNL A   1      28.498  26.591  24.233  1.00  0.00     0.075 C 
ENDBRANCH  13  16
ENDBRANCH   7  13
BRANCH  11  19
ATOM     19  N   UNL A   1      33.212  25.598  24.729  1.00  0.00    -0.332 N 
ATOM     20  C   UNL A   1      33.768  26.239  25.935  1.00  0.00     0.333 C 
ATOM     21  H   UNL A   1      32.193  25.594  24.731  1.00  0.00     0.348 HD
BRANCH  19  22
ATOM     22  C   UNL A   1      33.469  24.128  24.691  1.00  0.00     0.184 C 
ATOM     23  C   UNL A   1      34.905  23.727  24.238  1.00  0.00     0.065 C 
ATOM     24  C   UNL A   1      33.319  23.502  26.094  1.00  0.00     0.065 C 
ATOM     25  C   UNL A   1      35.137  22.210  24.262  1.00  0.00     0.006 C 
ATOM     26  C   UNL A   1      33.389  21.985  26.051  1.00  0.00     0.006 C 
ATOM     27  C   UNL A   1      34.767  21.554  25.589  1.00  0.00     0.000 C 
ENDBRANCH  19  22
ENDBRANCH  11  19
ENDBRANCH   4   7
ENDBRANCH   2   3
ENDBRANCH   1   2
BRANCH   1  28
ATOM     28  C   UNL A   1      32.264  32.286  27.252  1.00  0.00     0.118 C 
BRANCH  28  29
ATOM     29  N   UNL A   1      32.335  33.728  27.460  1.00  0.00    -0.352 N 
ATOM     30  C   UNL A   1      33.058  34.443  28.374  1.00  0.00     0.251 C 
ATOM     31  H   UNL A   1      31.779  34.267  26.852  1.00  0.00     0.163 HD
ATOM     32  O   UNL A   1      32.743  35.605  28.635  1.00  0.00    -0.269 OA
BRANCH  30  33
ATOM     33  C   UNL A   1      34.221  33.828  29.037  1.00  0.00     0.039 A 
ATOM     34  C   UNL A   1      35.506  34.283  28.730  1.00  0.00     0.014 A 
ATOM     35  C   UNL A   1      34.044  32.764  29.927  1.00  0.00     0.014 A 
ATOM     36  C   UNL A   1      36.608  33.698  29.350  1.00  0.00     0.010 A 
ATOM     37  C   UNL A   1      35.133  32.247  30.613  1.00  0.00     0.010 A 
ATOM     38  C   UNL A   1      36.427  32.693  30.315  1.00  0.00    -0.014 A 
BRANCH  38  39
ATOM     39  C   UNL A   1      37.581  32.068  31.002  1.00  0.00     0.031 A 
ATOM     40  C   UNL A   1      38.383  31.007  30.304  1.00  0.00     0.074 A 
ATOM     41  C   UNL A   1      37.858  32.412  32.274  1.00  0.00     0.049 A 
ATOM     42  N   UNL A   1      39.383  30.293  30.756  1.00  0.00    -0.248 NA
ATOM     43  C   UNL A   1      37.988  30.678  28.925  1.00  0.00     0.031 C 
ATOM     44  C   UNL A   1      37.108  33.387  33.069  1.00  0.00     0.029 A 
ATOM     45  N   UNL A   1      38.839  31.972  33.124  1.00  0.00    -0.354 N 
ATOM     46  C   UNL A   1      39.720  29.424  29.727  1.00  0.00     0.074 A 
ATOM     47  C   UNL A   1      38.783  29.654  28.651  1.00  0.00     0.031 C 
ATOM     48  C   UNL A   1      37.675  33.492  34.282  1.00  0.00     0.029 A 
ATOM     49  C   UNL A   1      38.800  32.567  34.361  1.00  0.00     0.049 A 
ATOM     50  H   UNL A   1      39.507  31.295  32.872  1.00  0.00     0.167 HD
ATOM     51  C   UNL A   1      40.738  28.533  29.675  1.00  0.00     0.037 A 
ATOM     52  C   UNL A   1      39.586  32.381  35.438  1.00  0.00     0.037 A 
ATOM     53  C   UNL A   1      41.686  28.335  30.740  1.00  0.00     0.049 A 
ATOM     54  C   UNL A   1      40.720  31.396  35.349  1.00  0.00     0.074 A 
ATOM     55  C   UNL A   1      42.796  27.510  30.767  1.00  0.00     0.029 A 
ATOM     56  N   UNL A   1      41.633  28.976  31.970  1.00  0.00    -0.354 N 
ATOM     57  N   UNL A   1      41.076  30.633  34.345  1.00  0.00    -0.248 NA
ATOM     58  C   UNL A   1      41.564  31.252  36.542  1.00  0.00     0.031 C 
ATOM     59  C   UNL A   1      43.389  27.619  32.029  1.00  0.00     0.029 A 
ATOM     60  C   UNL A   1      42.677  28.548  32.771  1.00  0.00     0.049 A 
ATOM     61  H   UNL A   1      40.952  29.636  32.234  1.00  0.00     0.167 HD
ATOM     62  C   UNL A   1      42.199  29.937  34.773  1.00  0.00     0.074 A 
ATOM     63  C   UNL A   1      42.474  30.385  36.123  1.00  0.00     0.031 C 
ATOM     64  C   UNL A   1      42.934  29.011  34.111  1.00  0.00     0.037 A 
BRANCH  51  65
ATOM     65  C   UNL A   1      40.882  27.713  28.426  1.00  0.00     0.064 A 
ATOM     66  C   UNL A   1      41.680  28.141  27.353  1.00  0.00     0.173 A 
ATOM     67  C   UNL A   1      40.240  26.472  28.309  1.00  0.00     0.173 A 
ATOM     68  F   UNL A   1      42.306  29.326  27.407  1.00  0.00    -0.203 F 
ATOM     69  C   UNL A   1      41.803  27.371  26.198  1.00  0.00     0.198 A 
ATOM     70  C   UNL A   1      40.391  25.690  27.167  1.00  0.00     0.198 A 
ATOM     71  F   UNL A   1      39.469  26.013  29.306  1.00  0.00    -0.203 F 
ATOM     72  F   UNL A   1      42.528  27.826  25.167  1.00  0.00    -0.200 F 
ATOM     73  C   UNL A   1      41.165  26.144  26.109  1.00  0.00     0.200 A 
ATOM     74  F   UNL A   1      39.783  24.499  27.086  1.00  0.00    -0.200 F 
ATOM     75  F   UNL A   1      41.290  25.401  25.001  1.00  0.00    -0.200 F 
ENDBRANCH  51  65
BRANCH  52  76
ATOM     76  C   UNL A   1      39.348  33.169  36.675  1.00  0.00     0.064 A 
ATOM     77  C   UNL A   1      38.467  32.706  37.661  1.00  0.00     0.173 A 
ATOM     78  C   UNL A   1      39.998  34.391  36.900  1.00  0.00     0.173 A 
ATOM     79  F   UNL A   1      37.810  31.551  37.484  1.00  0.00    -0.203 F 
ATOM     80  C   UNL A   1      38.226  33.447  38.816  1.00  0.00     0.198 A 
ATOM     81  C   UNL A   1      39.778  35.117  38.068  1.00  0.00     0.198 A 
ATOM     82  F   UNL A   1      40.859  34.873  35.991  1.00  0.00    -0.203 F 
ATOM     83  F   UNL A   1      37.346  33.002  39.723  1.00  0.00    -0.200 F 
ATOM     84  C   UNL A   1      38.886  34.650  39.022  1.00  0.00     0.200 A 
ATOM     85  F   UNL A   1      40.430  36.270  38.272  1.00  0.00    -0.200 F 
ATOM     86  F   UNL A   1      38.659  35.359  40.136  1.00  0.00    -0.200 F 
ENDBRANCH  52  76
BRANCH  64  87
ATOM     87  C   UNL A   1      44.122  28.441  34.830  1.00  0.00     0.064 A 
ATOM     88  C   UNL A   1      45.377  29.064  34.781  1.00  0.00     0.173 A 
ATOM     89  C   UNL A   1      43.991  27.280  35.607  1.00  0.00     0.173 A 
ATOM     90  F   UNL A   1      45.555  30.168  34.040  1.00  0.00    -0.203 F 
ATOM     91  C   UNL A   1      46.466  28.529  35.462  1.00  0.00     0.198 A 
ATOM     92  C   UNL A   1      45.075  26.765  36.310  1.00  0.00     0.198 A 
ATOM     93  F   UNL A   1      42.809  26.651  35.691  1.00  0.00    -0.203 F 
ATOM     94  F   UNL A   1      47.669  29.111  35.361  1.00  0.00    -0.200 F 
ATOM     95  C   UNL A   1      46.313  27.385  36.232  1.00  0.00     0.200 A 
ATOM     96  F   UNL A   1      44.922  25.668  37.064  1.00  0.00    -0.200 F 
ATOM     97  F   UNL A   1      47.362  26.874  36.891  1.00  0.00    -0.200 F 
ENDBRANCH  64  87
ENDBRANCH  38  39
ENDBRANCH  30  33
ENDBRANCH  28  29
ENDBRANCH   1  28
TORSDOF 14
ENDMDL
MODEL 3
REMARK VINA RESULT:     -12.0      5.258     10.618
REMARK SMILES CC(C)[NH2+][C@]1(C(=O)NCCCNC(=O)c2ccc(-c3c4nc(c(-c5c(F)c(F)c(F)c(F)c5F)c5ccc([nH]5)c(-c5c(F)c(F)c(F)c(F)c5F)c5nc(c(-c6c(F)c(F)c(F)c(F)c6F)c6ccc3[nH]6)C=C5)C=C4)cc2)CCC[C@H]([N@H+](C)C2CCCCC2)C1
REMARK SMILES IDX 10 1 9 2 8 3 6 4 7 5 5 7 78 8 90 9 79 10 81 11 80 12 4 13
REMARK SMILES IDX 2 16 1 17 3 18 82 19 83 20 84 22 85 23 89 24 86 25 88 26
REMARK SMILES IDX 87 27 11 28 12 29 13 30 14 32 15 33 16 34 77 35 17 36 76 37
REMARK SMILES IDX 18 38 19 39 20 40 70 41 21 42 75 43 69 44 71 45 22 46 74 47
REMARK SMILES IDX 68 48 67 49 23 51 55 52 35 53 54 54 36 55 39 56 53 57 72 58
REMARK SMILES IDX 37 59 38 60 52 62 73 63 40 64 24 65 25 66 33 67 26 68 27 69
REMARK SMILES IDX 31 70 34 71 28 72 29 73 32 74 30 75 56 76 57 77 65 78 58 79
REMARK SMILES IDX 59 80 63 81 66 82 60 83 61 84 64 85 62 86 41 87 42 88 50 89
REMARK SMILES IDX 43 90 44 91 48 92 51 93 45 94 46 95 49 96 47 97
REMARK H PARENT 8 6 4 14 4 15 82 21 12 31 71 50 39 61
REMARK Flexibility Score: inf
ROOT
ATOM      1  C   UNL A   1      37.504  19.560  25.076  1.00  0.00     0.042 C 
ENDROOT
BRANCH   1   2
ATOM      2  C   UNL A   1      36.354  20.555  25.047  1.00  0.00     0.118 C 
BRANCH   2   3
ATOM      3  N   UNL A   1      35.092  19.861  24.975  1.00  0.00    -0.351 N 
ATOM      4  C   UNL A   1      33.825  20.234  25.259  1.00  0.00     0.281 C 
ATOM      5  O   UNL A   1      33.049  19.277  25.413  1.00  0.00    -0.268 OA
ATOM      6  H   UNL A   1      35.169  18.933  24.655  1.00  0.00     0.163 HD
BRANCH   4   7
ATOM      7  C   UNL A   1      33.294  21.714  25.269  1.00  0.00     0.181 C 
ATOM      8  C   UNL A   1      31.740  21.509  25.411  1.00  0.00     0.079 C 
ATOM      9  C   UNL A   1      33.723  22.714  26.360  1.00  0.00     0.144 C 
ATOM     10  C   UNL A   1      30.852  22.543  26.124  1.00  0.00     0.013 C 
ATOM     11  C   UNL A   1      32.948  24.066  26.332  1.00  0.00     0.190 C 
ATOM     12  C   UNL A   1      31.501  23.777  26.730  1.00  0.00     0.065 C 
BRANCH   7  13
ATOM     13  N   UNL A   1      33.619  22.298  23.931  1.00  0.00    -0.331 N 
ATOM     14  H   UNL A   1      33.996  23.231  24.100  1.00  0.00     0.347 HD
ATOM     15  H   UNL A   1      34.249  21.610  23.518  1.00  0.00     0.347 HD
BRANCH  13  16
ATOM     16  C   UNL A   1      32.558  22.442  22.920  1.00  0.00     0.176 C 
ATOM     17  C   UNL A   1      33.105  23.376  21.832  1.00  0.00     0.075 C 
ATOM     18  C   UNL A   1      32.104  21.149  22.239  1.00  0.00     0.075 C 
ENDBRANCH  13  16
ENDBRANCH   7  13
BRANCH  11  19
ATOM     19  N   UNL A   1      33.285  24.852  25.097  1.00  0.00    -0.332 N 
ATOM     20  C   UNL A   1      34.708  25.233  25.168  1.00  0.00     0.333 C 
ATOM     21  H   UNL A   1      33.095  24.218  24.322  1.00  0.00     0.348 HD
BRANCH  19  22
ATOM     22  C   UNL A   1      32.405  25.994  24.711  1.00  0.00     0.184 C 
ATOM     23  C   UNL A   1      32.305  27.130  25.772  1.00  0.00     0.065 C 
ATOM     24  C   UNL A   1      32.932  26.696  23.442  1.00  0.00     0.065 C 
ATOM     25  C   UNL A   1      31.430  28.303  25.310  1.00  0.00     0.006 C 
ATOM     26  C   UNL A   1      31.957  27.738  22.920  1.00  0.00     0.006 C 
ATOM     27  C   UNL A   1      31.812  28.852  23.939  1.00  0.00     0.000 C 
ENDBRANCH  19  22
ENDBRANCH  11  19
ENDBRANCH   4   7
ENDBRANCH   2   3
ENDBRANCH   1   2
BRANCH   1  28
ATOM     28  C   UNL A   1      38.838  20.225  25.394  1.00  0.00     0.118 C 
BRANCH  28  29
ATOM     29  N   UNL A   1      39.841  19.248  25.804  1.00  0.00    -0.352 N 
ATOM     30  C   UNL A   1      41.162  19.427  26.106  1.00  0.00     0.251 C 
ATOM     31  H   UNL A   1      39.518  18.320  25.874  1.00  0.00     0.163 HD
ATOM     32  O   UNL A   1      41.932  18.465  26.095  1.00  0.00    -0.269 OA
BRANCH  30  33
ATOM     33  C   UNL A   1      41.663  20.768  26.453  1.00  0.00     0.039 A 
ATOM     34  C   UNL A   1      41.910  21.083  27.792  1.00  0.00     0.014 A 
ATOM     35  C   UNL A   1      41.842  21.734  25.458  1.00  0.00     0.014 A 
ATOM     36  C   UNL A   1      42.377  22.353  28.124  1.00  0.00     0.010 A 
ATOM     37  C   UNL A   1      42.396  22.964  25.778  1.00  0.00     0.010 A 
ATOM     38  C   UNL A   1      42.647  23.295  27.116  1.00  0.00    -0.014 A 
BRANCH  38  39
ATOM     39  C   UNL A   1      43.161  24.645  27.441  1.00  0.00     0.031 A 
ATOM     40  C   UNL A   1      42.244  25.670  28.046  1.00  0.00     0.074 A 
ATOM     41  C   UNL A   1      44.432  24.961  27.129  1.00  0.00     0.049 A 
ATOM     42  N   UNL A   1      42.481  26.923  28.340  1.00  0.00    -0.248 NA
ATOM     43  C   UNL A   1      40.864  25.241  28.327  1.00  0.00     0.031 C 
ATOM     44  C   UNL A   1      45.392  24.063  26.485  1.00  0.00     0.029 A 
ATOM     45  N   UNL A   1      45.130  26.128  27.302  1.00  0.00    -0.354 N 
ATOM     46  C   UNL A   1      41.282  27.431  28.820  1.00  0.00     0.074 A 
ATOM     47  C   UNL A   1      40.301  26.373  28.721  1.00  0.00     0.031 C 
ATOM     48  C   UNL A   1      46.564  24.703  26.344  1.00  0.00     0.029 A 
ATOM     49  C   UNL A   1      46.425  26.063  26.850  1.00  0.00     0.049 A 
ATOM     50  H   UNL A   1      44.740  26.933  27.711  1.00  0.00     0.167 HD
ATOM     51  C   UNL A   1      41.028  28.662  29.322  1.00  0.00     0.037 A 
ATOM     52  C   UNL A   1      47.389  27.003  26.846  1.00  0.00     0.037 A 
ATOM     53  C   UNL A   1      42.020  29.698  29.446  1.00  0.00     0.049 A 
ATOM     54  C   UNL A   1      47.086  28.359  27.424  1.00  0.00     0.074 A 
ATOM     55  C   UNL A   1      41.890  30.957  30.004  1.00  0.00     0.029 A 
ATOM     56  N   UNL A   1      43.331  29.589  29.003  1.00  0.00    -0.354 N 
ATOM     57  N   UNL A   1      45.969  28.806  27.944  1.00  0.00    -0.248 NA
ATOM     58  C   UNL A   1      48.181  29.338  27.421  1.00  0.00     0.031 C 
ATOM     59  C   UNL A   1      43.109  31.626  29.859  1.00  0.00     0.029 A 
ATOM     60  C   UNL A   1      44.014  30.766  29.255  1.00  0.00     0.049 A 
ATOM     61  H   UNL A   1      43.717  28.793  28.572  1.00  0.00     0.167 HD
ATOM     62  C   UNL A   1      46.231  30.106  28.353  1.00  0.00     0.074 A 
ATOM     63  C   UNL A   1      47.620  30.368  28.036  1.00  0.00     0.031 C 
ATOM     64  C   UNL A   1      45.398  31.004  28.934  1.00  0.00     0.037 A 
BRANCH  51  65
ATOM     65  C   UNL A   1      39.628  28.952  29.782  1.00  0.00     0.064 A 
ATOM     66  C   UNL A   1      39.218  28.692  31.099  1.00  0.00     0.173 A 
ATOM     67  C   UNL A   1      38.693  29.522  28.906  1.00  0.00     0.173 A 
ATOM     68  F   UNL A   1      40.068  28.135  31.975  1.00  0.00    -0.203 F 
ATOM     69  C   UNL A   1      37.915  28.963  31.511  1.00  0.00     0.198 A 
ATOM     70  C   UNL A   1      37.402  29.821  29.330  1.00  0.00     0.198 A 
ATOM     71  F   UNL A   1      39.034  29.794  27.637  1.00  0.00    -0.203 F 
ATOM     72  F   UNL A   1      37.533  28.657  32.759  1.00  0.00    -0.200 F 
ATOM     73  C   UNL A   1      37.011  29.534  30.630  1.00  0.00     0.200 A 
ATOM     74  F   UNL A   1      36.532  30.384  28.480  1.00  0.00    -0.200 F 
ATOM     75  F   UNL A   1      35.760  29.801  31.030  1.00  0.00    -0.200 F 
ENDBRANCH  51  65
BRANCH  52  76
ATOM     76  C   UNL A   1      48.736  26.682  26.308  1.00  0.00     0.064 A 
ATOM     77  C   UNL A   1      49.064  26.969  24.977  1.00  0.00     0.173 A 
ATOM     78  C   UNL A   1      49.721  26.088  27.110  1.00  0.00     0.173 A 
ATOM     79  F   UNL A   1      48.150  27.522  24.166  1.00  0.00    -0.203 F 
ATOM     80  C   UNL A   1      50.320  26.656  24.461  1.00  0.00     0.198 A 
ATOM     81  C   UNL A   1      50.986  25.801  26.601  1.00  0.00     0.198 A 
ATOM     82  F   UNL A   1      49.461  25.802  28.395  1.00  0.00    -0.203 F 
ATOM     83  F   UNL A   1      50.592  26.902  23.172  1.00  0.00    -0.200 F 
ATOM     84  C   UNL A   1      51.281  26.077  25.274  1.00  0.00     0.200 A 
ATOM     85  F   UNL A   1      51.919  25.258  27.395  1.00  0.00    -0.200 F 
ATOM     86  F   UNL A   1      52.491  25.781  24.779  1.00  0.00    -0.200 F 
ENDBRANCH  52  76
BRANCH  64  87
ATOM     87  C   UNL A   1      45.977  32.341  29.290  1.00  0.00     0.064 A 
ATOM     88  C   UNL A   1      45.914  33.428  28.406  1.00  0.00     0.173 A 
ATOM     89  C   UNL A   1      46.568  32.547  30.546  1.00  0.00     0.173 A 
ATOM     90  F   UNL A   1      45.372  33.276  27.188  1.00  0.00    -0.203 F 
ATOM     91  C   UNL A   1      46.447  34.664  28.755  1.00  0.00     0.198 A 
ATOM     92  C   UNL A   1      47.072  33.794  30.903  1.00  0.00     0.198 A 
ATOM     93  F   UNL A   1      46.646  31.542  31.430  1.00  0.00    -0.203 F 
ATOM     94  F   UNL A   1      46.422  35.675  27.875  1.00  0.00    -0.200 F 
ATOM     95  C   UNL A   1      47.018  34.849  30.006  1.00  0.00     0.200 A 
ATOM     96  F   UNL A   1      47.611  33.974  32.117  1.00  0.00    -0.200 F 
ATOM     97  F   UNL A   1      47.526  36.042  30.342  1.00  0.00    -0.200 F 
ENDBRANCH  64  87
ENDBRANCH  38  39
ENDBRANCH  30  33
ENDBRANCH  28  29
ENDBRANCH   1  28
TORSDOF 14
ENDMDL
