MODEL 1
REMARK VINA RESULT:     -13.3      0.000      0.000
REMARK SMILES CC(C)(C)OC(=O)N1CCN(C(=O)c2ccc3c(c2)OCO3)[C@H](C(=O)NCCCNC(=O)c2ccc(-c3c4nc(c(-c5c(F)c(F)c(F)c(F)c5F)c5ccc([nH]5)c(-c5c(F)c(F)c(F)c(F)c5F)c5nc(c(-c6c(F)c(F)c(F)c(F)c6F)c6ccc3[nH]6)C=C5)C=C4)cc2)C1
REMARK SMILES IDX 27 1 26 2 24 3 25 4 23 6 8 7 9 8 96 9 10 10 11 11 6 12 7 13
REMARK SMILES IDX 5 14 2 15 1 16 3 17 4 18 12 19 13 20 14 21 15 22 19 23 16 24
REMARK SMILES IDX 18 25 17 26 20 27 22 28 21 29 28 30 29 31 30 32 31 33 32 35
REMARK SMILES IDX 33 36 34 37 95 38 35 39 94 40 36 41 37 42 38 43 88 44 39 45
REMARK SMILES IDX 93 46 87 47 89 48 40 49 92 50 86 51 85 52 41 54 73 55 53 56
REMARK SMILES IDX 72 57 54 58 57 59 71 60 90 61 55 62 56 63 70 65 91 66 58 67
REMARK SMILES IDX 42 68 43 69 51 70 44 71 45 72 49 73 52 74 46 75 47 76 50 77
REMARK SMILES IDX 48 78 74 79 75 80 83 81 76 82 77 83 81 84 84 85 78 86 79 87
REMARK SMILES IDX 82 88 80 89 59 90 60 91 68 92 61 93 62 94 66 95 69 96 63 97
REMARK SMILES IDX 64 98 67 99 65 100
REMARK H PARENT 26 5 30 34 89 53 57 64
REMARK Flexibility Score: inf
ROOT
ATOM      1  C   UNL A   1      32.094  27.454  26.230  1.00  0.00     0.117 C 
ENDROOT
BRANCH   1   2
ATOM      2  N   UNL A   1      31.031  26.537  26.601  1.00  0.00    -0.354 N 
ATOM      3  C   UNL A   1      30.290  25.660  25.866  1.00  0.00     0.244 C 
ATOM      4  O   UNL A   1      29.607  24.847  26.499  1.00  0.00    -0.273 OA
ATOM      5  H   UNL A   1      30.804  26.551  27.560  1.00  0.00     0.163 HD
BRANCH   3   6
ATOM      6  C   UNL A   1      30.364  25.575  24.328  1.00  0.00     0.194 C 
ATOM      7  N   UNL A   1      32.465  25.100  22.886  1.00  0.00    -0.304 N 
ATOM      8  C   UNL A   1      32.370  26.455  22.369  1.00  0.00     0.144 C 
ATOM      9  C   UNL A   1      31.638  24.737  24.033  1.00  0.00     0.158 C 
ATOM     10  C   UNL A   1      30.927  26.928  22.292  1.00  0.00     0.142 C 
ATOM     11  N   UNL A   1      30.187  26.833  23.556  1.00  0.00    -0.323 N 
BRANCH   7  12
ATOM     12  C   UNL A   1      33.547  24.309  22.527  1.00  0.00     0.410 C 
ATOM     13  O   UNL A   1      33.558  23.563  21.560  1.00  0.00    -0.224 OA
BRANCH  12  14
ATOM     14  O   UNL A   1      34.584  24.494  23.380  1.00  0.00    -0.444 OA
BRANCH  14  15
ATOM     15  C   UNL A   1      35.216  23.414  24.109  1.00  0.00     0.106 C 
ATOM     16  C   UNL A   1      35.629  24.062  25.440  1.00  0.00     0.056 C 
ATOM     17  C   UNL A   1      36.469  22.953  23.362  1.00  0.00     0.056 C 
ATOM     18  C   UNL A   1      34.270  22.248  24.406  1.00  0.00     0.056 C 
ENDBRANCH  14  15
ENDBRANCH  12  14
ENDBRANCH   7  12
BRANCH  11  19
ATOM     19  C   UNL A   1      28.941  27.506  23.519  1.00  0.00     0.254 C 
ATOM     20  O   UNL A   1      27.872  26.948  23.756  1.00  0.00    -0.269 OA
BRANCH  19  21
ATOM     21  C   UNL A   1      28.867  28.933  23.137  1.00  0.00     0.044 A 
ATOM     22  C   UNL A   1      29.578  29.873  23.900  1.00  0.00     0.018 A 
ATOM     23  C   UNL A   1      28.215  29.328  21.963  1.00  0.00     0.064 A 
ATOM     24  C   UNL A   1      29.541  31.233  23.592  1.00  0.00     0.051 A 
ATOM     25  C   UNL A   1      28.224  30.676  21.659  1.00  0.00     0.166 A 
ATOM     26  C   UNL A   1      28.848  31.602  22.464  1.00  0.00     0.165 A 
ATOM     27  O   UNL A   1      27.654  31.254  20.567  1.00  0.00    -0.454 OA
ATOM     28  O   UNL A   1      28.727  32.873  22.000  1.00  0.00    -0.454 OA
ATOM     29  C   UNL A   1      27.976  32.645  20.791  1.00  0.00     0.468 C 
ENDBRANCH  19  21
ENDBRANCH  11  19
ENDBRANCH   3   6
ENDBRANCH   1   2
BRANCH   1  30
ATOM     30  C   UNL A   1      31.837  28.907  26.611  1.00  0.00     0.042 C 
BRANCH  30  31
ATOM     31  C   UNL A   1      32.834  29.923  26.068  1.00  0.00     0.118 C 
BRANCH  31  32
ATOM     32  N   UNL A   1      32.586  31.288  26.487  1.00  0.00    -0.352 N 
ATOM     33  C   UNL A   1      33.334  32.069  27.337  1.00  0.00     0.251 C 
ATOM     34  H   UNL A   1      31.778  31.711  26.117  1.00  0.00     0.163 HD
ATOM     35  O   UNL A   1      32.963  33.202  27.623  1.00  0.00    -0.269 OA
BRANCH  33  36
ATOM     36  C   UNL A   1      34.564  31.519  27.950  1.00  0.00     0.039 A 
ATOM     37  C   UNL A   1      35.657  32.372  28.114  1.00  0.00     0.014 A 
ATOM     38  C   UNL A   1      34.637  30.190  28.379  1.00  0.00     0.014 A 
ATOM     39  C   UNL A   1      36.806  31.911  28.761  1.00  0.00     0.010 A 
ATOM     40  C   UNL A   1      35.760  29.750  29.080  1.00  0.00     0.010 A 
ATOM     41  C   UNL A   1      36.858  30.605  29.275  1.00  0.00    -0.014 A 
BRANCH  41  42
ATOM     42  C   UNL A   1      38.061  30.126  30.004  1.00  0.00     0.031 A 
ATOM     43  C   UNL A   1      38.336  30.604  31.403  1.00  0.00     0.074 A 
ATOM     44  C   UNL A   1      38.920  29.283  29.399  1.00  0.00     0.049 A 
ATOM     45  N   UNL A   1      39.338  30.312  32.195  1.00  0.00    -0.248 NA
ATOM     46  C   UNL A   1      37.371  31.550  31.980  1.00  0.00     0.031 C 
ATOM     47  C   UNL A   1      38.789  28.779  28.032  1.00  0.00     0.029 A 
ATOM     48  N   UNL A   1      40.079  28.705  29.857  1.00  0.00    -0.354 N 
ATOM     49  C   UNL A   1      39.126  31.043  33.356  1.00  0.00     0.074 A 
ATOM     50  C   UNL A   1      37.931  31.834  33.146  1.00  0.00     0.031 C 
ATOM     51  C   UNL A   1      39.812  27.949  27.770  1.00  0.00     0.029 A 
ATOM     52  C   UNL A   1      40.688  27.887  28.936  1.00  0.00     0.049 A 
ATOM     53  H   UNL A   1      40.439  28.861  30.760  1.00  0.00     0.167 HD
ATOM     54  C   UNL A   1      39.847  31.039  34.503  1.00  0.00     0.037 A 
ATOM     55  C   UNL A   1      41.825  27.170  29.023  1.00  0.00     0.037 A 
ATOM     56  C   UNL A   1      41.021  30.237  34.720  1.00  0.00     0.049 A 
ATOM     57  C   UNL A   1      42.613  27.189  30.306  1.00  0.00     0.074 A 
ATOM     58  C   UNL A   1      41.787  30.120  35.868  1.00  0.00     0.029 A 
ATOM     59  N   UNL A   1      41.604  29.416  33.766  1.00  0.00    -0.354 N 
ATOM     60  N   UNL A   1      42.362  27.828  31.422  1.00  0.00    -0.248 NA
ATOM     61  C   UNL A   1      43.840  26.381  30.342  1.00  0.00     0.031 C 
ATOM     62  C   UNL A   1      42.859  29.263  35.594  1.00  0.00     0.029 A 
ATOM     63  C   UNL A   1      42.733  28.807  34.291  1.00  0.00     0.049 A 
ATOM     64  H   UNL A   1      41.266  29.284  32.850  1.00  0.00     0.167 HD
ATOM     65  C   UNL A   1      43.379  27.479  32.300  1.00  0.00     0.074 A 
ATOM     66  C   UNL A   1      44.244  26.559  31.592  1.00  0.00     0.031 C 
ATOM     67  C   UNL A   1      43.580  27.886  33.577  1.00  0.00     0.037 A 
BRANCH  54  68
ATOM     68  C   UNL A   1      39.380  31.932  35.617  1.00  0.00     0.064 A 
ATOM     69  C   UNL A   1      38.453  31.491  36.572  1.00  0.00     0.173 A 
ATOM     70  C   UNL A   1      39.892  33.231  35.750  1.00  0.00     0.173 A 
ATOM     71  F   UNL A   1      37.925  30.260  36.484  1.00  0.00    -0.203 F 
ATOM     72  C   UNL A   1      38.032  32.327  37.602  1.00  0.00     0.198 A 
ATOM     73  C   UNL A   1      39.492  34.055  36.799  1.00  0.00     0.198 A 
ATOM     74  F   UNL A   1      40.787  33.700  34.868  1.00  0.00    -0.203 F 
ATOM     75  F   UNL A   1      37.107  31.901  38.474  1.00  0.00    -0.200 F 
ATOM     76  C   UNL A   1      38.556  33.606  37.718  1.00  0.00     0.200 A 
ATOM     77  F   UNL A   1      40.008  35.286  36.917  1.00  0.00    -0.200 F 
ATOM     78  F   UNL A   1      38.153  34.408  38.714  1.00  0.00    -0.200 F 
ENDBRANCH  54  68
BRANCH  55  79
ATOM     79  C   UNL A   1      42.277  26.350  27.868  1.00  0.00     0.064 A 
ATOM     80  C   UNL A   1      43.223  26.847  26.959  1.00  0.00     0.173 A 
ATOM     81  C   UNL A   1      41.769  25.064  27.641  1.00  0.00     0.173 A 
ATOM     82  F   UNL A   1      43.722  28.082  27.121  1.00  0.00    -0.203 F 
ATOM     83  C   UNL A   1      43.626  26.096  25.858  1.00  0.00     0.198 A 
ATOM     84  C   UNL A   1      42.194  24.302  26.556  1.00  0.00     0.198 A 
ATOM     85  F   UNL A   1      40.864  24.542  28.483  1.00  0.00    -0.203 F 
ATOM     86  F   UNL A   1      44.497  26.612  24.979  1.00  0.00    -0.200 F 
ATOM     87  C   UNL A   1      43.117  24.822  25.660  1.00  0.00     0.200 A 
ATOM     88  F   UNL A   1      41.708  23.066  26.374  1.00  0.00    -0.200 F 
ATOM     89  F   UNL A   1      43.507  24.098  24.602  1.00  0.00    -0.200 F 
ENDBRANCH  55  79
BRANCH  67  90
ATOM     90  C   UNL A   1      44.762  27.315  34.306  1.00  0.00     0.064 A 
ATOM     91  C   UNL A   1      46.003  27.968  34.322  1.00  0.00     0.173 A 
ATOM     92  C   UNL A   1      44.639  26.119  35.031  1.00  0.00     0.173 A 
ATOM     93  F   UNL A   1      46.176  29.105  33.631  1.00  0.00    -0.203 F 
ATOM     94  C   UNL A   1      47.083  27.433  35.017  1.00  0.00     0.198 A 
ATOM     95  C   UNL A   1      45.713  25.604  35.750  1.00  0.00     0.198 A 
ATOM     96  F   UNL A   1      43.471  25.459  35.054  1.00  0.00    -0.203 F 
ATOM     97  F   UNL A   1      48.273  28.051  34.981  1.00  0.00    -0.200 F 
ATOM     98  C   UNL A   1      46.936  26.257  35.737  1.00  0.00     0.200 A 
ATOM     99  F   UNL A   1      45.565  24.474  36.455  1.00  0.00    -0.200 F 
ATOM    100  F   UNL A   1      47.976  25.748  36.412  1.00  0.00    -0.200 F 
ENDBRANCH  67  90
ENDBRANCH  41  42
ENDBRANCH  33  36
ENDBRANCH  31  32
ENDBRANCH  30  31
ENDBRANCH   1  30
TORSDOF 15
ENDMDL
MODEL 2
REMARK VINA RESULT:     -13.1      1.121      2.021
REMARK SMILES CC(C)(C)OC(=O)N1CCN(C(=O)c2ccc3c(c2)OCO3)[C@H](C(=O)NCCCNC(=O)c2ccc(-c3c4nc(c(-c5c(F)c(F)c(F)c(F)c5F)c5ccc([nH]5)c(-c5c(F)c(F)c(F)c(F)c5F)c5nc(c(-c6c(F)c(F)c(F)c(F)c6F)c6ccc3[nH]6)C=C5)C=C4)cc2)C1
REMARK SMILES IDX 27 1 26 2 24 3 25 4 23 6 8 7 9 8 96 9 10 10 11 11 6 12 7 13
REMARK SMILES IDX 5 14 2 15 1 16 3 17 4 18 12 19 13 20 14 21 15 22 19 23 16 24
REMARK SMILES IDX 18 25 17 26 20 27 22 28 21 29 28 30 29 31 30 32 31 33 32 35
REMARK SMILES IDX 33 36 34 37 95 38 35 39 94 40 36 41 37 42 38 43 88 44 39 45
REMARK SMILES IDX 93 46 87 47 89 48 40 49 92 50 86 51 85 52 41 54 73 55 53 56
REMARK SMILES IDX 72 57 54 58 57 59 71 60 90 61 55 62 56 63 70 65 91 66 58 67
REMARK SMILES IDX 42 68 43 69 51 70 44 71 45 72 49 73 52 74 46 75 47 76 50 77
REMARK SMILES IDX 48 78 74 79 75 80 83 81 76 82 77 83 81 84 84 85 78 86 79 87
REMARK SMILES IDX 82 88 80 89 59 90 60 91 68 92 61 93 62 94 66 95 69 96 63 97
REMARK SMILES IDX 64 98 67 99 65 100
REMARK H PARENT 26 5 30 34 89 53 57 64
REMARK Flexibility Score: inf
ROOT
ATOM      1  C   UNL A   1      32.307  27.831  27.280  1.00  0.00     0.117 C 
ENDROOT
BRANCH   1   2
ATOM      2  N   UNL A   1      33.373  27.484  26.357  1.00  0.00    -0.354 N 
ATOM      3  C   UNL A   1      33.605  26.363  25.616  1.00  0.00     0.244 C 
ATOM      4  O   UNL A   1      34.479  26.446  24.747  1.00  0.00    -0.273 OA
ATOM      5  H   UNL A   1      34.053  28.188  26.246  1.00  0.00     0.163 HD
BRANCH   3   6
ATOM      6  C   UNL A   1      32.761  25.079  25.743  1.00  0.00     0.194 C 
ATOM      7  N   UNL A   1      33.438  22.684  25.018  1.00  0.00    -0.304 N 
ATOM      8  C   UNL A   1      32.402  22.740  24.000  1.00  0.00     0.144 C 
ATOM      9  C   UNL A   1      33.791  23.917  25.715  1.00  0.00     0.158 C 
ATOM     10  C   UNL A   1      31.219  23.583  24.447  1.00  0.00     0.142 C 
ATOM     11  N   UNL A   1      31.567  24.945  24.868  1.00  0.00    -0.323 N 
BRANCH   7  12
ATOM     12  C   UNL A   1      34.286  21.587  25.065  1.00  0.00     0.410 C 
ATOM     13  O   UNL A   1      33.995  20.479  24.642  1.00  0.00    -0.224 OA
BRANCH  12  14
ATOM     14  O   UNL A   1      35.475  21.920  25.624  1.00  0.00    -0.444 OA
BRANCH  14  15
ATOM     15  C   UNL A   1      36.725  21.922  24.892  1.00  0.00     0.106 C 
ATOM     16  C   UNL A   1      37.649  22.806  25.744  1.00  0.00     0.056 C 
ATOM     17  C   UNL A   1      36.519  22.578  23.525  1.00  0.00     0.056 C 
ATOM     18  C   UNL A   1      37.357  20.533  24.767  1.00  0.00     0.056 C 
ENDBRANCH  14  15
ENDBRANCH  12  14
ENDBRANCH   7  12
BRANCH  11  19
ATOM     19  C   UNL A   1      30.433  25.779  25.036  1.00  0.00     0.254 C 
ATOM     20  O   UNL A   1      29.577  25.578  25.894  1.00  0.00    -0.269 OA
BRANCH  19  21
ATOM     21  C   UNL A   1      30.202  26.927  24.133  1.00  0.00     0.044 A 
ATOM     22  C   UNL A   1      31.294  27.463  23.430  1.00  0.00     0.018 A 
ATOM     23  C   UNL A   1      28.905  27.387  23.876  1.00  0.00     0.064 A 
ATOM     24  C   UNL A   1      31.138  28.550  22.570  1.00  0.00     0.051 A 
ATOM     25  C   UNL A   1      28.772  28.440  22.991  1.00  0.00     0.166 A 
ATOM     26  C   UNL A   1      29.860  29.018  22.376  1.00  0.00     0.165 A 
ATOM     27  O   UNL A   1      27.604  29.023  22.609  1.00  0.00    -0.454 OA
ATOM     28  O   UNL A   1      29.519  30.048  21.558  1.00  0.00    -0.454 OA
ATOM     29  C   UNL A   1      28.085  30.040  21.703  1.00  0.00     0.468 C 
ENDBRANCH  19  21
ENDBRANCH  11  19
ENDBRANCH   3   6
ENDBRANCH   1   2
BRANCH   1  30
ATOM     30  C   UNL A   1      31.775  29.251  27.128  1.00  0.00     0.042 C 
BRANCH  30  31
ATOM     31  C   UNL A   1      32.629  30.194  26.290  1.00  0.00     0.118 C 
BRANCH  31  32
ATOM     32  N   UNL A   1      32.482  31.596  26.629  1.00  0.00    -0.352 N 
ATOM     33  C   UNL A   1      33.309  32.379  27.400  1.00  0.00     0.251 C 
ATOM     34  H   UNL A   1      31.687  32.045  26.261  1.00  0.00     0.163 HD
ATOM     35  O   UNL A   1      33.020  33.548  27.626  1.00  0.00    -0.269 OA
BRANCH  33  36
ATOM     36  C   UNL A   1      34.526  31.791  28.003  1.00  0.00     0.039 A 
ATOM     37  C   UNL A   1      35.649  32.608  28.153  1.00  0.00     0.014 A 
ATOM     38  C   UNL A   1      34.560  30.462  28.436  1.00  0.00     0.014 A 
ATOM     39  C   UNL A   1      36.788  32.111  28.789  1.00  0.00     0.010 A 
ATOM     40  C   UNL A   1      35.675  29.987  29.128  1.00  0.00     0.010 A 
ATOM     41  C   UNL A   1      36.802  30.806  29.308  1.00  0.00    -0.014 A 
BRANCH  41  42
ATOM     42  C   UNL A   1      37.996  30.291  30.027  1.00  0.00     0.031 A 
ATOM     43  C   UNL A   1      38.278  30.732  31.437  1.00  0.00     0.074 A 
ATOM     44  C   UNL A   1      38.841  29.447  29.404  1.00  0.00     0.049 A 
ATOM     45  N   UNL A   1      39.274  30.406  32.223  1.00  0.00    -0.248 NA
ATOM     46  C   UNL A   1      37.328  31.682  32.034  1.00  0.00     0.031 C 
ATOM     47  C   UNL A   1      38.703  28.975  28.026  1.00  0.00     0.029 A 
ATOM     48  N   UNL A   1      39.989  28.838  29.850  1.00  0.00    -0.354 N 
ATOM     49  C   UNL A   1      39.073  31.114  33.400  1.00  0.00     0.074 A 
ATOM     50  C   UNL A   1      37.893  31.930  33.206  1.00  0.00     0.031 C 
ATOM     51  C   UNL A   1      39.711  28.134  27.746  1.00  0.00     0.029 A 
ATOM     52  C   UNL A   1      40.585  28.030  28.911  1.00  0.00     0.049 A 
ATOM     53  H   UNL A   1      40.351  28.968  30.756  1.00  0.00     0.167 HD
ATOM     54  C   UNL A   1      39.793  31.072  34.546  1.00  0.00     0.037 A 
ATOM     55  C   UNL A   1      41.709  27.292  28.983  1.00  0.00     0.037 A 
ATOM     56  C   UNL A   1      40.954  30.245  34.747  1.00  0.00     0.049 A 
ATOM     57  C   UNL A   1      42.497  27.269  30.266  1.00  0.00     0.074 A 
ATOM     58  C   UNL A   1      41.716  30.089  35.891  1.00  0.00     0.029 A 
ATOM     59  N   UNL A   1      41.522  29.435  33.775  1.00  0.00    -0.354 N 
ATOM     60  N   UNL A   1      42.255  27.888  31.396  1.00  0.00    -0.248 NA
ATOM     61  C   UNL A   1      43.709  26.439  30.285  1.00  0.00     0.031 C 
ATOM     62  C   UNL A   1      42.773  29.220  35.599  1.00  0.00     0.029 A 
ATOM     63  C   UNL A   1      42.640  28.796  34.287  1.00  0.00     0.049 A 
ATOM     64  H   UNL A   1      41.183  29.330  32.856  1.00  0.00     0.167 HD
ATOM     65  C   UNL A   1      43.266  27.502  32.267  1.00  0.00     0.074 A 
ATOM     66  C   UNL A   1      44.115  26.583  31.539  1.00  0.00     0.031 C 
ATOM     67  C   UNL A   1      43.472  27.877  33.553  1.00  0.00     0.037 A 
BRANCH  54  68
ATOM     68  C   UNL A   1      39.341  31.948  35.680  1.00  0.00     0.064 A 
ATOM     69  C   UNL A   1      38.393  31.507  36.615  1.00  0.00     0.173 A 
ATOM     70  C   UNL A   1      39.887  33.228  35.852  1.00  0.00     0.173 A 
ATOM     71  F   UNL A   1      37.832  30.295  36.489  1.00  0.00    -0.203 F 
ATOM     72  C   UNL A   1      37.985  32.328  37.663  1.00  0.00     0.198 A 
ATOM     73  C   UNL A   1      39.500  34.035  36.918  1.00  0.00     0.198 A 
ATOM     74  F   UNL A   1      40.803  33.695  34.990  1.00  0.00    -0.203 F 
ATOM     75  F   UNL A   1      37.041  31.905  38.515  1.00  0.00    -0.200 F 
ATOM     76  C   UNL A   1      38.543  33.588  37.818  1.00  0.00     0.200 A 
ATOM     77  F   UNL A   1      40.049  35.247  37.074  1.00  0.00    -0.200 F 
ATOM     78  F   UNL A   1      38.154  34.374  38.831  1.00  0.00    -0.200 F 
ENDBRANCH  54  68
BRANCH  55  79
ATOM     79  C   UNL A   1      42.149  26.491  27.810  1.00  0.00     0.064 A 
ATOM     80  C   UNL A   1      41.595  25.229  27.551  1.00  0.00     0.173 A 
ATOM     81  C   UNL A   1      43.135  26.962  26.932  1.00  0.00     0.173 A 
ATOM     82  F   UNL A   1      40.663  24.726  28.375  1.00  0.00    -0.203 F 
ATOM     83  C   UNL A   1      42.026  24.462  26.472  1.00  0.00     0.198 A 
ATOM     84  C   UNL A   1      43.546  26.206  25.837  1.00  0.00     0.198 A 
ATOM     85  F   UNL A   1      43.694  28.165  27.134  1.00  0.00    -0.203 F 
ATOM     86  F   UNL A   1      41.513  23.239  26.274  1.00  0.00    -0.200 F 
ATOM     87  C   UNL A   1      42.996  24.952  25.612  1.00  0.00     0.200 A 
ATOM     88  F   UNL A   1      44.475  26.689  25.001  1.00  0.00    -0.200 F 
ATOM     89  F   UNL A   1      43.409  24.215  24.572  1.00  0.00    -0.200 F 
ENDBRANCH  55  79
BRANCH  67  90
ATOM     90  C   UNL A   1      44.643  27.269  34.269  1.00  0.00     0.064 A 
ATOM     91  C   UNL A   1      45.894  27.902  34.304  1.00  0.00     0.173 A 
ATOM     92  C   UNL A   1      44.500  26.058  34.964  1.00  0.00     0.173 A 
ATOM     93  F   UNL A   1      46.087  29.053  33.641  1.00  0.00    -0.203 F 
ATOM     94  C   UNL A   1      46.965  27.334  34.988  1.00  0.00     0.198 A 
ATOM     95  C   UNL A   1      45.565  25.508  35.672  1.00  0.00     0.198 A 
ATOM     96  F   UNL A   1      43.322  25.416  34.968  1.00  0.00    -0.203 F 
ATOM     97  F   UNL A   1      48.164  27.933  34.968  1.00  0.00    -0.200 F 
ATOM     98  C   UNL A   1      46.798  26.142  35.677  1.00  0.00     0.200 A 
ATOM     99  F   UNL A   1      45.398  24.364  36.349  1.00  0.00    -0.200 F 
ATOM    100  F   UNL A   1      47.828  25.600  36.342  1.00  0.00    -0.200 F 
ENDBRANCH  67  90
ENDBRANCH  41  42
ENDBRANCH  33  36
ENDBRANCH  31  32
ENDBRANCH  30  31
ENDBRANCH   1  30
TORSDOF 15
ENDMDL
MODEL 3
REMARK VINA RESULT:     -13.0      1.513      2.428
REMARK SMILES CC(C)(C)OC(=O)N1CCN(C(=O)c2ccc3c(c2)OCO3)[C@H](C(=O)NCCCNC(=O)c2ccc(-c3c4nc(c(-c5c(F)c(F)c(F)c(F)c5F)c5ccc([nH]5)c(-c5c(F)c(F)c(F)c(F)c5F)c5nc(c(-c6c(F)c(F)c(F)c(F)c6F)c6ccc3[nH]6)C=C5)C=C4)cc2)C1
REMARK SMILES IDX 27 1 26 2 24 3 25 4 23 6 8 7 9 8 96 9 10 10 11 11 6 12 7 13
REMARK SMILES IDX 5 14 2 15 1 16 3 17 4 18 12 19 13 20 14 21 15 22 19 23 16 24
REMARK SMILES IDX 18 25 17 26 20 27 22 28 21 29 28 30 29 31 30 32 31 33 32 35
REMARK SMILES IDX 33 36 34 37 95 38 35 39 94 40 36 41 37 42 38 43 88 44 39 45
REMARK SMILES IDX 93 46 87 47 89 48 40 49 92 50 86 51 85 52 41 54 73 55 53 56
REMARK SMILES IDX 72 57 54 58 57 59 71 60 90 61 55 62 56 63 70 65 91 66 58 67
REMARK SMILES IDX 42 68 43 69 51 70 44 71 45 72 49 73 52 74 46 75 47 76 50 77
REMARK SMILES IDX 48 78 74 79 75 80 83 81 76 82 77 83 81 84 84 85 78 86 79 87
REMARK SMILES IDX 82 88 80 89 59 90 60 91 68 92 61 93 62 94 66 95 69 96 63 97
REMARK SMILES IDX 64 98 67 99 65 100
REMARK H PARENT 26 5 30 34 89 53 57 64
REMARK Flexibility Score: inf
ROOT
ATOM      1  C   UNL A   1      31.721  27.974  26.192  1.00  0.00     0.117 C 
ENDROOT
BRANCH   1   2
ATOM      2  N   UNL A   1      30.868  26.870  26.595  1.00  0.00    -0.354 N 
ATOM      3  C   UNL A   1      30.322  25.839  25.890  1.00  0.00     0.244 C 
ATOM      4  O   UNL A   1      29.820  24.923  26.549  1.00  0.00    -0.273 OA
ATOM      5  H   UNL A   1      30.643  26.865  27.555  1.00  0.00     0.163 HD
BRANCH   3   6
ATOM      6  C   UNL A   1      30.412  25.727  24.354  1.00  0.00     0.194 C 
ATOM      7  N   UNL A   1      32.537  25.278  22.939  1.00  0.00    -0.304 N 
ATOM      8  C   UNL A   1      32.412  26.620  22.396  1.00  0.00     0.144 C 
ATOM      9  C   UNL A   1      31.708  24.916  24.086  1.00  0.00     0.158 C 
ATOM     10  C   UNL A   1      30.959  27.056  22.297  1.00  0.00     0.142 C 
ATOM     11  N   UNL A   1      30.210  26.965  23.556  1.00  0.00    -0.323 N 
BRANCH   7  12
ATOM     12  C   UNL A   1      33.641  24.508  22.605  1.00  0.00     0.410 C 
ATOM     13  O   UNL A   1      33.733  23.855  21.577  1.00  0.00    -0.224 OA
BRANCH  12  14
ATOM     14  O   UNL A   1      34.600  24.598  23.559  1.00  0.00    -0.444 OA
BRANCH  14  15
ATOM     15  C   UNL A   1      35.212  23.443  24.183  1.00  0.00     0.106 C 
ATOM     16  C   UNL A   1      35.589  23.941  25.587  1.00  0.00     0.056 C 
ATOM     17  C   UNL A   1      36.484  23.062  23.423  1.00  0.00     0.056 C 
ATOM     18  C   UNL A   1      34.257  22.255  24.326  1.00  0.00     0.056 C 
ENDBRANCH  14  15
ENDBRANCH  12  14
ENDBRANCH   7  12
BRANCH  11  19
ATOM     19  C   UNL A   1      28.948  27.606  23.496  1.00  0.00     0.254 C 
ATOM     20  O   UNL A   1      27.890  27.021  23.715  1.00  0.00    -0.269 OA
BRANCH  19  21
ATOM     21  C   UNL A   1      28.844  29.031  23.110  1.00  0.00     0.044 A 
ATOM     22  C   UNL A   1      29.523  29.989  23.880  1.00  0.00     0.018 A 
ATOM     23  C   UNL A   1      28.197  29.407  21.928  1.00  0.00     0.064 A 
ATOM     24  C   UNL A   1      29.456  31.347  23.569  1.00  0.00     0.051 A 
ATOM     25  C   UNL A   1      28.177  30.755  21.621  1.00  0.00     0.166 A 
ATOM     26  C   UNL A   1      28.769  31.697  22.432  1.00  0.00     0.165 A 
ATOM     27  O   UNL A   1      27.606  31.317  20.521  1.00  0.00    -0.454 OA
ATOM     28  O   UNL A   1      28.623  32.964  21.964  1.00  0.00    -0.454 OA
ATOM     29  C   UNL A   1      27.892  32.716  20.746  1.00  0.00     0.468 C 
ENDBRANCH  19  21
ENDBRANCH  11  19
ENDBRANCH   3   6
ENDBRANCH   1   2
BRANCH   1  30
ATOM     30  C   UNL A   1      33.214  27.709  26.346  1.00  0.00     0.042 C 
BRANCH  30  31
ATOM     31  C   UNL A   1      34.137  28.860  25.963  1.00  0.00     0.118 C 
BRANCH  31  32
ATOM     32  N   UNL A   1      33.789  30.131  26.566  1.00  0.00    -0.352 N 
ATOM     33  C   UNL A   1      34.467  30.828  27.539  1.00  0.00     0.251 C 
ATOM     34  H   UNL A   1      32.962  30.550  26.237  1.00  0.00     0.163 HD
ATOM     35  O   UNL A   1      34.016  31.881  27.974  1.00  0.00    -0.269 OA
BRANCH  33  36
ATOM     36  C   UNL A   1      35.719  30.274  28.102  1.00  0.00     0.039 A 
ATOM     37  C   UNL A   1      36.921  30.578  27.459  1.00  0.00     0.014 A 
ATOM     38  C   UNL A   1      35.718  29.486  29.257  1.00  0.00     0.014 A 
ATOM     39  C   UNL A   1      38.129  30.140  28.006  1.00  0.00     0.010 A 
ATOM     40  C   UNL A   1      36.928  29.104  29.836  1.00  0.00     0.010 A 
ATOM     41  C   UNL A   1      38.146  29.424  29.214  1.00  0.00    -0.014 A 
BRANCH  41  42
ATOM     42  C   UNL A   1      39.433  28.997  29.822  1.00  0.00     0.031 A 
ATOM     43  C   UNL A   1      39.976  29.716  31.026  1.00  0.00     0.074 A 
ATOM     44  C   UNL A   1      40.128  27.980  29.277  1.00  0.00     0.049 A 
ATOM     45  N   UNL A   1      41.085  29.502  31.689  1.00  0.00    -0.248 NA
ATOM     46  C   UNL A   1      39.177  30.838  31.540  1.00  0.00     0.031 C 
ATOM     47  C   UNL A   1      39.732  27.228  28.086  1.00  0.00     0.029 A 
ATOM     48  N   UNL A   1      41.318  27.406  29.652  1.00  0.00    -0.354 N 
ATOM     49  C   UNL A   1      41.119  30.464  32.689  1.00  0.00     0.074 A 
ATOM     50  C   UNL A   1      39.948  31.297  32.514  1.00  0.00     0.031 C 
ATOM     51  C   UNL A   1      40.649  26.277  27.841  1.00  0.00     0.029 A 
ATOM     52  C   UNL A   1      41.713  26.372  28.836  1.00  0.00     0.049 A 
ATOM     53  H   UNL A   1      41.840  27.706  30.430  1.00  0.00     0.167 HD
ATOM     54  C   UNL A   1      42.030  30.624  33.679  1.00  0.00     0.037 A 
ATOM     55  C   UNL A   1      42.809  25.591  28.887  1.00  0.00     0.037 A 
ATOM     56  C   UNL A   1      43.182  29.783  33.866  1.00  0.00     0.049 A 
ATOM     57  C   UNL A   1      43.811  25.796  29.991  1.00  0.00     0.074 A 
ATOM     58  C   UNL A   1      44.131  29.830  34.873  1.00  0.00     0.029 A 
ATOM     59  N   UNL A   1      43.544  28.742  33.024  1.00  0.00    -0.354 N 
ATOM     60  N   UNL A   1      43.794  26.662  30.974  1.00  0.00    -0.248 NA
ATOM     61  C   UNL A   1      44.982  24.907  29.997  1.00  0.00     0.031 C 
ATOM     62  C   UNL A   1      45.093  28.846  34.615  1.00  0.00     0.029 A 
ATOM     63  C   UNL A   1      44.715  28.154  33.475  1.00  0.00     0.049 A 
ATOM     64  H   UNL A   1      43.043  28.461  32.223  1.00  0.00     0.167 HD
ATOM     65  C   UNL A   1      44.931  26.408  31.729  1.00  0.00     0.074 A 
ATOM     66  C   UNL A   1      45.609  25.295  31.099  1.00  0.00     0.031 C 
ATOM     67  C   UNL A   1      45.375  27.041  32.842  1.00  0.00     0.037 A 
BRANCH  54  68
ATOM     68  C   UNL A   1      41.814  31.757  34.641  1.00  0.00     0.064 A 
ATOM     69  C   UNL A   1      42.414  33.010  34.447  1.00  0.00     0.173 A 
ATOM     70  C   UNL A   1      40.970  31.598  35.750  1.00  0.00     0.173 A 
ATOM     71  F   UNL A   1      43.239  33.210  33.407  1.00  0.00    -0.203 F 
ATOM     72  C   UNL A   1      42.203  34.052  35.345  1.00  0.00     0.198 A 
ATOM     73  C   UNL A   1      40.737  32.652  36.629  1.00  0.00     0.198 A 
ATOM     74  F   UNL A   1      40.365  30.423  35.978  1.00  0.00    -0.203 F 
ATOM     75  F   UNL A   1      42.828  35.225  35.167  1.00  0.00    -0.200 F 
ATOM     76  C   UNL A   1      41.360  33.875  36.431  1.00  0.00     0.200 A 
ATOM     77  F   UNL A   1      39.912  32.484  37.672  1.00  0.00    -0.200 F 
ATOM     78  F   UNL A   1      41.153  34.883  37.291  1.00  0.00    -0.200 F 
ENDBRANCH  54  68
BRANCH  55  79
ATOM     79  C   UNL A   1      43.008  24.523  27.871  1.00  0.00     0.064 A 
ATOM     80  C   UNL A   1      42.618  23.201  28.130  1.00  0.00     0.173 A 
ATOM     81  C   UNL A   1      43.600  24.796  26.630  1.00  0.00     0.173 A 
ATOM     82  F   UNL A   1      42.067  22.886  29.312  1.00  0.00    -0.203 F 
ATOM     83  C   UNL A   1      42.831  22.192  27.194  1.00  0.00     0.198 A 
ATOM     84  C   UNL A   1      43.787  23.792  25.684  1.00  0.00     0.198 A 
ATOM     85  F   UNL A   1      43.988  26.045  26.333  1.00  0.00    -0.203 F 
ATOM     86  F   UNL A   1      42.490  20.928  27.485  1.00  0.00    -0.200 F 
ATOM     87  C   UNL A   1      43.410  22.488  25.970  1.00  0.00     0.200 A 
ATOM     88  F   UNL A   1      44.335  24.084  24.497  1.00  0.00    -0.200 F 
ATOM     89  F   UNL A   1      43.613  21.517  25.069  1.00  0.00    -0.200 F 
ENDBRANCH  55  79
BRANCH  67  90
ATOM     90  C   UNL A   1      46.636  26.525  33.473  1.00  0.00     0.064 A 
ATOM     91  C   UNL A   1      47.892  27.062  33.153  1.00  0.00     0.173 A 
ATOM     92  C   UNL A   1      46.583  25.508  34.439  1.00  0.00     0.173 A 
ATOM     93  F   UNL A   1      47.997  28.024  32.223  1.00  0.00    -0.203 F 
ATOM     94  C   UNL A   1      49.049  26.584  33.761  1.00  0.00     0.198 A 
ATOM     95  C   UNL A   1      47.739  25.054  35.066  1.00  0.00     0.198 A 
ATOM     96  F   UNL A   1      45.405  24.966  34.786  1.00  0.00    -0.203 F 
ATOM     97  F   UNL A   1      50.243  27.080  33.406  1.00  0.00    -0.200 F 
ATOM     98  C   UNL A   1      48.972  25.587  34.721  1.00  0.00     0.200 A 
ATOM     99  F   UNL A   1      47.661  24.101  36.004  1.00  0.00    -0.200 F 
ATOM    100  F   UNL A   1      50.087  25.134  35.311  1.00  0.00    -0.200 F 
ENDBRANCH  67  90
ENDBRANCH  41  42
ENDBRANCH  33  36
ENDBRANCH  31  32
ENDBRANCH  30  31
ENDBRANCH   1  30
TORSDOF 15
ENDMDL
