MODEL 1
REMARK VINA RESULT:     -12.0      0.000      0.000
REMARK SMILES CCC[C@@H](CNC(=O)NCc1c(C)nn(C)c1C)C(=O)NCCCNC(=O)c1ccc(-c2c3nc(c(-c4c(F)c(F)c(F)c(F)c4F)c4ccc([nH]4)c(-c4c(F)c(F)c(F)c(F)c4F)c4nc(c(-c5c(F)c(F)c(F)c(F)c5F)c5ccc2[nH]5)C=C4)C=C3)cc1
REMARK SMILES IDX 22 1 21 2 19 3 20 4 4 6 3 7 2 8 1 9 5 10 6 11 7 12 8 14 9 15
REMARK SMILES IDX 10 17 11 18 12 19 17 20 13 21 14 22 15 23 18 24 16 25 23 26
REMARK SMILES IDX 24 27 25 28 26 29 27 31 28 32 29 33 90 34 30 35 89 36 31 37
REMARK SMILES IDX 32 38 33 39 83 40 34 41 88 42 82 43 84 44 35 45 87 46 81 47
REMARK SMILES IDX 80 48 36 50 68 51 48 52 67 53 49 54 52 55 66 56 85 57 50 58
REMARK SMILES IDX 51 59 65 61 86 62 53 63 37 64 38 65 46 66 39 67 40 68 44 69
REMARK SMILES IDX 47 70 41 71 42 72 45 73 43 74 69 75 70 76 78 77 71 78 72 79
REMARK SMILES IDX 76 80 79 81 73 82 74 83 77 84 75 85 54 86 55 87 63 88 56 89
REMARK SMILES IDX 57 90 61 91 64 92 58 93 59 94 62 95 60 96
REMARK H PARENT 21 5 6 13 9 16 25 30 84 49 52 60
REMARK Flexibility Score: inf
ROOT
ATOM      1  C   UNL A   1      36.693  20.656  24.997  1.00  0.00     0.117 C 
ENDROOT
BRANCH   1   2
ATOM      2  N   UNL A   1      35.483  19.852  25.039  1.00  0.00    -0.356 N 
ATOM      3  C   UNL A   1      34.177  20.208  24.912  1.00  0.00     0.224 C 
ATOM      4  O   UNL A   1      33.365  19.296  24.720  1.00  0.00    -0.275 OA
ATOM      5  H   UNL A   1      35.635  18.891  25.184  1.00  0.00     0.163 HD
BRANCH   3   6
ATOM      6  C   UNL A   1      33.689  21.652  25.003  1.00  0.00     0.097 C 
BRANCH   6   7
ATOM      7  C   UNL A   1      32.665  21.998  23.900  1.00  0.00     0.015 C 
BRANCH   7   8
ATOM      8  C   UNL A   1      33.056  23.119  22.934  1.00  0.00    -0.003 C 
ATOM      9  C   UNL A   1      34.427  23.718  23.203  1.00  0.00     0.004 C 
ENDBRANCH   7   8
ENDBRANCH   6   7
BRANCH   6  10
ATOM     10  C   UNL A   1      33.379  22.115  26.440  1.00  0.00     0.131 C 
BRANCH  10  11
ATOM     11  N   UNL A   1      31.977  22.228  26.782  1.00  0.00    -0.337 N 
ATOM     12  C   UNL A   1      31.158  23.250  27.051  1.00  0.00     0.315 C 
ATOM     13  H   UNL A   1      31.526  21.355  26.827  1.00  0.00     0.165 HD
ATOM     14  O   UNL A   1      30.053  22.979  27.530  1.00  0.00    -0.249 OA
ATOM     15  N   UNL A   1      31.437  24.534  26.826  1.00  0.00    -0.334 N 
ATOM     16  H   UNL A   1      30.754  25.142  27.190  1.00  0.00     0.165 HD
BRANCH  15  17
ATOM     17  C   UNL A   1      32.511  25.229  26.171  1.00  0.00     0.157 C 
BRANCH  17  18
ATOM     18  C   UNL A   1      32.138  26.604  25.703  1.00  0.00     0.015 A 
ATOM     19  C   UNL A   1      32.585  27.914  26.081  1.00  0.00     0.065 A 
ATOM     20  C   UNL A   1      31.218  26.853  24.683  1.00  0.00     0.040 A 
ATOM     21  C   UNL A   1      33.577  28.388  27.080  1.00  0.00     0.069 C 
ATOM     22  N   UNL A   1      31.997  28.865  25.347  1.00  0.00    -0.178 NA
ATOM     23  N   UNL A   1      31.206  28.208  24.497  1.00  0.00    -0.272 N 
ATOM     24  C   UNL A   1      30.395  25.921  23.869  1.00  0.00     0.067 C 
ATOM     25  C   UNL A   1      30.500  28.983  23.505  1.00  0.00     0.174 C 
ENDBRANCH  17  18
ENDBRANCH  15  17
ENDBRANCH  10  11
ENDBRANCH   6  10
ENDBRANCH   3   6
ENDBRANCH   1   2
BRANCH   1  26
ATOM     26  C   UNL A   1      37.956  19.848  24.780  1.00  0.00     0.042 C 
BRANCH  26  27
ATOM     27  C   UNL A   1      39.064  20.211  25.755  1.00  0.00     0.118 C 
BRANCH  27  28
ATOM     28  N   UNL A   1      40.079  19.168  25.884  1.00  0.00    -0.352 N 
ATOM     29  C   UNL A   1      41.436  19.247  26.094  1.00  0.00     0.251 C 
ATOM     30  H   UNL A   1      39.732  18.250  25.805  1.00  0.00     0.163 HD
ATOM     31  O   UNL A   1      42.130  18.244  26.012  1.00  0.00    -0.269 OA
BRANCH  29  32
ATOM     32  C   UNL A   1      42.063  20.550  26.395  1.00  0.00     0.039 A 
ATOM     33  C   UNL A   1      42.439  21.384  25.338  1.00  0.00     0.014 A 
ATOM     34  C   UNL A   1      42.283  20.949  27.713  1.00  0.00     0.014 A 
ATOM     35  C   UNL A   1      42.955  22.652  25.611  1.00  0.00     0.010 A 
ATOM     36  C   UNL A   1      42.683  22.249  27.981  1.00  0.00     0.010 A 
ATOM     37  C   UNL A   1      43.035  23.112  26.934  1.00  0.00    -0.014 A 
BRANCH  37  38
ATOM     38  C   UNL A   1      43.503  24.483  27.259  1.00  0.00     0.031 A 
ATOM     39  C   UNL A   1      42.534  25.488  27.818  1.00  0.00     0.074 A 
ATOM     40  C   UNL A   1      44.769  24.843  26.972  1.00  0.00     0.049 A 
ATOM     41  N   UNL A   1      42.706  26.763  28.056  1.00  0.00    -0.248 NA
ATOM     42  C   UNL A   1      41.174  25.004  28.112  1.00  0.00     0.031 C 
ATOM     43  C   UNL A   1      45.785  23.974  26.376  1.00  0.00     0.029 A 
ATOM     44  N   UNL A   1      45.414  26.044  27.132  1.00  0.00    -0.354 N 
ATOM     45  C   UNL A   1      41.477  27.233  28.500  1.00  0.00     0.074 A 
ATOM     46  C   UNL A   1      40.551  26.125  28.441  1.00  0.00     0.031 C 
ATOM     47  C   UNL A   1      46.931  24.660  26.246  1.00  0.00     0.029 A 
ATOM     48  C   UNL A   1      46.721  26.028  26.707  1.00  0.00     0.049 A 
ATOM     49  H   UNL A   1      44.982  26.841  27.514  1.00  0.00     0.167 HD
ATOM     50  C   UNL A   1      41.158  28.470  28.948  1.00  0.00     0.037 A 
ATOM     51  C   UNL A   1      47.641  27.011  26.686  1.00  0.00     0.037 A 
ATOM     52  C   UNL A   1      42.096  29.555  29.048  1.00  0.00     0.049 A 
ATOM     53  C   UNL A   1      47.261  28.374  27.202  1.00  0.00     0.074 A 
ATOM     54  C   UNL A   1      41.893  30.829  29.549  1.00  0.00     0.029 A 
ATOM     55  N   UNL A   1      43.422  29.490  28.642  1.00  0.00    -0.354 N 
ATOM     56  N   UNL A   1      46.114  28.789  27.680  1.00  0.00    -0.248 NA
ATOM     57  C   UNL A   1      48.309  29.404  27.178  1.00  0.00     0.031 C 
ATOM     58  C   UNL A   1      43.084  31.547  29.409  1.00  0.00     0.029 A 
ATOM     59  C   UNL A   1      44.044  30.707  28.867  1.00  0.00     0.049 A 
ATOM     60  H   UNL A   1      43.855  28.697  28.253  1.00  0.00     0.167 HD
ATOM     61  C   UNL A   1      46.308  30.114  28.044  1.00  0.00     0.074 A 
ATOM     62  C   UNL A   1      47.690  30.430  27.744  1.00  0.00     0.031 C 
ATOM     63  C   UNL A   1      45.424  30.994  28.575  1.00  0.00     0.037 A 
BRANCH  50  64
ATOM     64  C   UNL A   1      39.741  28.709  29.382  1.00  0.00     0.064 A 
ATOM     65  C   UNL A   1      39.324  28.471  30.700  1.00  0.00     0.173 A 
ATOM     66  C   UNL A   1      38.795  29.216  28.477  1.00  0.00     0.173 A 
ATOM     67  F   UNL A   1      40.185  27.973  31.601  1.00  0.00    -0.203 F 
ATOM     68  C   UNL A   1      38.008  28.704  31.090  1.00  0.00     0.198 A 
ATOM     69  C   UNL A   1      37.488  29.479  28.879  1.00  0.00     0.198 A 
ATOM     70  F   UNL A   1      39.141  29.465  27.205  1.00  0.00    -0.203 F 
ATOM     71  F   UNL A   1      37.623  28.422  32.342  1.00  0.00    -0.200 F 
ATOM     72  C   UNL A   1      37.094  29.216  30.182  1.00  0.00     0.200 A 
ATOM     73  F   UNL A   1      36.609  29.986  28.004  1.00  0.00    -0.200 F 
ATOM     74  F   UNL A   1      35.830  29.450  30.561  1.00  0.00    -0.200 F 
ENDBRANCH  50  64
BRANCH  51  75
ATOM     75  C   UNL A   1      49.014  26.741  26.187  1.00  0.00     0.064 A 
ATOM     76  C   UNL A   1      49.370  27.046  24.866  1.00  0.00     0.173 A 
ATOM     77  C   UNL A   1      49.991  26.160  27.008  1.00  0.00     0.173 A 
ATOM     78  F   UNL A   1      48.465  27.586  24.036  1.00  0.00    -0.203 F 
ATOM     79  C   UNL A   1      50.642  26.756  24.376  1.00  0.00     0.198 A 
ATOM     80  C   UNL A   1      51.273  25.897  26.526  1.00  0.00     0.198 A 
ATOM     81  F   UNL A   1      49.704  25.853  28.281  1.00  0.00    -0.203 F 
ATOM     82  F   UNL A   1      50.939  27.009  23.095  1.00  0.00    -0.200 F 
ATOM     83  C   UNL A   1      51.594  26.185  25.209  1.00  0.00     0.200 A 
ATOM     84  F   UNL A   1      52.193  25.359  27.337  1.00  0.00    -0.200 F 
ATOM     85  F   UNL A   1      52.817  25.904  24.738  1.00  0.00    -0.200 F 
ENDBRANCH  51  75
BRANCH  63  86
ATOM     86  C   UNL A   1      45.933  32.366  28.904  1.00  0.00     0.064 A 
ATOM     87  C   UNL A   1      46.520  32.656  30.143  1.00  0.00     0.173 A 
ATOM     88  C   UNL A   1      45.872  33.391  27.946  1.00  0.00     0.173 A 
ATOM     89  F   UNL A   1      46.588  31.714  31.095  1.00  0.00    -0.203 F 
ATOM     90  C   UNL A   1      47.003  33.932  30.423  1.00  0.00     0.198 A 
ATOM     91  C   UNL A   1      46.384  34.655  28.219  1.00  0.00     0.198 A 
ATOM     92  F   UNL A   1      45.327  33.161  26.742  1.00  0.00    -0.203 F 
ATOM     93  F   UNL A   1      47.516  34.200  31.631  1.00  0.00    -0.200 F 
ATOM     94  C   UNL A   1      46.943  34.927  29.459  1.00  0.00     0.200 A 
ATOM     95  F   UNL A   1      46.339  35.612  27.281  1.00  0.00    -0.200 F 
ATOM     96  F   UNL A   1      47.417  36.151  29.728  1.00  0.00    -0.200 F 
ENDBRANCH  63  86
ENDBRANCH  37  38
ENDBRANCH  29  32
ENDBRANCH  27  28
ENDBRANCH  26  27
ENDBRANCH   1  26
TORSDOF 16
ENDMDL
MODEL 2
REMARK VINA RESULT:     -12.0      5.534     11.185
REMARK SMILES CCC[C@@H](CNC(=O)NCc1c(C)nn(C)c1C)C(=O)NCCCNC(=O)c1ccc(-c2c3nc(c(-c4c(F)c(F)c(F)c(F)c4F)c4ccc([nH]4)c(-c4c(F)c(F)c(F)c(F)c4F)c4nc(c(-c5c(F)c(F)c(F)c(F)c5F)c5ccc2[nH]5)C=C4)C=C3)cc1
REMARK SMILES IDX 22 1 21 2 19 3 20 4 4 6 3 7 2 8 1 9 5 10 6 11 7 12 8 14 9 15
REMARK SMILES IDX 10 17 11 18 12 19 17 20 13 21 14 22 15 23 18 24 16 25 23 26
REMARK SMILES IDX 24 27 25 28 26 29 27 31 28 32 29 33 90 34 30 35 89 36 31 37
REMARK SMILES IDX 32 38 33 39 83 40 34 41 88 42 82 43 84 44 35 45 87 46 81 47
REMARK SMILES IDX 80 48 36 50 68 51 48 52 67 53 49 54 52 55 66 56 85 57 50 58
REMARK SMILES IDX 51 59 65 61 86 62 53 63 37 64 38 65 46 66 39 67 40 68 44 69
REMARK SMILES IDX 47 70 41 71 42 72 45 73 43 74 69 75 70 76 78 77 71 78 72 79
REMARK SMILES IDX 76 80 79 81 73 82 74 83 77 84 75 85 54 86 55 87 63 88 56 89
REMARK SMILES IDX 57 90 61 91 64 92 58 93 59 94 62 95 60 96
REMARK H PARENT 21 5 6 13 9 16 25 30 84 49 52 60
REMARK Flexibility Score: inf
ROOT
ATOM      1  C   UNL A   1      31.526  30.514  26.443  1.00  0.00     0.117 C 
ENDROOT
BRANCH   1   2
ATOM      2  N   UNL A   1      32.501  30.013  25.488  1.00  0.00    -0.356 N 
ATOM      3  C   UNL A   1      32.330  29.364  24.306  1.00  0.00     0.224 C 
ATOM      4  O   UNL A   1      33.316  29.286  23.564  1.00  0.00    -0.275 OA
ATOM      5  H   UNL A   1      33.439  30.171  25.739  1.00  0.00     0.163 HD
BRANCH   3   6
ATOM      6  C   UNL A   1      31.006  28.736  23.876  1.00  0.00     0.097 C 
BRANCH   6   7
ATOM      7  C   UNL A   1      30.348  29.495  22.704  1.00  0.00     0.015 C 
BRANCH   7   8
ATOM      8  C   UNL A   1      29.024  30.201  23.006  1.00  0.00    -0.003 C 
ATOM      9  C   UNL A   1      28.027  30.165  21.860  1.00  0.00     0.004 C 
ENDBRANCH   7   8
ENDBRANCH   6   7
BRANCH   6  10
ATOM     10  C   UNL A   1      31.040  27.197  23.806  1.00  0.00     0.131 C 
BRANCH  10  11
ATOM     11  N   UNL A   1      31.894  26.628  22.785  1.00  0.00    -0.337 N 
ATOM     12  C   UNL A   1      33.177  26.256  22.737  1.00  0.00     0.315 C 
ATOM     13  H   UNL A   1      31.422  26.482  21.933  1.00  0.00     0.165 HD
ATOM     14  O   UNL A   1      33.654  26.010  21.625  1.00  0.00    -0.249 OA
ATOM     15  N   UNL A   1      33.972  26.113  23.797  1.00  0.00    -0.334 N 
ATOM     16  H   UNL A   1      34.910  25.939  23.550  1.00  0.00     0.165 HD
BRANCH  15  17
ATOM     17  C   UNL A   1      33.769  26.158  25.219  1.00  0.00     0.157 C 
BRANCH  17  18
ATOM     18  C   UNL A   1      33.502  24.814  25.829  1.00  0.00     0.015 A 
ATOM     19  C   UNL A   1      32.298  24.166  26.261  1.00  0.00     0.065 A 
ATOM     20  C   UNL A   1      34.492  23.859  26.065  1.00  0.00     0.040 A 
ATOM     21  C   UNL A   1      30.874  24.591  26.270  1.00  0.00     0.069 C 
ATOM     22  N   UNL A   1      32.538  22.927  26.707  1.00  0.00    -0.178 NA
ATOM     23  N   UNL A   1      33.852  22.753  26.553  1.00  0.00    -0.272 N 
ATOM     24  C   UNL A   1      35.960  23.905  25.837  1.00  0.00     0.067 C 
ATOM     25  C   UNL A   1      34.396  21.455  26.871  1.00  0.00     0.174 C 
ENDBRANCH  17  18
ENDBRANCH  15  17
ENDBRANCH  10  11
ENDBRANCH   6  10
ENDBRANCH   3   6
ENDBRANCH   1   2
BRANCH   1  26
ATOM     26  C   UNL A   1      31.448  32.026  26.501  1.00  0.00     0.042 C 
BRANCH  26  27
ATOM     27  C   UNL A   1      32.610  32.649  27.257  1.00  0.00     0.118 C 
BRANCH  27  28
ATOM     28  N   UNL A   1      32.390  34.054  27.590  1.00  0.00    -0.352 N 
ATOM     29  C   UNL A   1      32.974  34.862  28.538  1.00  0.00     0.251 C 
ATOM     30  H   UNL A   1      31.705  34.500  27.042  1.00  0.00     0.163 HD
ATOM     31  O   UNL A   1      32.526  35.978  28.754  1.00  0.00    -0.269 OA
BRANCH  29  32
ATOM     32  C   UNL A   1      34.130  34.372  29.316  1.00  0.00     0.039 A 
ATOM     33  C   UNL A   1      33.904  33.707  30.524  1.00  0.00     0.014 A 
ATOM     34  C   UNL A   1      35.433  34.569  28.860  1.00  0.00     0.014 A 
ATOM     35  C   UNL A   1      34.983  33.166  31.226  1.00  0.00     0.010 A 
ATOM     36  C   UNL A   1      36.489  33.932  29.493  1.00  0.00     0.010 A 
ATOM     37  C   UNL A   1      36.278  33.233  30.690  1.00  0.00    -0.014 A 
BRANCH  37  38
ATOM     38  C   UNL A   1      37.439  32.601  31.366  1.00  0.00     0.031 A 
ATOM     39  C   UNL A   1      38.159  31.460  30.701  1.00  0.00     0.074 A 
ATOM     40  C   UNL A   1      37.786  32.996  32.607  1.00  0.00     0.049 A 
ATOM     41  N   UNL A   1      39.113  30.696  31.168  1.00  0.00    -0.248 NA
ATOM     42  C   UNL A   1      37.720  31.104  29.340  1.00  0.00     0.031 C 
ATOM     43  C   UNL A   1      37.128  34.052  33.378  1.00  0.00     0.029 A 
ATOM     44  N   UNL A   1      38.774  32.542  33.445  1.00  0.00    -0.354 N 
ATOM     45  C   UNL A   1      39.367  29.760  30.174  1.00  0.00     0.074 A 
ATOM     46  C   UNL A   1      38.427  30.010  29.104  1.00  0.00     0.031 C 
ATOM     47  C   UNL A   1      37.746  34.183  34.562  1.00  0.00     0.029 A 
ATOM     48  C   UNL A   1      38.814  33.195  34.653  1.00  0.00     0.049 A 
ATOM     49  H   UNL A   1      39.395  31.817  33.203  1.00  0.00     0.167 HD
ATOM     50  C   UNL A   1      40.319  28.799  30.143  1.00  0.00     0.037 A 
ATOM     51  C   UNL A   1      39.619  33.007  35.716  1.00  0.00     0.037 A 
ATOM     52  C   UNL A   1      41.280  28.586  31.191  1.00  0.00     0.049 A 
ATOM     53  C   UNL A   1      40.677  31.939  35.650  1.00  0.00     0.074 A 
ATOM     54  C   UNL A   1      42.328  27.683  31.231  1.00  0.00     0.029 A 
ATOM     55  N   UNL A   1      41.313  29.292  32.385  1.00  0.00    -0.354 N 
ATOM     56  N   UNL A   1      40.950  31.103  34.677  1.00  0.00    -0.248 NA
ATOM     57  C   UNL A   1      41.543  31.792  36.827  1.00  0.00     0.031 C 
ATOM     58  C   UNL A   1      42.969  27.815  32.467  1.00  0.00     0.029 A 
ATOM     59  C   UNL A   1      42.353  28.833  33.176  1.00  0.00     0.049 A 
ATOM     60  H   UNL A   1      40.689  30.012  32.633  1.00  0.00     0.167 HD
ATOM     61  C   UNL A   1      42.036  30.354  35.111  1.00  0.00     0.074 A 
ATOM     62  C   UNL A   1      42.381  30.846  36.429  1.00  0.00     0.031 C 
ATOM     63  C   UNL A   1      42.687  29.348  34.478  1.00  0.00     0.037 A 
BRANCH  50  64
ATOM     64  C   UNL A   1      40.380  27.918  28.928  1.00  0.00     0.064 A 
ATOM     65  C   UNL A   1      41.168  28.252  27.817  1.00  0.00     0.173 A 
ATOM     66  C   UNL A   1      39.669  26.709  28.889  1.00  0.00     0.173 A 
ATOM     67  F   UNL A   1      41.855  29.404  27.796  1.00  0.00    -0.203 F 
ATOM     68  C   UNL A   1      41.220  27.422  26.700  1.00  0.00     0.198 A 
ATOM     69  C   UNL A   1      39.751  25.866  27.784  1.00  0.00     0.198 A 
ATOM     70  F   UNL A   1      38.903  26.340  29.927  1.00  0.00    -0.203 F 
ATOM     71  F   UNL A   1      41.941  27.786  25.630  1.00  0.00    -0.200 F 
ATOM     72  C   UNL A   1      40.519  26.225  26.688  1.00  0.00     0.200 A 
ATOM     73  F   UNL A   1      39.083  24.704  27.779  1.00  0.00    -0.200 F 
ATOM     74  F   UNL A   1      40.580  25.423  25.617  1.00  0.00    -0.200 F 
ENDBRANCH  50  64
BRANCH  51  75
ATOM     75  C   UNL A   1      39.476  33.864  36.923  1.00  0.00     0.064 A 
ATOM     76  C   UNL A   1      38.719  33.435  38.022  1.00  0.00     0.173 A 
ATOM     77  C   UNL A   1      40.077  35.129  36.998  1.00  0.00     0.173 A 
ATOM     78  F   UNL A   1      38.110  32.241  37.991  1.00  0.00    -0.203 F 
ATOM     79  C   UNL A   1      38.545  34.250  39.139  1.00  0.00     0.198 A 
ATOM     80  C   UNL A   1      39.925  35.932  38.128  1.00  0.00     0.198 A 
ATOM     81  F   UNL A   1      40.816  35.585  35.976  1.00  0.00    -0.203 F 
ATOM     82  F   UNL A   1      37.772  33.837  40.152  1.00  0.00    -0.200 F 
ATOM     83  C   UNL A   1      39.152  35.496  39.193  1.00  0.00     0.200 A 
ATOM     84  F   UNL A   1      40.525  37.128  38.182  1.00  0.00    -0.200 F 
ATOM     85  F   UNL A   1      38.982  36.281  40.266  1.00  0.00    -0.200 F 
ENDBRANCH  51  75
BRANCH  63  86
ATOM     86  C   UNL A   1      43.863  28.741  35.184  1.00  0.00     0.064 A 
ATOM     87  C   UNL A   1      43.713  27.680  36.088  1.00  0.00     0.173 A 
ATOM     88  C   UNL A   1      45.163  29.202  34.918  1.00  0.00     0.173 A 
ATOM     89  F   UNL A   1      42.490  27.216  36.386  1.00  0.00    -0.203 F 
ATOM     90  C   UNL A   1      44.819  27.118  36.720  1.00  0.00     0.198 A 
ATOM     91  C   UNL A   1      46.268  28.616  35.528  1.00  0.00     0.198 A 
ATOM     92  F   UNL A   1      45.360  30.209  34.055  1.00  0.00    -0.203 F 
ATOM     93  F   UNL A   1      44.647  26.136  37.616  1.00  0.00    -0.200 F 
ATOM     94  C   UNL A   1      46.095  27.580  36.433  1.00  0.00     0.200 A 
ATOM     95  F   UNL A   1      47.501  29.054  35.239  1.00  0.00    -0.200 F 
ATOM     96  F   UNL A   1      47.158  27.031  37.036  1.00  0.00    -0.200 F 
ENDBRANCH  63  86
ENDBRANCH  37  38
ENDBRANCH  29  32
ENDBRANCH  27  28
ENDBRANCH  26  27
ENDBRANCH   1  26
TORSDOF 16
ENDMDL
MODEL 3
REMARK VINA RESULT:     -11.9      5.807     10.963
REMARK SMILES CCC[C@@H](CNC(=O)NCc1c(C)nn(C)c1C)C(=O)NCCCNC(=O)c1ccc(-c2c3nc(c(-c4c(F)c(F)c(F)c(F)c4F)c4ccc([nH]4)c(-c4c(F)c(F)c(F)c(F)c4F)c4nc(c(-c5c(F)c(F)c(F)c(F)c5F)c5ccc2[nH]5)C=C4)C=C3)cc1
REMARK SMILES IDX 22 1 21 2 19 3 20 4 4 6 3 7 2 8 1 9 5 10 6 11 7 12 8 14 9 15
REMARK SMILES IDX 10 17 11 18 12 19 17 20 13 21 14 22 15 23 18 24 16 25 23 26
REMARK SMILES IDX 24 27 25 28 26 29 27 31 28 32 29 33 90 34 30 35 89 36 31 37
REMARK SMILES IDX 32 38 33 39 83 40 34 41 88 42 82 43 84 44 35 45 87 46 81 47
REMARK SMILES IDX 80 48 36 50 68 51 48 52 67 53 49 54 52 55 66 56 85 57 50 58
REMARK SMILES IDX 51 59 65 61 86 62 53 63 37 64 38 65 46 66 39 67 40 68 44 69
REMARK SMILES IDX 47 70 41 71 42 72 45 73 43 74 69 75 70 76 78 77 71 78 72 79
REMARK SMILES IDX 76 80 79 81 73 82 74 83 77 84 75 85 54 86 55 87 63 88 56 89
REMARK SMILES IDX 57 90 61 91 64 92 58 93 59 94 62 95 60 96
REMARK H PARENT 21 5 6 13 9 16 25 30 84 49 52 60
REMARK Flexibility Score: inf
ROOT
ATOM      1  C   UNL A   1      31.708  30.675  26.078  1.00  0.00     0.117 C 
ENDROOT
BRANCH   1   2
ATOM      2  N   UNL A   1      31.371  29.615  27.014  1.00  0.00    -0.356 N 
ATOM      3  C   UNL A   1      31.936  28.394  27.210  1.00  0.00     0.224 C 
ATOM      4  O   UNL A   1      31.628  27.796  28.248  1.00  0.00    -0.275 OA
ATOM      5  H   UNL A   1      30.608  29.814  27.602  1.00  0.00     0.163 HD
BRANCH   3   6
ATOM      6  C   UNL A   1      32.904  27.748  26.221  1.00  0.00     0.097 C 
BRANCH   6   7
ATOM      7  C   UNL A   1      34.377  28.084  26.534  1.00  0.00     0.015 C 
BRANCH   7   8
ATOM      8  C   UNL A   1      34.624  29.050  27.696  1.00  0.00    -0.003 C 
ATOM      9  C   UNL A   1      35.163  30.405  27.271  1.00  0.00     0.004 C 
ENDBRANCH   7   8
ENDBRANCH   6   7
BRANCH   6  10
ATOM     10  C   UNL A   1      32.558  26.285  25.878  1.00  0.00     0.131 C 
BRANCH  10  11
ATOM     11  N   UNL A   1      31.331  25.772  26.450  1.00  0.00    -0.337 N 
ATOM     12  C   UNL A   1      30.084  25.608  25.997  1.00  0.00     0.315 C 
ATOM     13  H   UNL A   1      31.440  25.480  27.383  1.00  0.00     0.165 HD
ATOM     14  O   UNL A   1      29.210  25.345  26.829  1.00  0.00    -0.249 OA
ATOM     15  N   UNL A   1      29.718  25.688  24.718  1.00  0.00    -0.334 N 
ATOM     16  H   UNL A   1      28.741  25.645  24.598  1.00  0.00     0.165 HD
BRANCH  15  17
ATOM     17  C   UNL A   1      30.428  25.824  23.476  1.00  0.00     0.157 C 
BRANCH  17  18
ATOM     18  C   UNL A   1      30.590  27.247  23.031  1.00  0.00     0.015 A 
ATOM     19  C   UNL A   1      31.730  28.007  22.603  1.00  0.00     0.065 A 
ATOM     20  C   UNL A   1      29.532  28.149  22.916  1.00  0.00     0.040 A 
ATOM     21  C   UNL A   1      33.167  27.664  22.451  1.00  0.00     0.069 C 
ATOM     22  N   UNL A   1      31.386  29.251  22.250  1.00  0.00    -0.178 NA
ATOM     23  N   UNL A   1      30.064  29.306  22.416  1.00  0.00    -0.272 N 
ATOM     24  C   UNL A   1      28.083  27.989  23.205  1.00  0.00     0.067 C 
ATOM     25  C   UNL A   1      29.390  30.520  22.022  1.00  0.00     0.174 C 
ENDBRANCH  17  18
ENDBRANCH  15  17
ENDBRANCH  10  11
ENDBRANCH   6  10
ENDBRANCH   3   6
ENDBRANCH   1   2
BRANCH   1  26
ATOM     26  C   UNL A   1      31.393  32.065  26.591  1.00  0.00     0.042 C 
BRANCH  26  27
ATOM     27  C   UNL A   1      32.551  32.691  27.351  1.00  0.00     0.118 C 
BRANCH  27  28
ATOM     28  N   UNL A   1      32.344  34.106  27.650  1.00  0.00    -0.352 N 
ATOM     29  C   UNL A   1      32.951  34.937  28.562  1.00  0.00     0.251 C 
ATOM     30  H   UNL A   1      31.648  34.539  27.104  1.00  0.00     0.163 HD
ATOM     31  O   UNL A   1      32.512  36.061  28.757  1.00  0.00    -0.269 OA
BRANCH  29  32
ATOM     32  C   UNL A   1      34.122  34.464  29.328  1.00  0.00     0.039 A 
ATOM     33  C   UNL A   1      33.927  33.917  30.599  1.00  0.00     0.014 A 
ATOM     34  C   UNL A   1      35.408  34.560  28.798  1.00  0.00     0.014 A 
ATOM     35  C   UNL A   1      35.016  33.390  31.297  1.00  0.00     0.010 A 
ATOM     36  C   UNL A   1      36.466  33.933  29.438  1.00  0.00     0.010 A 
ATOM     37  C   UNL A   1      36.285  33.350  30.700  1.00  0.00    -0.014 A 
BRANCH  37  38
ATOM     38  C   UNL A   1      37.450  32.727  31.377  1.00  0.00     0.031 A 
ATOM     39  C   UNL A   1      38.185  31.598  30.708  1.00  0.00     0.074 A 
ATOM     40  C   UNL A   1      37.788  33.118  32.621  1.00  0.00     0.049 A 
ATOM     41  N   UNL A   1      39.145  30.841  31.174  1.00  0.00    -0.248 NA
ATOM     42  C   UNL A   1      37.754  31.245  29.344  1.00  0.00     0.031 C 
ATOM     43  C   UNL A   1      37.115  34.163  33.396  1.00  0.00     0.029 A 
ATOM     44  N   UNL A   1      38.777  32.670  33.460  1.00  0.00    -0.354 N 
ATOM     45  C   UNL A   1      39.412  29.914  30.176  1.00  0.00     0.074 A 
ATOM     46  C   UNL A   1      38.474  30.160  29.104  1.00  0.00     0.031 C 
ATOM     47  C   UNL A   1      37.727  34.294  34.583  1.00  0.00     0.029 A 
ATOM     48  C   UNL A   1      38.806  33.316  34.672  1.00  0.00     0.049 A 
ATOM     49  H   UNL A   1      39.407  31.953  33.217  1.00  0.00     0.167 HD
ATOM     50  C   UNL A   1      40.375  28.963  30.143  1.00  0.00     0.037 A 
ATOM     51  C   UNL A   1      39.608  33.131  35.738  1.00  0.00     0.037 A 
ATOM     52  C   UNL A   1      41.334  28.754  31.193  1.00  0.00     0.049 A 
ATOM     53  C   UNL A   1      40.679  32.074  35.669  1.00  0.00     0.074 A 
ATOM     54  C   UNL A   1      42.391  27.862  31.232  1.00  0.00     0.029 A 
ATOM     55  N   UNL A   1      41.354  29.453  32.392  1.00  0.00    -0.354 N 
ATOM     56  N   UNL A   1      40.964  31.247  34.693  1.00  0.00    -0.248 NA
ATOM     57  C   UNL A   1      41.542  31.930  36.849  1.00  0.00     0.031 C 
ATOM     58  C   UNL A   1      43.027  27.994  32.471  1.00  0.00     0.029 A 
ATOM     59  C   UNL A   1      42.396  29.001  33.184  1.00  0.00     0.049 A 
ATOM     60  H   UNL A   1      40.722  30.165  32.641  1.00  0.00     0.167 HD
ATOM     61  C   UNL A   1      42.056  30.508  35.126  1.00  0.00     0.074 A 
ATOM     62  C   UNL A   1      42.391  30.995  36.448  1.00  0.00     0.031 C 
ATOM     63  C   UNL A   1      42.721  29.512  34.490  1.00  0.00     0.037 A 
BRANCH  50  64
ATOM     64  C   UNL A   1      40.450  28.091  28.923  1.00  0.00     0.064 A 
ATOM     65  C   UNL A   1      39.743  26.882  28.840  1.00  0.00     0.173 A 
ATOM     66  C   UNL A   1      41.209  28.484  27.811  1.00  0.00     0.173 A 
ATOM     67  F   UNL A   1      39.013  26.452  29.881  1.00  0.00    -0.203 F 
ATOM     68  C   UNL A   1      39.815  26.086  27.700  1.00  0.00     0.198 A 
ATOM     69  C   UNL A   1      41.253  27.701  26.660  1.00  0.00     0.198 A 
ATOM     70  F   UNL A   1      41.902  29.632  27.836  1.00  0.00    -0.203 F 
ATOM     71  F   UNL A   1      39.171  24.911  27.663  1.00  0.00    -0.200 F 
ATOM     72  C   UNL A   1      40.563  26.500  26.608  1.00  0.00     0.200 A 
ATOM     73  F   UNL A   1      41.966  28.109  25.601  1.00  0.00    -0.200 F 
ATOM     74  F   UNL A   1      40.623  25.738  25.507  1.00  0.00    -0.200 F 
ENDBRANCH  50  64
BRANCH  51  75
ATOM     75  C   UNL A   1      39.452  33.979  36.949  1.00  0.00     0.064 A 
ATOM     76  C   UNL A   1      40.059  35.240  37.025  1.00  0.00     0.173 A 
ATOM     77  C   UNL A   1      38.710  33.544  38.057  1.00  0.00     0.173 A 
ATOM     78  F   UNL A   1      40.794  35.693  35.999  1.00  0.00    -0.203 F 
ATOM     79  C   UNL A   1      39.954  36.023  38.173  1.00  0.00     0.198 A 
ATOM     80  C   UNL A   1      38.581  34.341  39.194  1.00  0.00     0.198 A 
ATOM     81  F   UNL A   1      38.104  32.348  38.033  1.00  0.00    -0.203 F 
ATOM     82  F   UNL A   1      40.588  37.201  38.239  1.00  0.00    -0.200 F 
ATOM     83  C   UNL A   1      39.211  35.574  39.255  1.00  0.00     0.200 A 
ATOM     84  F   UNL A   1      37.850  33.910  40.231  1.00  0.00    -0.200 F 
ATOM     85  F   UNL A   1      39.111  36.326  40.360  1.00  0.00    -0.200 F 
ENDBRANCH  51  75
BRANCH  63  86
ATOM     86  C   UNL A   1      43.900  28.914  35.197  1.00  0.00     0.064 A 
ATOM     87  C   UNL A   1      43.766  27.807  36.048  1.00  0.00     0.173 A 
ATOM     88  C   UNL A   1      45.189  29.430  34.985  1.00  0.00     0.173 A 
ATOM     89  F   UNL A   1      42.554  27.288  36.294  1.00  0.00    -0.203 F 
ATOM     90  C   UNL A   1      44.876  27.255  36.681  1.00  0.00     0.198 A 
ATOM     91  C   UNL A   1      46.299  28.855  35.595  1.00  0.00     0.198 A 
ATOM     92  F   UNL A   1      45.371  30.483  34.174  1.00  0.00    -0.203 F 
ATOM     93  F   UNL A   1      44.718  26.227  37.527  1.00  0.00    -0.200 F 
ATOM     94  C   UNL A   1      46.142  27.773  36.448  1.00  0.00     0.200 A 
ATOM     95  F   UNL A   1      47.523  29.347  35.357  1.00  0.00    -0.200 F 
ATOM     96  F   UNL A   1      47.209  27.233  37.052  1.00  0.00    -0.200 F 
ENDBRANCH  63  86
ENDBRANCH  37  38
ENDBRANCH  29  32
ENDBRANCH  27  28
ENDBRANCH  26  27
ENDBRANCH   1  26
TORSDOF 16
ENDMDL
