MODEL 1
REMARK VINA RESULT:     -13.3      0.000      0.000
REMARK SMILES CC1(C)[C@@]2(C(=O)NCCCNC(=O)c3ccc(-c4c5nc(c(-c6c(F)c(F)c(F)c(F)c6F)c6ccc([nH]6)c(-c6c(F)c(F)c(F)c(F)c6F)c6nc(c(-c7c(F)c(F)c(F)c(F)c7F)c7ccc4[nH]7)C=C6)C=C5)cc3)CC[C@]1(C)/C(=N/NC(=O)c1ccc(Cl)cc1)C2
REMARK SMILES IDX 9 1 8 2 7 3 5 4 6 5 4 7 1 8 2 9 3 10 79 11 77 12 93 13 78 14
REMARK SMILES IDX 80 15 81 16 82 17 83 18 84 19 85 21 86 22 87 23 92 24 88 25
REMARK SMILES IDX 91 26 89 27 90 28 10 29 11 30 12 31 13 33 14 34 15 35 76 36
REMARK SMILES IDX 16 37 75 38 17 39 18 40 19 41 69 42 20 43 74 44 68 45 70 46
REMARK SMILES IDX 21 47 73 48 67 49 66 50 22 52 54 53 34 54 53 55 35 56 38 57
REMARK SMILES IDX 52 58 71 59 36 60 37 61 51 63 72 64 39 65 23 66 24 67 32 68
REMARK SMILES IDX 25 69 26 70 30 71 33 72 27 73 28 74 31 75 29 76 55 77 56 78
REMARK SMILES IDX 64 79 57 80 58 81 62 82 65 83 59 84 60 85 63 86 61 87 40 88
REMARK SMILES IDX 41 89 49 90 42 91 43 92 47 93 50 94 44 95 45 96 48 97 46 98
REMARK H PARENT 7 6 83 20 11 32 70 51 38 62
REMARK Flexibility Score: inf
ROOT
ATOM      1  C   UNL A   1      31.789  27.774  27.465  1.00  0.00     0.042 C 
ENDROOT
BRANCH   1   2
ATOM      2  C   UNL A   1      31.137  27.007  26.303  1.00  0.00     0.117 C 
BRANCH   2   3
ATOM      3  N   UNL A   1      30.854  25.600  26.542  1.00  0.00    -0.356 N 
ATOM      4  C   UNL A   1      31.712  24.552  26.730  1.00  0.00     0.227 C 
ATOM      5  O   UNL A   1      31.401  23.764  27.626  1.00  0.00    -0.274 OA
ATOM      6  H   UNL A   1      29.897  25.365  26.572  1.00  0.00     0.163 HD
BRANCH   4   7
ATOM      7  C   UNL A   1      32.868  24.242  25.770  1.00  0.00     0.060 C 
ATOM      8  C   UNL A   1      34.084  22.365  27.112  1.00  0.00     0.013 C 
ATOM      9  C   UNL A   1      33.395  22.756  25.777  1.00  0.00    -0.010 C 
ATOM     10  C   UNL A   1      32.396  21.633  25.423  1.00  0.00     0.013 C 
ATOM     11  C   UNL A   1      34.389  23.037  24.607  1.00  0.00     0.014 C 
ATOM     12  C   UNL A   1      34.189  25.050  25.920  1.00  0.00     0.019 C 
ATOM     13  C   UNL A   1      32.383  24.441  24.310  1.00  0.00     0.071 C 
ATOM     14  C   UNL A   1      35.230  24.217  25.139  1.00  0.00     0.014 C 
ATOM     15  C   UNL A   1      35.201  21.873  24.075  1.00  0.00     0.018 C 
ATOM     16  C   UNL A   1      33.463  23.720  23.569  1.00  0.00     0.046 C 
ATOM     17  N   UNL A   1      33.790  23.689  22.322  1.00  0.00    -0.181 NA
BRANCH  17  18
ATOM     18  N   UNL A   1      33.281  24.271  21.212  1.00  0.00    -0.243 N 
ATOM     19  C   UNL A   1      32.698  25.442  20.799  1.00  0.00     0.271 C 
ATOM     20  H   UNL A   1      33.354  23.651  20.450  1.00  0.00     0.194 HD
ATOM     21  O   UNL A   1      32.388  25.578  19.611  1.00  0.00    -0.267 OA
BRANCH  19  22
ATOM     22  C   UNL A   1      32.371  26.561  21.671  1.00  0.00     0.041 A 
ATOM     23  C   UNL A   1      31.027  26.860  21.918  1.00  0.00     0.015 A 
ATOM     24  C   UNL A   1      33.381  27.419  22.108  1.00  0.00     0.015 A 
ATOM     25  C   UNL A   1      30.703  27.932  22.749  1.00  0.00     0.021 A 
ATOM     26  C   UNL A   1      33.053  28.473  22.962  1.00  0.00     0.021 A 
ATOM     27  C   UNL A   1      31.720  28.702  23.308  1.00  0.00     0.041 A 
ATOM     28  Cl  UNL A   1      31.323  29.922  24.451  1.00  0.00    -0.084 Cl
ENDBRANCH  19  22
ENDBRANCH  17  18
ENDBRANCH   4   7
ENDBRANCH   2   3
ENDBRANCH   1   2
BRANCH   1  29
ATOM     29  C   UNL A   1      33.222  28.292  27.244  1.00  0.00     0.118 C 
BRANCH  29  30
ATOM     30  N   UNL A   1      33.361  29.699  27.590  1.00  0.00    -0.352 N 
ATOM     31  C   UNL A   1      34.418  30.421  28.084  1.00  0.00     0.251 C 
ATOM     32  H   UNL A   1      32.546  30.231  27.442  1.00  0.00     0.163 HD
ATOM     33  O   UNL A   1      34.207  31.589  28.435  1.00  0.00    -0.269 OA
BRANCH  31  34
ATOM     34  C   UNL A   1      35.800  29.888  28.222  1.00  0.00     0.039 A 
ATOM     35  C   UNL A   1      36.168  29.329  29.455  1.00  0.00     0.014 A 
ATOM     36  C   UNL A   1      36.786  30.072  27.250  1.00  0.00     0.014 A 
ATOM     37  C   UNL A   1      37.494  28.952  29.711  1.00  0.00     0.010 A 
ATOM     38  C   UNL A   1      38.112  29.666  27.494  1.00  0.00     0.010 A 
ATOM     39  C   UNL A   1      38.486  29.119  28.734  1.00  0.00    -0.014 A 
BRANCH  39  40
ATOM     40  C   UNL A   1      39.909  28.772  29.027  1.00  0.00     0.031 A 
ATOM     41  C   UNL A   1      40.790  29.721  29.801  1.00  0.00     0.074 A 
ATOM     42  C   UNL A   1      40.428  27.600  28.610  1.00  0.00     0.049 A 
ATOM     43  N   UNL A   1      42.058  29.608  30.119  1.00  0.00    -0.248 NA
ATOM     44  C   UNL A   1      40.161  30.960  30.278  1.00  0.00     0.031 C 
ATOM     45  C   UNL A   1      39.701  26.573  27.870  1.00  0.00     0.029 A 
ATOM     46  N   UNL A   1      41.695  27.080  28.748  1.00  0.00    -0.354 N 
ATOM     47  C   UNL A   1      42.380  30.765  30.821  1.00  0.00     0.074 A 
ATOM     48  C   UNL A   1      41.181  31.576  30.860  1.00  0.00     0.031 C 
ATOM     49  C   UNL A   1      40.528  25.544  27.621  1.00  0.00     0.029 A 
ATOM     50  C   UNL A   1      41.853  25.850  28.157  1.00  0.00     0.049 A 
ATOM     51  H   UNL A   1      42.419  27.545  29.227  1.00  0.00     0.167 HD
ATOM     52  C   UNL A   1      43.560  31.115  31.391  1.00  0.00     0.037 A 
ATOM     53  C   UNL A   1      42.942  25.062  28.044  1.00  0.00     0.037 A 
ATOM     54  C   UNL A   1      44.757  30.312  31.377  1.00  0.00     0.049 A 
ATOM     55  C   UNL A   1      44.253  25.494  28.645  1.00  0.00     0.074 A 
ATOM     56  C   UNL A   1      45.986  30.584  31.956  1.00  0.00     0.029 A 
ATOM     57  N   UNL A   1      44.877  29.081  30.751  1.00  0.00    -0.354 N 
ATOM     58  N   UNL A   1      44.534  26.576  29.328  1.00  0.00    -0.248 NA
ATOM     59  C   UNL A   1      45.400  24.591  28.458  1.00  0.00     0.031 C 
ATOM     60  C   UNL A   1      46.861  29.535  31.648  1.00  0.00     0.029 A 
ATOM     61  C   UNL A   1      46.164  28.591  30.914  1.00  0.00     0.049 A 
ATOM     62  H   UNL A   1      44.155  28.622  30.263  1.00  0.00     0.167 HD
ATOM     63  C   UNL A   1      45.875  26.469  29.678  1.00  0.00     0.074 A 
ATOM     64  C   UNL A   1      46.353  25.216  29.136  1.00  0.00     0.031 C 
ATOM     65  C   UNL A   1      46.635  27.336  30.389  1.00  0.00     0.037 A 
BRANCH  52  66
ATOM     66  C   UNL A   1      43.627  32.448  32.080  1.00  0.00     0.064 A 
ATOM     67  C   UNL A   1      44.001  33.611  31.392  1.00  0.00     0.173 A 
ATOM     68  C   UNL A   1      43.263  32.569  33.429  1.00  0.00     0.173 A 
ATOM     69  F   UNL A   1      44.361  33.547  30.102  1.00  0.00    -0.203 F 
ATOM     70  C   UNL A   1      44.037  34.844  32.040  1.00  0.00     0.198 A 
ATOM     71  C   UNL A   1      43.275  33.807  34.066  1.00  0.00     0.198 A 
ATOM     72  F   UNL A   1      42.884  31.488  34.128  1.00  0.00    -0.203 F 
ATOM     73  F   UNL A   1      44.435  35.937  31.374  1.00  0.00    -0.200 F 
ATOM     74  C   UNL A   1      43.668  34.942  33.373  1.00  0.00     0.200 A 
ATOM     75  F   UNL A   1      42.905  33.902  35.351  1.00  0.00    -0.200 F 
ATOM     76  F   UNL A   1      43.698  36.130  33.993  1.00  0.00    -0.200 F 
ENDBRANCH  52  66
BRANCH  53  77
ATOM     77  C   UNL A   1      42.838  23.763  27.333  1.00  0.00     0.064 A 
ATOM     78  C   UNL A   1      42.378  22.616  27.994  1.00  0.00     0.173 A 
ATOM     79  C   UNL A   1      43.207  23.638  25.986  1.00  0.00     0.173 A 
ATOM     80  F   UNL A   1      42.043  22.680  29.291  1.00  0.00    -0.203 F 
ATOM     81  C   UNL A   1      42.297  21.391  27.336  1.00  0.00     0.198 A 
ATOM     82  C   UNL A   1      43.103  22.418  25.323  1.00  0.00     0.198 A 
ATOM     83  F   UNL A   1      43.659  24.707  25.313  1.00  0.00    -0.203 F 
ATOM     84  F   UNL A   1      41.890  20.301  28.001  1.00  0.00    -0.200 F 
ATOM     85  C   UNL A   1      42.653  21.294  25.999  1.00  0.00     0.200 A 
ATOM     86  F   UNL A   1      43.443  22.330  24.029  1.00  0.00    -0.200 F 
ATOM     87  F   UNL A   1      42.572  20.116  25.365  1.00  0.00    -0.200 F 
ENDBRANCH  53  77
BRANCH  65  88
ATOM     88  C   UNL A   1      48.058  26.947  30.668  1.00  0.00     0.064 A 
ATOM     89  C   UNL A   1      48.392  26.085  31.722  1.00  0.00     0.173 A 
ATOM     90  C   UNL A   1      49.093  27.402  29.837  1.00  0.00     0.173 A 
ATOM     91  F   UNL A   1      47.439  25.634  32.553  1.00  0.00    -0.203 F 
ATOM     92  C   UNL A   1      49.714  25.705  31.944  1.00  0.00     0.198 A 
ATOM     93  C   UNL A   1      50.411  27.003  30.048  1.00  0.00     0.198 A 
ATOM     94  F   UNL A   1      48.826  28.226  28.813  1.00  0.00    -0.203 F 
ATOM     95  F   UNL A   1      50.015  24.905  32.977  1.00  0.00    -0.200 F 
ATOM     96  C   UNL A   1      50.720  26.157  31.103  1.00  0.00     0.200 A 
ATOM     97  F   UNL A   1      51.381  27.434  29.231  1.00  0.00    -0.200 F 
ATOM     98  F   UNL A   1      51.990  25.783  31.314  1.00  0.00    -0.200 F 
ENDBRANCH  65  88
ENDBRANCH  39  40
ENDBRANCH  31  34
ENDBRANCH  29  30
ENDBRANCH   1  29
TORSDOF 12
ENDMDL
MODEL 2
REMARK VINA RESULT:     -13.2      3.233      7.323
REMARK SMILES CC1(C)[C@@]2(C(=O)NCCCNC(=O)c3ccc(-c4c5nc(c(-c6c(F)c(F)c(F)c(F)c6F)c6ccc([nH]6)c(-c6c(F)c(F)c(F)c(F)c6F)c6nc(c(-c7c(F)c(F)c(F)c(F)c7F)c7ccc4[nH]7)C=C6)C=C5)cc3)CC[C@]1(C)/C(=N/NC(=O)c1ccc(Cl)cc1)C2
REMARK SMILES IDX 9 1 8 2 7 3 5 4 6 5 4 7 1 8 2 9 3 10 79 11 77 12 93 13 78 14
REMARK SMILES IDX 80 15 81 16 82 17 83 18 84 19 85 21 86 22 87 23 92 24 88 25
REMARK SMILES IDX 91 26 89 27 90 28 10 29 11 30 12 31 13 33 14 34 15 35 76 36
REMARK SMILES IDX 16 37 75 38 17 39 18 40 19 41 69 42 20 43 74 44 68 45 70 46
REMARK SMILES IDX 21 47 73 48 67 49 66 50 22 52 54 53 34 54 53 55 35 56 38 57
REMARK SMILES IDX 52 58 71 59 36 60 37 61 51 63 72 64 39 65 23 66 24 67 32 68
REMARK SMILES IDX 25 69 26 70 30 71 33 72 27 73 28 74 31 75 29 76 55 77 56 78
REMARK SMILES IDX 64 79 57 80 58 81 62 82 65 83 59 84 60 85 63 86 61 87 40 88
REMARK SMILES IDX 41 89 49 90 42 91 43 92 47 93 50 94 44 95 45 96 48 97 46 98
REMARK H PARENT 7 6 83 20 11 32 70 51 38 62
REMARK Flexibility Score: inf
ROOT
ATOM      1  C   UNL A   1      37.875  19.594  24.932  1.00  0.00     0.042 C 
ENDROOT
BRANCH   1   2
ATOM      2  C   UNL A   1      36.566  20.397  25.001  1.00  0.00     0.117 C 
BRANCH   2   3
ATOM      3  N   UNL A   1      36.595  21.723  24.402  1.00  0.00    -0.356 N 
ATOM      4  C   UNL A   1      35.768  22.794  24.603  1.00  0.00     0.227 C 
ATOM      5  O   UNL A   1      36.329  23.888  24.696  1.00  0.00    -0.274 OA
ATOM      6  H   UNL A   1      37.320  21.872  23.752  1.00  0.00     0.163 HD
BRANCH   4   7
ATOM      7  C   UNL A   1      34.240  22.693  24.509  1.00  0.00     0.060 C 
ATOM      8  C   UNL A   1      33.744  21.292  26.652  1.00  0.00     0.013 C 
ATOM      9  C   UNL A   1      33.467  22.610  25.881  1.00  0.00    -0.010 C 
ATOM     10  C   UNL A   1      33.634  23.777  26.877  1.00  0.00     0.013 C 
ATOM     11  C   UNL A   1      32.077  22.650  25.170  1.00  0.00     0.014 C 
ATOM     12  C   UNL A   1      33.626  21.500  23.722  1.00  0.00     0.019 C 
ATOM     13  C   UNL A   1      33.684  23.990  23.865  1.00  0.00     0.071 C 
ATOM     14  C   UNL A   1      32.153  21.462  24.187  1.00  0.00     0.014 C 
ATOM     15  C   UNL A   1      30.838  22.669  26.042  1.00  0.00     0.018 C 
ATOM     16  C   UNL A   1      32.241  23.875  24.235  1.00  0.00     0.046 C 
ATOM     17  N   UNL A   1      31.187  24.499  23.831  1.00  0.00    -0.181 NA
BRANCH  17  18
ATOM     18  N   UNL A   1      30.981  25.499  22.943  1.00  0.00    -0.243 N 
ATOM     19  C   UNL A   1      31.197  26.846  22.792  1.00  0.00     0.271 C 
ATOM     20  H   UNL A   1      30.529  25.144  22.143  1.00  0.00     0.194 HD
ATOM     21  O   UNL A   1      30.853  27.399  21.743  1.00  0.00    -0.267 OA
BRANCH  19  22
ATOM     22  C   UNL A   1      31.783  27.713  23.804  1.00  0.00     0.041 A 
ATOM     23  C   UNL A   1      31.055  28.819  24.255  1.00  0.00     0.015 A 
ATOM     24  C   UNL A   1      33.114  27.536  24.185  1.00  0.00     0.015 A 
ATOM     25  C   UNL A   1      31.609  29.659  25.220  1.00  0.00     0.021 A 
ATOM     26  C   UNL A   1      33.652  28.362  25.172  1.00  0.00     0.021 A 
ATOM     27  C   UNL A   1      32.885  29.395  25.712  1.00  0.00     0.041 A 
ATOM     28  Cl  UNL A   1      33.500  30.338  27.010  1.00  0.00    -0.084 Cl
ENDBRANCH  19  22
ENDBRANCH  17  18
ENDBRANCH   4   7
ENDBRANCH   2   3
ENDBRANCH   1   2
BRANCH   1  29
ATOM     29  C   UNL A   1      39.068  20.132  25.745  1.00  0.00     0.118 C 
BRANCH  29  30
ATOM     30  N   UNL A   1      40.143  19.156  25.862  1.00  0.00    -0.352 N 
ATOM     31  C   UNL A   1      41.494  19.300  26.052  1.00  0.00     0.251 C 
ATOM     32  H   UNL A   1      39.845  18.220  25.790  1.00  0.00     0.163 HD
ATOM     33  O   UNL A   1      42.201  18.289  25.959  1.00  0.00    -0.269 OA
BRANCH  31  34
ATOM     34  C   UNL A   1      42.159  20.592  26.367  1.00  0.00     0.039 A 
ATOM     35  C   UNL A   1      42.189  21.005  27.707  1.00  0.00     0.014 A 
ATOM     36  C   UNL A   1      42.598  21.481  25.383  1.00  0.00     0.014 A 
ATOM     37  C   UNL A   1      42.656  22.280  28.061  1.00  0.00     0.010 A 
ATOM     38  C   UNL A   1      43.096  22.749  25.739  1.00  0.00     0.010 A 
ATOM     39  C   UNL A   1      43.113  23.171  27.080  1.00  0.00    -0.014 A 
BRANCH  39  40
ATOM     40  C   UNL A   1      43.555  24.549  27.451  1.00  0.00     0.031 A 
ATOM     41  C   UNL A   1      42.547  25.608  27.820  1.00  0.00     0.074 A 
ATOM     42  C   UNL A   1      44.865  24.866  27.467  1.00  0.00     0.049 A 
ATOM     43  N   UNL A   1      42.740  26.868  28.133  1.00  0.00    -0.248 NA
ATOM     44  C   UNL A   1      41.137  25.196  27.837  1.00  0.00     0.031 C 
ATOM     45  C   UNL A   1      45.958  23.950  27.154  1.00  0.00     0.029 A 
ATOM     46  N   UNL A   1      45.497  26.054  27.757  1.00  0.00    -0.354 N 
ATOM     47  C   UNL A   1      41.478  27.400  28.372  1.00  0.00     0.074 A 
ATOM     48  C   UNL A   1      40.526  26.332  28.143  1.00  0.00     0.031 C 
ATOM     49  C   UNL A   1      47.125  24.604  27.272  1.00  0.00     0.029 A 
ATOM     50  C   UNL A   1      46.864  25.995  27.638  1.00  0.00     0.049 A 
ATOM     51  H   UNL A   1      45.014  26.869  28.026  1.00  0.00     0.167 HD
ATOM     52  C   UNL A   1      41.141  28.656  28.758  1.00  0.00     0.037 A 
ATOM     53  C   UNL A   1      47.802  26.951  27.793  1.00  0.00     0.037 A 
ATOM     54  C   UNL A   1      42.076  29.724  29.008  1.00  0.00     0.049 A 
ATOM     55  C   UNL A   1      47.400  28.350  28.176  1.00  0.00     0.074 A 
ATOM     56  C   UNL A   1      41.816  31.018  29.429  1.00  0.00     0.029 A 
ATOM     57  N   UNL A   1      43.450  29.624  28.858  1.00  0.00    -0.354 N 
ATOM     58  N   UNL A   1      46.207  28.829  28.425  1.00  0.00    -0.248 NA
ATOM     59  C   UNL A   1      48.481  29.342  28.300  1.00  0.00     0.031 C 
ATOM     60  C   UNL A   1      43.030  31.712  29.498  1.00  0.00     0.029 A 
ATOM     61  C   UNL A   1      44.049  30.838  29.160  1.00  0.00     0.049 A 
ATOM     62  H   UNL A   1      43.931  28.811  28.578  1.00  0.00     0.167 HD
ATOM     63  C   UNL A   1      46.394  30.164  28.765  1.00  0.00     0.074 A 
ATOM     64  C   UNL A   1      47.817  30.421  28.694  1.00  0.00     0.031 C 
ATOM     65  C   UNL A   1      45.465  31.088  29.106  1.00  0.00     0.037 A 
BRANCH  52  66
ATOM     66  C   UNL A   1      39.680  28.959  28.927  1.00  0.00     0.064 A 
ATOM     67  C   UNL A   1      38.876  29.329  27.839  1.00  0.00     0.173 A 
ATOM     68  C   UNL A   1      39.068  28.828  30.183  1.00  0.00     0.173 A 
ATOM     69  F   UNL A   1      39.416  29.472  26.619  1.00  0.00    -0.203 F 
ATOM     70  C   UNL A   1      37.518  29.586  28.008  1.00  0.00     0.198 A 
ATOM     71  C   UNL A   1      37.704  29.060  30.343  1.00  0.00     0.198 A 
ATOM     72  F   UNL A   1      39.790  28.463  31.253  1.00  0.00    -0.203 F 
ATOM     73  F   UNL A   1      36.777  29.976  26.962  1.00  0.00    -0.200 F 
ATOM     74  C   UNL A   1      36.932  29.445  29.257  1.00  0.00     0.200 A 
ATOM     75  F   UNL A   1      37.136  28.910  31.548  1.00  0.00    -0.200 F 
ATOM     76  F   UNL A   1      35.623  29.687  29.416  1.00  0.00    -0.200 F 
ENDBRANCH  52  66
BRANCH  53  77
ATOM     77  C   UNL A   1      49.235  26.614  27.591  1.00  0.00     0.064 A 
ATOM     78  C   UNL A   1      49.763  26.465  26.302  1.00  0.00     0.173 A 
ATOM     79  C   UNL A   1      50.098  26.422  28.679  1.00  0.00     0.173 A 
ATOM     80  F   UNL A   1      48.968  26.608  25.232  1.00  0.00    -0.203 F 
ATOM     81  C   UNL A   1      51.101  26.128  26.108  1.00  0.00     0.198 A 
ATOM     82  C   UNL A   1      51.441  26.109  28.484  1.00  0.00     0.198 A 
ATOM     83  F   UNL A   1      49.636  26.548  29.932  1.00  0.00    -0.203 F 
ATOM     84  F   UNL A   1      51.573  25.954  24.866  1.00  0.00    -0.200 F 
ATOM     85  C   UNL A   1      51.941  25.958  27.199  1.00  0.00     0.200 A 
ATOM     86  F   UNL A   1      52.250  25.950  29.540  1.00  0.00    -0.200 F 
ATOM     87  F   UNL A   1      53.229  25.637  27.013  1.00  0.00    -0.200 F 
ENDBRANCH  53  77
BRANCH  65  88
ATOM     88  C   UNL A   1      45.951  32.459  29.479  1.00  0.00     0.064 A 
ATOM     89  C   UNL A   1      46.045  33.489  28.533  1.00  0.00     0.173 A 
ATOM     90  C   UNL A   1      46.277  32.758  30.811  1.00  0.00     0.173 A 
ATOM     91  F   UNL A   1      45.759  33.249  27.244  1.00  0.00    -0.203 F 
ATOM     92  C   UNL A   1      46.463  34.765  28.904  1.00  0.00     0.198 A 
ATOM     93  C   UNL A   1      46.673  34.040  31.183  1.00  0.00     0.198 A 
ATOM     94  F   UNL A   1      46.200  31.808  31.756  1.00  0.00    -0.203 F 
ATOM     95  F   UNL A   1      46.577  35.727  27.976  1.00  0.00    -0.200 F 
ATOM     96  C   UNL A   1      46.769  35.042  30.228  1.00  0.00     0.200 A 
ATOM     97  F   UNL A   1      46.960  34.308  32.463  1.00  0.00    -0.200 F 
ATOM     98  F   UNL A   1      47.162  36.273  30.584  1.00  0.00    -0.200 F 
ENDBRANCH  65  88
ENDBRANCH  39  40
ENDBRANCH  31  34
ENDBRANCH  29  30
ENDBRANCH   1  29
TORSDOF 12
ENDMDL
MODEL 3
REMARK VINA RESULT:     -13.2      3.202      7.335
REMARK SMILES CC1(C)[C@@]2(C(=O)NCCCNC(=O)c3ccc(-c4c5nc(c(-c6c(F)c(F)c(F)c(F)c6F)c6ccc([nH]6)c(-c6c(F)c(F)c(F)c(F)c6F)c6nc(c(-c7c(F)c(F)c(F)c(F)c7F)c7ccc4[nH]7)C=C6)C=C5)cc3)CC[C@]1(C)/C(=N/NC(=O)c1ccc(Cl)cc1)C2
REMARK SMILES IDX 9 1 8 2 7 3 5 4 6 5 4 7 1 8 2 9 3 10 79 11 77 12 93 13 78 14
REMARK SMILES IDX 80 15 81 16 82 17 83 18 84 19 85 21 86 22 87 23 92 24 88 25
REMARK SMILES IDX 91 26 89 27 90 28 10 29 11 30 12 31 13 33 14 34 15 35 76 36
REMARK SMILES IDX 16 37 75 38 17 39 18 40 19 41 69 42 20 43 74 44 68 45 70 46
REMARK SMILES IDX 21 47 73 48 67 49 66 50 22 52 54 53 34 54 53 55 35 56 38 57
REMARK SMILES IDX 52 58 71 59 36 60 37 61 51 63 72 64 39 65 23 66 24 67 32 68
REMARK SMILES IDX 25 69 26 70 30 71 33 72 27 73 28 74 31 75 29 76 55 77 56 78
REMARK SMILES IDX 64 79 57 80 58 81 62 82 65 83 59 84 60 85 63 86 61 87 40 88
REMARK SMILES IDX 41 89 49 90 42 91 43 92 47 93 50 94 44 95 45 96 48 97 46 98
REMARK H PARENT 7 6 83 20 11 32 70 51 38 62
REMARK Flexibility Score: inf
ROOT
ATOM      1  C   UNL A   1      37.895  19.554  24.922  1.00  0.00     0.042 C 
ENDROOT
BRANCH   1   2
ATOM      2  C   UNL A   1      36.581  20.347  25.001  1.00  0.00     0.117 C 
BRANCH   2   3
ATOM      3  N   UNL A   1      36.614  21.698  24.461  1.00  0.00    -0.356 N 
ATOM      4  C   UNL A   1      35.771  22.752  24.682  1.00  0.00     0.227 C 
ATOM      5  O   UNL A   1      36.318  23.846  24.839  1.00  0.00    -0.274 OA
ATOM      6  H   UNL A   1      37.357  21.882  23.840  1.00  0.00     0.163 HD
BRANCH   4   7
ATOM      7  C   UNL A   1      34.248  22.642  24.538  1.00  0.00     0.060 C 
ATOM      8  C   UNL A   1      33.688  21.252  26.672  1.00  0.00     0.013 C 
ATOM      9  C   UNL A   1      33.429  22.563  25.883  1.00  0.00    -0.010 C 
ATOM     10  C   UNL A   1      33.557  23.738  26.877  1.00  0.00     0.013 C 
ATOM     11  C   UNL A   1      32.064  22.591  25.126  1.00  0.00     0.014 C 
ATOM     12  C   UNL A   1      33.667  21.441  23.739  1.00  0.00     0.019 C 
ATOM     13  C   UNL A   1      33.707  23.932  23.867  1.00  0.00     0.071 C 
ATOM     14  C   UNL A   1      32.179  21.397  24.155  1.00  0.00     0.014 C 
ATOM     15  C   UNL A   1      30.796  22.608  25.956  1.00  0.00     0.018 C 
ATOM     16  C   UNL A   1      32.252  23.811  24.189  1.00  0.00     0.046 C 
ATOM     17  N   UNL A   1      31.209  24.426  23.746  1.00  0.00    -0.181 NA
BRANCH  17  18
ATOM     18  N   UNL A   1      31.028  25.420  22.846  1.00  0.00    -0.243 N 
ATOM     19  C   UNL A   1      31.254  26.763  22.687  1.00  0.00     0.271 C 
ATOM     20  H   UNL A   1      30.590  25.060  22.039  1.00  0.00     0.194 HD
ATOM     21  O   UNL A   1      30.936  27.309  21.626  1.00  0.00    -0.267 OA
BRANCH  19  22
ATOM     22  C   UNL A   1      31.824  27.637  23.703  1.00  0.00     0.041 A 
ATOM     23  C   UNL A   1      31.028  28.645  24.256  1.00  0.00     0.015 A 
ATOM     24  C   UNL A   1      33.189  27.572  23.989  1.00  0.00     0.015 A 
ATOM     25  C   UNL A   1      31.565  29.489  25.227  1.00  0.00     0.021 A 
ATOM     26  C   UNL A   1      33.713  28.401  24.981  1.00  0.00     0.021 A 
ATOM     27  C   UNL A   1      32.891  29.329  25.622  1.00  0.00     0.041 A 
ATOM     28  Cl  UNL A   1      33.502  30.266  26.926  1.00  0.00    -0.084 Cl
ENDBRANCH  19  22
ENDBRANCH  17  18
ENDBRANCH   4   7
ENDBRANCH   2   3
ENDBRANCH   1   2
BRANCH   1  29
ATOM     29  C   UNL A   1      39.081  20.081  25.751  1.00  0.00     0.118 C 
BRANCH  29  30
ATOM     30  N   UNL A   1      40.167  19.116  25.840  1.00  0.00    -0.352 N 
ATOM     31  C   UNL A   1      41.518  19.271  26.018  1.00  0.00     0.251 C 
ATOM     32  H   UNL A   1      39.879  18.178  25.755  1.00  0.00     0.163 HD
ATOM     33  O   UNL A   1      42.236  18.270  25.900  1.00  0.00    -0.269 OA
BRANCH  31  34
ATOM     34  C   UNL A   1      42.173  20.566  26.349  1.00  0.00     0.039 A 
ATOM     35  C   UNL A   1      42.190  20.968  27.693  1.00  0.00     0.014 A 
ATOM     36  C   UNL A   1      42.614  21.465  25.376  1.00  0.00     0.014 A 
ATOM     37  C   UNL A   1      42.645  22.242  28.061  1.00  0.00     0.010 A 
ATOM     38  C   UNL A   1      43.101  22.733  25.746  1.00  0.00     0.010 A 
ATOM     39  C   UNL A   1      43.104  23.144  27.091  1.00  0.00    -0.014 A 
BRANCH  39  40
ATOM     40  C   UNL A   1      43.535  24.522  27.476  1.00  0.00     0.031 A 
ATOM     41  C   UNL A   1      42.516  25.572  27.845  1.00  0.00     0.074 A 
ATOM     42  C   UNL A   1      44.842  24.848  27.507  1.00  0.00     0.049 A 
ATOM     43  N   UNL A   1      42.698  26.830  28.170  1.00  0.00    -0.248 NA
ATOM     44  C   UNL A   1      41.109  25.151  27.847  1.00  0.00     0.031 C 
ATOM     45  C   UNL A   1      45.943  23.940  27.195  1.00  0.00     0.029 A 
ATOM     46  N   UNL A   1      45.464  26.037  27.811  1.00  0.00    -0.354 N 
ATOM     47  C   UNL A   1      41.431  27.352  28.403  1.00  0.00     0.074 A 
ATOM     48  C   UNL A   1      40.488  26.280  28.156  1.00  0.00     0.031 C 
ATOM     49  C   UNL A   1      47.105  24.601  27.329  1.00  0.00     0.029 A 
ATOM     50  C   UNL A   1      46.833  25.987  27.704  1.00  0.00     0.049 A 
ATOM     51  H   UNL A   1      44.974  26.847  28.082  1.00  0.00     0.167 HD
ATOM     52  C   UNL A   1      41.083  28.603  28.795  1.00  0.00     0.037 A 
ATOM     53  C   UNL A   1      47.763  26.948  27.874  1.00  0.00     0.037 A 
ATOM     54  C   UNL A   1      42.009  29.675  29.062  1.00  0.00     0.049 A 
ATOM     55  C   UNL A   1      47.349  28.341  28.265  1.00  0.00     0.074 A 
ATOM     56  C   UNL A   1      41.738  30.964  29.491  1.00  0.00     0.029 A 
ATOM     57  N   UNL A   1      43.385  29.585  28.923  1.00  0.00    -0.354 N 
ATOM     58  N   UNL A   1      46.151  28.811  28.507  1.00  0.00    -0.248 NA
ATOM     59  C   UNL A   1      48.422  29.339  28.407  1.00  0.00     0.031 C 
ATOM     60  C   UNL A   1      42.946  31.665  29.575  1.00  0.00     0.029 A 
ATOM     61  C   UNL A   1      43.973  30.800  29.239  1.00  0.00     0.049 A 
ATOM     62  H   UNL A   1      43.873  28.777  28.641  1.00  0.00     0.167 HD
ATOM     63  C   UNL A   1      46.327  30.144  28.859  1.00  0.00     0.074 A 
ATOM     64  C   UNL A   1      47.748  30.410  28.803  1.00  0.00     0.031 C 
ATOM     65  C   UNL A   1      45.389  31.060  29.200  1.00  0.00     0.037 A 
BRANCH  52  66
ATOM     66  C   UNL A   1      39.619  28.895  28.954  1.00  0.00     0.064 A 
ATOM     67  C   UNL A   1      38.981  28.796  30.199  1.00  0.00     0.173 A 
ATOM     68  C   UNL A   1      38.857  29.328  27.858  1.00  0.00     0.173 A 
ATOM     69  F   UNL A   1      39.665  28.382  31.276  1.00  0.00    -0.203 F 
ATOM     70  C   UNL A   1      37.627  29.092  30.334  1.00  0.00     0.198 A 
ATOM     71  C   UNL A   1      37.510  29.648  28.003  1.00  0.00     0.198 A 
ATOM     72  F   UNL A   1      39.424  29.453  26.648  1.00  0.00    -0.203 F 
ATOM     73  F   UNL A   1      37.029  28.952  31.525  1.00  0.00    -0.200 F 
ATOM     74  C   UNL A   1      36.894  29.523  29.239  1.00  0.00     0.200 A 
ATOM     75  F   UNL A   1      36.807  30.078  26.945  1.00  0.00    -0.200 F 
ATOM     76  F   UNL A   1      35.592  29.812  29.373  1.00  0.00    -0.200 F 
ENDBRANCH  52  66
BRANCH  53  77
ATOM     77  C   UNL A   1      49.200  26.621  27.682  1.00  0.00     0.064 A 
ATOM     78  C   UNL A   1      50.040  26.405  28.782  1.00  0.00     0.173 A 
ATOM     79  C   UNL A   1      49.761  26.532  26.401  1.00  0.00     0.173 A 
ATOM     80  F   UNL A   1      49.554  26.511  30.028  1.00  0.00    -0.203 F 
ATOM     81  C   UNL A   1      51.393  26.118  28.608  1.00  0.00     0.198 A 
ATOM     82  C   UNL A   1      51.107  26.221  26.227  1.00  0.00     0.198 A 
ATOM     83  F   UNL A   1      48.997  26.737  25.318  1.00  0.00    -0.203 F 
ATOM     84  F   UNL A   1      52.184  25.953  29.677  1.00  0.00    -0.200 F 
ATOM     85  C   UNL A   1      51.923  26.019  27.331  1.00  0.00     0.200 A 
ATOM     86  F   UNL A   1      51.616  26.121  24.991  1.00  0.00    -0.200 F 
ATOM     87  F   UNL A   1      53.224  25.740  27.163  1.00  0.00    -0.200 F 
ENDBRANCH  53  77
BRANCH  65  88
ATOM     88  C   UNL A   1      45.863  32.430  29.588  1.00  0.00     0.064 A 
ATOM     89  C   UNL A   1      45.964  33.467  28.649  1.00  0.00     0.173 A 
ATOM     90  C   UNL A   1      46.169  32.722  30.926  1.00  0.00     0.173 A 
ATOM     91  F   UNL A   1      45.696  33.234  27.356  1.00  0.00    -0.203 F 
ATOM     92  C   UNL A   1      46.371  34.743  29.034  1.00  0.00     0.198 A 
ATOM     93  C   UNL A   1      46.554  34.005  31.311  1.00  0.00     0.198 A 
ATOM     94  F   UNL A   1      46.085  31.766  31.864  1.00  0.00    -0.203 F 
ATOM     95  F   UNL A   1      46.492  35.711  28.114  1.00  0.00    -0.200 F 
ATOM     96  C   UNL A   1      46.657  35.013  30.364  1.00  0.00     0.200 A 
ATOM     97  F   UNL A   1      46.823  34.266  32.597  1.00  0.00    -0.200 F 
ATOM     98  F   UNL A   1      47.040  36.243  30.733  1.00  0.00    -0.200 F 
ENDBRANCH  65  88
ENDBRANCH  39  40
ENDBRANCH  31  34
ENDBRANCH  29  30
ENDBRANCH   1  29
TORSDOF 12
ENDMDL
