MODEL 1
REMARK VINA RESULT:     -12.7      0.000      0.000
REMARK SMILES O=C(CC1(CC(=O)Nc2ccc(F)cc2F)CCCCC1)NCCCNC(=O)c1ccc(-c2c3nc(c(-c4c(F)c(F)c(F)c(F)c4F)c4ccc([nH]4)c(-c4c(F)c(F)c(F)c(F)c4F)c4nc(c(-c5c(F)c(F)c(F)c(F)c5F)c5ccc2[nH]5)C=C4)C=C3)cc1
REMARK SMILES IDX 23 1 22 2 1 3 2 4 3 6 4 7 17 8 21 9 18 10 20 11 19 12 5 13
REMARK SMILES IDX 6 14 7 15 8 16 9 18 10 19 15 20 11 21 14 22 16 23 12 24
REMARK SMILES IDX 13 25 24 26 25 27 26 28 27 29 28 31 29 32 30 33 91 34 31 35
REMARK SMILES IDX 90 36 32 37 33 38 34 39 84 40 35 41 89 42 83 43 85 44 36 45
REMARK SMILES IDX 88 46 82 47 81 48 37 50 69 51 49 52 68 53 50 54 53 55 67 56
REMARK SMILES IDX 86 57 51 58 52 59 66 61 87 62 54 63 38 64 39 65 47 66 40 67
REMARK SMILES IDX 41 68 45 69 48 70 42 71 43 72 46 73 44 74 70 75 71 76 79 77
REMARK SMILES IDX 72 78 73 79 77 80 80 81 74 82 75 83 78 84 76 85 55 86 56 87
REMARK SMILES IDX 64 88 57 89 58 90 62 91 65 92 59 93 60 94 63 95 61 96
REMARK H PARENT 22 5 8 17 26 30 85 49 53 60
REMARK Flexibility Score: inf
ROOT
ATOM      1  C   UNL A   1      31.718  30.654  26.780  1.00  0.00     0.117 C 
ENDROOT
BRANCH   1   2
ATOM      2  N   UNL A   1      32.068  30.120  25.481  1.00  0.00    -0.356 N 
ATOM      3  O   UNL A   1      32.951  28.133  26.237  1.00  0.00    -0.275 OA
ATOM      4  C   UNL A   1      32.588  28.856  25.315  1.00  0.00     0.220 C 
ATOM      5  H   UNL A   1      31.930  30.683  24.686  1.00  0.00     0.163 HD
BRANCH   4   6
ATOM      6  C   UNL A   1      32.592  28.416  23.864  1.00  0.00     0.107 C 
BRANCH   6   7
ATOM      7  C   UNL A   1      31.229  27.840  23.343  1.00  0.00    -0.012 C 
ATOM      8  C   UNL A   1      30.428  27.091  24.467  1.00  0.00     0.008 C 
ATOM      9  C   UNL A   1      30.312  29.024  22.977  1.00  0.00     0.008 C 
ATOM     10  C   UNL A   1      28.997  26.686  24.091  1.00  0.00     0.001 C 
ATOM     11  C   UNL A   1      28.956  28.586  22.430  1.00  0.00     0.001 C 
ATOM     12  C   UNL A   1      28.182  27.833  23.498  1.00  0.00     0.000 C 
BRANCH   7  13
ATOM     13  C   UNL A   1      31.493  26.863  22.148  1.00  0.00     0.108 C 
BRANCH  13  14
ATOM     14  C   UNL A   1      32.813  26.089  21.996  1.00  0.00     0.225 C 
ATOM     15  O   UNL A   1      33.568  26.370  21.055  1.00  0.00    -0.275 OA
ATOM     16  N   UNL A   1      33.271  25.136  22.857  1.00  0.00    -0.324 N 
ATOM     17  H   UNL A   1      34.169  24.795  22.642  1.00  0.00     0.170 HD
BRANCH  16  18
ATOM     18  C   UNL A   1      32.696  24.559  23.989  1.00  0.00     0.077 A 
ATOM     19  C   UNL A   1      31.654  23.642  23.821  1.00  0.00     0.032 A 
ATOM     20  C   UNL A   1      33.232  24.750  25.265  1.00  0.00     0.149 A 
ATOM     21  C   UNL A   1      31.019  23.094  24.938  1.00  0.00     0.041 A 
ATOM     22  C   UNL A   1      32.638  24.167  26.382  1.00  0.00     0.080 A 
ATOM     23  F   UNL A   1      34.328  25.502  25.431  1.00  0.00    -0.205 F 
ATOM     24  C   UNL A   1      31.506  23.379  26.210  1.00  0.00     0.126 A 
ATOM     25  F   UNL A   1      30.872  22.885  27.281  1.00  0.00    -0.207 F 
ENDBRANCH  16  18
ENDBRANCH  13  14
ENDBRANCH   7  13
ENDBRANCH   6   7
ENDBRANCH   4   6
ENDBRANCH   1   2
BRANCH   1  26
ATOM     26  C   UNL A   1      31.527  32.163  26.750  1.00  0.00     0.042 C 
BRANCH  26  27
ATOM     27  C   UNL A   1      32.752  32.976  27.156  1.00  0.00     0.118 C 
BRANCH  27  28
ATOM     28  N   UNL A   1      32.440  34.313  27.639  1.00  0.00    -0.352 N 
ATOM     29  C   UNL A   1      33.021  35.021  28.665  1.00  0.00     0.251 C 
ATOM     30  H   UNL A   1      31.711  34.774  27.165  1.00  0.00     0.163 HD
ATOM     31  O   UNL A   1      32.552  36.098  29.017  1.00  0.00    -0.269 OA
BRANCH  29  32
ATOM     32  C   UNL A   1      34.196  34.465  29.374  1.00  0.00     0.039 A 
ATOM     33  C   UNL A   1      33.992  33.758  30.561  1.00  0.00     0.014 A 
ATOM     34  C   UNL A   1      35.486  34.616  28.861  1.00  0.00     0.014 A 
ATOM     35  C   UNL A   1      35.074  33.136  31.191  1.00  0.00     0.010 A 
ATOM     36  C   UNL A   1      36.548  33.927  29.442  1.00  0.00     0.010 A 
ATOM     37  C   UNL A   1      36.353  33.177  30.612  1.00  0.00    -0.014 A 
BRANCH  37  38
ATOM     38  C   UNL A   1      37.492  32.427  31.207  1.00  0.00     0.031 A 
ATOM     39  C   UNL A   1      38.013  32.791  32.569  1.00  0.00     0.074 A 
ATOM     40  C   UNL A   1      38.095  31.455  30.495  1.00  0.00     0.049 A 
ATOM     41  N   UNL A   1      39.033  32.296  33.224  1.00  0.00    -0.248 NA
ATOM     42  C   UNL A   1      37.311  33.871  33.282  1.00  0.00     0.031 C 
ATOM     43  C   UNL A   1      37.712  31.035  29.146  1.00  0.00     0.029 A 
ATOM     44  N   UNL A   1      39.162  30.646  30.803  1.00  0.00    -0.354 N 
ATOM     45  C   UNL A   1      39.099  33.006  34.416  1.00  0.00     0.074 A 
ATOM     46  C   UNL A   1      38.054  34.005  34.371  1.00  0.00     0.031 C 
ATOM     47  C   UNL A   1      38.508  30.028  28.756  1.00  0.00     0.029 A 
ATOM     48  C   UNL A   1      39.489  29.761  29.804  1.00  0.00     0.049 A 
ATOM     49  H   UNL A   1      39.648  30.696  31.657  1.00  0.00     0.167 HD
ATOM     50  C   UNL A   1      39.936  32.820  35.464  1.00  0.00     0.037 A 
ATOM     51  C   UNL A   1      40.471  28.840  29.735  1.00  0.00     0.037 A 
ATOM     52  C   UNL A   1      40.958  31.807  35.515  1.00  0.00     0.049 A 
ATOM     53  C   UNL A   1      41.404  28.670  30.903  1.00  0.00     0.074 A 
ATOM     54  C   UNL A   1      41.819  31.508  36.555  1.00  0.00     0.029 A 
ATOM     55  N   UNL A   1      41.258  30.931  34.482  1.00  0.00    -0.354 N 
ATOM     56  N   UNL A   1      41.417  29.307  32.049  1.00  0.00    -0.248 NA
ATOM     57  C   UNL A   1      42.459  27.653  30.772  1.00  0.00     0.031 C 
ATOM     58  C   UNL A   1      42.678  30.491  36.132  1.00  0.00     0.029 A 
ATOM     59  C   UNL A   1      42.311  30.110  34.852  1.00  0.00     0.049 A 
ATOM     60  H   UNL A   1      40.792  30.897  33.616  1.00  0.00     0.167 HD
ATOM     61  C   UNL A   1      42.457  28.752  32.784  1.00  0.00     0.074 A 
ATOM     62  C   UNL A   1      43.045  27.717  31.960  1.00  0.00     0.031 C 
ATOM     63  C   UNL A   1      42.884  29.075  34.029  1.00  0.00     0.037 A 
BRANCH  50  64
ATOM     64  C   UNL A   1      39.781  33.719  36.657  1.00  0.00     0.064 A 
ATOM     65  C   UNL A   1      38.928  33.362  37.713  1.00  0.00     0.173 A 
ATOM     66  C   UNL A   1      40.412  34.970  36.720  1.00  0.00     0.173 A 
ATOM     67  F   UNL A   1      38.294  32.180  37.700  1.00  0.00    -0.203 F 
ATOM     68  C   UNL A   1      38.702  34.230  38.777  1.00  0.00     0.198 A 
ATOM     69  C   UNL A   1      40.210  35.822  37.802  1.00  0.00     0.198 A 
ATOM     70  F   UNL A   1      41.246  35.356  35.742  1.00  0.00    -0.203 F 
ATOM     71  F   UNL A   1      37.853  33.882  39.755  1.00  0.00    -0.200 F 
ATOM     72  C   UNL A   1      39.346  35.458  38.823  1.00  0.00     0.200 A 
ATOM     73  F   UNL A   1      40.854  36.996  37.858  1.00  0.00    -0.200 F 
ATOM     74  F   UNL A   1      39.135  36.287  39.854  1.00  0.00    -0.200 F 
ENDBRANCH  50  64
BRANCH  51  75
ATOM     75  C   UNL A   1      40.597  27.988  28.522  1.00  0.00     0.064 A 
ATOM     76  C   UNL A   1      39.969  26.735  28.438  1.00  0.00     0.173 A 
ATOM     77  C   UNL A   1      41.373  28.401  27.430  1.00  0.00     0.173 A 
ATOM     78  F   UNL A   1      39.218  26.291  29.457  1.00  0.00    -0.203 F 
ATOM     79  C   UNL A   1      40.131  25.922  27.319  1.00  0.00     0.198 A 
ATOM     80  C   UNL A   1      41.509  27.599  26.298  1.00  0.00     0.198 A 
ATOM     81  F   UNL A   1      41.975  29.599  27.452  1.00  0.00    -0.203 F 
ATOM     82  F   UNL A   1      39.552  24.714  27.282  1.00  0.00    -0.200 F 
ATOM     83  C   UNL A   1      40.897  26.356  26.248  1.00  0.00     0.200 A 
ATOM     84  F   UNL A   1      42.228  28.035  25.255  1.00  0.00    -0.200 F 
ATOM     85  F   UNL A   1      41.042  25.579  25.166  1.00  0.00    -0.200 F 
ENDBRANCH  51  75
BRANCH  63  86
ATOM     86  C   UNL A   1      44.028  28.291  34.603  1.00  0.00     0.064 A 
ATOM     87  C   UNL A   1      43.786  27.117  35.338  1.00  0.00     0.173 A 
ATOM     88  C   UNL A   1      45.351  28.744  34.510  1.00  0.00     0.173 A 
ATOM     89  F   UNL A   1      42.536  26.647  35.466  1.00  0.00    -0.203 F 
ATOM     90  C   UNL A   1      44.823  26.442  35.973  1.00  0.00     0.198 A 
ATOM     91  C   UNL A   1      46.391  28.046  35.120  1.00  0.00     0.198 A 
ATOM     92  F   UNL A   1      45.637  29.852  33.811  1.00  0.00    -0.203 F 
ATOM     93  F   UNL A   1      44.561  25.350  36.705  1.00  0.00    -0.200 F 
ATOM     94  C   UNL A   1      46.125  26.904  35.860  1.00  0.00     0.200 A 
ATOM     95  F   UNL A   1      47.652  28.481  34.990  1.00  0.00    -0.200 F 
ATOM     96  F   UNL A   1      47.125  26.249  36.466  1.00  0.00    -0.200 F 
ENDBRANCH  63  86
ENDBRANCH  37  38
ENDBRANCH  29  32
ENDBRANCH  27  28
ENDBRANCH  26  27
ENDBRANCH   1  26
TORSDOF 14
ENDMDL
MODEL 2
REMARK VINA RESULT:     -12.6      0.839      7.370
REMARK SMILES O=C(CC1(CC(=O)Nc2ccc(F)cc2F)CCCCC1)NCCCNC(=O)c1ccc(-c2c3nc(c(-c4c(F)c(F)c(F)c(F)c4F)c4ccc([nH]4)c(-c4c(F)c(F)c(F)c(F)c4F)c4nc(c(-c5c(F)c(F)c(F)c(F)c5F)c5ccc2[nH]5)C=C4)C=C3)cc1
REMARK SMILES IDX 23 1 22 2 1 3 2 4 3 6 4 7 17 8 21 9 18 10 20 11 19 12 5 13
REMARK SMILES IDX 6 14 7 15 8 16 9 18 10 19 15 20 11 21 14 22 16 23 12 24
REMARK SMILES IDX 13 25 24 26 25 27 26 28 27 29 28 31 29 32 30 33 91 34 31 35
REMARK SMILES IDX 90 36 32 37 33 38 34 39 84 40 35 41 89 42 83 43 85 44 36 45
REMARK SMILES IDX 88 46 82 47 81 48 37 50 69 51 49 52 68 53 50 54 53 55 67 56
REMARK SMILES IDX 86 57 51 58 52 59 66 61 87 62 54 63 38 64 39 65 47 66 40 67
REMARK SMILES IDX 41 68 45 69 48 70 42 71 43 72 46 73 44 74 70 75 71 76 79 77
REMARK SMILES IDX 72 78 73 79 77 80 80 81 74 82 75 83 78 84 76 85 55 86 56 87
REMARK SMILES IDX 64 88 57 89 58 90 62 91 65 92 59 93 60 94 63 95 61 96
REMARK H PARENT 22 5 8 17 26 30 85 49 53 60
REMARK Flexibility Score: inf
ROOT
ATOM      1  C   UNL A   1      31.835  30.576  26.648  1.00  0.00     0.117 C 
ENDROOT
BRANCH   1   2
ATOM      2  N   UNL A   1      31.741  30.025  25.313  1.00  0.00    -0.356 N 
ATOM      3  O   UNL A   1      33.800  28.995  25.301  1.00  0.00    -0.275 OA
ATOM      4  C   UNL A   1      32.710  29.206  24.779  1.00  0.00     0.220 C 
ATOM      5  H   UNL A   1      30.954  30.246  24.765  1.00  0.00     0.163 HD
BRANCH   4   6
ATOM      6  C   UNL A   1      32.255  28.522  23.504  1.00  0.00     0.107 C 
BRANCH   6   7
ATOM      7  C   UNL A   1      31.396  27.227  23.718  1.00  0.00    -0.012 C 
ATOM      8  C   UNL A   1      31.561  26.632  25.162  1.00  0.00     0.008 C 
ATOM      9  C   UNL A   1      29.906  27.620  23.661  1.00  0.00     0.008 C 
ATOM     10  C   UNL A   1      30.596  25.493  25.514  1.00  0.00     0.001 C 
ATOM     11  C   UNL A   1      28.964  26.431  23.832  1.00  0.00     0.001 C 
ATOM     12  C   UNL A   1      29.136  25.826  25.215  1.00  0.00     0.000 C 
BRANCH   7  13
ATOM     13  C   UNL A   1      31.797  26.148  22.657  1.00  0.00     0.108 C 
BRANCH  13  14
ATOM     14  C   UNL A   1      33.261  25.889  22.262  1.00  0.00     0.225 C 
ATOM     15  O   UNL A   1      33.760  26.550  21.342  1.00  0.00    -0.275 OA
ATOM     16  N   UNL A   1      34.102  25.017  22.887  1.00  0.00    -0.324 N 
ATOM     17  H   UNL A   1      35.026  25.031  22.545  1.00  0.00     0.170 HD
BRANCH  16  18
ATOM     18  C   UNL A   1      33.890  24.109  23.924  1.00  0.00     0.077 A 
ATOM     19  C   UNL A   1      33.499  22.804  23.607  1.00  0.00     0.032 A 
ATOM     20  C   UNL A   1      34.208  24.418  25.249  1.00  0.00     0.149 A 
ATOM     21  C   UNL A   1      33.221  21.891  24.627  1.00  0.00     0.041 A 
ATOM     22  C   UNL A   1      33.984  23.497  26.270  1.00  0.00     0.080 A 
ATOM     23  F   UNL A   1      34.733  25.612  25.556  1.00  0.00    -0.205 F 
ATOM     24  C   UNL A   1      33.448  22.255  25.951  1.00  0.00     0.126 A 
ATOM     25  F   UNL A   1      33.143  21.393  26.929  1.00  0.00    -0.207 F 
ENDBRANCH  16  18
ENDBRANCH  13  14
ENDBRANCH   7  13
ENDBRANCH   6   7
ENDBRANCH   4   6
ENDBRANCH   1   2
BRANCH   1  26
ATOM     26  C   UNL A   1      31.667  32.088  26.661  1.00  0.00     0.042 C 
BRANCH  26  27
ATOM     27  C   UNL A   1      32.814  32.858  27.310  1.00  0.00     0.118 C 
BRANCH  27  28
ATOM     28  N   UNL A   1      32.475  34.226  27.671  1.00  0.00    -0.352 N 
ATOM     29  C   UNL A   1      33.032  35.029  28.639  1.00  0.00     0.251 C 
ATOM     30  H   UNL A   1      31.746  34.634  27.149  1.00  0.00     0.163 HD
ATOM     31  O   UNL A   1      32.542  36.126  28.890  1.00  0.00    -0.269 OA
BRANCH  29  32
ATOM     32  C   UNL A   1      34.204  34.555  29.407  1.00  0.00     0.039 A 
ATOM     33  C   UNL A   1      33.999  33.999  30.672  1.00  0.00     0.014 A 
ATOM     34  C   UNL A   1      35.495  34.634  28.877  1.00  0.00     0.014 A 
ATOM     35  C   UNL A   1      35.079  33.451  31.370  1.00  0.00     0.010 A 
ATOM     36  C   UNL A   1      36.553  34.014  29.536  1.00  0.00     0.010 A 
ATOM     37  C   UNL A   1      36.357  33.412  30.789  1.00  0.00    -0.014 A 
BRANCH  37  38
ATOM     38  C   UNL A   1      37.492  32.732  31.467  1.00  0.00     0.031 A 
ATOM     39  C   UNL A   1      38.197  31.583  30.802  1.00  0.00     0.074 A 
ATOM     40  C   UNL A   1      37.852  33.112  32.709  1.00  0.00     0.049 A 
ATOM     41  N   UNL A   1      39.163  30.827  31.261  1.00  0.00    -0.248 NA
ATOM     42  C   UNL A   1      37.742  31.217  29.451  1.00  0.00     0.031 C 
ATOM     43  C   UNL A   1      37.221  34.186  33.479  1.00  0.00     0.029 A 
ATOM     44  N   UNL A   1      38.833  32.637  33.546  1.00  0.00    -0.354 N 
ATOM     45  C   UNL A   1      39.424  29.897  30.264  1.00  0.00     0.074 A 
ATOM     46  C   UNL A   1      38.477  30.143  29.198  1.00  0.00     0.031 C 
ATOM     47  C   UNL A   1      37.848  34.308  34.659  1.00  0.00     0.029 A 
ATOM     48  C   UNL A   1      38.894  33.294  34.751  1.00  0.00     0.049 A 
ATOM     49  H   UNL A   1      39.434  31.896  33.306  1.00  0.00     0.167 HD
ATOM     50  C   UNL A   1      40.385  28.945  30.228  1.00  0.00     0.037 A 
ATOM     51  C   UNL A   1      39.699  33.099  35.816  1.00  0.00     0.037 A 
ATOM     52  C   UNL A   1      41.342  28.720  31.280  1.00  0.00     0.049 A 
ATOM     53  C   UNL A   1      40.742  32.017  35.762  1.00  0.00     0.074 A 
ATOM     54  C   UNL A   1      42.387  27.814  31.312  1.00  0.00     0.029 A 
ATOM     55  N   UNL A   1      41.371  29.406  32.486  1.00  0.00    -0.354 N 
ATOM     56  N   UNL A   1      41.018  31.184  34.788  1.00  0.00    -0.248 NA
ATOM     57  C   UNL A   1      41.589  31.847  36.952  1.00  0.00     0.031 C 
ATOM     58  C   UNL A   1      43.011  27.909  32.557  1.00  0.00     0.029 A 
ATOM     59  C   UNL A   1      42.399  28.921  33.279  1.00  0.00     0.049 A 
ATOM     60  H   UNL A   1      40.754  30.129  32.740  1.00  0.00     0.167 HD
ATOM     61  C   UNL A   1      42.084  30.412  35.233  1.00  0.00     0.074 A 
ATOM     62  C   UNL A   1      42.415  30.885  36.561  1.00  0.00     0.031 C 
ATOM     63  C   UNL A   1      42.727  29.404  34.597  1.00  0.00     0.037 A 
BRANCH  50  64
ATOM     64  C   UNL A   1      40.469  28.074  29.008  1.00  0.00     0.064 A 
ATOM     65  C   UNL A   1      41.221  28.478  27.894  1.00  0.00     0.173 A 
ATOM     66  C   UNL A   1      39.742  26.879  28.908  1.00  0.00     0.173 A 
ATOM     67  F   UNL A   1      41.930  29.616  27.933  1.00  0.00    -0.203 F 
ATOM     68  C   UNL A   1      41.228  27.727  26.722  1.00  0.00     0.198 A 
ATOM     69  C   UNL A   1      39.778  26.112  27.746  1.00  0.00     0.198 A 
ATOM     70  F   UNL A   1      39.016  26.441  29.948  1.00  0.00    -0.203 F 
ATOM     71  F   UNL A   1      41.923  28.153  25.658  1.00  0.00    -0.200 F 
ATOM     72  C   UNL A   1      40.510  26.542  26.650  1.00  0.00     0.200 A 
ATOM     73  F   UNL A   1      39.105  24.955  27.689  1.00  0.00    -0.200 F 
ATOM     74  F   UNL A   1      40.526  25.815  25.526  1.00  0.00    -0.200 F 
ENDBRANCH  50  64
BRANCH  51  75
ATOM     75  C   UNL A   1      39.562  33.975  37.010  1.00  0.00     0.064 A 
ATOM     76  C   UNL A   1      38.796  33.587  38.120  1.00  0.00     0.173 A 
ATOM     77  C   UNL A   1      40.177  35.234  37.053  1.00  0.00     0.173 A 
ATOM     78  F   UNL A   1      38.184  32.393  38.130  1.00  0.00    -0.203 F 
ATOM     79  C   UNL A   1      38.633  34.433  39.215  1.00  0.00     0.198 A 
ATOM     80  C   UNL A   1      40.038  36.067  38.162  1.00  0.00     0.198 A 
ATOM     81  F   UNL A   1      40.938  35.642  36.027  1.00  0.00    -0.203 F 
ATOM     82  F   UNL A   1      37.865  34.053  40.245  1.00  0.00    -0.200 F 
ATOM     83  C   UNL A   1      39.258  35.671  39.237  1.00  0.00     0.200 A 
ATOM     84  F   UNL A   1      40.666  37.250  38.189  1.00  0.00    -0.200 F 
ATOM     85  F   UNL A   1      39.112  36.479  40.295  1.00  0.00    -0.200 F 
ENDBRANCH  51  75
BRANCH  63  86
ATOM     86  C   UNL A   1      43.876  28.747  35.305  1.00  0.00     0.064 A 
ATOM     87  C   UNL A   1      45.195  29.166  35.060  1.00  0.00     0.173 A 
ATOM     88  C   UNL A   1      43.686  27.648  36.154  1.00  0.00     0.173 A 
ATOM     89  F   UNL A   1      45.432  30.208  34.248  1.00  0.00    -0.203 F 
ATOM     90  C   UNL A   1      46.277  28.495  35.619  1.00  0.00     0.198 A 
ATOM     91  C   UNL A   1      44.771  26.999  36.738  1.00  0.00     0.198 A 
ATOM     92  F   UNL A   1      42.447  27.215  36.430  1.00  0.00    -0.203 F 
ATOM     93  F   UNL A   1      47.527  28.886  35.333  1.00  0.00    -0.200 F 
ATOM     94  C   UNL A   1      46.065  27.414  36.462  1.00  0.00     0.200 A 
ATOM     95  F   UNL A   1      44.563  25.969  37.571  1.00  0.00    -0.200 F 
ATOM     96  F   UNL A   1      47.107  26.772  37.006  1.00  0.00    -0.200 F 
ENDBRANCH  63  86
ENDBRANCH  37  38
ENDBRANCH  29  32
ENDBRANCH  27  28
ENDBRANCH  26  27
ENDBRANCH   1  26
TORSDOF 14
ENDMDL
MODEL 3
REMARK VINA RESULT:     -12.6      5.564      9.878
REMARK SMILES O=C(CC1(CC(=O)Nc2ccc(F)cc2F)CCCCC1)NCCCNC(=O)c1ccc(-c2c3nc(c(-c4c(F)c(F)c(F)c(F)c4F)c4ccc([nH]4)c(-c4c(F)c(F)c(F)c(F)c4F)c4nc(c(-c5c(F)c(F)c(F)c(F)c5F)c5ccc2[nH]5)C=C4)C=C3)cc1
REMARK SMILES IDX 23 1 22 2 1 3 2 4 3 6 4 7 17 8 21 9 18 10 20 11 19 12 5 13
REMARK SMILES IDX 6 14 7 15 8 16 9 18 10 19 15 20 11 21 14 22 16 23 12 24
REMARK SMILES IDX 13 25 24 26 25 27 26 28 27 29 28 31 29 32 30 33 91 34 31 35
REMARK SMILES IDX 90 36 32 37 33 38 34 39 84 40 35 41 89 42 83 43 85 44 36 45
REMARK SMILES IDX 88 46 82 47 81 48 37 50 69 51 49 52 68 53 50 54 53 55 67 56
REMARK SMILES IDX 86 57 51 58 52 59 66 61 87 62 54 63 38 64 39 65 47 66 40 67
REMARK SMILES IDX 41 68 45 69 48 70 42 71 43 72 46 73 44 74 70 75 71 76 79 77
REMARK SMILES IDX 72 78 73 79 77 80 80 81 74 82 75 83 78 84 76 85 55 86 56 87
REMARK SMILES IDX 64 88 57 89 58 90 62 91 65 92 59 93 60 94 63 95 61 96
REMARK H PARENT 22 5 8 17 26 30 85 49 53 60
REMARK Flexibility Score: inf
ROOT
ATOM      1  C   UNL A   1      37.293  21.292  24.627  1.00  0.00     0.117 C 
ENDROOT
BRANCH   1   2
ATOM      2  N   UNL A   1      35.951  21.280  25.167  1.00  0.00    -0.356 N 
ATOM      3  O   UNL A   1      36.061  23.332  26.207  1.00  0.00    -0.275 OA
ATOM      4  C   UNL A   1      35.418  22.349  25.852  1.00  0.00     0.220 C 
ATOM      5  H   UNL A   1      35.398  20.476  25.042  1.00  0.00     0.163 HD
BRANCH   4   6
ATOM      6  C   UNL A   1      33.920  22.220  26.054  1.00  0.00     0.107 C 
BRANCH   6   7
ATOM      7  C   UNL A   1      33.048  22.617  24.813  1.00  0.00    -0.012 C 
ATOM      8  C   UNL A   1      33.713  23.748  23.950  1.00  0.00     0.008 C 
ATOM      9  C   UNL A   1      33.000  21.414  23.850  1.00  0.00     0.008 C 
ATOM     10  C   UNL A   1      33.026  24.040  22.611  1.00  0.00     0.001 C 
ATOM     11  C   UNL A   1      32.153  21.672  22.607  1.00  0.00     0.001 C 
ATOM     12  C   UNL A   1      32.770  22.786  21.779  1.00  0.00     0.000 C 
BRANCH   7  13
ATOM     13  C   UNL A   1      31.633  23.087  25.292  1.00  0.00     0.108 C 
BRANCH  13  14
ATOM     14  C   UNL A   1      31.416  23.793  26.641  1.00  0.00     0.225 C 
ATOM     15  O   UNL A   1      31.089  23.116  27.626  1.00  0.00    -0.275 OA
ATOM     16  N   UNL A   1      31.612  25.121  26.876  1.00  0.00    -0.324 N 
ATOM     17  H   UNL A   1      31.493  25.387  27.817  1.00  0.00     0.170 HD
BRANCH  16  18
ATOM     18  C   UNL A   1      31.954  26.171  26.024  1.00  0.00     0.077 A 
ATOM     19  C   UNL A   1      33.291  26.571  25.952  1.00  0.00     0.032 A 
ATOM     20  C   UNL A   1      31.032  26.723  25.131  1.00  0.00     0.149 A 
ATOM     21  C   UNL A   1      33.653  27.659  25.153  1.00  0.00     0.041 A 
ATOM     22  C   UNL A   1      31.394  27.774  24.292  1.00  0.00     0.080 A 
ATOM     23  F   UNL A   1      29.781  26.247  25.073  1.00  0.00    -0.205 F 
ATOM     24  C   UNL A   1      32.694  28.262  24.345  1.00  0.00     0.126 A 
ATOM     25  F   UNL A   1      33.033  29.329  23.611  1.00  0.00    -0.207 F 
ENDBRANCH  16  18
ENDBRANCH  13  14
ENDBRANCH   7  13
ENDBRANCH   6   7
ENDBRANCH   4   6
ENDBRANCH   1   2
BRANCH   1  26
ATOM     26  C   UNL A   1      38.077  20.044  25.001  1.00  0.00     0.042 C 
BRANCH  26  27
ATOM     27  C   UNL A   1      39.236  20.275  25.966  1.00  0.00     0.118 C 
BRANCH  27  28
ATOM     28  N   UNL A   1      40.220  19.203  25.974  1.00  0.00    -0.352 N 
ATOM     29  C   UNL A   1      41.585  19.281  26.123  1.00  0.00     0.251 C 
ATOM     30  H   UNL A   1      39.857  18.295  25.858  1.00  0.00     0.163 HD
ATOM     31  O   UNL A   1      42.280  18.279  25.987  1.00  0.00    -0.269 OA
BRANCH  29  32
ATOM     32  C   UNL A   1      42.223  20.585  26.411  1.00  0.00     0.039 A 
ATOM     33  C   UNL A   1      42.720  21.340  25.346  1.00  0.00     0.014 A 
ATOM     34  C   UNL A   1      42.310  21.073  27.717  1.00  0.00     0.014 A 
ATOM     35  C   UNL A   1      43.232  22.619  25.584  1.00  0.00     0.010 A 
ATOM     36  C   UNL A   1      42.743  22.378  27.942  1.00  0.00     0.010 A 
ATOM     37  C   UNL A   1      43.206  23.167  26.877  1.00  0.00    -0.014 A 
BRANCH  37  38
ATOM     38  C   UNL A   1      43.640  24.566  27.131  1.00  0.00     0.031 A 
ATOM     39  C   UNL A   1      42.657  25.590  27.627  1.00  0.00     0.074 A 
ATOM     40  C   UNL A   1      44.909  24.930  26.858  1.00  0.00     0.049 A 
ATOM     41  N   UNL A   1      42.833  26.869  27.845  1.00  0.00    -0.248 NA
ATOM     42  C   UNL A   1      41.287  25.121  27.890  1.00  0.00     0.031 C 
ATOM     43  C   UNL A   1      45.948  24.042  26.335  1.00  0.00     0.029 A 
ATOM     44  N   UNL A   1      45.541  26.144  26.980  1.00  0.00    -0.354 N 
ATOM     45  C   UNL A   1      41.602  27.356  28.261  1.00  0.00     0.074 A 
ATOM     46  C   UNL A   1      40.671  26.250  28.210  1.00  0.00     0.031 C 
ATOM     47  C   UNL A   1      47.093  24.730  26.210  1.00  0.00     0.029 A 
ATOM     48  C   UNL A   1      46.861  26.119  26.599  1.00  0.00     0.049 A 
ATOM     49  H   UNL A   1      45.092  26.956  27.308  1.00  0.00     0.167 HD
ATOM     50  C   UNL A   1      41.285  28.604  28.677  1.00  0.00     0.037 A 
ATOM     51  C   UNL A   1      47.781  27.103  26.560  1.00  0.00     0.037 A 
ATOM     52  C   UNL A   1      42.221  29.696  28.750  1.00  0.00     0.049 A 
ATOM     53  C   UNL A   1      47.397  28.488  27.003  1.00  0.00     0.074 A 
ATOM     54  C   UNL A   1      42.005  30.983  29.208  1.00  0.00     0.029 A 
ATOM     55  N   UNL A   1      43.549  29.630  28.353  1.00  0.00    -0.354 N 
ATOM     56  N   UNL A   1      46.245  28.922  27.452  1.00  0.00    -0.248 NA
ATOM     57  C   UNL A   1      48.440  29.523  26.936  1.00  0.00     0.031 C 
ATOM     58  C   UNL A   1      43.183  31.712  29.036  1.00  0.00     0.029 A 
ATOM     59  C   UNL A   1      44.154  30.864  28.531  1.00  0.00     0.049 A 
ATOM     60  H   UNL A   1      43.994  28.827  27.999  1.00  0.00     0.167 HD
ATOM     61  C   UNL A   1      46.429  30.266  27.747  1.00  0.00     0.074 A 
ATOM     62  C   UNL A   1      47.809  30.576  27.439  1.00  0.00     0.031 C 
ATOM     63  C   UNL A   1      45.532  31.160  28.230  1.00  0.00     0.037 A 
BRANCH  50  64
ATOM     64  C   UNL A   1      39.868  28.867  29.101  1.00  0.00     0.064 A 
ATOM     65  C   UNL A   1      39.461  28.615  30.421  1.00  0.00     0.173 A 
ATOM     66  C   UNL A   1      38.894  29.291  28.186  1.00  0.00     0.173 A 
ATOM     67  F   UNL A   1      40.351  28.201  31.336  1.00  0.00    -0.203 F 
ATOM     68  C   UNL A   1      38.130  28.762  30.802  1.00  0.00     0.198 A 
ATOM     69  C   UNL A   1      37.570  29.469  28.578  1.00  0.00     0.198 A 
ATOM     70  F   UNL A   1      39.232  29.556  26.915  1.00  0.00    -0.203 F 
ATOM     71  F   UNL A   1      37.760  28.478  32.058  1.00  0.00    -0.200 F 
ATOM     72  C   UNL A   1      37.187  29.192  29.882  1.00  0.00     0.200 A 
ATOM     73  F   UNL A   1      36.666  29.911  27.694  1.00  0.00    -0.200 F 
ATOM     74  F   UNL A   1      35.909  29.344  30.252  1.00  0.00    -0.200 F 
ENDBRANCH  50  64
BRANCH  51  75
ATOM     75  C   UNL A   1      49.166  26.797  26.111  1.00  0.00     0.064 A 
ATOM     76  C   UNL A   1      49.555  26.956  24.772  1.00  0.00     0.173 A 
ATOM     77  C   UNL A   1      50.124  26.312  27.012  1.00  0.00     0.173 A 
ATOM     78  F   UNL A   1      48.676  27.414  23.867  1.00  0.00    -0.203 F 
ATOM     79  C   UNL A   1      50.840  26.621  24.349  1.00  0.00     0.198 A 
ATOM     80  C   UNL A   1      51.418  26.006  26.594  1.00  0.00     0.198 A 
ATOM     81  F   UNL A   1      49.809  26.163  28.307  1.00  0.00    -0.203 F 
ATOM     82  F   UNL A   1      51.172  26.747  23.057  1.00  0.00    -0.200 F 
ATOM     83  C   UNL A   1      51.772  26.151  25.262  1.00  0.00     0.200 A 
ATOM     84  F   UNL A   1      52.323  25.578  27.485  1.00  0.00    -0.200 F 
ATOM     85  F   UNL A   1      53.011  25.841  24.858  1.00  0.00    -0.200 F 
ENDBRANCH  51  75
BRANCH  63  86
ATOM     86  C   UNL A   1      46.008  32.561  28.485  1.00  0.00     0.064 A 
ATOM     87  C   UNL A   1      46.479  32.930  29.756  1.00  0.00     0.173 A 
ATOM     88  C   UNL A   1      45.912  33.561  27.507  1.00  0.00     0.173 A 
ATOM     89  F   UNL A   1      46.581  32.014  30.731  1.00  0.00    -0.203 F 
ATOM     90  C   UNL A   1      46.815  34.250  30.042  1.00  0.00     0.198 A 
ATOM     91  C   UNL A   1      46.281  34.874  27.787  1.00  0.00     0.198 A 
ATOM     92  F   UNL A   1      45.479  33.259  26.274  1.00  0.00    -0.203 F 
ATOM     93  F   UNL A   1      47.220  34.585  31.275  1.00  0.00    -0.200 F 
ATOM     94  C   UNL A   1      46.720  35.220  29.056  1.00  0.00     0.200 A 
ATOM     95  F   UNL A   1      46.211  35.807  26.826  1.00  0.00    -0.200 F 
ATOM     96  F   UNL A   1      47.050  36.490  29.330  1.00  0.00    -0.200 F 
ENDBRANCH  63  86
ENDBRANCH  37  38
ENDBRANCH  29  32
ENDBRANCH  27  28
ENDBRANCH  26  27
ENDBRANCH   1  26
TORSDOF 14
ENDMDL
