MODEL 1
REMARK VINA RESULT:     -12.4      0.000      0.000
REMARK SMILES COc1ccc(CNC(=O)[C@H]2CC(C)=C(C)C[C@@H]2C(=O)NCCCNC(=O)c2ccc(-c3c4nc(c(-c5c(F)c(F)c(F)c(F)c5F)c5ccc([nH]5)c(-c5c(F)c(F)c(F)c(F)c5F)c5nc(c(-c6c(F)c(F)c(F)c(F)c6F)c6ccc3[nH]6)C=C5)C=C4)cc2)cc1OC
REMARK SMILES IDX 22 1 21 2 19 3 20 4 18 6 11 7 12 8 13 9 17 10 14 11 15 12
REMARK SMILES IDX 16 13 9 14 8 15 10 17 7 18 6 19 3 20 4 21 92 22 5 23 91 24
REMARK SMILES IDX 2 25 1 26 93 27 94 28 23 29 24 30 25 31 26 32 27 34 28 35
REMARK SMILES IDX 29 36 90 37 30 38 89 39 31 40 32 41 33 42 83 43 34 44 88 45
REMARK SMILES IDX 82 46 84 47 35 48 87 49 81 50 80 51 36 53 68 54 48 55 67 56
REMARK SMILES IDX 49 57 52 58 66 59 85 60 50 61 51 62 65 64 86 65 53 66 37 67
REMARK SMILES IDX 38 68 46 69 39 70 40 71 44 72 47 73 41 74 42 75 45 76 43 77
REMARK SMILES IDX 69 78 70 79 78 80 71 81 72 82 76 83 79 84 73 85 74 86 77 87
REMARK SMILES IDX 75 88 54 89 55 90 63 91 56 92 57 93 61 94 64 95 58 96 59 97
REMARK SMILES IDX 62 98 60 99
REMARK H PARENT 21 5 8 16 25 33 84 52 52 63
REMARK Flexibility Score: inf
ROOT
ATOM      1  C   UNL A   1      31.305  30.857  26.028  1.00  0.00     0.117 C 
ENDROOT
BRANCH   1   2
ATOM      2  N   UNL A   1      30.756  30.560  24.715  1.00  0.00    -0.356 N 
ATOM      3  C   UNL A   1      30.738  29.379  24.025  1.00  0.00     0.224 C 
ATOM      4  O   UNL A   1      30.187  29.361  22.926  1.00  0.00    -0.275 OA
ATOM      5  H   UNL A   1      30.335  31.321  24.254  1.00  0.00     0.163 HD
BRANCH   3   6
ATOM      6  C   UNL A   1      31.380  28.149  24.659  1.00  0.00     0.095 C 
ATOM      7  C   UNL A   1      32.883  28.066  24.316  1.00  0.00     0.095 C 
ATOM      8  C   UNL A   1      33.193  27.262  23.056  1.00  0.00     0.045 C 
ATOM      9  C   UNL A   1      32.344  26.040  22.800  1.00  0.00    -0.074 C 
ATOM     10  C   UNL A   1      30.554  26.897  24.320  1.00  0.00     0.045 C 
ATOM     11  C   UNL A   1      32.964  25.037  21.859  1.00  0.00     0.039 C 
ATOM     12  C   UNL A   1      31.132  25.889  23.367  1.00  0.00    -0.074 C 
ATOM     13  C   UNL A   1      30.219  24.724  23.077  1.00  0.00     0.039 C 
BRANCH   7  14
ATOM     14  C   UNL A   1      33.691  27.893  25.606  1.00  0.00     0.224 C 
ATOM     15  N   UNL A   1      33.886  26.750  26.289  1.00  0.00    -0.352 N 
ATOM     16  H   UNL A   1      34.562  26.836  27.000  1.00  0.00     0.163 HD
ATOM     17  O   UNL A   1      34.247  28.893  26.089  1.00  0.00    -0.275 OA
BRANCH  15  18
ATOM     18  C   UNL A   1      33.320  25.425  26.205  1.00  0.00     0.151 C 
BRANCH  18  19
ATOM     19  C   UNL A   1      34.253  24.415  25.582  1.00  0.00    -0.025 A 
ATOM     20  C   UNL A   1      35.894  22.452  24.384  1.00  0.00     0.160 A 
ATOM     21  C   UNL A   1      36.446  23.647  24.861  1.00  0.00     0.051 A 
ATOM     22  C   UNL A   1      34.520  22.225  24.497  1.00  0.00     0.161 A 
ATOM     23  C   UNL A   1      35.632  24.621  25.454  1.00  0.00     0.009 A 
ATOM     24  C   UNL A   1      33.717  23.220  25.076  1.00  0.00     0.056 A 
BRANCH  20  25
ATOM     25  O   UNL A   1      36.758  21.485  23.943  1.00  0.00    -0.493 OA
ATOM     26  C   UNL A   1      37.504  20.901  25.011  1.00  0.00     0.278 C 
ENDBRANCH  20  25
BRANCH  22  27
ATOM     27  O   UNL A   1      33.795  21.122  24.140  1.00  0.00    -0.493 OA
ATOM     28  C   UNL A   1      34.002  19.907  24.840  1.00  0.00     0.278 C 
ENDBRANCH  22  27
ENDBRANCH  18  19
ENDBRANCH  15  18
ENDBRANCH   7  14
ENDBRANCH   3   6
ENDBRANCH   1   2
BRANCH   1  29
ATOM     29  C   UNL A   1      31.273  32.342  26.355  1.00  0.00     0.042 C 
BRANCH  29  30
ATOM     30  C   UNL A   1      32.511  32.846  27.084  1.00  0.00     0.118 C 
BRANCH  30  31
ATOM     31  N   UNL A   1      32.354  34.198  27.604  1.00  0.00    -0.352 N 
ATOM     32  C   UNL A   1      33.022  34.851  28.607  1.00  0.00     0.251 C 
ATOM     33  H   UNL A   1      31.651  34.730  27.165  1.00  0.00     0.163 HD
ATOM     34  O   UNL A   1      32.609  35.945  28.996  1.00  0.00    -0.269 OA
BRANCH  32  35
ATOM     35  C   UNL A   1      34.216  34.253  29.240  1.00  0.00     0.039 A 
ATOM     36  C   UNL A   1      34.035  33.362  30.301  1.00  0.00     0.014 A 
ATOM     37  C   UNL A   1      35.508  34.584  28.821  1.00  0.00     0.014 A 
ATOM     38  C   UNL A   1      35.143  32.762  30.901  1.00  0.00     0.010 A 
ATOM     39  C   UNL A   1      36.604  33.914  29.355  1.00  0.00     0.010 A 
ATOM     40  C   UNL A   1      36.436  33.007  30.410  1.00  0.00    -0.014 A 
BRANCH  40  41
ATOM     41  C   UNL A   1      37.616  32.325  31.000  1.00  0.00     0.031 A 
ATOM     42  C   UNL A   1      38.094  32.682  32.380  1.00  0.00     0.074 A 
ATOM     43  C   UNL A   1      38.277  31.401  30.278  1.00  0.00     0.049 A 
ATOM     44  N   UNL A   1      39.093  32.185  33.065  1.00  0.00    -0.248 NA
ATOM     45  C   UNL A   1      37.372  33.760  33.071  1.00  0.00     0.031 C 
ATOM     46  C   UNL A   1      37.944  31.002  28.909  1.00  0.00     0.029 A 
ATOM     47  N   UNL A   1      39.364  30.625  30.596  1.00  0.00    -0.354 N 
ATOM     48  C   UNL A   1      39.118  32.890  34.262  1.00  0.00     0.074 A 
ATOM     49  C   UNL A   1      38.085  33.899  34.177  1.00  0.00     0.031 C 
ATOM     50  C   UNL A   1      38.776  30.022  28.524  1.00  0.00     0.029 A 
ATOM     51  C   UNL A   1      39.723  29.750  29.601  1.00  0.00     0.049 A 
ATOM     52  H   UNL A   1      39.840  30.690  31.455  1.00  0.00     0.167 HD
ATOM     53  C   UNL A   1      39.908  32.696  35.346  1.00  0.00     0.037 A 
ATOM     54  C   UNL A   1      40.700  28.825  29.567  1.00  0.00     0.037 A 
ATOM     55  C   UNL A   1      40.938  31.692  35.426  1.00  0.00     0.049 A 
ATOM     56  C   UNL A   1      41.582  28.645  30.771  1.00  0.00     0.074 A 
ATOM     57  C   UNL A   1      41.771  31.388  36.490  1.00  0.00     0.029 A 
ATOM     58  N   UNL A   1      41.284  30.831  34.393  1.00  0.00    -0.354 N 
ATOM     59  N   UNL A   1      41.551  29.267  31.925  1.00  0.00    -0.248 NA
ATOM     60  C   UNL A   1      42.630  27.622  30.668  1.00  0.00     0.031 C 
ATOM     61  C   UNL A   1      42.654  30.382  36.081  1.00  0.00     0.029 A 
ATOM     62  C   UNL A   1      42.333  30.013  34.786  1.00  0.00     0.049 A 
ATOM     63  H   UNL A   1      40.848  30.807  33.510  1.00  0.00     0.167 HD
ATOM     64  C   UNL A   1      42.550  28.689  32.698  1.00  0.00     0.074 A 
ATOM     65  C   UNL A   1      43.155  27.654  31.885  1.00  0.00     0.031 C 
ATOM     66  C   UNL A   1      42.930  28.988  33.965  1.00  0.00     0.037 A 
BRANCH  53  67
ATOM     67  C   UNL A   1      39.684  33.601  36.527  1.00  0.00     0.064 A 
ATOM     68  C   UNL A   1      38.835  33.235  37.586  1.00  0.00     0.173 A 
ATOM     69  C   UNL A   1      40.315  34.852  36.601  1.00  0.00     0.173 A 
ATOM     70  F   UNL A   1      38.198  32.055  37.562  1.00  0.00    -0.203 F 
ATOM     71  C   UNL A   1      38.587  34.105  38.643  1.00  0.00     0.198 A 
ATOM     72  C   UNL A   1      40.094  35.704  37.681  1.00  0.00     0.198 A 
ATOM     73  F   UNL A   1      41.142  35.252  35.625  1.00  0.00    -0.203 F 
ATOM     74  F   UNL A   1      37.715  33.762  39.601  1.00  0.00    -0.200 F 
ATOM     75  C   UNL A   1      39.220  35.338  38.693  1.00  0.00     0.200 A 
ATOM     76  F   UNL A   1      40.720  36.889  37.735  1.00  0.00    -0.200 F 
ATOM     77  F   UNL A   1      38.979  36.177  39.709  1.00  0.00    -0.200 F 
ENDBRANCH  53  67
BRANCH  54  78
ATOM     78  C   UNL A   1      40.855  27.957  28.371  1.00  0.00     0.064 A 
ATOM     79  C   UNL A   1      40.208  26.714  28.301  1.00  0.00     0.173 A 
ATOM     80  C   UNL A   1      41.639  28.347  27.276  1.00  0.00     0.173 A 
ATOM     81  F   UNL A   1      39.462  26.290  29.333  1.00  0.00    -0.203 F 
ATOM     82  C   UNL A   1      40.353  25.888  27.191  1.00  0.00     0.198 A 
ATOM     83  C   UNL A   1      41.760  27.531  26.153  1.00  0.00     0.198 A 
ATOM     84  F   UNL A   1      42.275  29.527  27.291  1.00  0.00    -0.203 F 
ATOM     85  F   UNL A   1      39.759  24.687  27.169  1.00  0.00    -0.200 F 
ATOM     86  C   UNL A   1      41.125  26.299  26.115  1.00  0.00     0.200 A 
ATOM     87  F   UNL A   1      42.494  27.939  25.108  1.00  0.00    -0.200 F 
ATOM     88  F   UNL A   1      41.259  25.507  25.042  1.00  0.00    -0.200 F 
ENDBRANCH  54  78
BRANCH  66  89
ATOM     89  C   UNL A   1      44.029  28.152  34.563  1.00  0.00     0.064 A 
ATOM     90  C   UNL A   1      45.376  28.535  34.490  1.00  0.00     0.173 A 
ATOM     91  C   UNL A   1      43.726  26.947  35.216  1.00  0.00     0.173 A 
ATOM     92  F   UNL A   1      45.723  29.670  33.863  1.00  0.00    -0.203 F 
ATOM     93  C   UNL A   1      46.382  27.721  35.005  1.00  0.00     0.198 A 
ATOM     94  C   UNL A   1      44.731  26.155  35.765  1.00  0.00     0.198 A 
ATOM     95  F   UNL A   1      42.454  26.536  35.324  1.00  0.00    -0.203 F 
ATOM     96  F   UNL A   1      47.667  28.074  34.857  1.00  0.00    -0.200 F 
ATOM     97  C   UNL A   1      46.059  26.536  35.646  1.00  0.00     0.200 A 
ATOM     98  F   UNL A   1      44.415  25.017  36.397  1.00  0.00    -0.200 F 
ATOM     99  F   UNL A   1      47.028  25.752  36.138  1.00  0.00    -0.200 F 
ENDBRANCH  66  89
ENDBRANCH  40  41
ENDBRANCH  32  35
ENDBRANCH  30  31
ENDBRANCH  29  30
ENDBRANCH   1  29
TORSDOF 15
ENDMDL
MODEL 2
REMARK VINA RESULT:     -12.3      0.760      7.232
REMARK SMILES COc1ccc(CNC(=O)[C@H]2CC(C)=C(C)C[C@@H]2C(=O)NCCCNC(=O)c2ccc(-c3c4nc(c(-c5c(F)c(F)c(F)c(F)c5F)c5ccc([nH]5)c(-c5c(F)c(F)c(F)c(F)c5F)c5nc(c(-c6c(F)c(F)c(F)c(F)c6F)c6ccc3[nH]6)C=C5)C=C4)cc2)cc1OC
REMARK SMILES IDX 22 1 21 2 19 3 20 4 18 6 11 7 12 8 13 9 17 10 14 11 15 12
REMARK SMILES IDX 16 13 9 14 8 15 10 17 7 18 6 19 3 20 4 21 92 22 5 23 91 24
REMARK SMILES IDX 2 25 1 26 93 27 94 28 23 29 24 30 25 31 26 32 27 34 28 35
REMARK SMILES IDX 29 36 90 37 30 38 89 39 31 40 32 41 33 42 83 43 34 44 88 45
REMARK SMILES IDX 82 46 84 47 35 48 87 49 81 50 80 51 36 53 68 54 48 55 67 56
REMARK SMILES IDX 49 57 52 58 66 59 85 60 50 61 51 62 65 64 86 65 53 66 37 67
REMARK SMILES IDX 38 68 46 69 39 70 40 71 44 72 47 73 41 74 42 75 45 76 43 77
REMARK SMILES IDX 69 78 70 79 78 80 71 81 72 82 76 83 79 84 73 85 74 86 77 87
REMARK SMILES IDX 75 88 54 89 55 90 63 91 56 92 57 93 61 94 64 95 58 96 59 97
REMARK SMILES IDX 62 98 60 99
REMARK H PARENT 21 5 8 16 25 33 84 52 52 63
REMARK Flexibility Score: inf
ROOT
ATOM      1  C   UNL A   1      31.435  30.827  26.084  1.00  0.00     0.117 C 
ENDROOT
BRANCH   1   2
ATOM      2  N   UNL A   1      30.799  30.533  24.811  1.00  0.00    -0.356 N 
ATOM      3  C   UNL A   1      30.739  29.355  24.119  1.00  0.00     0.224 C 
ATOM      4  O   UNL A   1      30.114  29.340  23.060  1.00  0.00    -0.275 OA
ATOM      5  H   UNL A   1      30.345  31.294  24.383  1.00  0.00     0.163 HD
BRANCH   3   6
ATOM      6  C   UNL A   1      31.427  28.124  24.702  1.00  0.00     0.095 C 
ATOM      7  C   UNL A   1      32.913  28.068  24.286  1.00  0.00     0.095 C 
ATOM      8  C   UNL A   1      33.171  27.286  23.000  1.00  0.00     0.045 C 
ATOM      9  C   UNL A   1      32.327  26.057  22.767  1.00  0.00    -0.074 C 
ATOM     10  C   UNL A   1      30.602  26.867  24.385  1.00  0.00     0.045 C 
ATOM     11  C   UNL A   1      32.914  25.076  21.782  1.00  0.00     0.039 C 
ATOM     12  C   UNL A   1      31.146  25.880  23.389  1.00  0.00    -0.074 C 
ATOM     13  C   UNL A   1      30.235  24.707  23.126  1.00  0.00     0.039 C 
BRANCH   7  14
ATOM     14  C   UNL A   1      33.784  27.887  25.532  1.00  0.00     0.224 C 
ATOM     15  N   UNL A   1      34.018  26.739  26.194  1.00  0.00    -0.352 N 
ATOM     16  H   UNL A   1      34.728  26.822  26.872  1.00  0.00     0.163 HD
ATOM     17  O   UNL A   1      34.359  28.885  25.996  1.00  0.00    -0.275 OA
BRANCH  15  18
ATOM     18  C   UNL A   1      33.455  25.412  26.126  1.00  0.00     0.151 C 
BRANCH  18  19
ATOM     19  C   UNL A   1      34.392  24.396  25.518  1.00  0.00    -0.025 A 
ATOM     20  C   UNL A   1      36.039  22.421  24.349  1.00  0.00     0.160 A 
ATOM     21  C   UNL A   1      36.591  23.614  24.833  1.00  0.00     0.051 A 
ATOM     22  C   UNL A   1      34.662  22.202  24.440  1.00  0.00     0.161 A 
ATOM     23  C   UNL A   1      35.774  24.593  25.412  1.00  0.00     0.009 A 
ATOM     24  C   UNL A   1      33.857  23.203  25.005  1.00  0.00     0.056 A 
BRANCH  20  25
ATOM     25  O   UNL A   1      36.904  21.448  23.923  1.00  0.00    -0.493 OA
ATOM     26  C   UNL A   1      37.392  20.652  25.001  1.00  0.00     0.278 C 
ENDBRANCH  20  25
BRANCH  22  27
ATOM     27  O   UNL A   1      33.936  21.104  24.072  1.00  0.00    -0.493 OA
ATOM     28  C   UNL A   1      33.647  20.114  25.045  1.00  0.00     0.278 C 
ENDBRANCH  22  27
ENDBRANCH  18  19
ENDBRANCH  15  18
ENDBRANCH   7  14
ENDBRANCH   3   6
ENDBRANCH   1   2
BRANCH   1  29
ATOM     29  C   UNL A   1      31.315  32.291  26.476  1.00  0.00     0.042 C 
BRANCH  29  30
ATOM     30  C   UNL A   1      32.546  32.853  27.175  1.00  0.00     0.118 C 
BRANCH  30  31
ATOM     31  N   UNL A   1      32.365  34.225  27.631  1.00  0.00    -0.352 N 
ATOM     32  C   UNL A   1      32.961  34.909  28.658  1.00  0.00     0.251 C 
ATOM     33  H   UNL A   1      31.706  34.746  27.118  1.00  0.00     0.163 HD
ATOM     34  O   UNL A   1      32.533  36.020  28.974  1.00  0.00    -0.269 OA
BRANCH  32  35
ATOM     35  C   UNL A   1      34.094  34.324  29.405  1.00  0.00     0.039 A 
ATOM     36  C   UNL A   1      33.824  33.593  30.566  1.00  0.00     0.014 A 
ATOM     37  C   UNL A   1      35.416  34.512  28.993  1.00  0.00     0.014 A 
ATOM     38  C   UNL A   1      34.873  33.007  31.277  1.00  0.00     0.010 A 
ATOM     39  C   UNL A   1      36.450  33.849  29.648  1.00  0.00     0.010 A 
ATOM     40  C   UNL A   1      36.192  33.101  30.804  1.00  0.00    -0.014 A 
BRANCH  40  41
ATOM     41  C   UNL A   1      37.306  32.428  31.519  1.00  0.00     0.031 A 
ATOM     42  C   UNL A   1      38.049  31.289  30.877  1.00  0.00     0.074 A 
ATOM     43  C   UNL A   1      37.629  32.824  32.765  1.00  0.00     0.049 A 
ATOM     44  N   UNL A   1      39.055  30.591  31.340  1.00  0.00    -0.248 NA
ATOM     45  C   UNL A   1      37.581  30.859  29.551  1.00  0.00     0.031 C 
ATOM     46  C   UNL A   1      36.952  33.881  33.517  1.00  0.00     0.029 A 
ATOM     47  N   UNL A   1      38.613  32.387  33.616  1.00  0.00    -0.354 N 
ATOM     48  C   UNL A   1      39.337  29.642  30.364  1.00  0.00     0.074 A 
ATOM     49  C   UNL A   1      38.347  29.805  29.322  1.00  0.00     0.031 C 
ATOM     50  C   UNL A   1      37.571  34.046  34.696  1.00  0.00     0.029 A 
ATOM     51  C   UNL A   1      38.663  33.083  34.799  1.00  0.00     0.049 A 
ATOM     52  H   UNL A   1      39.224  31.647  33.399  1.00  0.00     0.167 HD
ATOM     53  C   UNL A   1      40.345  28.738  30.325  1.00  0.00     0.037 A 
ATOM     54  C   UNL A   1      39.502  32.962  35.845  1.00  0.00     0.037 A 
ATOM     55  C   UNL A   1      41.328  28.577  31.366  1.00  0.00     0.049 A 
ATOM     56  C   UNL A   1      40.597  31.933  35.790  1.00  0.00     0.074 A 
ATOM     57  C   UNL A   1      42.411  27.716  31.410  1.00  0.00     0.029 A 
ATOM     58  N   UNL A   1      41.339  29.289  32.558  1.00  0.00    -0.354 N 
ATOM     59  N   UNL A   1      40.900  31.090  34.833  1.00  0.00    -0.248 NA
ATOM     60  C   UNL A   1      41.476  31.851  36.963  1.00  0.00     0.031 C 
ATOM     61  C   UNL A   1      43.044  27.870  32.649  1.00  0.00     0.029 A 
ATOM     62  C   UNL A   1      42.396  28.871  33.353  1.00  0.00     0.049 A 
ATOM     63  H   UNL A   1      40.690  29.988  32.803  1.00  0.00     0.167 HD
ATOM     64  C   UNL A   1      42.023  30.401  35.271  1.00  0.00     0.074 A 
ATOM     65  C   UNL A   1      42.357  30.940  36.575  1.00  0.00     0.031 C 
ATOM     66  C   UNL A   1      42.716  29.412  34.651  1.00  0.00     0.037 A 
BRANCH  53  67
ATOM     67  C   UNL A   1      40.423  27.852  29.112  1.00  0.00     0.064 A 
ATOM     68  C   UNL A   1      41.227  28.184  28.007  1.00  0.00     0.173 A 
ATOM     69  C   UNL A   1      39.681  26.664  29.043  1.00  0.00     0.173 A 
ATOM     70  F   UNL A   1      41.949  29.314  28.013  1.00  0.00    -0.203 F 
ATOM     71  C   UNL A   1      41.244  27.387  26.865  1.00  0.00     0.198 A 
ATOM     72  C   UNL A   1      39.731  25.850  27.914  1.00  0.00     0.198 A 
ATOM     73  F   UNL A   1      38.903  26.291  30.070  1.00  0.00    -0.203 F 
ATOM     74  F   UNL A   1      41.960  27.765  25.797  1.00  0.00    -0.200 F 
ATOM     75  C   UNL A   1      40.499  26.219  26.821  1.00  0.00     0.200 A 
ATOM     76  F   UNL A   1      39.023  24.712  27.879  1.00  0.00    -0.200 F 
ATOM     77  F   UNL A   1      40.513  25.455  25.720  1.00  0.00    -0.200 F 
ENDBRANCH  53  67
BRANCH  54  78
ATOM     78  C   UNL A   1      39.374  33.880  37.005  1.00  0.00     0.064 A 
ATOM     79  C   UNL A   1      38.664  33.490  38.150  1.00  0.00     0.173 A 
ATOM     80  C   UNL A   1      39.957  35.155  37.001  1.00  0.00     0.173 A 
ATOM     81  F   UNL A   1      38.073  32.287  38.192  1.00  0.00    -0.203 F 
ATOM     82  C   UNL A   1      38.528  34.346  39.240  1.00  0.00     0.198 A 
ATOM     83  C   UNL A   1      39.844  36.000  38.104  1.00  0.00     0.198 A 
ATOM     84  F   UNL A   1      40.649  35.575  35.933  1.00  0.00    -0.203 F 
ATOM     85  F   UNL A   1      37.809  33.964  40.303  1.00  0.00    -0.200 F 
ATOM     86  C   UNL A   1      39.123  35.598  39.218  1.00  0.00     0.200 A 
ATOM     87  F   UNL A   1      40.435  37.203  38.086  1.00  0.00    -0.200 F 
ATOM     88  F   UNL A   1      38.999  36.420  40.270  1.00  0.00    -0.200 F 
ENDBRANCH  54  78
BRANCH  66  89
ATOM     89  C   UNL A   1      43.930  28.881  35.362  1.00  0.00     0.064 A 
ATOM     90  C   UNL A   1      43.853  27.806  36.260  1.00  0.00     0.173 A 
ATOM     91  C   UNL A   1      45.190  29.459  35.141  1.00  0.00     0.173 A 
ATOM     92  F   UNL A   1      42.671  27.226  36.520  1.00  0.00    -0.203 F 
ATOM     93  C   UNL A   1      44.981  27.362  36.946  1.00  0.00     0.198 A 
ATOM     94  C   UNL A   1      46.322  28.988  35.800  1.00  0.00     0.198 A 
ATOM     95  F   UNL A   1      45.324  30.484  34.286  1.00  0.00    -0.203 F 
ATOM     96  F   UNL A   1      44.867  26.383  37.854  1.00  0.00    -0.200 F 
ATOM     97  C   UNL A   1      46.214  27.949  36.712  1.00  0.00     0.200 A 
ATOM     98  F   UNL A   1      47.516  29.547  35.559  1.00  0.00    -0.200 F 
ATOM     99  F   UNL A   1      47.298  27.523  37.376  1.00  0.00    -0.200 F 
ENDBRANCH  66  89
ENDBRANCH  40  41
ENDBRANCH  32  35
ENDBRANCH  30  31
ENDBRANCH  29  30
ENDBRANCH   1  29
TORSDOF 15
ENDMDL
MODEL 3
REMARK VINA RESULT:     -12.1      4.964     10.932
REMARK SMILES COc1ccc(CNC(=O)[C@H]2CC(C)=C(C)C[C@@H]2C(=O)NCCCNC(=O)c2ccc(-c3c4nc(c(-c5c(F)c(F)c(F)c(F)c5F)c5ccc([nH]5)c(-c5c(F)c(F)c(F)c(F)c5F)c5nc(c(-c6c(F)c(F)c(F)c(F)c6F)c6ccc3[nH]6)C=C5)C=C4)cc2)cc1OC
REMARK SMILES IDX 22 1 21 2 19 3 20 4 18 6 11 7 12 8 13 9 17 10 14 11 15 12
REMARK SMILES IDX 16 13 9 14 8 15 10 17 7 18 6 19 3 20 4 21 92 22 5 23 91 24
REMARK SMILES IDX 2 25 1 26 93 27 94 28 23 29 24 30 25 31 26 32 27 34 28 35
REMARK SMILES IDX 29 36 90 37 30 38 89 39 31 40 32 41 33 42 83 43 34 44 88 45
REMARK SMILES IDX 82 46 84 47 35 48 87 49 81 50 80 51 36 53 68 54 48 55 67 56
REMARK SMILES IDX 49 57 52 58 66 59 85 60 50 61 51 62 65 64 86 65 53 66 37 67
REMARK SMILES IDX 38 68 46 69 39 70 40 71 44 72 47 73 41 74 42 75 45 76 43 77
REMARK SMILES IDX 69 78 70 79 78 80 71 81 72 82 76 83 79 84 73 85 74 86 77 87
REMARK SMILES IDX 75 88 54 89 55 90 63 91 56 92 57 93 61 94 64 95 58 96 59 97
REMARK SMILES IDX 62 98 60 99
REMARK H PARENT 21 5 8 16 25 33 84 52 52 63
REMARK Flexibility Score: inf
ROOT
ATOM      1  C   UNL A   1      36.939  20.152  24.721  1.00  0.00     0.117 C 
ENDROOT
BRANCH   1   2
ATOM      2  N   UNL A   1      35.623  19.603  25.002  1.00  0.00    -0.356 N 
ATOM      3  C   UNL A   1      34.402  20.219  24.991  1.00  0.00     0.224 C 
ATOM      4  O   UNL A   1      33.409  19.537  25.239  1.00  0.00    -0.275 OA
ATOM      5  H   UNL A   1      35.608  18.647  25.234  1.00  0.00     0.163 HD
BRANCH   3   6
ATOM      6  C   UNL A   1      34.332  21.705  24.653  1.00  0.00     0.095 C 
ATOM      7  C   UNL A   1      34.505  22.572  25.919  1.00  0.00     0.095 C 
ATOM      8  C   UNL A   1      33.194  22.931  26.614  1.00  0.00     0.045 C 
ATOM      9  C   UNL A   1      32.005  23.209  25.726  1.00  0.00    -0.074 C 
ATOM     10  C   UNL A   1      33.072  21.992  23.821  1.00  0.00     0.045 C 
ATOM     11  C   UNL A   1      30.907  24.005  26.388  1.00  0.00     0.039 C 
ATOM     12  C   UNL A   1      31.948  22.762  24.458  1.00  0.00    -0.074 C 
ATOM     13  C   UNL A   1      30.747  22.948  23.564  1.00  0.00     0.039 C 
BRANCH   7  14
ATOM     14  C   UNL A   1      35.604  23.611  25.678  1.00  0.00     0.224 C 
ATOM     15  N   UNL A   1      35.487  24.768  25.000  1.00  0.00    -0.352 N 
ATOM     16  H   UNL A   1      36.272  25.354  25.100  1.00  0.00     0.163 HD
ATOM     17  O   UNL A   1      36.729  23.398  26.158  1.00  0.00    -0.275 OA
BRANCH  15  18
ATOM     18  C   UNL A   1      34.460  25.335  24.160  1.00  0.00     0.151 C 
BRANCH  18  19
ATOM     19  C   UNL A   1      33.652  26.409  24.847  1.00  0.00    -0.025 A 
ATOM     20  C   UNL A   1      32.052  28.414  26.031  1.00  0.00     0.160 A 
ATOM     21  C   UNL A   1      33.160  27.892  26.711  1.00  0.00     0.051 A 
ATOM     22  C   UNL A   1      31.730  27.941  24.757  1.00  0.00     0.161 A 
ATOM     23  C   UNL A   1      33.952  26.897  26.124  1.00  0.00     0.009 A 
ATOM     24  C   UNL A   1      32.524  26.930  24.192  1.00  0.00     0.056 A 
BRANCH  20  25
ATOM     25  O   UNL A   1      31.403  29.478  26.598  1.00  0.00    -0.493 OA
ATOM     26  C   UNL A   1      31.983  30.726  26.222  1.00  0.00     0.278 C 
ENDBRANCH  20  25
BRANCH  22  27
ATOM     27  O   UNL A   1      30.730  28.340  23.914  1.00  0.00    -0.493 OA
ATOM     28  C   UNL A   1      29.745  27.399  23.523  1.00  0.00     0.278 C 
ENDBRANCH  22  27
ENDBRANCH  18  19
ENDBRANCH  15  18
ENDBRANCH   7  14
ENDBRANCH   3   6
ENDBRANCH   1   2
BRANCH   1  29
ATOM     29  C   UNL A   1      38.061  19.174  25.033  1.00  0.00     0.042 C 
BRANCH  29  30
ATOM     30  C   UNL A   1      39.251  19.800  25.750  1.00  0.00     0.118 C 
BRANCH  30  31
ATOM     31  N   UNL A   1      40.407  18.915  25.812  1.00  0.00    -0.352 N 
ATOM     32  C   UNL A   1      41.737  19.197  25.985  1.00  0.00     0.251 C 
ATOM     33  H   UNL A   1      40.199  17.958  25.713  1.00  0.00     0.163 HD
ATOM     34  O   UNL A   1      42.569  18.300  25.836  1.00  0.00    -0.269 OA
BRANCH  32  35
ATOM     35  C   UNL A   1      42.188  20.563  26.324  1.00  0.00     0.039 A 
ATOM     36  C   UNL A   1      42.557  21.422  25.285  1.00  0.00     0.014 A 
ATOM     37  C   UNL A   1      42.279  20.993  27.650  1.00  0.00     0.014 A 
ATOM     38  C   UNL A   1      42.961  22.727  25.574  1.00  0.00     0.010 A 
ATOM     39  C   UNL A   1      42.590  22.321  27.930  1.00  0.00     0.010 A 
ATOM     40  C   UNL A   1      42.948  23.197  26.898  1.00  0.00    -0.014 A 
BRANCH  40  41
ATOM     41  C   UNL A   1      43.316  24.602  27.208  1.00  0.00     0.031 A 
ATOM     42  C   UNL A   1      44.698  25.114  26.911  1.00  0.00     0.074 A 
ATOM     43  C   UNL A   1      42.410  25.412  27.789  1.00  0.00     0.049 A 
ATOM     44  N   UNL A   1      45.197  26.311  27.098  1.00  0.00    -0.248 NA
ATOM     45  C   UNL A   1      45.656  24.146  26.357  1.00  0.00     0.031 C 
ATOM     46  C   UNL A   1      41.053  25.021  28.173  1.00  0.00     0.029 A 
ATOM     47  N   UNL A   1      42.491  26.733  28.151  1.00  0.00    -0.354 N 
ATOM     48  C   UNL A   1      46.522  26.236  26.687  1.00  0.00     0.074 A 
ATOM     49  C   UNL A   1      46.769  24.860  26.314  1.00  0.00     0.031 C 
ATOM     50  C   UNL A   1      40.413  26.091  28.671  1.00  0.00     0.029 A 
ATOM     51  C   UNL A   1      41.324  27.230  28.676  1.00  0.00     0.049 A 
ATOM     52  H   UNL A   1      43.308  27.272  28.044  1.00  0.00     0.167 HD
ATOM     53  C   UNL A   1      47.440  27.228  26.598  1.00  0.00     0.037 A 
ATOM     54  C   UNL A   1      41.022  28.471  29.103  1.00  0.00     0.037 A 
ATOM     55  C   UNL A   1      47.191  28.597  26.973  1.00  0.00     0.049 A 
ATOM     56  C   UNL A   1      42.066  29.550  29.020  1.00  0.00     0.074 A 
ATOM     57  C   UNL A   1      48.041  29.686  26.889  1.00  0.00     0.029 A 
ATOM     58  N   UNL A   1      46.000  29.063  27.514  1.00  0.00    -0.354 N 
ATOM     59  N   UNL A   1      43.293  29.487  28.562  1.00  0.00    -0.248 NA
ATOM     60  C   UNL A   1      41.673  30.879  29.505  1.00  0.00     0.031 C 
ATOM     61  C   UNL A   1      47.383  30.798  27.429  1.00  0.00     0.029 A 
ATOM     62  C   UNL A   1      46.102  30.418  27.791  1.00  0.00     0.049 A 
ATOM     63  H   UNL A   1      45.202  28.511  27.679  1.00  0.00     0.167 HD
ATOM     64  C   UNL A   1      43.808  30.772  28.671  1.00  0.00     0.074 A 
ATOM     65  C   UNL A   1      42.751  31.596  29.222  1.00  0.00     0.031 C 
ATOM     66  C   UNL A   1      45.043  31.228  28.344  1.00  0.00     0.037 A 
BRANCH  53  67
ATOM     67  C   UNL A   1      48.802  26.856  26.079  1.00  0.00     0.064 A 
ATOM     68  C   UNL A   1      49.799  26.342  26.927  1.00  0.00     0.173 A 
ATOM     69  C   UNL A   1      49.123  27.021  24.724  1.00  0.00     0.173 A 
ATOM     70  F   UNL A   1      49.551  26.173  28.235  1.00  0.00    -0.203 F 
ATOM     71  C   UNL A   1      51.075  26.058  26.448  1.00  0.00     0.198 A 
ATOM     72  C   UNL A   1      50.389  26.699  24.241  1.00  0.00     0.198 A 
ATOM     73  F   UNL A   1      48.211  27.499  23.865  1.00  0.00    -0.203 F 
ATOM     74  F   UNL A   1      52.028  25.641  27.292  1.00  0.00    -0.200 F 
ATOM     75  C   UNL A   1      51.368  26.233  25.104  1.00  0.00     0.200 A 
ATOM     76  F   UNL A   1      50.667  26.854  22.938  1.00  0.00    -0.200 F 
ATOM     77  F   UNL A   1      52.598  25.963  24.645  1.00  0.00    -0.200 F 
ENDBRANCH  53  67
BRANCH  54  78
ATOM     78  C   UNL A   1      39.651  28.770  29.592  1.00  0.00     0.064 A 
ATOM     79  C   UNL A   1      38.656  29.206  28.704  1.00  0.00     0.173 A 
ATOM     80  C   UNL A   1      39.303  28.623  30.942  1.00  0.00     0.173 A 
ATOM     81  F   UNL A   1      38.948  29.380  27.406  1.00  0.00    -0.203 F 
ATOM     82  C   UNL A   1      37.371  29.500  29.151  1.00  0.00     0.198 A 
ATOM     83  C   UNL A   1      38.009  28.890  31.383  1.00  0.00     0.198 A 
ATOM     84  F   UNL A   1      40.216  28.205  31.829  1.00  0.00    -0.203 F 
ATOM     85  F   UNL A   1      36.452  29.956  28.290  1.00  0.00    -0.200 F 
ATOM     86  C   UNL A   1      37.046  29.336  30.489  1.00  0.00     0.200 A 
ATOM     87  F   UNL A   1      37.694  28.714  32.674  1.00  0.00    -0.200 F 
ATOM     88  F   UNL A   1      35.807  29.611  30.919  1.00  0.00    -0.200 F 
ENDBRANCH  54  78
BRANCH  66  89
ATOM     89  C   UNL A   1      45.301  32.697  28.536  1.00  0.00     0.064 A 
ATOM     90  C   UNL A   1      45.847  33.205  29.725  1.00  0.00     0.173 A 
ATOM     91  C   UNL A   1      44.993  33.609  27.515  1.00  0.00     0.173 A 
ATOM     92  F   UNL A   1      46.146  32.378  30.739  1.00  0.00    -0.203 F 
ATOM     93  C   UNL A   1      46.031  34.575  29.901  1.00  0.00     0.198 A 
ATOM     94  C   UNL A   1      45.214  34.975  27.681  1.00  0.00     0.198 A 
ATOM     95  F   UNL A   1      44.477  33.179  26.354  1.00  0.00    -0.203 F 
ATOM     96  F   UNL A   1      46.484  35.041  31.073  1.00  0.00    -0.200 F 
ATOM     97  C   UNL A   1      45.719  35.457  28.879  1.00  0.00     0.200 A 
ATOM     98  F   UNL A   1      44.926  35.823  26.685  1.00  0.00    -0.200 F 
ATOM     99  F   UNL A   1      45.892  36.774  29.052  1.00  0.00    -0.200 F 
ENDBRANCH  66  89
ENDBRANCH  40  41
ENDBRANCH  32  35
ENDBRANCH  30  31
ENDBRANCH  29  30
ENDBRANCH   1  29
TORSDOF 15
ENDMDL
