MODEL 1
REMARK VINA RESULT:     -13.2      0.000      0.000
REMARK SMILES O=C(NCCCNC(=O)c1cc(F)cc(S(=O)(=O)Nc2ccc(F)c(F)c2F)c1)c1ccc(-c2c3nc(c(-c4c(F)c(F)c(F)c(F)c4F)c4ccc([nH]4)c(-c4c(F)c(F)c(F)c(F)c4F)c4nc(c(-c5c(F)c(F)c(F)c(F)c5F)c5ccc2[nH]5)C=C4)C=C3)cc1
REMARK SMILES IDX 5 1 4 2 3 3 1 4 2 5 30 7 31 8 92 9 32 10 91 11 33 12 34 13
REMARK SMILES IDX 35 14 85 15 36 16 90 17 84 18 86 19 37 20 89 21 83 22 82 23
REMARK SMILES IDX 38 25 70 26 50 27 69 28 51 29 54 30 68 31 87 32 52 33 53 34
REMARK SMILES IDX 67 36 88 37 55 38 39 39 40 40 48 41 41 42 42 43 46 44 49 45
REMARK SMILES IDX 43 46 44 47 47 48 45 49 71 50 72 51 80 52 73 53 74 54 78 55
REMARK SMILES IDX 81 56 75 57 76 58 79 59 77 60 56 61 57 62 65 63 58 64 59 65
REMARK SMILES IDX 63 66 66 67 60 68 61 69 64 70 62 71 6 72 7 73 8 74 9 76
REMARK SMILES IDX 10 77 11 78 29 79 12 80 15 81 13 82 14 83 16 84 17 85 18 86
REMARK SMILES IDX 19 87 20 89 21 90 27 91 22 92 25 93 28 94 23 95 26 96 24 97
REMARK H PARENT 3 6 86 24 54 35 7 75 19 88
REMARK Flexibility Score: inf
ROOT
ATOM      1  C   UNL A   1      31.830  28.681  25.902  1.00  0.00     0.042 C 
ENDROOT
BRANCH   1   2
ATOM      2  C   UNL A   1      32.875  29.738  25.561  1.00  0.00     0.118 C 
BRANCH   2   3
ATOM      3  N   UNL A   1      32.576  31.050  26.120  1.00  0.00    -0.352 N 
ATOM      4  O   UNL A   1      32.628  32.828  27.480  1.00  0.00    -0.269 OA
ATOM      5  C   UNL A   1      33.185  31.800  27.097  1.00  0.00     0.251 C 
ATOM      6  H   UNL A   1      31.788  31.482  25.722  1.00  0.00     0.163 HD
BRANCH   5   7
ATOM      7  C   UNL A   1      34.467  31.397  27.726  1.00  0.00     0.039 A 
ATOM      8  C   UNL A   1      34.733  30.081  28.097  1.00  0.00     0.014 A 
ATOM      9  C   UNL A   1      35.467  32.367  27.885  1.00  0.00     0.014 A 
ATOM     10  C   UNL A   1      35.909  29.770  28.777  1.00  0.00     0.010 A 
ATOM     11  C   UNL A   1      36.688  32.035  28.485  1.00  0.00     0.010 A 
ATOM     12  C   UNL A   1      36.902  30.742  28.983  1.00  0.00    -0.014 A 
BRANCH  12  13
ATOM     13  C   UNL A   1      38.148  30.371  29.705  1.00  0.00     0.031 A 
ATOM     14  C   UNL A   1      38.378  30.802  31.129  1.00  0.00     0.074 A 
ATOM     15  C   UNL A   1      39.054  29.581  29.095  1.00  0.00     0.049 A 
ATOM     16  N   UNL A   1      39.362  30.492  31.937  1.00  0.00    -0.248 NA
ATOM     17  C   UNL A   1      37.380  31.704  31.724  1.00  0.00     0.031 C 
ATOM     18  C   UNL A   1      38.962  29.113  27.711  1.00  0.00     0.029 A 
ATOM     19  N   UNL A   1      40.206  29.003  29.567  1.00  0.00    -0.354 N 
ATOM     20  C   UNL A   1      39.111  31.168  33.123  1.00  0.00     0.074 A 
ATOM     21  C   UNL A   1      37.897  31.930  32.925  1.00  0.00     0.031 C 
ATOM     22  C   UNL A   1      39.973  28.266  27.467  1.00  0.00     0.029 A 
ATOM     23  C   UNL A   1      40.808  28.165  28.661  1.00  0.00     0.049 A 
ATOM     24  H   UNL A   1      40.567  29.174  30.466  1.00  0.00     0.167 HD
ATOM     25  C   UNL A   1      39.819  31.145  34.277  1.00  0.00     0.037 A 
ATOM     26  C   UNL A   1      41.902  27.389  28.778  1.00  0.00     0.037 A 
ATOM     27  C   UNL A   1      41.013  30.371  34.490  1.00  0.00     0.049 A 
ATOM     28  C   UNL A   1      42.659  27.366  30.074  1.00  0.00     0.074 A 
ATOM     29  C   UNL A   1      41.787  30.273  35.633  1.00  0.00     0.029 A 
ATOM     30  N   UNL A   1      41.604  29.554  33.537  1.00  0.00    -0.354 N 
ATOM     31  N   UNL A   1      42.398  27.998  31.191  1.00  0.00    -0.248 NA
ATOM     32  C   UNL A   1      43.862  26.524  30.125  1.00  0.00     0.031 C 
ATOM     33  C   UNL A   1      42.862  29.419  35.365  1.00  0.00     0.029 A 
ATOM     34  C   UNL A   1      42.737  28.956  34.066  1.00  0.00     0.049 A 
ATOM     35  H   UNL A   1      41.269  29.419  32.622  1.00  0.00     0.167 HD
ATOM     36  C   UNL A   1      43.399  27.630  32.078  1.00  0.00     0.074 A 
ATOM     37  C   UNL A   1      44.261  26.701  31.378  1.00  0.00     0.031 C 
ATOM     38  C   UNL A   1      43.588  28.034  33.358  1.00  0.00     0.037 A 
BRANCH  25  39
ATOM     39  C   UNL A   1      39.321  31.986  35.415  1.00  0.00     0.064 A 
ATOM     40  C   UNL A   1      39.753  33.313  35.562  1.00  0.00     0.173 A 
ATOM     41  C   UNL A   1      38.464  31.462  36.393  1.00  0.00     0.173 A 
ATOM     42  F   UNL A   1      40.577  33.860  34.656  1.00  0.00    -0.203 F 
ATOM     43  C   UNL A   1      39.350  34.081  36.652  1.00  0.00     0.198 A 
ATOM     44  C   UNL A   1      38.045  32.239  37.469  1.00  0.00     0.198 A 
ATOM     45  F   UNL A   1      38.014  30.202  36.290  1.00  0.00    -0.203 F 
ATOM     46  F   UNL A   1      39.791  35.339  36.783  1.00  0.00    -0.200 F 
ATOM     47  C   UNL A   1      38.493  33.545  37.601  1.00  0.00     0.200 A 
ATOM     48  F   UNL A   1      37.199  31.727  38.375  1.00  0.00    -0.200 F 
ATOM     49  F   UNL A   1      38.096  34.288  38.644  1.00  0.00    -0.200 F 
ENDBRANCH  25  39
BRANCH  26  50
ATOM     50  C   UNL A   1      42.316  26.541  27.633  1.00  0.00     0.064 A 
ATOM     51  C   UNL A   1      41.780  25.260  27.444  1.00  0.00     0.173 A 
ATOM     52  C   UNL A   1      43.297  26.981  26.733  1.00  0.00     0.173 A 
ATOM     53  F   UNL A   1      40.843  24.794  28.283  1.00  0.00    -0.203 F 
ATOM     54  C   UNL A   1      42.228  24.439  26.412  1.00  0.00     0.198 A 
ATOM     55  C   UNL A   1      43.728  26.168  25.687  1.00  0.00     0.198 A 
ATOM     56  F   UNL A   1      43.824  28.206  26.865  1.00  0.00    -0.203 F 
ATOM     57  F   UNL A   1      41.726  23.204  26.275  1.00  0.00    -0.200 F 
ATOM     58  C   UNL A   1      43.200  24.894  25.534  1.00  0.00     0.200 A 
ATOM     59  F   UNL A   1      44.654  26.618  24.830  1.00  0.00    -0.200 F 
ATOM     60  F   UNL A   1      43.628  24.105  24.538  1.00  0.00    -0.200 F 
ENDBRANCH  26  50
BRANCH  38  61
ATOM     61  C   UNL A   1      44.767  27.473  34.091  1.00  0.00     0.064 A 
ATOM     62  C   UNL A   1      46.010  28.120  34.041  1.00  0.00     0.173 A 
ATOM     63  C   UNL A   1      44.678  26.264  34.795  1.00  0.00     0.173 A 
ATOM     64  F   UNL A   1      46.145  29.276  33.375  1.00  0.00    -0.203 F 
ATOM     65  C   UNL A   1      47.127  27.569  34.665  1.00  0.00     0.198 A 
ATOM     66  C   UNL A   1      45.792  25.727  35.435  1.00  0.00     0.198 A 
ATOM     67  F   UNL A   1      43.506  25.617  34.880  1.00  0.00    -0.203 F 
ATOM     68  F   UNL A   1      48.311  28.194  34.588  1.00  0.00    -0.200 F 
ATOM     69  C   UNL A   1      47.016  26.376  35.364  1.00  0.00     0.200 A 
ATOM     70  F   UNL A   1      45.680  24.585  36.127  1.00  0.00    -0.200 F 
ATOM     71  F   UNL A   1      48.089  25.854  35.973  1.00  0.00    -0.200 F 
ENDBRANCH  38  61
ENDBRANCH  12  13
ENDBRANCH   5   7
ENDBRANCH   2   3
ENDBRANCH   1   2
BRANCH   1  72
ATOM     72  C   UNL A   1      32.216  27.724  27.027  1.00  0.00     0.118 C 
BRANCH  72  73
ATOM     73  N   UNL A   1      31.393  26.523  27.072  1.00  0.00    -0.352 N 
ATOM     74  C   UNL A   1      31.407  25.383  26.309  1.00  0.00     0.251 C 
ATOM     75  H   UNL A   1      30.704  26.530  27.775  1.00  0.00     0.163 HD
ATOM     76  O   UNL A   1      30.510  24.555  26.440  1.00  0.00    -0.269 OA
BRANCH  74  77
ATOM     77  C   UNL A   1      32.427  25.170  25.260  1.00  0.00     0.044 A 
ATOM     78  C   UNL A   1      32.210  25.467  23.918  1.00  0.00     0.053 A 
ATOM     79  C   UNL A   1      33.653  24.631  25.668  1.00  0.00     0.036 A 
ATOM     80  C   UNL A   1      33.181  25.117  22.986  1.00  0.00     0.125 A 
ATOM     81  C   UNL A   1      34.588  24.217  24.721  1.00  0.00     0.091 A 
ATOM     82  F   UNL A   1      32.958  25.364  21.690  1.00  0.00    -0.207 F 
ATOM     83  C   UNL A   1      34.354  24.473  23.367  1.00  0.00     0.061 A 
BRANCH  81  84
ATOM     84  S   UNL A   1      36.016  23.232  25.127  1.00  0.00     0.262 S 
ATOM     85  O   UNL A   1      36.635  22.892  23.863  1.00  0.00    -0.201 OA
ATOM     86  O   UNL A   1      36.734  23.964  26.145  1.00  0.00    -0.201 OA
BRANCH  84  87
ATOM     87  N   UNL A   1      35.503  21.825  25.867  1.00  0.00    -0.277 N 
ATOM     88  H   UNL A   1      35.861  21.639  26.765  1.00  0.00     0.180 HD
BRANCH  87  89
ATOM     89  C   UNL A   1      34.596  20.869  25.324  1.00  0.00     0.088 A 
ATOM     90  C   UNL A   1      33.207  21.034  25.306  1.00  0.00     0.033 A 
ATOM     91  C   UNL A   1      35.145  19.663  24.862  1.00  0.00     0.185 A 
ATOM     92  C   UNL A   1      32.383  19.959  24.954  1.00  0.00     0.045 A 
ATOM     93  C   UNL A   1      34.328  18.603  24.496  1.00  0.00     0.196 A 
ATOM     94  F   UNL A   1      36.480  19.514  24.845  1.00  0.00    -0.201 F 
ATOM     95  C   UNL A   1      32.951  18.746  24.569  1.00  0.00     0.162 A 
ATOM     96  F   UNL A   1      34.869  17.438  24.111  1.00  0.00    -0.200 F 
ATOM     97  F   UNL A   1      32.148  17.714  24.276  1.00  0.00    -0.204 F 
ENDBRANCH  87  89
ENDBRANCH  84  87
ENDBRANCH  81  84
ENDBRANCH  74  77
ENDBRANCH  72  73
ENDBRANCH   1  72
TORSDOF 13
ENDMDL
MODEL 2
REMARK VINA RESULT:     -13.2      2.311      3.476
REMARK SMILES O=C(NCCCNC(=O)c1cc(F)cc(S(=O)(=O)Nc2ccc(F)c(F)c2F)c1)c1ccc(-c2c3nc(c(-c4c(F)c(F)c(F)c(F)c4F)c4ccc([nH]4)c(-c4c(F)c(F)c(F)c(F)c4F)c4nc(c(-c5c(F)c(F)c(F)c(F)c5F)c5ccc2[nH]5)C=C4)C=C3)cc1
REMARK SMILES IDX 5 1 4 2 3 3 1 4 2 5 30 7 31 8 92 9 32 10 91 11 33 12 34 13
REMARK SMILES IDX 35 14 85 15 36 16 90 17 84 18 86 19 37 20 89 21 83 22 82 23
REMARK SMILES IDX 38 25 70 26 50 27 69 28 51 29 54 30 68 31 87 32 52 33 53 34
REMARK SMILES IDX 67 36 88 37 55 38 39 39 40 40 48 41 41 42 42 43 46 44 49 45
REMARK SMILES IDX 43 46 44 47 47 48 45 49 71 50 72 51 80 52 73 53 74 54 78 55
REMARK SMILES IDX 81 56 75 57 76 58 79 59 77 60 56 61 57 62 65 63 58 64 59 65
REMARK SMILES IDX 63 66 66 67 60 68 61 69 64 70 62 71 6 72 7 73 8 74 9 76
REMARK SMILES IDX 10 77 11 78 29 79 12 80 15 81 13 82 14 83 16 84 17 85 18 86
REMARK SMILES IDX 19 87 20 89 21 90 27 91 22 92 25 93 28 94 23 95 26 96 24 97
REMARK H PARENT 3 6 86 24 54 35 7 75 19 88
REMARK Flexibility Score: inf
ROOT
ATOM      1  C   UNL A   1      31.449  31.997  26.892  1.00  0.00     0.042 C 
ENDROOT
BRANCH   1   2
ATOM      2  C   UNL A   1      32.668  32.914  26.929  1.00  0.00     0.118 C 
BRANCH   2   3
ATOM      3  N   UNL A   1      32.421  34.180  27.606  1.00  0.00    -0.352 N 
ATOM      4  O   UNL A   1      32.511  35.807  29.142  1.00  0.00    -0.269 OA
ATOM      5  C   UNL A   1      33.023  34.789  28.680  1.00  0.00     0.251 C 
ATOM      6  H   UNL A   1      31.679  34.699  27.220  1.00  0.00     0.163 HD
BRANCH   5   7
ATOM      7  C   UNL A   1      34.247  34.245  29.318  1.00  0.00     0.039 A 
ATOM      8  C   UNL A   1      35.527  34.610  28.906  1.00  0.00     0.014 A 
ATOM      9  C   UNL A   1      34.103  33.388  30.419  1.00  0.00     0.014 A 
ATOM     10  C   UNL A   1      36.645  33.994  29.467  1.00  0.00     0.010 A 
ATOM     11  C   UNL A   1      35.230  32.840  31.044  1.00  0.00     0.010 A 
ATOM     12  C   UNL A   1      36.512  33.099  30.541  1.00  0.00    -0.014 A 
BRANCH  12  13
ATOM     13  C   UNL A   1      37.729  32.468  31.120  1.00  0.00     0.031 A 
ATOM     14  C   UNL A   1      38.200  32.819  32.506  1.00  0.00     0.074 A 
ATOM     15  C   UNL A   1      38.379  31.520  30.415  1.00  0.00     0.049 A 
ATOM     16  N   UNL A   1      39.185  32.300  33.198  1.00  0.00    -0.248 NA
ATOM     17  C   UNL A   1      37.482  33.895  33.205  1.00  0.00     0.031 C 
ATOM     18  C   UNL A   1      38.037  31.105  29.054  1.00  0.00     0.029 A 
ATOM     19  N   UNL A   1      39.433  30.711  30.757  1.00  0.00    -0.354 N 
ATOM     20  C   UNL A   1      39.212  32.991  34.401  1.00  0.00     0.074 A 
ATOM     21  C   UNL A   1      38.167  33.990  34.338  1.00  0.00     0.031 C 
ATOM     22  C   UNL A   1      38.818  30.073  28.702  1.00  0.00     0.029 A 
ATOM     23  C   UNL A   1      39.744  29.782  29.794  1.00  0.00     0.049 A 
ATOM     24  H   UNL A   1      39.919  30.788  31.609  1.00  0.00     0.167 HD
ATOM     25  C   UNL A   1      40.026  32.804  35.467  1.00  0.00     0.037 A 
ATOM     26  C   UNL A   1      40.661  28.797  29.790  1.00  0.00     0.037 A 
ATOM     27  C   UNL A   1      41.052  31.798  35.548  1.00  0.00     0.049 A 
ATOM     28  C   UNL A   1      41.538  28.597  30.993  1.00  0.00     0.074 A 
ATOM     29  C   UNL A   1      41.913  31.524  36.597  1.00  0.00     0.029 A 
ATOM     30  N   UNL A   1      41.351  30.894  34.540  1.00  0.00    -0.354 N 
ATOM     31  N   UNL A   1      41.540  29.250  32.128  1.00  0.00    -0.248 NA
ATOM     32  C   UNL A   1      42.541  27.526  30.912  1.00  0.00     0.031 C 
ATOM     33  C   UNL A   1      42.752  30.473  36.213  1.00  0.00     0.029 A 
ATOM     34  C   UNL A   1      42.390  30.068  34.940  1.00  0.00     0.049 A 
ATOM     35  H   UNL A   1      40.895  30.846  33.669  1.00  0.00     0.167 HD
ATOM     36  C   UNL A   1      42.537  28.669  32.898  1.00  0.00     0.074 A 
ATOM     37  C   UNL A   1      43.105  27.596  32.110  1.00  0.00     0.031 C 
ATOM     38  C   UNL A   1      42.947  29.004  34.145  1.00  0.00     0.037 A 
BRANCH  25  39
ATOM     39  C   UNL A   1      39.843  33.710  36.650  1.00  0.00     0.064 A 
ATOM     40  C   UNL A   1      38.959  33.362  37.682  1.00  0.00     0.173 A 
ATOM     41  C   UNL A   1      40.496  34.948  36.732  1.00  0.00     0.173 A 
ATOM     42  F   UNL A   1      38.305  32.191  37.647  1.00  0.00    -0.203 F 
ATOM     43  C   UNL A   1      38.731  34.225  38.751  1.00  0.00     0.198 A 
ATOM     44  C   UNL A   1      40.282  35.798  37.813  1.00  0.00     0.198 A 
ATOM     45  F   UNL A   1      41.360  35.319  35.775  1.00  0.00    -0.203 F 
ATOM     46  F   UNL A   1      37.866  33.883  39.715  1.00  0.00    -0.200 F 
ATOM     47  C   UNL A   1      39.396  35.440  38.817  1.00  0.00     0.200 A 
ATOM     48  F   UNL A   1      40.942  36.963  37.887  1.00  0.00    -0.200 F 
ATOM     49  F   UNL A   1      39.184  36.266  39.852  1.00  0.00    -0.200 F 
ENDBRANCH  25  39
BRANCH  26  50
ATOM     50  C   UNL A   1      40.760  27.902  28.611  1.00  0.00     0.064 A 
ATOM     51  C   UNL A   1      41.558  28.237  27.508  1.00  0.00     0.173 A 
ATOM     52  C   UNL A   1      40.016  26.716  28.546  1.00  0.00     0.173 A 
ATOM     53  F   UNL A   1      42.284  29.364  27.523  1.00  0.00    -0.203 F 
ATOM     54  C   UNL A   1      41.589  27.431  26.374  1.00  0.00     0.198 A 
ATOM     55  C   UNL A   1      40.064  25.899  27.419  1.00  0.00     0.198 A 
ATOM     56  F   UNL A   1      39.252  26.348  29.585  1.00  0.00    -0.203 F 
ATOM     57  F   UNL A   1      42.331  27.791  25.317  1.00  0.00    -0.200 F 
ATOM     58  C   UNL A   1      40.843  26.262  26.330  1.00  0.00     0.200 A 
ATOM     59  F   UNL A   1      39.357  24.762  27.388  1.00  0.00    -0.200 F 
ATOM     60  F   UNL A   1      40.875  25.485  25.238  1.00  0.00    -0.200 F 
ENDBRANCH  26  50
BRANCH  38  61
ATOM     61  C   UNL A   1      44.061  28.200  34.743  1.00  0.00     0.064 A 
ATOM     62  C   UNL A   1      45.397  28.583  34.554  1.00  0.00     0.173 A 
ATOM     63  C   UNL A   1      43.806  27.020  35.455  1.00  0.00     0.173 A 
ATOM     64  F   UNL A   1      45.690  29.702  33.874  1.00  0.00    -0.203 F 
ATOM     65  C   UNL A   1      46.440  27.805  35.050  1.00  0.00     0.198 A 
ATOM     66  C   UNL A   1      44.851  26.256  35.968  1.00  0.00     0.198 A 
ATOM     67  F   UNL A   1      42.543  26.621  35.672  1.00  0.00    -0.203 F 
ATOM     68  F   UNL A   1      47.710  28.178  34.840  1.00  0.00    -0.200 F 
ATOM     69  C   UNL A   1      46.166  26.645  35.759  1.00  0.00     0.200 A 
ATOM     70  F   UNL A   1      44.585  25.145  36.670  1.00  0.00    -0.200 F 
ATOM     71  F   UNL A   1      47.170  25.904  36.245  1.00  0.00    -0.200 F 
ENDBRANCH  38  61
ENDBRANCH  12  13
ENDBRANCH   5   7
ENDBRANCH   2   3
ENDBRANCH   1   2
BRANCH   1  72
ATOM     72  C   UNL A   1      31.761  30.504  26.827  1.00  0.00     0.118 C 
BRANCH  72  73
ATOM     73  N   UNL A   1      33.071  30.164  27.365  1.00  0.00    -0.352 N 
ATOM     74  C   UNL A   1      33.963  29.178  27.027  1.00  0.00     0.251 C 
ATOM     75  H   UNL A   1      33.370  30.744  28.101  1.00  0.00     0.163 HD
ATOM     76  O   UNL A   1      34.954  28.992  27.727  1.00  0.00    -0.269 OA
BRANCH  74  77
ATOM     77  C   UNL A   1      33.710  28.265  25.891  1.00  0.00     0.044 A 
ATOM     78  C   UNL A   1      34.014  28.590  24.573  1.00  0.00     0.053 A 
ATOM     79  C   UNL A   1      33.125  27.029  26.191  1.00  0.00     0.036 A 
ATOM     80  C   UNL A   1      33.626  27.721  23.559  1.00  0.00     0.125 A 
ATOM     81  C   UNL A   1      32.674  26.199  25.166  1.00  0.00     0.091 A 
ATOM     82  F   UNL A   1      33.879  28.050  22.287  1.00  0.00    -0.207 F 
ATOM     83  C   UNL A   1      32.938  26.544  23.837  1.00  0.00     0.061 A 
BRANCH  81  84
ATOM     84  S   UNL A   1      31.636  24.779  25.447  1.00  0.00     0.262 S 
ATOM     85  O   UNL A   1      31.361  24.764  26.868  1.00  0.00    -0.201 OA
ATOM     86  O   UNL A   1      30.570  24.861  24.474  1.00  0.00    -0.201 OA
BRANCH  84  87
ATOM     87  N   UNL A   1      32.495  23.402  25.053  1.00  0.00    -0.277 N 
ATOM     88  H   UNL A   1      31.974  22.627  24.744  1.00  0.00     0.180 HD
BRANCH  87  89
ATOM     89  C   UNL A   1      33.910  23.241  25.123  1.00  0.00     0.088 A 
ATOM     90  C   UNL A   1      34.654  23.395  26.297  1.00  0.00     0.033 A 
ATOM     91  C   UNL A   1      34.582  22.997  23.916  1.00  0.00     0.185 A 
ATOM     92  C   UNL A   1      36.052  23.433  26.234  1.00  0.00     0.045 A 
ATOM     93  C   UNL A   1      35.968  23.017  23.857  1.00  0.00     0.196 A 
ATOM     94  F   UNL A   1      33.868  22.814  22.793  1.00  0.00    -0.201 F 
ATOM     95  C   UNL A   1      36.697  23.262  25.011  1.00  0.00     0.162 A 
ATOM     96  F   UNL A   1      36.594  22.838  22.685  1.00  0.00    -0.200 F 
ATOM     97  F   UNL A   1      38.033  23.342  24.961  1.00  0.00    -0.204 F 
ENDBRANCH  87  89
ENDBRANCH  84  87
ENDBRANCH  81  84
ENDBRANCH  74  77
ENDBRANCH  72  73
ENDBRANCH   1  72
TORSDOF 13
ENDMDL
MODEL 3
REMARK VINA RESULT:     -13.2      4.587      9.914
REMARK SMILES O=C(NCCCNC(=O)c1cc(F)cc(S(=O)(=O)Nc2ccc(F)c(F)c2F)c1)c1ccc(-c2c3nc(c(-c4c(F)c(F)c(F)c(F)c4F)c4ccc([nH]4)c(-c4c(F)c(F)c(F)c(F)c4F)c4nc(c(-c5c(F)c(F)c(F)c(F)c5F)c5ccc2[nH]5)C=C4)C=C3)cc1
REMARK SMILES IDX 5 1 4 2 3 3 1 4 2 5 30 7 31 8 92 9 32 10 91 11 33 12 34 13
REMARK SMILES IDX 35 14 85 15 36 16 90 17 84 18 86 19 37 20 89 21 83 22 82 23
REMARK SMILES IDX 38 25 70 26 50 27 69 28 51 29 54 30 68 31 87 32 52 33 53 34
REMARK SMILES IDX 67 36 88 37 55 38 39 39 40 40 48 41 41 42 42 43 46 44 49 45
REMARK SMILES IDX 43 46 44 47 47 48 45 49 71 50 72 51 80 52 73 53 74 54 78 55
REMARK SMILES IDX 81 56 75 57 76 58 79 59 77 60 56 61 57 62 65 63 58 64 59 65
REMARK SMILES IDX 63 66 66 67 60 68 61 69 64 70 62 71 6 72 7 73 8 74 9 76
REMARK SMILES IDX 10 77 11 78 29 79 12 80 15 81 13 82 14 83 16 84 17 85 18 86
REMARK SMILES IDX 19 87 20 89 21 90 27 91 22 92 25 93 28 94 23 95 26 96 24 97
REMARK H PARENT 3 6 86 24 54 35 7 75 19 88
REMARK Flexibility Score: inf
ROOT
ATOM      1  C   UNL A   1      38.140  19.784  24.991  1.00  0.00     0.042 C 
ENDROOT
BRANCH   1   2
ATOM      2  C   UNL A   1      39.165  19.941  26.110  1.00  0.00     0.118 C 
BRANCH   2   3
ATOM      3  N   UNL A   1      40.370  19.146  25.907  1.00  0.00    -0.352 N 
ATOM      4  O   UNL A   1      42.526  18.613  25.619  1.00  0.00    -0.269 OA
ATOM      5  C   UNL A   1      41.706  19.453  25.988  1.00  0.00     0.251 C 
ATOM      6  H   UNL A   1      40.192  18.210  25.666  1.00  0.00     0.163 HD
BRANCH   5   7
ATOM      7  C   UNL A   1      42.191  20.769  26.473  1.00  0.00     0.039 A 
ATOM      8  C   UNL A   1      42.303  21.067  27.830  1.00  0.00     0.014 A 
ATOM      9  C   UNL A   1      42.615  21.715  25.530  1.00  0.00     0.014 A 
ATOM     10  C   UNL A   1      42.665  22.350  28.237  1.00  0.00     0.010 A 
ATOM     11  C   UNL A   1      43.068  22.975  25.941  1.00  0.00     0.010 A 
ATOM     12  C   UNL A   1      43.050  23.322  27.299  1.00  0.00    -0.014 A 
BRANCH  12  13
ATOM     13  C   UNL A   1      43.438  24.679  27.771  1.00  0.00     0.031 A 
ATOM     14  C   UNL A   1      44.876  25.124  27.754  1.00  0.00     0.074 A 
ATOM     15  C   UNL A   1      42.478  25.542  28.157  1.00  0.00     0.049 A 
ATOM     16  N   UNL A   1      45.379  26.299  28.043  1.00  0.00    -0.248 NA
ATOM     17  C   UNL A   1      45.882  24.123  27.371  1.00  0.00     0.031 C 
ATOM     18  C   UNL A   1      41.051  25.229  28.241  1.00  0.00     0.029 A 
ATOM     19  N   UNL A   1      42.550  26.866  28.514  1.00  0.00    -0.354 N 
ATOM     20  C   UNL A   1      46.754  26.175  27.891  1.00  0.00     0.074 A 
ATOM     21  C   UNL A   1      47.013  24.802  27.514  1.00  0.00     0.031 C 
ATOM     22  C   UNL A   1      40.375  26.343  28.556  1.00  0.00     0.029 A 
ATOM     23  C   UNL A   1      41.323  27.439  28.740  1.00  0.00     0.049 A 
ATOM     24  H   UNL A   1      43.399  27.356  28.602  1.00  0.00     0.167 HD
ATOM     25  C   UNL A   1      47.711  27.120  28.040  1.00  0.00     0.037 A 
ATOM     26  C   UNL A   1      40.991  28.707  29.046  1.00  0.00     0.037 A 
ATOM     27  C   UNL A   1      47.459  28.493  28.392  1.00  0.00     0.049 A 
ATOM     28  C   UNL A   1      42.070  29.742  29.186  1.00  0.00     0.074 A 
ATOM     29  C   UNL A   1      48.367  29.526  28.548  1.00  0.00     0.029 A 
ATOM     30  N   UNL A   1      46.202  29.027  28.636  1.00  0.00    -0.354 N 
ATOM     31  N   UNL A   1      43.363  29.611  29.024  1.00  0.00    -0.248 NA
ATOM     32  C   UNL A   1      41.643  31.099  29.555  1.00  0.00     0.031 C 
ATOM     33  C   UNL A   1      47.664  30.678  28.914  1.00  0.00     0.029 A 
ATOM     34  C   UNL A   1      46.314  30.373  28.950  1.00  0.00     0.049 A 
ATOM     35  H   UNL A   1      45.357  28.525  28.594  1.00  0.00     0.167 HD
ATOM     36  C   UNL A   1      43.905  30.865  29.265  1.00  0.00     0.074 A 
ATOM     37  C   UNL A   1      42.799  31.750  29.564  1.00  0.00     0.031 C 
ATOM     38  C   UNL A   1      45.206  31.243  29.247  1.00  0.00     0.037 A 
BRANCH  25  39
ATOM     39  C   UNL A   1      49.137  26.707  27.821  1.00  0.00     0.064 A 
ATOM     40  C   UNL A   1      49.635  26.532  26.522  1.00  0.00     0.173 A 
ATOM     41  C   UNL A   1      49.992  26.427  28.897  1.00  0.00     0.173 A 
ATOM     42  F   UNL A   1      48.855  26.781  25.459  1.00  0.00    -0.203 F 
ATOM     43  C   UNL A   1      50.936  26.084  26.308  1.00  0.00     0.198 A 
ATOM     44  C   UNL A   1      51.299  26.002  28.679  1.00  0.00     0.198 A 
ATOM     45  F   UNL A   1      49.565  26.592  30.158  1.00  0.00    -0.203 F 
ATOM     46  F   UNL A   1      51.385  25.903  25.058  1.00  0.00    -0.200 F 
ATOM     47  C   UNL A   1      51.768  25.824  27.386  1.00  0.00     0.200 A 
ATOM     48  F   UNL A   1      52.109  25.771  29.722  1.00  0.00    -0.200 F 
ATOM     49  F   UNL A   1      53.024  25.403  27.180  1.00  0.00    -0.200 F 
ENDBRANCH  25  39
BRANCH  26  50
ATOM     50  C   UNL A   1      39.560  29.065  29.201  1.00  0.00     0.064 A 
ATOM     51  C   UNL A   1      38.931  29.025  30.453  1.00  0.00     0.173 A 
ATOM     52  C   UNL A   1      38.781  29.407  28.087  1.00  0.00     0.173 A 
ATOM     53  F   UNL A   1      39.634  28.698  31.547  1.00  0.00    -0.203 F 
ATOM     54  C   UNL A   1      37.570  29.289  30.581  1.00  0.00     0.198 A 
ATOM     55  C   UNL A   1      37.424  29.692  28.219  1.00  0.00     0.198 A 
ATOM     56  F   UNL A   1      39.345  29.475  26.872  1.00  0.00    -0.203 F 
ATOM     57  F   UNL A   1      36.983  29.207  31.784  1.00  0.00    -0.200 F 
ATOM     58  C   UNL A   1      36.817  29.623  29.465  1.00  0.00     0.200 A 
ATOM     59  F   UNL A   1      36.705  30.033  27.141  1.00  0.00    -0.200 F 
ATOM     60  F   UNL A   1      35.508  29.880  29.590  1.00  0.00    -0.200 F 
ENDBRANCH  26  50
BRANCH  38  61
ATOM     61  C   UNL A   1      45.511  32.677  29.553  1.00  0.00     0.064 A 
ATOM     62  C   UNL A   1      45.739  33.091  30.873  1.00  0.00     0.173 A 
ATOM     63  C   UNL A   1      45.520  33.651  28.544  1.00  0.00     0.173 A 
ATOM     64  F   UNL A   1      45.735  32.196  31.872  1.00  0.00    -0.203 F 
ATOM     65  C   UNL A   1      45.958  34.433  31.173  1.00  0.00     0.198 A 
ATOM     66  C   UNL A   1      45.760  34.988  28.845  1.00  0.00     0.198 A 
ATOM     67  F   UNL A   1      45.319  33.299  27.265  1.00  0.00    -0.203 F 
ATOM     68  F   UNL A   1      46.154  34.810  32.444  1.00  0.00    -0.200 F 
ATOM     69  C   UNL A   1      45.971  35.380  30.159  1.00  0.00     0.200 A 
ATOM     70  F   UNL A   1      45.792  35.899  27.863  1.00  0.00    -0.200 F 
ATOM     71  F   UNL A   1      46.193  36.668  30.448  1.00  0.00    -0.200 F 
ENDBRANCH  38  61
ENDBRANCH  12  13
ENDBRANCH   5   7
ENDBRANCH   2   3
ENDBRANCH   1   2
BRANCH   1  72
ATOM     72  C   UNL A   1      37.414  21.066  24.590  1.00  0.00     0.118 C 
BRANCH  72  73
ATOM     73  N   UNL A   1      37.970  22.262  25.209  1.00  0.00    -0.352 N 
ATOM     74  C   UNL A   1      37.366  23.373  25.742  1.00  0.00     0.251 C 
ATOM     75  H   UNL A   1      38.953  22.276  25.253  1.00  0.00     0.163 HD
ATOM     76  O   UNL A   1      38.054  24.333  26.080  1.00  0.00    -0.269 OA
BRANCH  74  77
ATOM     77  C   UNL A   1      35.895  23.483  25.830  1.00  0.00     0.044 A 
ATOM     78  C   UNL A   1      35.154  22.950  26.880  1.00  0.00     0.053 A 
ATOM     79  C   UNL A   1      35.246  24.152  24.785  1.00  0.00     0.036 A 
ATOM     80  C   UNL A   1      33.766  22.994  26.815  1.00  0.00     0.125 A 
ATOM     81  C   UNL A   1      33.856  24.126  24.691  1.00  0.00     0.091 A 
ATOM     82  F   UNL A   1      33.050  22.445  27.803  1.00  0.00    -0.207 F 
ATOM     83  C   UNL A   1      33.108  23.551  25.722  1.00  0.00     0.061 A 
BRANCH  81  84
ATOM     84  S   UNL A   1      32.967  24.658  23.241  1.00  0.00     0.262 S 
ATOM     85  O   UNL A   1      33.976  25.051  22.280  1.00  0.00    -0.201 OA
ATOM     86  O   UNL A   1      32.013  23.612  22.948  1.00  0.00    -0.201 OA
BRANCH  84  87
ATOM     87  N   UNL A   1      32.053  25.998  23.636  1.00  0.00    -0.277 N 
ATOM     88  H   UNL A   1      31.193  26.104  23.168  1.00  0.00     0.180 HD
BRANCH  87  89
ATOM     89  C   UNL A   1      32.397  27.005  24.585  1.00  0.00     0.088 A 
ATOM     90  C   UNL A   1      33.580  27.750  24.536  1.00  0.00     0.033 A 
ATOM     91  C   UNL A   1      31.523  27.183  25.668  1.00  0.00     0.185 A 
ATOM     92  C   UNL A   1      33.937  28.559  25.621  1.00  0.00     0.045 A 
ATOM     93  C   UNL A   1      31.869  27.999  26.735  1.00  0.00     0.196 A 
ATOM     94  F   UNL A   1      30.370  26.495  25.700  1.00  0.00    -0.201 F 
ATOM     95  C   UNL A   1      33.087  28.663  26.720  1.00  0.00     0.162 A 
ATOM     96  F   UNL A   1      31.049  28.114  27.789  1.00  0.00    -0.200 F 
ATOM     97  F   UNL A   1      33.463  29.409  27.767  1.00  0.00    -0.204 F 
ENDBRANCH  87  89
ENDBRANCH  84  87
ENDBRANCH  81  84
ENDBRANCH  74  77
ENDBRANCH  72  73
ENDBRANCH   1  72
TORSDOF 13
ENDMDL
