MODEL 1
REMARK VINA RESULT:     -11.7      0.000      0.000
REMARK SMILES O=C(NCCCNC(=O)[C@@H](CO)NS(=O)(=O)c1cc[nH]c1)c1ccc(-c2c3nc(c(-c4c(F)c(F)c(F)c(F)c4F)c4ccc([nH]4)c(-c4c(F)c(F)c(F)c(F)c4F)c4nc(c(-c5c(F)c(F)c(F)c(F)c5F)c5ccc2[nH]5)C=C4)C=C3)cc1
REMARK SMILES IDX 5 1 4 2 3 3 1 4 2 5 22 7 23 8 84 9 24 10 83 11 25 12 26 13
REMARK SMILES IDX 27 14 77 15 28 16 82 17 76 18 78 19 29 20 81 21 75 22 74 23
REMARK SMILES IDX 30 25 62 26 42 27 61 28 43 29 46 30 60 31 79 32 44 33 45 34
REMARK SMILES IDX 59 36 80 37 47 38 31 39 32 40 40 41 33 42 34 43 38 44 41 45
REMARK SMILES IDX 35 46 36 47 39 48 37 49 63 50 64 51 72 52 65 53 66 54 70 55
REMARK SMILES IDX 73 56 67 57 68 58 71 59 69 60 48 61 49 62 57 63 50 64 51 65
REMARK SMILES IDX 55 66 58 67 52 68 53 69 56 70 54 71 6 72 7 73 8 74 9 76
REMARK SMILES IDX 10 77 11 78 12 79 13 81 14 83 15 84 16 85 17 86 18 87 21 88
REMARK SMILES IDX 19 89 20 90
REMARK H PARENT 3 6 78 24 46 35 7 75 12 80 13 82 20 91
REMARK Flexibility Score: inf
ROOT
ATOM      1  C   UNL A   1      33.962  28.779  25.383  1.00  0.00     0.042 C 
ENDROOT
BRANCH   1   2
ATOM      2  C   UNL A   1      34.788  28.701  26.664  1.00  0.00     0.118 C 
BRANCH   2   3
ATOM      3  N   UNL A   1      35.112  29.966  27.297  1.00  0.00    -0.352 N 
ATOM      4  O   UNL A   1      36.267  31.724  28.035  1.00  0.00    -0.269 OA
ATOM      5  C   UNL A   1      36.284  30.529  27.737  1.00  0.00     0.251 C 
ATOM      6  H   UNL A   1      34.327  30.542  27.441  1.00  0.00     0.163 HD
BRANCH   5   7
ATOM      7  C   UNL A   1      37.532  29.755  27.960  1.00  0.00     0.039 A 
ATOM      8  C   UNL A   1      38.612  29.734  27.077  1.00  0.00     0.014 A 
ATOM      9  C   UNL A   1      37.603  28.994  29.142  1.00  0.00     0.014 A 
ATOM     10  C   UNL A   1      39.681  28.876  27.296  1.00  0.00     0.010 A 
ATOM     11  C   UNL A   1      38.698  28.170  29.397  1.00  0.00     0.010 A 
ATOM     12  C   UNL A   1      39.732  28.104  28.461  1.00  0.00    -0.014 A 
BRANCH  12  13
ATOM     13  C   UNL A   1      41.032  27.476  28.782  1.00  0.00     0.031 A 
ATOM     14  C   UNL A   1      41.056  26.006  28.280  1.00  0.00     0.074 A 
ATOM     15  C   UNL A   1      41.927  28.228  29.496  1.00  0.00     0.049 A 
ATOM     16  N   UNL A   1      41.746  24.985  28.689  1.00  0.00    -0.248 NA
ATOM     17  C   UNL A   1      40.117  25.597  27.191  1.00  0.00     0.031 C 
ATOM     18  C   UNL A   1      41.745  29.654  29.853  1.00  0.00     0.029 A 
ATOM     19  N   UNL A   1      43.154  27.965  30.081  1.00  0.00    -0.354 N 
ATOM     20  C   UNL A   1      41.507  23.916  27.789  1.00  0.00     0.074 A 
ATOM     21  C   UNL A   1      40.404  24.313  26.974  1.00  0.00     0.031 C 
ATOM     22  C   UNL A   1      42.750  30.094  30.644  1.00  0.00     0.029 A 
ATOM     23  C   UNL A   1      43.697  29.020  30.874  1.00  0.00     0.049 A 
ATOM     24  H   UNL A   1      43.621  27.107  29.956  1.00  0.00     0.167 HD
ATOM     25  C   UNL A   1      42.339  22.837  27.677  1.00  0.00     0.037 A 
ATOM     26  C   UNL A   1      44.806  29.008  31.686  1.00  0.00     0.037 A 
ATOM     27  C   UNL A   1      43.353  22.917  28.669  1.00  0.00     0.049 A 
ATOM     28  C   UNL A   1      45.453  27.725  31.396  1.00  0.00     0.074 A 
ATOM     29  C   UNL A   1      43.325  22.739  30.026  1.00  0.00     0.029 A 
ATOM     30  N   UNL A   1      44.508  23.565  28.316  1.00  0.00    -0.354 N 
ATOM     31  N   UNL A   1      46.111  27.472  30.306  1.00  0.00    -0.248 NA
ATOM     32  C   UNL A   1      45.307  26.624  32.354  1.00  0.00     0.031 C 
ATOM     33  C   UNL A   1      44.226  23.715  30.492  1.00  0.00     0.029 A 
ATOM     34  C   UNL A   1      44.924  24.271  29.412  1.00  0.00     0.049 A 
ATOM     35  H   UNL A   1      44.954  23.529  27.439  1.00  0.00     0.167 HD
ATOM     36  C   UNL A   1      46.143  26.101  30.310  1.00  0.00     0.074 A 
ATOM     37  C   UNL A   1      45.963  25.681  31.682  1.00  0.00     0.031 C 
ATOM     38  C   UNL A   1      45.747  25.435  29.197  1.00  0.00     0.037 A 
BRANCH  25  39
ATOM     39  C   UNL A   1      42.539  21.800  26.599  1.00  0.00     0.064 A 
ATOM     40  C   UNL A   1      42.086  20.478  26.860  1.00  0.00     0.173 A 
ATOM     41  C   UNL A   1      43.468  21.932  25.560  1.00  0.00     0.173 A 
ATOM     42  F   UNL A   1      41.140  20.245  27.786  1.00  0.00    -0.203 F 
ATOM     43  C   UNL A   1      42.665  19.363  26.262  1.00  0.00     0.198 A 
ATOM     44  C   UNL A   1      44.005  20.810  24.918  1.00  0.00     0.198 A 
ATOM     45  F   UNL A   1      43.952  23.128  25.208  1.00  0.00    -0.203 F 
ATOM     46  F   UNL A   1      42.328  18.131  26.673  1.00  0.00    -0.200 F 
ATOM     47  C   UNL A   1      43.644  19.529  25.306  1.00  0.00     0.200 A 
ATOM     48  F   UNL A   1      44.941  20.975  23.974  1.00  0.00    -0.200 F 
ATOM     49  F   UNL A   1      44.267  18.463  24.785  1.00  0.00    -0.200 F 
ENDBRANCH  25  39
BRANCH  26  50
ATOM     50  C   UNL A   1      45.494  29.842  32.756  1.00  0.00     0.064 A 
ATOM     51  C   UNL A   1      46.657  30.604  32.596  1.00  0.00     0.173 A 
ATOM     52  C   UNL A   1      44.888  29.984  34.044  1.00  0.00     0.173 A 
ATOM     53  F   UNL A   1      47.408  30.488  31.498  1.00  0.00    -0.203 F 
ATOM     54  C   UNL A   1      47.092  31.517  33.582  1.00  0.00     0.198 A 
ATOM     55  C   UNL A   1      45.280  30.930  34.992  1.00  0.00     0.198 A 
ATOM     56  F   UNL A   1      43.872  29.205  34.439  1.00  0.00    -0.203 F 
ATOM     57  F   UNL A   1      48.211  32.229  33.383  1.00  0.00    -0.200 F 
ATOM     58  C   UNL A   1      46.377  31.714  34.753  1.00  0.00     0.200 A 
ATOM     59  F   UNL A   1      44.564  31.079  36.118  1.00  0.00    -0.200 F 
ATOM     60  F   UNL A   1      46.748  32.640  35.648  1.00  0.00    -0.200 F 
ENDBRANCH  26  50
BRANCH  38  61
ATOM     61  C   UNL A   1      45.874  26.239  27.913  1.00  0.00     0.064 A 
ATOM     62  C   UNL A   1      47.141  26.658  27.475  1.00  0.00     0.173 A 
ATOM     63  C   UNL A   1      44.783  26.722  27.170  1.00  0.00     0.173 A 
ATOM     64  F   UNL A   1      48.243  26.225  28.106  1.00  0.00    -0.203 F 
ATOM     65  C   UNL A   1      47.298  27.523  26.386  1.00  0.00     0.198 A 
ATOM     66  C   UNL A   1      44.934  27.584  26.081  1.00  0.00     0.198 A 
ATOM     67  F   UNL A   1      43.542  26.359  27.475  1.00  0.00    -0.203 F 
ATOM     68  F   UNL A   1      48.526  27.898  26.005  1.00  0.00    -0.200 F 
ATOM     69  C   UNL A   1      46.194  27.990  25.692  1.00  0.00     0.200 A 
ATOM     70  F   UNL A   1      43.854  28.010  25.407  1.00  0.00    -0.200 F 
ATOM     71  F   UNL A   1      46.346  28.811  24.643  1.00  0.00    -0.200 F 
ENDBRANCH  38  61
ENDBRANCH  12  13
ENDBRANCH   5   7
ENDBRANCH   2   3
ENDBRANCH   1   2
BRANCH   1  72
ATOM     72  C   UNL A   1      33.430  27.442  24.881  1.00  0.00     0.117 C 
BRANCH  72  73
ATOM     73  N   UNL A   1      33.572  27.286  23.441  1.00  0.00    -0.355 N 
ATOM     74  C   UNL A   1      33.472  26.210  22.611  1.00  0.00     0.240 C 
ATOM     75  H   UNL A   1      33.783  28.126  22.972  1.00  0.00     0.163 HD
ATOM     76  O   UNL A   1      33.746  26.412  21.421  1.00  0.00    -0.273 OA
BRANCH  74  77
ATOM     77  C   UNL A   1      33.086  24.801  23.077  1.00  0.00     0.184 C 
BRANCH  77  78
ATOM     78  C   UNL A   1      31.597  24.551  22.831  1.00  0.00     0.186 C 
BRANCH  78  79
ATOM     79  O   UNL A   1      31.261  23.169  22.820  1.00  0.00    -0.394 OA
ATOM     80  H   UNL A   1      30.875  22.924  23.676  1.00  0.00     0.210 HD
ENDBRANCH  78  79
ENDBRANCH  77  78
BRANCH  77  81
ATOM     81  N   UNL A   1      34.039  23.781  22.577  1.00  0.00    -0.196 NA
ATOM     82  H   UNL A   1      34.425  24.142  21.705  1.00  0.00     0.142 HD
BRANCH  81  83
ATOM     83  S   UNL A   1      35.341  23.309  23.520  1.00  0.00     0.242 S 
ATOM     84  O   UNL A   1      36.468  23.040  22.654  1.00  0.00    -0.207 OA
ATOM     85  O   UNL A   1      35.429  24.251  24.609  1.00  0.00    -0.207 OA
BRANCH  83  86
ATOM     86  C   UNL A   1      34.983  21.800  24.269  1.00  0.00     0.099 A 
ATOM     87  C   UNL A   1      33.702  21.196  24.349  1.00  0.00     0.041 A 
ATOM     88  C   UNL A   1      35.877  20.962  24.906  1.00  0.00     0.104 A 
ATOM     89  C   UNL A   1      33.852  20.015  25.040  1.00  0.00     0.083 A 
ATOM     90  N   UNL A   1      35.178  19.878  25.370  1.00  0.00    -0.366 N 
ATOM     91  H   UNL A   1      35.565  19.120  25.864  1.00  0.00     0.165 HD
ENDBRANCH  83  86
ENDBRANCH  81  83
ENDBRANCH  77  81
ENDBRANCH  74  77
ENDBRANCH  72  73
ENDBRANCH   1  72
TORSDOF 15
ENDMDL
MODEL 2
REMARK VINA RESULT:     -11.7      3.764      6.698
REMARK SMILES O=C(NCCCNC(=O)[C@@H](CO)NS(=O)(=O)c1cc[nH]c1)c1ccc(-c2c3nc(c(-c4c(F)c(F)c(F)c(F)c4F)c4ccc([nH]4)c(-c4c(F)c(F)c(F)c(F)c4F)c4nc(c(-c5c(F)c(F)c(F)c(F)c5F)c5ccc2[nH]5)C=C4)C=C3)cc1
REMARK SMILES IDX 5 1 4 2 3 3 1 4 2 5 22 7 23 8 84 9 24 10 83 11 25 12 26 13
REMARK SMILES IDX 27 14 77 15 28 16 82 17 76 18 78 19 29 20 81 21 75 22 74 23
REMARK SMILES IDX 30 25 62 26 42 27 61 28 43 29 46 30 60 31 79 32 44 33 45 34
REMARK SMILES IDX 59 36 80 37 47 38 31 39 32 40 40 41 33 42 34 43 38 44 41 45
REMARK SMILES IDX 35 46 36 47 39 48 37 49 63 50 64 51 72 52 65 53 66 54 70 55
REMARK SMILES IDX 73 56 67 57 68 58 71 59 69 60 48 61 49 62 57 63 50 64 51 65
REMARK SMILES IDX 55 66 58 67 52 68 53 69 56 70 54 71 6 72 7 73 8 74 9 76
REMARK SMILES IDX 10 77 11 78 12 79 13 81 14 83 15 84 16 85 17 86 18 87 21 88
REMARK SMILES IDX 19 89 20 90
REMARK H PARENT 3 6 78 24 46 35 7 75 12 80 13 82 20 91
REMARK Flexibility Score: inf
ROOT
ATOM      1  C   UNL A   1      36.826  33.107  30.010  1.00  0.00     0.042 C 
ENDROOT
BRANCH   1   2
ATOM      2  C   UNL A   1      36.994  32.768  28.531  1.00  0.00     0.118 C 
BRANCH   2   3
ATOM      3  N   UNL A   1      36.125  31.729  28.008  1.00  0.00    -0.352 N 
ATOM      4  O   UNL A   1      35.208  29.733  27.636  1.00  0.00    -0.269 OA
ATOM      5  C   UNL A   1      36.220  30.362  27.946  1.00  0.00     0.251 C 
ATOM      6  H   UNL A   1      35.293  32.079  27.616  1.00  0.00     0.163 HD
BRANCH   5   7
ATOM      7  C   UNL A   1      37.492  29.619  28.139  1.00  0.00     0.039 A 
ATOM      8  C   UNL A   1      38.571  29.670  27.257  1.00  0.00     0.014 A 
ATOM      9  C   UNL A   1      37.587  28.812  29.288  1.00  0.00     0.014 A 
ATOM     10  C   UNL A   1      39.668  28.838  27.441  1.00  0.00     0.010 A 
ATOM     11  C   UNL A   1      38.707  28.012  29.510  1.00  0.00     0.010 A 
ATOM     12  C   UNL A   1      39.743  28.020  28.573  1.00  0.00    -0.014 A 
BRANCH  12  13
ATOM     13  C   UNL A   1      41.063  27.420  28.869  1.00  0.00     0.031 A 
ATOM     14  C   UNL A   1      41.114  25.955  28.355  1.00  0.00     0.074 A 
ATOM     15  C   UNL A   1      41.951  28.188  29.574  1.00  0.00     0.049 A 
ATOM     16  N   UNL A   1      41.834  24.948  28.746  1.00  0.00    -0.248 NA
ATOM     17  C   UNL A   1      40.168  25.532  27.278  1.00  0.00     0.031 C 
ATOM     18  C   UNL A   1      41.740  29.607  29.945  1.00  0.00     0.029 A 
ATOM     19  N   UNL A   1      43.193  27.951  30.139  1.00  0.00    -0.354 N 
ATOM     20  C   UNL A   1      41.607  23.880  27.841  1.00  0.00     0.074 A 
ATOM     21  C   UNL A   1      40.482  24.256  27.047  1.00  0.00     0.031 C 
ATOM     22  C   UNL A   1      42.747  30.065  30.723  1.00  0.00     0.029 A 
ATOM     23  C   UNL A   1      43.723  29.012  30.931  1.00  0.00     0.049 A 
ATOM     24  H   UNL A   1      43.678  27.105  30.000  1.00  0.00     0.167 HD
ATOM     25  C   UNL A   1      42.463  22.822  27.708  1.00  0.00     0.037 A 
ATOM     26  C   UNL A   1      44.844  29.021  31.725  1.00  0.00     0.037 A 
ATOM     27  C   UNL A   1      43.489  22.919  28.685  1.00  0.00     0.049 A 
ATOM     28  C   UNL A   1      45.517  27.756  31.415  1.00  0.00     0.074 A 
ATOM     29  C   UNL A   1      43.487  22.730  30.041  1.00  0.00     0.029 A 
ATOM     30  N   UNL A   1      44.623  23.597  28.319  1.00  0.00    -0.354 N 
ATOM     31  N   UNL A   1      46.164  27.527  30.314  1.00  0.00    -0.248 NA
ATOM     32  C   UNL A   1      45.412  26.645  32.368  1.00  0.00     0.031 C 
ATOM     33  C   UNL A   1      44.371  23.725  30.500  1.00  0.00     0.029 A 
ATOM     34  C   UNL A   1      45.039  24.305  29.414  1.00  0.00     0.049 A 
ATOM     35  H   UNL A   1      45.057  23.579  27.435  1.00  0.00     0.167 HD
ATOM     36  C   UNL A   1      46.229  26.157  30.307  1.00  0.00     0.074 A 
ATOM     37  C   UNL A   1      46.080  25.723  31.679  1.00  0.00     0.031 C 
ATOM     38  C   UNL A   1      45.831  25.489  29.195  1.00  0.00     0.037 A 
BRANCH  25  39
ATOM     39  C   UNL A   1      42.671  21.798  26.619  1.00  0.00     0.064 A 
ATOM     40  C   UNL A   1      42.186  20.481  26.849  1.00  0.00     0.173 A 
ATOM     41  C   UNL A   1      43.627  21.928  25.606  1.00  0.00     0.173 A 
ATOM     42  F   UNL A   1      41.214  20.252  27.747  1.00  0.00    -0.203 F 
ATOM     43  C   UNL A   1      42.760  19.365  26.247  1.00  0.00     0.198 A 
ATOM     44  C   UNL A   1      44.159  20.807  24.960  1.00  0.00     0.198 A 
ATOM     45  F   UNL A   1      44.142  23.120  25.285  1.00  0.00    -0.203 F 
ATOM     46  F   UNL A   1      42.389  18.133  26.630  1.00  0.00    -0.200 F 
ATOM     47  C   UNL A   1      43.765  19.527  25.318  1.00  0.00     0.200 A 
ATOM     48  F   UNL A   1      45.122  20.968  24.042  1.00  0.00    -0.200 F 
ATOM     49  F   UNL A   1      44.381  18.457  24.797  1.00  0.00    -0.200 F 
ENDBRANCH  25  39
BRANCH  26  50
ATOM     50  C   UNL A   1      45.529  29.864  32.791  1.00  0.00     0.064 A 
ATOM     51  C   UNL A   1      45.138  29.994  34.127  1.00  0.00     0.173 A 
ATOM     52  C   UNL A   1      46.756  30.534  32.485  1.00  0.00     0.173 A 
ATOM     53  F   UNL A   1      43.955  29.532  34.545  1.00  0.00    -0.203 F 
ATOM     54  C   UNL A   1      45.961  30.620  35.089  1.00  0.00     0.198 A 
ATOM     55  C   UNL A   1      47.599  31.096  33.444  1.00  0.00     0.198 A 
ATOM     56  F   UNL A   1      47.198  30.666  31.227  1.00  0.00    -0.203 F 
ATOM     57  F   UNL A   1      45.545  30.717  36.360  1.00  0.00    -0.200 F 
ATOM     58  C   UNL A   1      47.209  31.124  34.757  1.00  0.00     0.200 A 
ATOM     59  F   UNL A   1      48.794  31.583  33.075  1.00  0.00    -0.200 F 
ATOM     60  F   UNL A   1      48.021  31.642  35.688  1.00  0.00    -0.200 F 
ENDBRANCH  26  50
BRANCH  38  61
ATOM     61  C   UNL A   1      45.919  26.306  27.916  1.00  0.00     0.064 A 
ATOM     62  C   UNL A   1      47.168  26.757  27.460  1.00  0.00     0.173 A 
ATOM     63  C   UNL A   1      44.805  26.769  27.194  1.00  0.00     0.173 A 
ATOM     64  F   UNL A   1      48.290  26.345  28.071  1.00  0.00    -0.203 F 
ATOM     65  C   UNL A   1      47.288  27.634  26.376  1.00  0.00     0.198 A 
ATOM     66  C   UNL A   1      44.918  27.643  26.109  1.00  0.00     0.198 A 
ATOM     67  F   UNL A   1      43.578  26.375  27.515  1.00  0.00    -0.203 F 
ATOM     68  F   UNL A   1      48.501  28.040  25.978  1.00  0.00    -0.200 F 
ATOM     69  C   UNL A   1      46.163  28.081  25.704  1.00  0.00     0.200 A 
ATOM     70  F   UNL A   1      43.818  28.049  25.456  1.00  0.00    -0.200 F 
ATOM     71  F   UNL A   1      46.279  28.912  24.659  1.00  0.00    -0.200 F 
ENDBRANCH  38  61
ENDBRANCH  12  13
ENDBRANCH   5   7
ENDBRANCH   2   3
ENDBRANCH   1   2
BRANCH   1  72
ATOM     72  C   UNL A   1      37.351  34.478  30.417  1.00  0.00     0.117 C 
BRANCH  72  73
ATOM     73  N   UNL A   1      37.415  34.650  31.861  1.00  0.00    -0.355 N 
ATOM     74  C   UNL A   1      36.461  34.697  32.832  1.00  0.00     0.240 C 
ATOM     75  H   UNL A   1      38.333  34.751  32.205  1.00  0.00     0.163 HD
ATOM     76  O   UNL A   1      36.859  34.949  33.976  1.00  0.00    -0.273 OA
BRANCH  74  77
ATOM     77  C   UNL A   1      34.963  34.497  32.572  1.00  0.00     0.184 C 
BRANCH  77  78
ATOM     78  C   UNL A   1      34.535  33.090  32.995  1.00  0.00     0.186 C 
BRANCH  78  79
ATOM     79  O   UNL A   1      35.633  32.201  33.152  1.00  0.00    -0.394 OA
ATOM     80  H   UNL A   1      35.967  31.943  32.279  1.00  0.00     0.210 HD
ENDBRANCH  78  79
ENDBRANCH  77  78
BRANCH  77  81
ATOM     81  N   UNL A   1      34.163  35.635  33.086  1.00  0.00    -0.196 NA
ATOM     82  H   UNL A   1      34.795  36.433  33.150  1.00  0.00     0.142 HD
BRANCH  81  83
ATOM     83  S   UNL A   1      32.809  36.159  32.252  1.00  0.00     0.242 S 
ATOM     84  O   UNL A   1      31.745  35.197  32.441  1.00  0.00    -0.207 OA
ATOM     85  O   UNL A   1      32.635  37.554  32.574  1.00  0.00    -0.207 OA
BRANCH  83  86
ATOM     86  C   UNL A   1      33.137  36.134  30.561  1.00  0.00     0.099 A 
ATOM     87  C   UNL A   1      33.358  37.270  29.742  1.00  0.00     0.041 A 
ATOM     88  C   UNL A   1      33.227  35.016  29.754  1.00  0.00     0.104 A 
ATOM     89  C   UNL A   1      33.564  36.812  28.460  1.00  0.00     0.083 A 
ATOM     90  N   UNL A   1      33.488  35.442  28.478  1.00  0.00    -0.366 N 
ATOM     91  H   UNL A   1      33.604  34.856  27.695  1.00  0.00     0.165 HD
ENDBRANCH  83  86
ENDBRANCH  81  83
ENDBRANCH  77  81
ENDBRANCH  74  77
ENDBRANCH  72  73
ENDBRANCH   1  72
TORSDOF 15
ENDMDL
MODEL 3
REMARK VINA RESULT:     -11.6      5.289     10.511
REMARK SMILES O=C(NCCCNC(=O)[C@@H](CO)NS(=O)(=O)c1cc[nH]c1)c1ccc(-c2c3nc(c(-c4c(F)c(F)c(F)c(F)c4F)c4ccc([nH]4)c(-c4c(F)c(F)c(F)c(F)c4F)c4nc(c(-c5c(F)c(F)c(F)c(F)c5F)c5ccc2[nH]5)C=C4)C=C3)cc1
REMARK SMILES IDX 5 1 4 2 3 3 1 4 2 5 22 7 23 8 84 9 24 10 83 11 25 12 26 13
REMARK SMILES IDX 27 14 77 15 28 16 82 17 76 18 78 19 29 20 81 21 75 22 74 23
REMARK SMILES IDX 30 25 62 26 42 27 61 28 43 29 46 30 60 31 79 32 44 33 45 34
REMARK SMILES IDX 59 36 80 37 47 38 31 39 32 40 40 41 33 42 34 43 38 44 41 45
REMARK SMILES IDX 35 46 36 47 39 48 37 49 63 50 64 51 72 52 65 53 66 54 70 55
REMARK SMILES IDX 73 56 67 57 68 58 71 59 69 60 48 61 49 62 57 63 50 64 51 65
REMARK SMILES IDX 55 66 58 67 52 68 53 69 56 70 54 71 6 72 7 73 8 74 9 76
REMARK SMILES IDX 10 77 11 78 12 79 13 81 14 83 15 84 16 85 17 86 18 87 21 88
REMARK SMILES IDX 19 89 20 90
REMARK H PARENT 3 6 78 24 46 35 7 75 12 80 13 82 20 91
REMARK Flexibility Score: inf
ROOT
ATOM      1  C   UNL A   1      42.660  23.550  27.292  1.00  0.00     0.042 C 
ENDROOT
BRANCH   1   2
ATOM      2  C   UNL A   1      41.692  23.929  26.173  1.00  0.00     0.118 C 
BRANCH   2   3
ATOM      3  N   UNL A   1      40.280  23.759  26.460  1.00  0.00    -0.352 N 
ATOM      4  O   UNL A   1      38.138  24.219  26.869  1.00  0.00    -0.269 OA
ATOM      5  C   UNL A   1      39.307  24.598  26.943  1.00  0.00     0.251 C 
ATOM      6  H   UNL A   1      39.950  22.852  26.267  1.00  0.00     0.163 HD
BRANCH   5   7
ATOM      7  C   UNL A   1      39.600  25.882  27.630  1.00  0.00     0.039 A 
ATOM      8  C   UNL A   1      40.229  26.970  27.025  1.00  0.00     0.014 A 
ATOM      9  C   UNL A   1      39.216  25.980  28.980  1.00  0.00     0.014 A 
ATOM     10  C   UNL A   1      40.589  28.081  27.777  1.00  0.00     0.010 A 
ATOM     11  C   UNL A   1      39.525  27.114  29.731  1.00  0.00     0.010 A 
ATOM     12  C   UNL A   1      40.225  28.159  29.126  1.00  0.00    -0.014 A 
BRANCH  12  13
ATOM     13  C   UNL A   1      40.346  29.488  29.766  1.00  0.00     0.031 A 
ATOM     14  C   UNL A   1      39.077  30.337  29.485  1.00  0.00     0.074 A 
ATOM     15  C   UNL A   1      41.526  29.764  30.406  1.00  0.00     0.049 A 
ATOM     16  N   UNL A   1      38.913  31.625  29.454  1.00  0.00    -0.248 NA
ATOM     17  C   UNL A   1      37.806  29.641  29.120  1.00  0.00     0.031 C 
ATOM     18  C   UNL A   1      42.626  28.794  30.617  1.00  0.00     0.029 A 
ATOM     19  N   UNL A   1      42.059  30.897  30.995  1.00  0.00    -0.354 N 
ATOM     20  C   UNL A   1      37.525  31.878  29.307  1.00  0.00     0.074 A 
ATOM     21  C   UNL A   1      36.920  30.628  28.977  1.00  0.00     0.031 C 
ATOM     22  C   UNL A   1      43.698  29.386  31.191  1.00  0.00     0.029 A 
ATOM     23  C   UNL A   1      43.413  30.788  31.430  1.00  0.00     0.049 A 
ATOM     24  H   UNL A   1      41.536  31.724  31.109  1.00  0.00     0.167 HD
ATOM     25  C   UNL A   1      36.950  33.078  29.620  1.00  0.00     0.037 A 
ATOM     26  C   UNL A   1      44.249  31.767  31.909  1.00  0.00     0.037 A 
ATOM     27  C   UNL A   1      37.963  34.011  29.970  1.00  0.00     0.049 A 
ATOM     28  C   UNL A   1      43.377  32.932  32.087  1.00  0.00     0.074 A 
ATOM     29  C   UNL A   1      38.901  34.670  29.223  1.00  0.00     0.029 A 
ATOM     30  N   UNL A   1      38.304  34.079  31.296  1.00  0.00    -0.354 N 
ATOM     31  N   UNL A   1      42.508  33.051  33.044  1.00  0.00    -0.248 NA
ATOM     32  C   UNL A   1      43.428  34.014  31.098  1.00  0.00     0.031 C 
ATOM     33  C   UNL A   1      40.024  34.690  30.070  1.00  0.00     0.029 A 
ATOM     34  C   UNL A   1      39.659  34.265  31.354  1.00  0.00     0.049 A 
ATOM     35  H   UNL A   1      37.690  34.008  32.062  1.00  0.00     0.167 HD
ATOM     36  C   UNL A   1      41.692  34.041  32.560  1.00  0.00     0.074 A 
ATOM     37  C   UNL A   1      42.467  34.789  31.595  1.00  0.00     0.031 C 
ATOM     38  C   UNL A   1      40.352  33.832  32.541  1.00  0.00     0.037 A 
BRANCH  25  39
ATOM     39  C   UNL A   1      35.529  33.491  29.919  1.00  0.00     0.064 A 
ATOM     40  C   UNL A   1      34.858  34.293  28.957  1.00  0.00     0.173 A 
ATOM     41  C   UNL A   1      34.976  33.489  31.204  1.00  0.00     0.173 A 
ATOM     42  F   UNL A   1      35.259  34.311  27.674  1.00  0.00    -0.203 F 
ATOM     43  C   UNL A   1      33.837  35.172  29.307  1.00  0.00     0.198 A 
ATOM     44  C   UNL A   1      33.910  34.331  31.538  1.00  0.00     0.198 A 
ATOM     45  F   UNL A   1      35.509  32.757  32.190  1.00  0.00    -0.203 F 
ATOM     46  F   UNL A   1      33.357  36.036  28.399  1.00  0.00    -0.200 F 
ATOM     47  C   UNL A   1      33.378  35.208  30.606  1.00  0.00     0.200 A 
ATOM     48  F   UNL A   1      33.451  34.349  32.797  1.00  0.00    -0.200 F 
ATOM     49  F   UNL A   1      32.455  36.108  30.971  1.00  0.00    -0.200 F 
ENDBRANCH  25  39
BRANCH  26  50
ATOM     50  C   UNL A   1      45.714  32.010  32.243  1.00  0.00     0.064 A 
ATOM     51  C   UNL A   1      46.283  32.033  33.520  1.00  0.00     0.173 A 
ATOM     52  C   UNL A   1      46.672  32.132  31.186  1.00  0.00     0.173 A 
ATOM     53  F   UNL A   1      45.515  32.054  34.613  1.00  0.00    -0.203 F 
ATOM     54  C   UNL A   1      47.682  32.045  33.714  1.00  0.00     0.198 A 
ATOM     55  C   UNL A   1      48.053  32.079  31.374  1.00  0.00     0.198 A 
ATOM     56  F   UNL A   1      46.301  32.302  29.910  1.00  0.00    -0.203 F 
ATOM     57  F   UNL A   1      48.181  32.062  34.958  1.00  0.00    -0.200 F 
ATOM     58  C   UNL A   1      48.562  32.016  32.644  1.00  0.00     0.200 A 
ATOM     59  F   UNL A   1      48.869  32.066  30.308  1.00  0.00    -0.200 F 
ATOM     60  F   UNL A   1      49.887  31.943  32.834  1.00  0.00    -0.200 F 
ENDBRANCH  26  50
BRANCH  38  61
ATOM     61  C   UNL A   1      39.868  32.816  33.564  1.00  0.00     0.064 A 
ATOM     62  C   UNL A   1      39.221  31.647  33.133  1.00  0.00     0.173 A 
ATOM     63  C   UNL A   1      39.902  33.015  34.955  1.00  0.00     0.173 A 
ATOM     64  F   UNL A   1      39.163  31.359  31.824  1.00  0.00    -0.203 F 
ATOM     65  C   UNL A   1      38.627  30.756  34.034  1.00  0.00     0.198 A 
ATOM     66  C   UNL A   1      39.313  32.129  35.859  1.00  0.00     0.198 A 
ATOM     67  F   UNL A   1      40.522  34.071  35.474  1.00  0.00    -0.203 F 
ATOM     68  F   UNL A   1      38.019  29.654  33.577  1.00  0.00    -0.200 F 
ATOM     69  C   UNL A   1      38.668  31.000  35.397  1.00  0.00     0.200 A 
ATOM     70  F   UNL A   1      39.381  32.370  37.178  1.00  0.00    -0.200 F 
ATOM     71  F   UNL A   1      38.107  30.141  36.260  1.00  0.00    -0.200 F 
ENDBRANCH  38  61
ENDBRANCH  12  13
ENDBRANCH   5   7
ENDBRANCH   2   3
ENDBRANCH   1   2
BRANCH   1  72
ATOM     72  C   UNL A   1      42.950  22.059  27.412  1.00  0.00     0.117 C 
BRANCH  72  73
ATOM     73  N   UNL A   1      41.919  21.235  26.799  1.00  0.00    -0.355 N 
ATOM     74  C   UNL A   1      41.947  20.014  26.193  1.00  0.00     0.240 C 
ATOM     75  H   UNL A   1      41.022  21.640  26.828  1.00  0.00     0.163 HD
ATOM     76  O   UNL A   1      40.884  19.631  25.690  1.00  0.00    -0.273 OA
BRANCH  74  77
ATOM     77  C   UNL A   1      43.204  19.143  26.077  1.00  0.00     0.184 C 
BRANCH  77  78
ATOM     78  C   UNL A   1      43.160  18.011  27.107  1.00  0.00     0.186 C 
BRANCH  78  79
ATOM     79  O   UNL A   1      42.419  18.351  28.272  1.00  0.00    -0.394 OA
ATOM     80  H   UNL A   1      41.488  18.109  28.144  1.00  0.00     0.210 HD
ENDBRANCH  78  79
ENDBRANCH  77  78
BRANCH  77  81
ATOM     81  N   UNL A   1      43.482  18.771  24.669  1.00  0.00    -0.196 NA
ATOM     82  H   UNL A   1      42.690  19.100  24.116  1.00  0.00     0.142 HD
BRANCH  81  83
ATOM     83  S   UNL A   1      44.865  19.329  23.908  1.00  0.00     0.242 S 
ATOM     84  O   UNL A   1      46.009  18.632  24.453  1.00  0.00    -0.207 OA
ATOM     85  O   UNL A   1      44.587  19.338  22.492  1.00  0.00    -0.207 OA
BRANCH  83  86
ATOM     86  C   UNL A   1      45.113  20.984  24.319  1.00  0.00     0.099 A 
ATOM     87  C   UNL A   1      46.063  21.473  25.251  1.00  0.00     0.041 A 
ATOM     88  C   UNL A   1      44.427  22.072  23.816  1.00  0.00     0.104 A 
ATOM     89  C   UNL A   1      45.920  22.841  25.296  1.00  0.00     0.083 A 
ATOM     90  N   UNL A   1      44.927  23.197  24.417  1.00  0.00    -0.366 N 
ATOM     91  H   UNL A   1      44.623  24.117  24.245  1.00  0.00     0.165 HD
ENDBRANCH  83  86
ENDBRANCH  81  83
ENDBRANCH  77  81
ENDBRANCH  74  77
ENDBRANCH  72  73
ENDBRANCH   1  72
TORSDOF 15
ENDMDL
