MODEL 1
REMARK VINA RESULT:     -11.3      0.000      0.000
REMARK SMILES CC(C)C[C@H](CNc1cccc(F)c1C#N)CC(=O)NCCCNC(=O)c1ccc(-c2c3nc(c(-c4c(F)c(F)c(F)c(F)c4F)c4ccc([nH]4)c(-c4c(F)c(F)c(F)c(F)c4F)c4nc(c(-c5c(F)c(F)c(F)c(F)c5F)c5ccc2[nH]5)C=C4)C=C3)cc1
REMARK SMILES IDX 18 1 19 2 20 3 17 5 5 6 4 7 2 8 1 9 3 10 6 11 7 12 8 14 9 15
REMARK SMILES IDX 14 16 10 17 12 18 11 19 13 20 15 21 16 22 21 23 22 24 23 25
REMARK SMILES IDX 24 26 25 27 26 29 27 30 28 31 89 32 29 33 88 34 30 35 31 36
REMARK SMILES IDX 32 37 82 38 33 39 87 40 81 41 83 42 34 43 86 44 80 45 79 46
REMARK SMILES IDX 35 48 67 49 47 50 66 51 48 52 51 53 65 54 84 55 49 56 50 57
REMARK SMILES IDX 64 59 85 60 52 61 36 62 37 63 45 64 38 65 39 66 43 67 46 68
REMARK SMILES IDX 40 69 41 70 44 71 42 72 68 73 69 74 77 75 70 76 71 77 75 78
REMARK SMILES IDX 78 79 72 80 73 81 76 82 74 83 53 84 54 85 62 86 55 87 56 88
REMARK SMILES IDX 60 89 63 90 57 91 58 92 61 93 59 94
REMARK H PARENT 20 4 7 13 24 28 83 47 51 58
REMARK Flexibility Score: inf
ROOT
ATOM      1  C   UNL A   1      32.707  28.986  26.712  1.00  0.00     0.220 C 
ATOM      2  O   UNL A   1      32.878  28.260  27.695  1.00  0.00    -0.275 OA
ATOM      3  N   UNL A   1      31.822  30.010  26.840  1.00  0.00    -0.356 N 
ATOM      4  H   UNL A   1      31.438  30.104  27.743  1.00  0.00     0.163 HD
ENDROOT
BRANCH   1   5
ATOM      5  C   UNL A   1      33.506  28.752  25.438  1.00  0.00     0.105 C 
BRANCH   5   6
ATOM      6  C   UNL A   1      32.754  28.007  24.312  1.00  0.00     0.018 C 
BRANCH   6   7
ATOM      7  C   UNL A   1      33.245  26.548  24.088  1.00  0.00     0.009 C 
BRANCH   7   8
ATOM      8  C   UNL A   1      33.760  25.777  25.323  1.00  0.00    -0.017 C 
ATOM      9  C   UNL A   1      32.608  25.121  26.084  1.00  0.00     0.007 C 
ATOM     10  C   UNL A   1      34.778  24.711  24.901  1.00  0.00     0.007 C 
ENDBRANCH   7   8
ENDBRANCH   6   7
BRANCH   6  11
ATOM     11  C   UNL A   1      32.674  28.728  22.950  1.00  0.00     0.117 C 
BRANCH  11  12
ATOM     12  N   UNL A   1      31.496  28.352  22.191  1.00  0.00    -0.384 N 
ATOM     13  H   UNL A   1      31.622  27.693  21.472  1.00  0.00     0.160 HD
BRANCH  12  14
ATOM     14  C   UNL A   1      30.211  28.831  22.383  1.00  0.00     0.055 A 
ATOM     15  C   UNL A   1      29.933  30.077  21.779  1.00  0.00     0.027 A 
ATOM     16  C   UNL A   1      29.165  28.186  23.063  1.00  0.00     0.111 A 
ATOM     17  C   UNL A   1      28.672  30.665  21.835  1.00  0.00     0.005 A 
ATOM     18  C   UNL A   1      27.905  28.794  23.126  1.00  0.00     0.143 A 
ATOM     19  C   UNL A   1      27.651  30.018  22.514  1.00  0.00     0.041 A 
ATOM     20  F   UNL A   1      26.903  28.202  23.794  1.00  0.00    -0.205 F 
BRANCH  16  21
ATOM     21  C   UNL A   1      29.333  26.952  23.766  1.00  0.00     0.104 C 
ATOM     22  N   UNL A   1      29.484  25.952  24.344  1.00  0.00    -0.192 NA
ENDBRANCH  16  21
ENDBRANCH  12  14
ENDBRANCH  11  12
ENDBRANCH   6  11
ENDBRANCH   5   6
ENDBRANCH   1   5
BRANCH   3  23
ATOM     23  C   UNL A   1      31.342  30.990  25.883  1.00  0.00     0.117 C 
BRANCH  23  24
ATOM     24  C   UNL A   1      31.303  32.385  26.497  1.00  0.00     0.042 C 
BRANCH  24  25
ATOM     25  C   UNL A   1      32.569  32.808  27.218  1.00  0.00     0.118 C 
BRANCH  25  26
ATOM     26  N   UNL A   1      32.519  34.193  27.653  1.00  0.00    -0.352 N 
ATOM     27  C   UNL A   1      33.156  34.814  28.700  1.00  0.00     0.251 C 
ATOM     28  H   UNL A   1      31.937  34.776  27.114  1.00  0.00     0.163 HD
ATOM     29  O   UNL A   1      32.778  35.931  29.047  1.00  0.00    -0.269 OA
BRANCH  27  30
ATOM     30  C   UNL A   1      34.282  34.165  29.421  1.00  0.00     0.039 A 
ATOM     31  C   UNL A   1      35.590  34.430  28.999  1.00  0.00     0.014 A 
ATOM     32  C   UNL A   1      34.073  33.260  30.462  1.00  0.00     0.014 A 
ATOM     33  C   UNL A   1      36.672  33.826  29.648  1.00  0.00     0.010 A 
ATOM     34  C   UNL A   1      35.151  32.751  31.182  1.00  0.00     0.010 A 
ATOM     35  C   UNL A   1      36.465  33.004  30.767  1.00  0.00    -0.014 A 
BRANCH  35  36
ATOM     36  C   UNL A   1      37.602  32.375  31.489  1.00  0.00     0.031 A 
ATOM     37  C   UNL A   1      38.339  31.212  30.877  1.00  0.00     0.074 A 
ATOM     38  C   UNL A   1      37.949  32.821  32.712  1.00  0.00     0.049 A 
ATOM     39  N   UNL A   1      39.320  30.496  31.369  1.00  0.00    -0.248 NA
ATOM     40  C   UNL A   1      37.897  30.774  29.542  1.00  0.00     0.031 C 
ATOM     41  C   UNL A   1      37.289  33.911  33.432  1.00  0.00     0.029 A 
ATOM     42  N   UNL A   1      38.938  32.409  33.570  1.00  0.00    -0.354 N 
ATOM     43  C   UNL A   1      39.599  29.526  30.414  1.00  0.00     0.074 A 
ATOM     44  C   UNL A   1      38.642  29.698  29.345  1.00  0.00     0.031 C 
ATOM     45  C   UNL A   1      37.914  34.107  34.603  1.00  0.00     0.029 A 
ATOM     46  C   UNL A   1      38.981  33.121  34.745  1.00  0.00     0.049 A 
ATOM     47  H   UNL A   1      39.559  31.673  33.364  1.00  0.00     0.167 HD
ATOM     48  C   UNL A   1      40.583  28.595  30.414  1.00  0.00     0.037 A 
ATOM     49  C   UNL A   1      39.780  32.984  35.820  1.00  0.00     0.037 A 
ATOM     50  C   UNL A   1      41.540  28.434  31.477  1.00  0.00     0.049 A 
ATOM     51  C   UNL A   1      40.837  31.910  35.814  1.00  0.00     0.074 A 
ATOM     52  C   UNL A   1      42.601  27.550  31.557  1.00  0.00     0.029 A 
ATOM     53  N   UNL A   1      41.545  29.170  32.654  1.00  0.00    -0.354 N 
ATOM     54  N   UNL A   1      41.135  31.043  34.876  1.00  0.00    -0.248 NA
ATOM     55  C   UNL A   1      41.673  31.800  37.016  1.00  0.00     0.031 C 
ATOM     56  C   UNL A   1      43.204  27.701  32.809  1.00  0.00     0.029 A 
ATOM     57  C   UNL A   1      42.572  28.737  33.478  1.00  0.00     0.049 A 
ATOM     58  H   UNL A   1      40.913  29.893  32.871  1.00  0.00     0.167 HD
ATOM     59  C   UNL A   1      42.212  30.312  35.359  1.00  0.00     0.074 A 
ATOM     60  C   UNL A   1      42.527  30.850  36.666  1.00  0.00     0.031 C 
ATOM     61  C   UNL A   1      42.882  29.289  34.773  1.00  0.00     0.037 A 
BRANCH  48  62
ATOM     62  C   UNL A   1      40.673  27.674  29.228  1.00  0.00     0.064 A 
ATOM     63  C   UNL A   1      41.621  27.866  28.211  1.00  0.00     0.173 A 
ATOM     64  C   UNL A   1      39.823  26.561  29.124  1.00  0.00     0.173 A 
ATOM     65  F   UNL A   1      42.454  28.917  28.254  1.00  0.00    -0.203 F 
ATOM     66  C   UNL A   1      41.690  27.004  27.119  1.00  0.00     0.198 A 
ATOM     67  C   UNL A   1      39.921  25.679  28.052  1.00  0.00     0.198 A 
ATOM     68  F   UNL A   1      38.902  26.321  30.070  1.00  0.00    -0.203 F 
ATOM     69  F   UNL A   1      42.564  27.245  26.132  1.00  0.00    -0.200 F 
ATOM     70  C   UNL A   1      40.847  25.907  27.045  1.00  0.00     0.200 A 
ATOM     71  F   UNL A   1      39.118  24.608  27.991  1.00  0.00    -0.200 F 
ATOM     72  F   UNL A   1      40.920  25.072  25.999  1.00  0.00    -0.200 F 
ENDBRANCH  48  62
BRANCH  49  73
ATOM     73  C   UNL A   1      39.625  33.892  36.989  1.00  0.00     0.064 A 
ATOM     74  C   UNL A   1      38.840  33.522  38.092  1.00  0.00     0.173 A 
ATOM     75  C   UNL A   1      40.232  35.156  37.019  1.00  0.00     0.173 A 
ATOM     76  F   UNL A   1      38.220  32.333  38.103  1.00  0.00    -0.203 F 
ATOM     77  C   UNL A   1      38.643  34.393  39.161  1.00  0.00     0.198 A 
ATOM     78  C   UNL A   1      40.065  36.011  38.107  1.00  0.00     0.198 A 
ATOM     79  F   UNL A   1      40.993  35.562  35.992  1.00  0.00    -0.203 F 
ATOM     80  F   UNL A   1      37.835  34.039  40.170  1.00  0.00    -0.200 F 
ATOM     81  C   UNL A   1      39.261  35.634  39.171  1.00  0.00     0.200 A 
ATOM     82  F   UNL A   1      40.676  37.203  38.119  1.00  0.00    -0.200 F 
ATOM     83  F   UNL A   1      39.069  36.472  40.199  1.00  0.00    -0.200 F 
ENDBRANCH  49  73
BRANCH  61  84
ATOM     84  C   UNL A   1      44.057  28.715  35.514  1.00  0.00     0.064 A 
ATOM     85  C   UNL A   1      45.357  29.217  35.352  1.00  0.00     0.173 A 
ATOM     86  C   UNL A   1      43.870  27.668  36.431  1.00  0.00     0.173 A 
ATOM     87  F   UNL A   1      45.595  30.208  34.480  1.00  0.00    -0.203 F 
ATOM     88  C   UNL A   1      46.429  28.670  36.053  1.00  0.00     0.198 A 
ATOM     89  C   UNL A   1      44.936  27.151  37.160  1.00  0.00     0.198 A 
ATOM     90  F   UNL A   1      42.647  27.155  36.633  1.00  0.00    -0.203 F 
ATOM     91  F   UNL A   1      47.671  29.125  35.837  1.00  0.00    -0.200 F 
ATOM     92  C   UNL A   1      46.217  27.644  36.963  1.00  0.00     0.200 A 
ATOM     93  F   UNL A   1      44.725  26.176  38.054  1.00  0.00    -0.200 F 
ATOM     94  F   UNL A   1      47.248  27.127  37.645  1.00  0.00    -0.200 F 
ENDBRANCH  61  84
ENDBRANCH  35  36
ENDBRANCH  27  30
ENDBRANCH  25  26
ENDBRANCH  24  25
ENDBRANCH  23  24
ENDBRANCH   3  23
TORSDOF 17
ENDMDL
MODEL 2
REMARK VINA RESULT:     -11.2      6.227     11.473
REMARK SMILES CC(C)C[C@H](CNc1cccc(F)c1C#N)CC(=O)NCCCNC(=O)c1ccc(-c2c3nc(c(-c4c(F)c(F)c(F)c(F)c4F)c4ccc([nH]4)c(-c4c(F)c(F)c(F)c(F)c4F)c4nc(c(-c5c(F)c(F)c(F)c(F)c5F)c5ccc2[nH]5)C=C4)C=C3)cc1
REMARK SMILES IDX 18 1 19 2 20 3 17 5 5 6 4 7 2 8 1 9 3 10 6 11 7 12 8 14 9 15
REMARK SMILES IDX 14 16 10 17 12 18 11 19 13 20 15 21 16 22 21 23 22 24 23 25
REMARK SMILES IDX 24 26 25 27 26 29 27 30 28 31 89 32 29 33 88 34 30 35 31 36
REMARK SMILES IDX 32 37 82 38 33 39 87 40 81 41 83 42 34 43 86 44 80 45 79 46
REMARK SMILES IDX 35 48 67 49 47 50 66 51 48 52 51 53 65 54 84 55 49 56 50 57
REMARK SMILES IDX 64 59 85 60 52 61 36 62 37 63 45 64 38 65 39 66 43 67 46 68
REMARK SMILES IDX 40 69 41 70 44 71 42 72 68 73 69 74 77 75 70 76 71 77 75 78
REMARK SMILES IDX 78 79 72 80 73 81 76 82 74 83 53 84 54 85 62 86 55 87 56 88
REMARK SMILES IDX 60 89 63 90 57 91 58 92 61 93 59 94
REMARK H PARENT 20 4 7 13 24 28 83 47 51 58
REMARK Flexibility Score: inf
ROOT
ATOM      1  C   UNL A   1      46.061  22.307  25.585  1.00  0.00     0.220 C 
ATOM      2  O   UNL A   1      46.409  22.719  26.694  1.00  0.00    -0.275 OA
ATOM      3  N   UNL A   1      45.386  21.127  25.543  1.00  0.00    -0.356 N 
ATOM      4  H   UNL A   1      45.192  20.739  26.427  1.00  0.00     0.163 HD
ENDROOT
BRANCH   1   5
ATOM      5  C   UNL A   1      46.344  23.130  24.337  1.00  0.00     0.105 C 
BRANCH   5   6
ATOM      6  C   UNL A   1      46.266  24.663  24.522  1.00  0.00     0.018 C 
BRANCH   6   7
ATOM      7  C   UNL A   1      47.477  25.265  25.289  1.00  0.00     0.009 C 
BRANCH   7   8
ATOM      8  C   UNL A   1      48.596  25.915  24.447  1.00  0.00    -0.017 C 
ATOM      9  C   UNL A   1      48.164  27.281  23.914  1.00  0.00     0.007 C 
ATOM     10  C   UNL A   1      49.875  26.063  25.281  1.00  0.00     0.007 C 
ENDBRANCH   7   8
ENDBRANCH   6   7
BRANCH   6  11
ATOM     11  C   UNL A   1      44.958  25.212  25.129  1.00  0.00     0.117 C 
BRANCH  11  12
ATOM     12  N   UNL A   1      45.145  26.494  25.782  1.00  0.00    -0.384 N 
ATOM     13  H   UNL A   1      46.044  26.688  26.131  1.00  0.00     0.160 HD
BRANCH  12  14
ATOM     14  C   UNL A   1      44.180  27.471  25.961  1.00  0.00     0.055 A 
ATOM     15  C   UNL A   1      42.915  27.182  25.403  1.00  0.00     0.027 A 
ATOM     16  C   UNL A   1      44.321  28.673  26.673  1.00  0.00     0.111 A 
ATOM     17  C   UNL A   1      41.827  28.038  25.546  1.00  0.00     0.005 A 
ATOM     18  C   UNL A   1      43.224  29.534  26.797  1.00  0.00     0.143 A 
ATOM     19  C   UNL A   1      41.984  29.224  26.247  1.00  0.00     0.041 A 
ATOM     20  F   UNL A   1      43.350  30.698  27.452  1.00  0.00    -0.205 F 
BRANCH  16  21
ATOM     21  C   UNL A   1      45.562  29.109  27.234  1.00  0.00     0.104 C 
ATOM     22  N   UNL A   1      46.578  29.448  27.691  1.00  0.00    -0.192 NA
ENDBRANCH  16  21
ENDBRANCH  12  14
ENDBRANCH  11  12
ENDBRANCH   6  11
ENDBRANCH   5   6
ENDBRANCH   1   5
BRANCH   3  23
ATOM     23  C   UNL A   1      44.902  20.337  24.425  1.00  0.00     0.117 C 
BRANCH  23  24
ATOM     24  C   UNL A   1      44.547  18.922  24.866  1.00  0.00     0.042 C 
BRANCH  24  25
ATOM     25  C   UNL A   1      43.641  18.832  26.080  1.00  0.00     0.118 C 
BRANCH  25  26
ATOM     26  N   UNL A   1      42.235  18.837  25.718  1.00  0.00    -0.352 N 
ATOM     27  C   UNL A   1      41.242  19.731  26.042  1.00  0.00     0.251 C 
ATOM     28  H   UNL A   1      41.948  18.083  25.154  1.00  0.00     0.163 HD
ATOM     29  O   UNL A   1      40.071  19.414  25.847  1.00  0.00    -0.269 OA
BRANCH  27  30
ATOM     30  C   UNL A   1      41.554  21.062  26.624  1.00  0.00     0.039 A 
ATOM     31  C   UNL A   1      41.433  21.234  28.008  1.00  0.00     0.014 A 
ATOM     32  C   UNL A   1      41.905  22.155  25.830  1.00  0.00     0.014 A 
ATOM     33  C   UNL A   1      41.706  22.478  28.587  1.00  0.00     0.010 A 
ATOM     34  C   UNL A   1      42.290  23.359  26.417  1.00  0.00     0.010 A 
ATOM     35  C   UNL A   1      42.168  23.545  27.800  1.00  0.00    -0.014 A 
BRANCH  35  36
ATOM     36  C   UNL A   1      42.492  24.867  28.399  1.00  0.00     0.031 A 
ATOM     37  C   UNL A   1      43.884  25.151  28.901  1.00  0.00     0.074 A 
ATOM     38  C   UNL A   1      41.528  25.798  28.531  1.00  0.00     0.049 A 
ATOM     39  N   UNL A   1      44.352  26.219  29.500  1.00  0.00    -0.248 NA
ATOM     40  C   UNL A   1      44.882  24.081  28.732  1.00  0.00     0.031 C 
ATOM     41  C   UNL A   1      40.131  25.631  28.124  1.00  0.00     0.029 A 
ATOM     42  N   UNL A   1      41.572  27.069  29.049  1.00  0.00    -0.354 N 
ATOM     43  C   UNL A   1      45.683  25.944  29.785  1.00  0.00     0.074 A 
ATOM     44  C   UNL A   1      45.933  24.585  29.359  1.00  0.00     0.031 C 
ATOM     45  C   UNL A   1      39.462  26.768  28.371  1.00  0.00     0.029 A 
ATOM     46  C   UNL A   1      40.364  27.723  29.007  1.00  0.00     0.049 A 
ATOM     47  H   UNL A   1      42.391  27.474  29.415  1.00  0.00     0.167 HD
ATOM     48  C   UNL A   1      46.621  26.758  30.326  1.00  0.00     0.037 A 
ATOM     49  C   UNL A   1      40.021  28.949  29.445  1.00  0.00     0.037 A 
ATOM     50  C   UNL A   1      46.367  28.113  30.740  1.00  0.00     0.049 A 
ATOM     51  C   UNL A   1      41.071  29.818  30.086  1.00  0.00     0.074 A 
ATOM     52  C   UNL A   1      47.256  29.036  31.262  1.00  0.00     0.029 A 
ATOM     53  N   UNL A   1      45.129  28.737  30.689  1.00  0.00    -0.354 N 
ATOM     54  N   UNL A   1      42.343  29.571  30.288  1.00  0.00    -0.248 NA
ATOM     55  C   UNL A   1      40.638  31.141  30.555  1.00  0.00     0.031 C 
ATOM     56  C   UNL A   1      46.543  30.192  31.591  1.00  0.00     0.029 A 
ATOM     57  C   UNL A   1      45.225  30.022  31.199  1.00  0.00     0.049 A 
ATOM     58  H   UNL A   1      44.303  28.328  30.341  1.00  0.00     0.167 HD
ATOM     59  C   UNL A   1      42.867  30.717  30.872  1.00  0.00     0.074 A 
ATOM     60  C   UNL A   1      41.779  31.667  30.974  1.00  0.00     0.031 C 
ATOM     61  C   UNL A   1      44.136  30.963  31.285  1.00  0.00     0.037 A 
BRANCH  48  62
ATOM     62  C   UNL A   1      48.007  26.204  30.505  1.00  0.00     0.064 A 
ATOM     63  C   UNL A   1      48.969  26.270  29.485  1.00  0.00     0.173 A 
ATOM     64  C   UNL A   1      48.394  25.632  31.728  1.00  0.00     0.173 A 
ATOM     65  F   UNL A   1      48.653  26.799  28.292  1.00  0.00    -0.203 F 
ATOM     66  C   UNL A   1      50.248  25.752  29.666  1.00  0.00     0.198 A 
ATOM     67  C   UNL A   1      49.686  25.151  31.920  1.00  0.00     0.198 A 
ATOM     68  F   UNL A   1      47.521  25.549  32.743  1.00  0.00    -0.203 F 
ATOM     69  F   UNL A   1      51.128  25.772  28.656  1.00  0.00    -0.200 F 
ATOM     70  C   UNL A   1      50.609  25.201  30.887  1.00  0.00     0.200 A 
ATOM     71  F   UNL A   1      50.038  24.636  33.106  1.00  0.00    -0.200 F 
ATOM     72  F   UNL A   1      51.843  24.711  31.065  1.00  0.00    -0.200 F 
ENDBRANCH  48  62
BRANCH  49  73
ATOM     73  C   UNL A   1      38.624  29.437  29.286  1.00  0.00     0.064 A 
ATOM     74  C   UNL A   1      37.784  29.603  30.397  1.00  0.00     0.173 A 
ATOM     75  C   UNL A   1      38.089  29.721  28.020  1.00  0.00     0.173 A 
ATOM     76  F   UNL A   1      38.240  29.323  31.628  1.00  0.00    -0.203 F 
ATOM     77  C   UNL A   1      36.458  30.001  30.246  1.00  0.00     0.198 A 
ATOM     78  C   UNL A   1      36.773  30.158  27.874  1.00  0.00     0.198 A 
ATOM     79  F   UNL A   1      38.846  29.581  26.922  1.00  0.00    -0.203 F 
ATOM     80  F   UNL A   1      35.660  30.087  31.320  1.00  0.00    -0.200 F 
ATOM     81  C   UNL A   1      35.955  30.285  28.986  1.00  0.00     0.200 A 
ATOM     82  F   UNL A   1      36.296  30.445  26.656  1.00  0.00    -0.200 F 
ATOM     83  F   UNL A   1      34.678  30.666  28.841  1.00  0.00    -0.200 F 
ENDBRANCH  49  73
BRANCH  61  84
ATOM     84  C   UNL A   1      44.433  32.328  31.837  1.00  0.00     0.064 A 
ATOM     85  C   UNL A   1      44.832  33.393  31.015  1.00  0.00     0.173 A 
ATOM     86  C   UNL A   1      44.279  32.584  33.210  1.00  0.00     0.173 A 
ATOM     87  F   UNL A   1      45.007  33.203  29.699  1.00  0.00    -0.203 F 
ATOM     88  C   UNL A   1      45.098  34.651  31.551  1.00  0.00     0.198 A 
ATOM     89  C   UNL A   1      44.506  33.851  33.735  1.00  0.00     0.198 A 
ATOM     90  F   UNL A   1      43.891  31.605  34.040  1.00  0.00    -0.203 F 
ATOM     91  F   UNL A   1      45.537  35.636  30.756  1.00  0.00    -0.200 F 
ATOM     92  C   UNL A   1      44.926  34.882  32.908  1.00  0.00     0.200 A 
ATOM     93  F   UNL A   1      44.318  34.077  35.042  1.00  0.00    -0.200 F 
ATOM     94  F   UNL A   1      45.173  36.095  33.420  1.00  0.00    -0.200 F 
ENDBRANCH  61  84
ENDBRANCH  35  36
ENDBRANCH  27  30
ENDBRANCH  25  26
ENDBRANCH  24  25
ENDBRANCH  23  24
ENDBRANCH   3  23
TORSDOF 17
ENDMDL
MODEL 3
REMARK VINA RESULT:     -11.2      0.786      7.454
REMARK SMILES CC(C)C[C@H](CNc1cccc(F)c1C#N)CC(=O)NCCCNC(=O)c1ccc(-c2c3nc(c(-c4c(F)c(F)c(F)c(F)c4F)c4ccc([nH]4)c(-c4c(F)c(F)c(F)c(F)c4F)c4nc(c(-c5c(F)c(F)c(F)c(F)c5F)c5ccc2[nH]5)C=C4)C=C3)cc1
REMARK SMILES IDX 18 1 19 2 20 3 17 5 5 6 4 7 2 8 1 9 3 10 6 11 7 12 8 14 9 15
REMARK SMILES IDX 14 16 10 17 12 18 11 19 13 20 15 21 16 22 21 23 22 24 23 25
REMARK SMILES IDX 24 26 25 27 26 29 27 30 28 31 89 32 29 33 88 34 30 35 31 36
REMARK SMILES IDX 32 37 82 38 33 39 87 40 81 41 83 42 34 43 86 44 80 45 79 46
REMARK SMILES IDX 35 48 67 49 47 50 66 51 48 52 51 53 65 54 84 55 49 56 50 57
REMARK SMILES IDX 64 59 85 60 52 61 36 62 37 63 45 64 38 65 39 66 43 67 46 68
REMARK SMILES IDX 40 69 41 70 44 71 42 72 68 73 69 74 77 75 70 76 71 77 75 78
REMARK SMILES IDX 78 79 72 80 73 81 76 82 74 83 53 84 54 85 62 86 55 87 56 88
REMARK SMILES IDX 60 89 63 90 57 91 58 92 61 93 59 94
REMARK H PARENT 20 4 7 13 24 28 83 47 51 58
REMARK Flexibility Score: inf
ROOT
ATOM      1  C   UNL A   1      32.889  29.040  26.557  1.00  0.00     0.220 C 
ATOM      2  O   UNL A   1      33.205  28.352  27.531  1.00  0.00    -0.275 OA
ATOM      3  N   UNL A   1      31.902  29.957  26.735  1.00  0.00    -0.356 N 
ATOM      4  H   UNL A   1      31.569  30.019  27.661  1.00  0.00     0.163 HD
ENDROOT
BRANCH   1   5
ATOM      5  C   UNL A   1      33.626  28.880  25.234  1.00  0.00     0.105 C 
BRANCH   5   6
ATOM      6  C   UNL A   1      32.893  28.039  24.165  1.00  0.00     0.018 C 
BRANCH   6   7
ATOM      7  C   UNL A   1      33.518  26.633  23.935  1.00  0.00     0.009 C 
BRANCH   7   8
ATOM      8  C   UNL A   1      33.882  25.807  25.188  1.00  0.00    -0.017 C 
ATOM      9  C   UNL A   1      32.631  25.232  25.852  1.00  0.00     0.007 C 
ATOM     10  C   UNL A   1      34.843  24.671  24.818  1.00  0.00     0.007 C 
ENDBRANCH   7   8
ENDBRANCH   6   7
BRANCH   6  11
ATOM     11  C   UNL A   1      32.664  28.720  22.799  1.00  0.00     0.117 C 
BRANCH  11  12
ATOM     12  N   UNL A   1      31.448  28.267  22.150  1.00  0.00    -0.384 N 
ATOM     13  H   UNL A   1      31.536  27.527  21.507  1.00  0.00     0.160 HD
BRANCH  12  14
ATOM     14  C   UNL A   1      30.175  28.773  22.351  1.00  0.00     0.055 A 
ATOM     15  C   UNL A   1      29.926  30.035  21.768  1.00  0.00     0.027 A 
ATOM     16  C   UNL A   1      29.114  28.142  23.022  1.00  0.00     0.111 A 
ATOM     17  C   UNL A   1      28.679  30.651  21.834  1.00  0.00     0.005 A 
ATOM     18  C   UNL A   1      27.869  28.778  23.096  1.00  0.00     0.143 A 
ATOM     19  C   UNL A   1      27.644  30.018  22.504  1.00  0.00     0.041 A 
ATOM     20  F   UNL A   1      26.853  28.200  23.755  1.00  0.00    -0.205 F 
BRANCH  16  21
ATOM     21  C   UNL A   1      29.252  26.893  23.704  1.00  0.00     0.104 C 
ATOM     22  N   UNL A   1      29.372  25.884  24.273  1.00  0.00    -0.192 NA
ENDBRANCH  16  21
ENDBRANCH  12  14
ENDBRANCH  11  12
ENDBRANCH   6  11
ENDBRANCH   5   6
ENDBRANCH   1   5
BRANCH   3  23
ATOM     23  C   UNL A   1      31.251  30.861  25.804  1.00  0.00     0.117 C 
BRANCH  23  24
ATOM     24  C   UNL A   1      31.282  32.295  26.320  1.00  0.00     0.042 C 
BRANCH  24  25
ATOM     25  C   UNL A   1      32.353  32.587  27.354  1.00  0.00     0.118 C 
BRANCH  25  26
ATOM     26  N   UNL A   1      32.464  34.004  27.648  1.00  0.00    -0.352 N 
ATOM     27  C   UNL A   1      33.281  34.661  28.536  1.00  0.00     0.251 C 
ATOM     28  H   UNL A   1      31.859  34.584  27.132  1.00  0.00     0.163 HD
ATOM     29  O   UNL A   1      33.037  35.834  28.814  1.00  0.00    -0.269 OA
BRANCH  27  30
ATOM     30  C   UNL A   1      34.444  33.987  29.169  1.00  0.00     0.039 A 
ATOM     31  C   UNL A   1      34.207  33.028  30.160  1.00  0.00     0.014 A 
ATOM     32  C   UNL A   1      35.761  34.321  28.846  1.00  0.00     0.014 A 
ATOM     33  C   UNL A   1      35.279  32.384  30.785  1.00  0.00     0.010 A 
ATOM     34  C   UNL A   1      36.824  33.598  29.383  1.00  0.00     0.010 A 
ATOM     35  C   UNL A   1      36.599  32.639  30.380  1.00  0.00    -0.014 A 
BRANCH  35  36
ATOM     36  C   UNL A   1      37.752  31.944  31.010  1.00  0.00     0.031 A 
ATOM     37  C   UNL A   1      38.201  32.324  32.397  1.00  0.00     0.074 A 
ATOM     38  C   UNL A   1      38.425  31.001  30.322  1.00  0.00     0.049 A 
ATOM     39  N   UNL A   1      39.213  31.874  33.098  1.00  0.00    -0.248 NA
ATOM     40  C   UNL A   1      37.424  33.371  33.083  1.00  0.00     0.031 C 
ATOM     41  C   UNL A   1      38.118  30.572  28.956  1.00  0.00     0.029 A 
ATOM     42  N   UNL A   1      39.509  30.235  30.673  1.00  0.00    -0.354 N 
ATOM     43  C   UNL A   1      39.198  32.587  34.290  1.00  0.00     0.074 A 
ATOM     44  C   UNL A   1      38.122  33.547  34.194  1.00  0.00     0.031 C 
ATOM     45  C   UNL A   1      38.966  29.596  28.600  1.00  0.00     0.029 A 
ATOM     46  C   UNL A   1      39.914  29.368  29.687  1.00  0.00     0.049 A 
ATOM     47  H   UNL A   1      39.954  30.300  31.549  1.00  0.00     0.167 HD
ATOM     48  C   UNL A   1      39.989  32.435  35.379  1.00  0.00     0.037 A 
ATOM     49  C   UNL A   1      40.942  28.499  29.658  1.00  0.00     0.037 A 
ATOM     50  C   UNL A   1      41.054  31.471  35.472  1.00  0.00     0.049 A 
ATOM     51  C   UNL A   1      41.836  28.383  30.864  1.00  0.00     0.074 A 
ATOM     52  C   UNL A   1      41.888  31.208  36.544  1.00  0.00     0.029 A 
ATOM     53  N   UNL A   1      41.438  30.616  34.449  1.00  0.00    -0.354 N 
ATOM     54  N   UNL A   1      41.770  29.014  32.012  1.00  0.00    -0.248 NA
ATOM     55  C   UNL A   1      42.948  27.427  30.773  1.00  0.00     0.031 C 
ATOM     56  C   UNL A   1      42.821  30.246  36.147  1.00  0.00     0.029 A 
ATOM     57  C   UNL A   1      42.518  29.848  34.855  1.00  0.00     0.049 A 
ATOM     58  H   UNL A   1      41.007  30.563  33.565  1.00  0.00     0.167 HD
ATOM     59  C   UNL A   1      42.803  28.507  32.788  1.00  0.00     0.074 A 
ATOM     60  C   UNL A   1      43.470  27.502  31.988  1.00  0.00     0.031 C 
ATOM     61  C   UNL A   1      43.167  28.842  34.051  1.00  0.00     0.037 A 
BRANCH  48  62
ATOM     62  C   UNL A   1      39.737  33.336  36.557  1.00  0.00     0.064 A 
ATOM     63  C   UNL A   1      40.386  34.573  36.695  1.00  0.00     0.173 A 
ATOM     64  C   UNL A   1      38.806  32.976  37.544  1.00  0.00     0.173 A 
ATOM     65  F   UNL A   1      41.292  34.966  35.786  1.00  0.00    -0.203 F 
ATOM     66  C   UNL A   1      40.142  35.396  37.791  1.00  0.00     0.198 A 
ATOM     67  C   UNL A   1      38.534  33.819  38.618  1.00  0.00     0.198 A 
ATOM     68  F   UNL A   1      38.148  31.809  37.461  1.00  0.00    -0.203 F 
ATOM     69  F   UNL A   1      40.819  36.544  37.930  1.00  0.00    -0.200 F 
ATOM     70  C   UNL A   1      39.210  35.023  38.747  1.00  0.00     0.200 A 
ATOM     71  F   UNL A   1      37.619  33.464  39.531  1.00  0.00    -0.200 F 
ATOM     72  F   UNL A   1      38.968  35.819  39.797  1.00  0.00    -0.200 F 
ENDBRANCH  48  62
BRANCH  49  73
ATOM     73  C   UNL A   1      41.179  27.660  28.452  1.00  0.00     0.064 A 
ATOM     74  C   UNL A   1      42.066  28.072  27.446  1.00  0.00     0.173 A 
ATOM     75  C   UNL A   1      40.505  26.443  28.264  1.00  0.00     0.173 A 
ATOM     76  F   UNL A   1      42.718  29.238  27.567  1.00  0.00    -0.203 F 
ATOM     77  C   UNL A   1      42.244  27.318  26.288  1.00  0.00     0.198 A 
ATOM     78  C   UNL A   1      40.714  25.671  27.123  1.00  0.00     0.198 A 
ATOM     79  F   UNL A   1      39.646  25.999  29.192  1.00  0.00    -0.203 F 
ATOM     80  F   UNL A   1      43.047  27.771  25.315  1.00  0.00    -0.200 F 
ATOM     81  C   UNL A   1      41.574  26.116  26.130  1.00  0.00     0.200 A 
ATOM     82  F   UNL A   1      40.076  24.502  26.981  1.00  0.00    -0.200 F 
ATOM     83  F   UNL A   1      41.744  25.393  25.014  1.00  0.00    -0.200 F 
ENDBRANCH  49  73
BRANCH  61  84
ATOM     84  C   UNL A   1      44.305  28.080  34.670  1.00  0.00     0.064 A 
ATOM     85  C   UNL A   1      44.112  26.858  35.330  1.00  0.00     0.173 A 
ATOM     86  C   UNL A   1      45.619  28.567  34.566  1.00  0.00     0.173 A 
ATOM     87  F   UNL A   1      42.877  26.353  35.470  1.00  0.00    -0.203 F 
ATOM     88  C   UNL A   1      45.184  26.169  35.892  1.00  0.00     0.198 A 
ATOM     89  C   UNL A   1      46.692  27.856  35.093  1.00  0.00     0.198 A 
ATOM     90  F   UNL A   1      45.863  29.726  33.937  1.00  0.00    -0.203 F 
ATOM     91  F   UNL A   1      44.967  25.034  36.571  1.00  0.00    -0.200 F 
ATOM     92  C   UNL A   1      46.474  26.664  35.765  1.00  0.00     0.200 A 
ATOM     93  F   UNL A   1      47.939  28.325  34.949  1.00  0.00    -0.200 F 
ATOM     94  F   UNL A   1      47.505  25.995  36.297  1.00  0.00    -0.200 F 
ENDBRANCH  61  84
ENDBRANCH  35  36
ENDBRANCH  27  30
ENDBRANCH  25  26
ENDBRANCH  24  25
ENDBRANCH  23  24
ENDBRANCH   3  23
TORSDOF 17
ENDMDL
