MODEL 1
REMARK VINA RESULT:     -10.9      0.000      0.000
REMARK SMILES [NH3+][C@]1(C(=O)NCCCNC(=O)c2ccc(-c3c4nc(c(-c5c(F)c(F)c(F)c(F)c5F)c5ccc([nH]5)c(-c5c(F)c(F)c(F)c(F)c5F)c5nc(c(-c6c(F)c(F)c(F)c(F)c6F)c6ccc3[nH]6)C=C5)C=C4)cc2)CC[C@@H](Sc2cc3ccccc3[nH]2)C1
REMARK SMILES IDX 7 1 6 2 5 3 3 4 4 5 2 7 75 8 88 9 76 10 77 11 1 12 78 16
REMARK SMILES IDX 79 17 80 18 87 19 81 20 86 21 82 23 85 24 83 25 84 26 8 27
REMARK SMILES IDX 9 28 10 29 11 31 12 32 13 33 74 34 14 35 73 36 15 37 16 38
REMARK SMILES IDX 17 39 67 40 18 41 72 42 66 43 68 44 19 45 71 46 65 47 64 48
REMARK SMILES IDX 20 50 52 51 32 52 51 53 33 54 36 55 50 56 69 57 34 58 35 59
REMARK SMILES IDX 49 61 70 62 37 63 21 64 22 65 30 66 23 67 24 68 28 69 31 70
REMARK SMILES IDX 25 71 26 72 29 73 27 74 53 75 54 76 62 77 55 78 56 79 60 80
REMARK SMILES IDX 63 81 57 82 58 83 61 84 59 85 38 86 39 87 47 88 40 89 41 90
REMARK SMILES IDX 45 91 48 92 42 93 43 94 46 95 44 96
REMARK H PARENT 5 6 1 13 1 14 1 15 87 22 9 30 68 49 36 60
REMARK Flexibility Score: inf
ROOT
ATOM      1  C   UNL A   1      34.150  33.266  29.392  1.00  0.00     0.042 C 
ENDROOT
BRANCH   1   2
ATOM      2  C   UNL A   1      34.683  34.686  29.603  1.00  0.00     0.118 C 
BRANCH   2   3
ATOM      3  N   UNL A   1      33.657  35.579  30.106  1.00  0.00    -0.351 N 
ATOM      4  C   UNL A   1      33.316  35.947  31.371  1.00  0.00     0.281 C 
ATOM      5  O   UNL A   1      32.393  36.766  31.467  1.00  0.00    -0.268 OA
ATOM      6  H   UNL A   1      33.107  35.995  29.404  1.00  0.00     0.163 HD
BRANCH   4   7
ATOM      7  C   UNL A   1      34.088  35.482  32.641  1.00  0.00     0.175 C 
ATOM      8  C   UNL A   1      33.653  34.037  32.978  1.00  0.00     0.080 C 
ATOM      9  C   UNL A   1      35.597  35.327  32.500  1.00  0.00     0.094 C 
ATOM     10  C   UNL A   1      34.756  33.453  33.850  1.00  0.00     0.022 C 
ATOM     11  C   UNL A   1      36.014  34.210  33.448  1.00  0.00     0.060 C 
BRANCH   7  12
ATOM     12  N   UNL A   1      33.766  36.407  33.749  1.00  0.00    -0.345 N 
ATOM     13  H   UNL A   1      33.003  36.020  34.304  1.00  0.00     0.345 HD
ATOM     14  H   UNL A   1      33.484  37.311  33.367  1.00  0.00     0.345 HD
ATOM     15  H   UNL A   1      34.589  36.531  34.339  1.00  0.00     0.345 HD
ENDBRANCH   7  12
BRANCH  11  16
ATOM     16  S   UNL A   1      37.383  33.280  32.751  1.00  0.00    -0.105 SA
BRANCH  16  17
ATOM     17  C   UNL A   1      37.357  31.684  33.429  1.00  0.00     0.073 A 
ATOM     18  C   UNL A   1      37.028  30.454  32.893  1.00  0.00     0.043 A 
ATOM     19  N   UNL A   1      38.284  31.450  34.411  1.00  0.00    -0.350 N 
ATOM     20  C   UNL A   1      38.195  29.643  33.127  1.00  0.00     0.001 A 
ATOM     21  C   UNL A   1      39.010  30.349  34.012  1.00  0.00     0.046 A 
ATOM     22  H   UNL A   1      38.406  31.968  35.240  1.00  0.00     0.167 HD
ATOM     23  C   UNL A   1      38.710  28.472  32.536  1.00  0.00     0.010 A 
ATOM     24  C   UNL A   1      40.335  30.009  34.285  1.00  0.00     0.027 A 
ATOM     25  C   UNL A   1      40.061  28.150  32.747  1.00  0.00     0.001 A 
ATOM     26  C   UNL A   1      40.862  28.921  33.590  1.00  0.00     0.002 A 
ENDBRANCH  16  17
ENDBRANCH  11  16
ENDBRANCH   4   7
ENDBRANCH   2   3
ENDBRANCH   1   2
BRANCH   1  27
ATOM     27  C   UNL A   1      34.428  32.707  28.001  1.00  0.00     0.118 C 
BRANCH  27  28
ATOM     28  N   UNL A   1      33.739  31.448  27.769  1.00  0.00    -0.352 N 
ATOM     29  C   UNL A   1      34.231  30.173  27.657  1.00  0.00     0.251 C 
ATOM     30  H   UNL A   1      32.761  31.523  27.679  1.00  0.00     0.163 HD
ATOM     31  O   UNL A   1      33.499  29.281  27.244  1.00  0.00    -0.269 OA
BRANCH  29  32
ATOM     32  C   UNL A   1      35.631  29.859  28.026  1.00  0.00     0.039 A 
ATOM     33  C   UNL A   1      36.627  30.037  27.060  1.00  0.00     0.014 A 
ATOM     34  C   UNL A   1      35.960  29.328  29.276  1.00  0.00     0.014 A 
ATOM     35  C   UNL A   1      37.954  29.721  27.360  1.00  0.00     0.010 A 
ATOM     36  C   UNL A   1      37.293  29.079  29.599  1.00  0.00     0.010 A 
ATOM     37  C   UNL A   1      38.301  29.260  28.640  1.00  0.00    -0.014 A 
BRANCH  37  38
ATOM     38  C   UNL A   1      39.712  28.951  28.984  1.00  0.00     0.031 A 
ATOM     39  C   UNL A   1      40.540  29.944  29.751  1.00  0.00     0.074 A 
ATOM     40  C   UNL A   1      40.261  27.797  28.558  1.00  0.00     0.049 A 
ATOM     41  N   UNL A   1      41.802  29.881  30.095  1.00  0.00    -0.248 NA
ATOM     42  C   UNL A   1      39.868  31.184  30.166  1.00  0.00     0.031 C 
ATOM     43  C   UNL A   1      39.573  26.775  27.769  1.00  0.00     0.029 A 
ATOM     44  N   UNL A   1      41.527  27.294  28.722  1.00  0.00    -0.354 N 
ATOM     45  C   UNL A   1      42.077  31.074  30.750  1.00  0.00     0.074 A 
ATOM     46  C   UNL A   1      40.865  31.865  30.712  1.00  0.00     0.031 C 
ATOM     47  C   UNL A   1      40.418  25.758  27.534  1.00  0.00     0.029 A 
ATOM     48  C   UNL A   1      41.715  26.073  28.124  1.00  0.00     0.049 A 
ATOM     49  H   UNL A   1      42.234  27.765  29.220  1.00  0.00     0.167 HD
ATOM     50  C   UNL A   1      43.228  31.466  31.346  1.00  0.00     0.037 A 
ATOM     51  C   UNL A   1      42.813  25.297  28.055  1.00  0.00     0.037 A 
ATOM     52  C   UNL A   1      44.423  30.664  31.403  1.00  0.00     0.049 A 
ATOM     53  C   UNL A   1      44.078  25.753  28.728  1.00  0.00     0.074 A 
ATOM     54  C   UNL A   1      45.622  30.945  32.036  1.00  0.00     0.029 A 
ATOM     55  N   UNL A   1      44.569  29.421  30.804  1.00  0.00    -0.354 N 
ATOM     56  N   UNL A   1      44.307  26.855  29.401  1.00  0.00    -0.248 NA
ATOM     57  C   UNL A   1      45.237  24.854  28.639  1.00  0.00     0.031 C 
ATOM     58  C   UNL A   1      46.508  29.892  31.780  1.00  0.00     0.029 A 
ATOM     59  C   UNL A   1      45.845  28.933  31.033  1.00  0.00     0.049 A 
ATOM     60  H   UNL A   1      43.869  28.957  30.290  1.00  0.00     0.167 HD
ATOM     61  C   UNL A   1      45.622  26.771  29.837  1.00  0.00     0.074 A 
ATOM     62  C   UNL A   1      46.137  25.501  29.366  1.00  0.00     0.031 C 
ATOM     63  C   UNL A   1      46.339  27.663  30.562  1.00  0.00     0.037 A 
BRANCH  50  64
ATOM     64  C   UNL A   1      43.253  32.824  31.988  1.00  0.00     0.064 A 
ATOM     65  C   UNL A   1      43.433  33.992  31.233  1.00  0.00     0.173 A 
ATOM     66  C   UNL A   1      43.057  32.961  33.371  1.00  0.00     0.173 A 
ATOM     67  F   UNL A   1      43.636  33.916  29.909  1.00  0.00    -0.203 F 
ATOM     68  C   UNL A   1      43.446  35.245  31.841  1.00  0.00     0.198 A 
ATOM     69  C   UNL A   1      43.040  34.217  33.971  1.00  0.00     0.198 A 
ATOM     70  F   UNL A   1      42.873  31.877  34.139  1.00  0.00    -0.203 F 
ATOM     71  F   UNL A   1      43.669  36.343  31.106  1.00  0.00    -0.200 F 
ATOM     72  C   UNL A   1      43.243  35.357  33.208  1.00  0.00     0.200 A 
ATOM     73  F   UNL A   1      42.829  34.324  35.291  1.00  0.00    -0.200 F 
ATOM     74  F   UNL A   1      43.248  36.564  33.791  1.00  0.00    -0.200 F 
ENDBRANCH  50  64
BRANCH  51  75
ATOM     75  C   UNL A   1      42.755  23.994  27.343  1.00  0.00     0.064 A 
ATOM     76  C   UNL A   1      42.315  22.835  27.997  1.00  0.00     0.173 A 
ATOM     77  C   UNL A   1      43.137  23.879  25.998  1.00  0.00     0.173 A 
ATOM     78  F   UNL A   1      41.959  22.891  29.290  1.00  0.00    -0.203 F 
ATOM     79  C   UNL A   1      42.278  21.607  27.340  1.00  0.00     0.198 A 
ATOM     80  C   UNL A   1      43.072  22.655  25.334  1.00  0.00     0.198 A 
ATOM     81  F   UNL A   1      43.561  24.959  25.325  1.00  0.00    -0.203 F 
ATOM     82  F   UNL A   1      41.896  20.507  28.003  1.00  0.00    -0.200 F 
ATOM     83  C   UNL A   1      42.651  21.519  26.008  1.00  0.00     0.200 A 
ATOM     84  F   UNL A   1      43.422  22.578  24.043  1.00  0.00    -0.200 F 
ATOM     85  F   UNL A   1      42.612  20.339  25.376  1.00  0.00    -0.200 F 
ENDBRANCH  51  75
BRANCH  63  86
ATOM     86  C   UNL A   1      47.747  27.285  30.919  1.00  0.00     0.064 A 
ATOM     87  C   UNL A   1      48.035  26.501  32.046  1.00  0.00     0.173 A 
ATOM     88  C   UNL A   1      48.816  27.682  30.102  1.00  0.00     0.173 A 
ATOM     89  F   UNL A   1      47.049  26.109  32.866  1.00  0.00    -0.203 F 
ATOM     90  C   UNL A   1      49.346  26.151  32.357  1.00  0.00     0.198 A 
ATOM     91  C   UNL A   1      50.123  27.304  30.399  1.00  0.00     0.198 A 
ATOM     92  F   UNL A   1      48.593  28.427  29.010  1.00  0.00    -0.203 F 
ATOM     93  F   UNL A   1      49.604  25.442  33.464  1.00  0.00    -0.200 F 
ATOM     94  C   UNL A   1      50.387  26.546  31.529  1.00  0.00     0.200 A 
ATOM     95  F   UNL A   1      51.127  27.676  29.592  1.00  0.00    -0.200 F 
ATOM     96  F   UNL A   1      51.648  26.202  31.827  1.00  0.00    -0.200 F 
ENDBRANCH  63  86
ENDBRANCH  37  38
ENDBRANCH  29  32
ENDBRANCH  27  28
ENDBRANCH   1  27
TORSDOF 13
ENDMDL
MODEL 2
REMARK VINA RESULT:     -10.8      3.930     11.166
REMARK SMILES [NH3+][C@]1(C(=O)NCCCNC(=O)c2ccc(-c3c4nc(c(-c5c(F)c(F)c(F)c(F)c5F)c5ccc([nH]5)c(-c5c(F)c(F)c(F)c(F)c5F)c5nc(c(-c6c(F)c(F)c(F)c(F)c6F)c6ccc3[nH]6)C=C5)C=C4)cc2)CC[C@@H](Sc2cc3ccccc3[nH]2)C1
REMARK SMILES IDX 7 1 6 2 5 3 3 4 4 5 2 7 75 8 88 9 76 10 77 11 1 12 78 16
REMARK SMILES IDX 79 17 80 18 87 19 81 20 86 21 82 23 85 24 83 25 84 26 8 27
REMARK SMILES IDX 9 28 10 29 11 31 12 32 13 33 74 34 14 35 73 36 15 37 16 38
REMARK SMILES IDX 17 39 67 40 18 41 72 42 66 43 68 44 19 45 71 46 65 47 64 48
REMARK SMILES IDX 20 50 52 51 32 52 51 53 33 54 36 55 50 56 69 57 34 58 35 59
REMARK SMILES IDX 49 61 70 62 37 63 21 64 22 65 30 66 23 67 24 68 28 69 31 70
REMARK SMILES IDX 25 71 26 72 29 73 27 74 53 75 54 76 62 77 55 78 56 79 60 80
REMARK SMILES IDX 63 81 57 82 58 83 61 84 59 85 38 86 39 87 47 88 40 89 41 90
REMARK SMILES IDX 45 91 48 92 42 93 43 94 46 95 44 96
REMARK H PARENT 5 6 1 13 1 14 1 15 87 22 9 30 68 49 36 60
REMARK Flexibility Score: inf
ROOT
ATOM      1  C   UNL A   1      41.128  20.336  26.409  1.00  0.00     0.042 C 
ENDROOT
BRANCH   1   2
ATOM      2  C   UNL A   1      42.570  20.721  26.072  1.00  0.00     0.118 C 
BRANCH   2   3
ATOM      3  N   UNL A   1      43.288  19.630  25.442  1.00  0.00    -0.351 N 
ATOM      4  C   UNL A   1      44.489  19.583  24.804  1.00  0.00     0.281 C 
ATOM      5  O   UNL A   1      44.842  18.470  24.393  1.00  0.00    -0.268 OA
ATOM      6  H   UNL A   1      42.821  18.765  25.483  1.00  0.00     0.163 HD
BRANCH   4   7
ATOM      7  C   UNL A   1      45.446  20.805  24.680  1.00  0.00     0.175 C 
ATOM      8  C   UNL A   1      44.849  21.793  23.652  1.00  0.00     0.080 C 
ATOM      9  C   UNL A   1      45.587  21.688  25.914  1.00  0.00     0.094 C 
ATOM     10  C   UNL A   1      45.493  23.144  23.937  1.00  0.00     0.022 C 
ATOM     11  C   UNL A   1      45.853  23.101  25.414  1.00  0.00     0.060 C 
BRANCH   7  12
ATOM     12  N   UNL A   1      46.772  20.318  24.241  1.00  0.00    -0.345 N 
ATOM     13  H   UNL A   1      46.766  19.299  24.207  1.00  0.00     0.345 HD
ATOM     14  H   UNL A   1      47.485  20.631  24.901  1.00  0.00     0.345 HD
ATOM     15  H   UNL A   1      46.982  20.689  23.315  1.00  0.00     0.345 HD
ENDBRANCH   7  12
BRANCH  11  16
ATOM     16  S   UNL A   1      45.092  24.303  26.512  1.00  0.00    -0.105 SA
BRANCH  16  17
ATOM     17  C   UNL A   1      44.730  25.727  25.591  1.00  0.00     0.073 A 
ATOM     18  C   UNL A   1      43.534  26.305  25.210  1.00  0.00     0.043 A 
ATOM     19  N   UNL A   1      45.640  26.745  25.704  1.00  0.00    -0.350 N 
ATOM     20  C   UNL A   1      43.614  27.650  25.715  1.00  0.00     0.001 A 
ATOM     21  C   UNL A   1      44.936  27.858  26.110  1.00  0.00     0.046 A 
ATOM     22  H   UNL A   1      46.608  26.691  25.529  1.00  0.00     0.167 HD
ATOM     23  C   UNL A   1      42.659  28.636  26.036  1.00  0.00     0.010 A 
ATOM     24  C   UNL A   1      45.355  28.947  26.875  1.00  0.00     0.027 A 
ATOM     25  C   UNL A   1      43.048  29.705  26.860  1.00  0.00     0.001 A 
ATOM     26  C   UNL A   1      44.368  29.841  27.289  1.00  0.00     0.002 A 
ENDBRANCH  16  17
ENDBRANCH  11  16
ENDBRANCH   4   7
ENDBRANCH   2   3
ENDBRANCH   1   2
BRANCH   1  27
ATOM     27  C   UNL A   1      40.310  21.479  27.000  1.00  0.00     0.118 C 
BRANCH  27  28
ATOM     28  N   UNL A   1      39.270  21.935  26.091  1.00  0.00    -0.352 N 
ATOM     29  C   UNL A   1      38.628  23.143  26.011  1.00  0.00     0.251 C 
ATOM     30  H   UNL A   1      38.982  21.268  25.426  1.00  0.00     0.163 HD
ATOM     31  O   UNL A   1      37.627  23.246  25.310  1.00  0.00    -0.269 OA
BRANCH  29  32
ATOM     32  C   UNL A   1      39.122  24.323  26.758  1.00  0.00     0.039 A 
ATOM     33  C   UNL A   1      38.734  24.474  28.093  1.00  0.00     0.014 A 
ATOM     34  C   UNL A   1      39.896  25.311  26.142  1.00  0.00     0.014 A 
ATOM     35  C   UNL A   1      39.154  25.590  28.820  1.00  0.00     0.010 A 
ATOM     36  C   UNL A   1      40.374  26.388  26.887  1.00  0.00     0.010 A 
ATOM     37  C   UNL A   1      39.996  26.545  28.229  1.00  0.00    -0.014 A 
BRANCH  37  38
ATOM     38  C   UNL A   1      40.477  27.720  28.999  1.00  0.00     0.031 A 
ATOM     39  C   UNL A   1      41.884  27.755  29.529  1.00  0.00     0.074 A 
ATOM     40  C   UNL A   1      39.629  28.732  29.264  1.00  0.00     0.049 A 
ATOM     41  N   UNL A   1      42.469  28.663  30.269  1.00  0.00    -0.248 NA
ATOM     42  C   UNL A   1      42.740  26.603  29.205  1.00  0.00     0.031 C 
ATOM     43  C   UNL A   1      38.229  28.793  28.842  1.00  0.00     0.029 A 
ATOM     44  N   UNL A   1      39.818  29.899  29.960  1.00  0.00    -0.354 N 
ATOM     45  C   UNL A   1      43.750  28.187  30.511  1.00  0.00     0.074 A 
ATOM     46  C   UNL A   1      43.843  26.887  29.883  1.00  0.00     0.031 C 
ATOM     47  C   UNL A   1      37.691  29.946  29.270  1.00  0.00     0.029 A 
ATOM     48  C   UNL A   1      38.696  30.687  30.026  1.00  0.00     0.049 A 
ATOM     49  H   UNL A   1      40.676  30.148  30.374  1.00  0.00     0.167 HD
ATOM     50  C   UNL A   1      44.764  28.788  31.180  1.00  0.00     0.037 A 
ATOM     51  C   UNL A   1      38.498  31.873  30.633  1.00  0.00     0.037 A 
ATOM     52  C   UNL A   1      44.674  30.094  31.781  1.00  0.00     0.049 A 
ATOM     53  C   UNL A   1      39.641  32.522  31.366  1.00  0.00     0.074 A 
ATOM     54  C   UNL A   1      45.662  30.817  32.427  1.00  0.00     0.029 A 
ATOM     55  N   UNL A   1      43.525  30.872  31.809  1.00  0.00    -0.354 N 
ATOM     56  N   UNL A   1      40.868  32.091  31.533  1.00  0.00    -0.248 NA
ATOM     57  C   UNL A   1      39.373  33.825  31.989  1.00  0.00     0.031 C 
ATOM     58  C   UNL A   1      45.099  32.013  32.886  1.00  0.00     0.029 A 
ATOM     59  C   UNL A   1      43.774  32.058  32.480  1.00  0.00     0.049 A 
ATOM     60  H   UNL A   1      42.661  30.618  31.411  1.00  0.00     0.167 HD
ATOM     61  C   UNL A   1      41.525  33.079  32.254  1.00  0.00     0.074 A 
ATOM     62  C   UNL A   1      40.563  34.139  32.481  1.00  0.00     0.031 C 
ATOM     63  C   UNL A   1      42.808  33.106  32.691  1.00  0.00     0.037 A 
BRANCH  50  64
ATOM     64  C   UNL A   1      46.061  28.041  31.295  1.00  0.00     0.064 A 
ATOM     65  C   UNL A   1      46.241  27.018  32.239  1.00  0.00     0.173 A 
ATOM     66  C   UNL A   1      47.127  28.326  30.427  1.00  0.00     0.173 A 
ATOM     67  F   UNL A   1      45.258  26.714  33.099  1.00  0.00    -0.203 F 
ATOM     68  C   UNL A   1      47.447  26.329  32.329  1.00  0.00     0.198 A 
ATOM     69  C   UNL A   1      48.322  27.614  30.500  1.00  0.00     0.198 A 
ATOM     70  F   UNL A   1      47.007  29.289  29.502  1.00  0.00    -0.203 F 
ATOM     71  F   UNL A   1      47.612  25.390  33.271  1.00  0.00    -0.200 F 
ATOM     72  C   UNL A   1      48.484  26.623  31.456  1.00  0.00     0.200 A 
ATOM     73  F   UNL A   1      49.318  27.890  29.646  1.00  0.00    -0.200 F 
ATOM     74  F   UNL A   1      49.643  25.954  31.540  1.00  0.00    -0.200 F 
ENDBRANCH  50  64
BRANCH  51  75
ATOM     75  C   UNL A   1      37.172  32.536  30.550  1.00  0.00     0.064 A 
ATOM     76  C   UNL A   1      36.852  33.374  29.474  1.00  0.00     0.173 A 
ATOM     77  C   UNL A   1      36.197  32.346  31.541  1.00  0.00     0.173 A 
ATOM     78  F   UNL A   1      37.759  33.602  28.512  1.00  0.00    -0.203 F 
ATOM     79  C   UNL A   1      35.617  34.014  29.401  1.00  0.00     0.198 A 
ATOM     80  C   UNL A   1      34.951  32.965  31.453  1.00  0.00     0.198 A 
ATOM     81  F   UNL A   1      36.451  31.550  32.590  1.00  0.00    -0.203 F 
ATOM     82  F   UNL A   1      35.355  34.846  28.384  1.00  0.00    -0.200 F 
ATOM     83  C   UNL A   1      34.665  33.804  30.387  1.00  0.00     0.200 A 
ATOM     84  F   UNL A   1      34.031  32.749  32.402  1.00  0.00    -0.200 F 
ATOM     85  F   UNL A   1      33.477  34.417  30.315  1.00  0.00    -0.200 F 
ENDBRANCH  51  75
BRANCH  63  86
ATOM     86  C   UNL A   1      43.257  34.334  33.427  1.00  0.00     0.064 A 
ATOM     87  C   UNL A   1      43.702  35.477  32.749  1.00  0.00     0.173 A 
ATOM     88  C   UNL A   1      43.204  34.378  34.829  1.00  0.00     0.173 A 
ATOM     89  F   UNL A   1      43.785  35.479  31.410  1.00  0.00    -0.203 F 
ATOM     90  C   UNL A   1      44.106  36.612  33.448  1.00  0.00     0.198 A 
ATOM     91  C   UNL A   1      43.579  35.525  35.524  1.00  0.00     0.198 A 
ATOM     92  F   UNL A   1      42.779  33.313  35.524  1.00  0.00    -0.203 F 
ATOM     93  F   UNL A   1      44.574  37.676  32.782  1.00  0.00    -0.200 F 
ATOM     94  C   UNL A   1      44.036  36.637  34.833  1.00  0.00     0.200 A 
ATOM     95  F   UNL A   1      43.500  35.553  36.861  1.00  0.00    -0.200 F 
ATOM     96  F   UNL A   1      44.419  37.733  35.504  1.00  0.00    -0.200 F 
ENDBRANCH  63  86
ENDBRANCH  37  38
ENDBRANCH  29  32
ENDBRANCH  27  28
ENDBRANCH   1  27
TORSDOF 13
ENDMDL
MODEL 3
REMARK VINA RESULT:     -10.7      3.935     11.060
REMARK SMILES [NH3+][C@]1(C(=O)NCCCNC(=O)c2ccc(-c3c4nc(c(-c5c(F)c(F)c(F)c(F)c5F)c5ccc([nH]5)c(-c5c(F)c(F)c(F)c(F)c5F)c5nc(c(-c6c(F)c(F)c(F)c(F)c6F)c6ccc3[nH]6)C=C5)C=C4)cc2)CC[C@@H](Sc2cc3ccccc3[nH]2)C1
REMARK SMILES IDX 7 1 6 2 5 3 3 4 4 5 2 7 75 8 88 9 76 10 77 11 1 12 78 16
REMARK SMILES IDX 79 17 80 18 87 19 81 20 86 21 82 23 85 24 83 25 84 26 8 27
REMARK SMILES IDX 9 28 10 29 11 31 12 32 13 33 74 34 14 35 73 36 15 37 16 38
REMARK SMILES IDX 17 39 67 40 18 41 72 42 66 43 68 44 19 45 71 46 65 47 64 48
REMARK SMILES IDX 20 50 52 51 32 52 51 53 33 54 36 55 50 56 69 57 34 58 35 59
REMARK SMILES IDX 49 61 70 62 37 63 21 64 22 65 30 66 23 67 24 68 28 69 31 70
REMARK SMILES IDX 25 71 26 72 29 73 27 74 53 75 54 76 62 77 55 78 56 79 60 80
REMARK SMILES IDX 63 81 57 82 58 83 61 84 59 85 38 86 39 87 47 88 40 89 41 90
REMARK SMILES IDX 45 91 48 92 42 93 43 94 46 95 44 96
REMARK H PARENT 5 6 1 13 1 14 1 15 87 22 9 30 68 49 36 60
REMARK Flexibility Score: inf
ROOT
ATOM      1  C   UNL A   1      41.146  20.353  26.175  1.00  0.00     0.042 C 
ENDROOT
BRANCH   1   2
ATOM      2  C   UNL A   1      42.663  20.551  26.224  1.00  0.00     0.118 C 
BRANCH   2   3
ATOM      3  N   UNL A   1      43.367  19.508  25.504  1.00  0.00    -0.351 N 
ATOM      4  C   UNL A   1      44.527  19.522  24.792  1.00  0.00     0.281 C 
ATOM      5  O   UNL A   1      44.882  18.438  24.312  1.00  0.00    -0.268 OA
ATOM      6  H   UNL A   1      42.926  18.629  25.536  1.00  0.00     0.163 HD
BRANCH   4   7
ATOM      7  C   UNL A   1      45.442  20.775  24.662  1.00  0.00     0.175 C 
ATOM      8  C   UNL A   1      44.830  21.723  23.606  1.00  0.00     0.080 C 
ATOM      9  C   UNL A   1      45.529  21.684  25.882  1.00  0.00     0.094 C 
ATOM     10  C   UNL A   1      45.420  23.101  23.877  1.00  0.00     0.022 C 
ATOM     11  C   UNL A   1      45.754  23.097  25.361  1.00  0.00     0.060 C 
BRANCH   7  12
ATOM     12  N   UNL A   1      46.793  20.328  24.257  1.00  0.00    -0.345 N 
ATOM     13  H   UNL A   1      46.846  20.287  23.239  1.00  0.00     0.345 HD
ATOM     14  H   UNL A   1      46.976  19.402  24.644  1.00  0.00     0.345 HD
ATOM     15  H   UNL A   1      47.489  20.986  24.608  1.00  0.00     0.345 HD
ENDBRANCH   7  12
BRANCH  11  16
ATOM     16  S   UNL A   1      44.931  24.290  26.422  1.00  0.00    -0.105 SA
BRANCH  16  17
ATOM     17  C   UNL A   1      44.568  25.699  25.478  1.00  0.00     0.073 A 
ATOM     18  C   UNL A   1      43.378  26.212  24.999  1.00  0.00     0.043 A 
ATOM     19  N   UNL A   1      45.407  26.765  25.670  1.00  0.00    -0.350 N 
ATOM     20  C   UNL A   1      43.340  27.556  25.513  1.00  0.00     0.001 A 
ATOM     21  C   UNL A   1      44.610  27.834  26.018  1.00  0.00     0.046 A 
ATOM     22  H   UNL A   1      46.388  26.766  25.577  1.00  0.00     0.167 HD
ATOM     23  C   UNL A   1      42.308  28.485  25.754  1.00  0.00     0.010 A 
ATOM     24  C   UNL A   1      44.902  28.939  26.818  1.00  0.00     0.027 A 
ATOM     25  C   UNL A   1      42.565  29.568  26.611  1.00  0.00     0.001 A 
ATOM     26  C   UNL A   1      43.835  29.774  27.150  1.00  0.00     0.002 A 
ENDBRANCH  16  17
ENDBRANCH  11  16
ENDBRANCH   4   7
ENDBRANCH   2   3
ENDBRANCH   1   2
BRANCH   1  27
ATOM     27  C   UNL A   1      40.358  21.481  26.832  1.00  0.00     0.118 C 
BRANCH  27  28
ATOM     28  N   UNL A   1      39.221  21.897  26.025  1.00  0.00    -0.352 N 
ATOM     29  C   UNL A   1      38.512  23.070  26.028  1.00  0.00     0.251 C 
ATOM     30  H   UNL A   1      38.913  21.229  25.371  1.00  0.00     0.163 HD
ATOM     31  O   UNL A   1      37.450  23.131  25.417  1.00  0.00    -0.269 OA
BRANCH  29  32
ATOM     32  C   UNL A   1      39.005  24.261  26.758  1.00  0.00     0.039 A 
ATOM     33  C   UNL A   1      38.622  24.427  28.093  1.00  0.00     0.014 A 
ATOM     34  C   UNL A   1      39.775  25.242  26.127  1.00  0.00     0.014 A 
ATOM     35  C   UNL A   1      39.041  25.554  28.804  1.00  0.00     0.010 A 
ATOM     36  C   UNL A   1      40.252  26.330  26.856  1.00  0.00     0.010 A 
ATOM     37  C   UNL A   1      39.878  26.504  28.197  1.00  0.00    -0.014 A 
BRANCH  37  38
ATOM     38  C   UNL A   1      40.359  27.690  28.950  1.00  0.00     0.031 A 
ATOM     39  C   UNL A   1      41.766  27.734  29.478  1.00  0.00     0.074 A 
ATOM     40  C   UNL A   1      39.510  28.704  29.204  1.00  0.00     0.049 A 
ATOM     41  N   UNL A   1      42.351  28.652  30.205  1.00  0.00    -0.248 NA
ATOM     42  C   UNL A   1      42.624  26.579  29.169  1.00  0.00     0.031 C 
ATOM     43  C   UNL A   1      38.109  28.757  28.783  1.00  0.00     0.029 A 
ATOM     44  N   UNL A   1      39.698  29.881  29.883  1.00  0.00    -0.354 N 
ATOM     45  C   UNL A   1      43.634  28.182  30.452  1.00  0.00     0.074 A 
ATOM     46  C   UNL A   1      43.727  26.873  29.841  1.00  0.00     0.031 C 
ATOM     47  C   UNL A   1      37.570  29.915  29.196  1.00  0.00     0.029 A 
ATOM     48  C   UNL A   1      38.575  30.668  29.940  1.00  0.00     0.049 A 
ATOM     49  H   UNL A   1      40.556  30.136  30.292  1.00  0.00     0.167 HD
ATOM     50  C   UNL A   1      44.647  28.793  31.111  1.00  0.00     0.037 A 
ATOM     51  C   UNL A   1      38.376  31.861  30.532  1.00  0.00     0.037 A 
ATOM     52  C   UNL A   1      44.556  30.107  31.694  1.00  0.00     0.049 A 
ATOM     53  C   UNL A   1      39.519  32.521  31.254  1.00  0.00     0.074 A 
ATOM     54  C   UNL A   1      45.544  30.840  32.329  1.00  0.00     0.029 A 
ATOM     55  N   UNL A   1      43.407  30.884  31.713  1.00  0.00    -0.354 N 
ATOM     56  N   UNL A   1      40.747  32.095  31.425  1.00  0.00    -0.248 NA
ATOM     57  C   UNL A   1      39.250  33.833  31.860  1.00  0.00     0.031 C 
ATOM     58  C   UNL A   1      44.980  32.042  32.772  1.00  0.00     0.029 A 
ATOM     59  C   UNL A   1      43.655  32.079  32.368  1.00  0.00     0.049 A 
ATOM     60  H   UNL A   1      42.542  30.623  31.320  1.00  0.00     0.167 HD
ATOM     61  C   UNL A   1      41.404  33.093  32.131  1.00  0.00     0.074 A 
ATOM     62  C   UNL A   1      40.441  34.155  32.345  1.00  0.00     0.031 C 
ATOM     63  C   UNL A   1      42.687  33.128  32.566  1.00  0.00     0.037 A 
BRANCH  50  64
ATOM     64  C   UNL A   1      45.946  28.050  31.234  1.00  0.00     0.064 A 
ATOM     65  C   UNL A   1      47.021  28.298  30.368  1.00  0.00     0.173 A 
ATOM     66  C   UNL A   1      46.131  27.103  32.254  1.00  0.00     0.173 A 
ATOM     67  F   UNL A   1      46.893  29.184  29.370  1.00  0.00    -0.203 F 
ATOM     68  C   UNL A   1      48.223  27.606  30.499  1.00  0.00     0.198 A 
ATOM     69  C   UNL A   1      47.344  26.436  32.401  1.00  0.00     0.198 A 
ATOM     70  F   UNL A   1      45.138  26.832  33.114  1.00  0.00    -0.203 F 
ATOM     71  F   UNL A   1      49.218  27.824  29.630  1.00  0.00    -0.200 F 
ATOM     72  C   UNL A   1      48.386  26.681  31.519  1.00  0.00     0.200 A 
ATOM     73  F   UNL A   1      47.504  25.551  33.396  1.00  0.00    -0.200 F 
ATOM     74  F   UNL A   1      49.545  26.021  31.649  1.00  0.00    -0.200 F 
ENDBRANCH  50  64
BRANCH  51  75
ATOM     75  C   UNL A   1      37.048  32.521  30.442  1.00  0.00     0.064 A 
ATOM     76  C   UNL A   1      36.086  32.341  31.443  1.00  0.00     0.173 A 
ATOM     77  C   UNL A   1      36.714  33.344  29.356  1.00  0.00     0.173 A 
ATOM     78  F   UNL A   1      36.351  31.545  32.491  1.00  0.00    -0.203 F 
ATOM     79  C   UNL A   1      34.832  32.941  31.354  1.00  0.00     0.198 A 
ATOM     80  C   UNL A   1      35.470  33.968  29.282  1.00  0.00     0.198 A 
ATOM     81  F   UNL A   1      37.603  33.554  28.373  1.00  0.00    -0.203 F 
ATOM     82  F   UNL A   1      33.914  32.714  32.303  1.00  0.00    -0.200 F 
ATOM     83  C   UNL A   1      34.527  33.759  30.277  1.00  0.00     0.200 A 
ATOM     84  F   UNL A   1      35.185  34.766  28.245  1.00  0.00    -0.200 F 
ATOM     85  F   UNL A   1      33.323  34.338  30.192  1.00  0.00    -0.200 F 
ENDBRANCH  51  75
BRANCH  63  86
ATOM     86  C   UNL A   1      43.135  34.367  33.284  1.00  0.00     0.064 A 
ATOM     87  C   UNL A   1      43.672  35.464  32.596  1.00  0.00     0.173 A 
ATOM     88  C   UNL A   1      42.990  34.470  34.677  1.00  0.00     0.173 A 
ATOM     89  F   UNL A   1      43.845  35.409  31.267  1.00  0.00    -0.203 F 
ATOM     90  C   UNL A   1      44.074  36.610  33.278  1.00  0.00     0.198 A 
ATOM     91  C   UNL A   1      43.364  35.629  35.352  1.00  0.00     0.198 A 
ATOM     92  F   UNL A   1      42.476  33.451  35.380  1.00  0.00    -0.203 F 
ATOM     93  F   UNL A   1      44.629  37.627  32.607  1.00  0.00    -0.200 F 
ATOM     94  C   UNL A   1      43.912  36.693  34.654  1.00  0.00     0.200 A 
ATOM     95  F   UNL A   1      43.196  35.713  36.679  1.00  0.00    -0.200 F 
ATOM     96  F   UNL A   1      44.293  37.800  35.308  1.00  0.00    -0.200 F 
ENDBRANCH  63  86
ENDBRANCH  37  38
ENDBRANCH  29  32
ENDBRANCH  27  28
ENDBRANCH   1  27
TORSDOF 13
ENDMDL
