MODEL 1
REMARK VINA RESULT:     -11.1      0.000      0.000
REMARK SMILES Cc1ncn(CC[C@@H]2CCC[C@@]2([NH3+])C(=O)NCCCNC(=O)c2ccc(-c3c4nc(c(-c5c(F)c(F)c(F)c(F)c5F)c5ccc([nH]5)c(-c5c(F)c(F)c(F)c(F)c5F)c5nc(c(-c6c(F)c(F)c(F)c(F)c6F)c6ccc3[nH]6)C=C5)C=C4)cc2)c1C
REMARK SMILES IDX 17 1 16 2 14 3 15 4 12 6 8 7 9 8 10 9 11 10 7 11 6 12 5 13
REMARK SMILES IDX 1 14 2 15 3 16 86 17 4 18 87 19 13 20 18 24 19 25 20 26
REMARK SMILES IDX 21 27 22 29 23 30 24 31 85 32 25 33 84 34 26 35 27 36 28 37
REMARK SMILES IDX 78 38 29 39 83 40 77 41 79 42 30 43 82 44 76 45 75 46 31 48
REMARK SMILES IDX 63 49 43 50 62 51 44 52 47 53 61 54 80 55 45 56 46 57 60 59
REMARK SMILES IDX 81 60 48 61 32 62 33 63 41 64 34 65 35 66 39 67 42 68 36 69
REMARK SMILES IDX 37 70 40 71 38 72 64 73 65 74 73 75 66 76 67 77 71 78 74 79
REMARK SMILES IDX 68 80 69 81 72 82 70 83 49 84 50 85 58 86 51 87 52 88 56 89
REMARK SMILES IDX 59 90 53 91 54 92 57 93 55 94
REMARK H PARENT 16 5 13 21 13 22 13 23 20 28 79 47 47 58
REMARK Flexibility Score: inf
ROOT
ATOM      1  C   UNL A   1      43.880  25.567  25.300  1.00  0.00     0.118 C 
ENDROOT
BRANCH   1   2
ATOM      2  N   UNL A   1      44.530  26.118  26.652  1.00  0.00    -0.351 N 
ATOM      3  C   UNL A   1      45.054  26.172  27.919  1.00  0.00     0.281 C 
ATOM      4  O   UNL A   1      45.572  27.316  28.048  1.00  0.00    -0.268 OA
ATOM      5  H   UNL A   1      44.605  27.069  26.412  1.00  0.00     0.163 HD
BRANCH   3   6
ATOM      6  C   UNL A   1      45.190  25.219  29.359  1.00  0.00     0.176 C 
ATOM      7  C   UNL A   1      44.285  25.175  30.662  1.00  0.00     0.062 C 
ATOM      8  C   UNL A   1      44.157  23.713  31.106  1.00  0.00     0.011 C 
ATOM      9  C   UNL A   1      44.320  22.890  29.855  1.00  0.00     0.008 C 
ATOM     10  C   UNL A   1      45.043  23.754  28.828  1.00  0.00     0.079 C 
BRANCH   7  11
ATOM     11  C   UNL A   1      44.580  26.058  31.962  1.00  0.00     0.032 C 
BRANCH  11  12
ATOM     12  C   UNL A   1      44.267  25.699  33.454  1.00  0.00     0.124 C 
BRANCH  12  13
ATOM     13  N   UNL A   1      44.927  24.663  34.220  1.00  0.00    -0.335 N 
ATOM     14  C   UNL A   1      45.632  23.128  37.416  1.00  0.00     0.069 C 
ATOM     15  C   UNL A   1      45.452  23.558  35.995  1.00  0.00     0.058 A 
ATOM     16  N   UNL A   1      46.622  23.803  35.311  1.00  0.00    -0.242 NA
ATOM     17  C   UNL A   1      44.383  23.786  35.120  1.00  0.00     0.037 A 
ATOM     18  C   UNL A   1      46.264  24.420  34.215  1.00  0.00     0.199 A 
ATOM     19  C   UNL A   1      42.945  23.612  34.968  1.00  0.00     0.066 C 
ENDBRANCH  12  13
ENDBRANCH  11  12
ENDBRANCH   7  11
BRANCH   6  20
ATOM     20  N   UNL A   1      46.614  25.303  29.794  1.00  0.00    -0.345 N 
ATOM     21  H   UNL A   1      47.198  25.562  28.999  1.00  0.00     0.345 HD
ATOM     22  H   UNL A   1      46.913  24.397  30.154  1.00  0.00     0.345 HD
ATOM     23  H   UNL A   1      46.705  26.006  30.527  1.00  0.00     0.345 HD
ENDBRANCH   6  20
ENDBRANCH   3   6
ENDBRANCH   1   2
BRANCH   1  24
ATOM     24  C   UNL A   1      43.370  24.131  24.694  1.00  0.00     0.042 C 
BRANCH  24  25
ATOM     25  C   UNL A   1      43.244  22.796  25.477  1.00  0.00     0.118 C 
BRANCH  25  26
ATOM     26  N   UNL A   1      41.830  22.379  25.591  1.00  0.00    -0.352 N 
ATOM     27  C   UNL A   1      40.782  22.795  26.393  1.00  0.00     0.251 C 
ATOM     28  H   UNL A   1      41.583  21.657  24.968  1.00  0.00     0.163 HD
ATOM     29  O   UNL A   1      39.821  22.063  26.559  1.00  0.00    -0.269 OA
BRANCH  27  30
ATOM     30  C   UNL A   1      40.813  24.118  27.037  1.00  0.00     0.039 A 
ATOM     31  C   UNL A   1      41.487  24.336  28.243  1.00  0.00     0.014 A 
ATOM     32  C   UNL A   1      40.114  25.153  26.439  1.00  0.00     0.014 A 
ATOM     33  C   UNL A   1      41.446  25.608  28.805  1.00  0.00     0.010 A 
ATOM     34  C   UNL A   1      40.304  26.441  26.838  1.00  0.00     0.010 A 
ATOM     35  C   UNL A   1      40.842  26.653  28.086  1.00  0.00    -0.014 A 
BRANCH  35  36
ATOM     36  C   UNL A   1      40.787  28.005  28.603  1.00  0.00     0.031 A 
ATOM     37  C   UNL A   1      41.864  28.867  28.084  1.00  0.00     0.074 A 
ATOM     38  C   UNL A   1      39.770  28.477  29.356  1.00  0.00     0.049 A 
ATOM     39  N   UNL A   1      42.916  29.250  28.725  1.00  0.00    -0.248 NA
ATOM     40  C   UNL A   1      41.883  29.177  26.648  1.00  0.00     0.031 C 
ATOM     41  C   UNL A   1      38.478  27.862  29.682  1.00  0.00     0.029 A 
ATOM     42  N   UNL A   1      39.672  29.694  29.952  1.00  0.00    -0.354 N 
ATOM     43  C   UNL A   1      43.635  30.031  27.833  1.00  0.00     0.074 A 
ATOM     44  C   UNL A   1      43.065  29.785  26.533  1.00  0.00     0.031 C 
ATOM     45  C   UNL A   1      37.652  28.790  30.216  1.00  0.00     0.029 A 
ATOM     46  C   UNL A   1      38.408  30.008  30.433  1.00  0.00     0.049 A 
ATOM     47  H   UNL A   1      40.438  30.305  30.038  1.00  0.00     0.167 HD
ATOM     48  C   UNL A   1      44.460  31.008  28.299  1.00  0.00     0.037 A 
ATOM     49  C   UNL A   1      38.025  31.208  30.937  1.00  0.00     0.037 A 
ATOM     50  C   UNL A   1      44.750  30.806  29.702  1.00  0.00     0.049 A 
ATOM     51  C   UNL A   1      39.266  31.923  31.342  1.00  0.00     0.074 A 
ATOM     52  C   UNL A   1      45.325  29.780  30.431  1.00  0.00     0.029 A 
ATOM     53  N   UNL A   1      44.059  31.563  30.619  1.00  0.00    -0.354 N 
ATOM     54  N   UNL A   1      40.032  31.534  32.326  1.00  0.00    -0.248 NA
ATOM     55  C   UNL A   1      39.913  32.758  30.339  1.00  0.00     0.031 C 
ATOM     56  C   UNL A   1      44.544  29.690  31.622  1.00  0.00     0.029 A 
ATOM     57  C   UNL A   1      43.595  30.712  31.592  1.00  0.00     0.049 A 
ATOM     58  H   UNL A   1      43.922  32.537  30.585  1.00  0.00     0.167 HD
ATOM     59  C   UNL A   1      41.326  31.699  31.852  1.00  0.00     0.074 A 
ATOM     60  C   UNL A   1      41.190  32.516  30.647  1.00  0.00     0.031 C 
ATOM     61  C   UNL A   1      42.352  30.915  32.301  1.00  0.00     0.037 A 
BRANCH  48  62
ATOM     62  C   UNL A   1      44.660  32.338  27.618  1.00  0.00     0.064 A 
ATOM     63  C   UNL A   1      45.819  32.527  26.840  1.00  0.00     0.173 A 
ATOM     64  C   UNL A   1      43.946  33.515  27.940  1.00  0.00     0.173 A 
ATOM     65  F   UNL A   1      46.577  31.481  26.476  1.00  0.00    -0.203 F 
ATOM     66  C   UNL A   1      46.282  33.801  26.504  1.00  0.00     0.198 A 
ATOM     67  C   UNL A   1      44.384  34.780  27.557  1.00  0.00     0.198 A 
ATOM     68  F   UNL A   1      42.866  33.512  28.726  1.00  0.00    -0.203 F 
ATOM     69  F   UNL A   1      47.463  33.934  25.885  1.00  0.00    -0.200 F 
ATOM     70  C   UNL A   1      45.570  34.926  26.872  1.00  0.00     0.200 A 
ATOM     71  F   UNL A   1      43.686  35.859  27.936  1.00  0.00    -0.200 F 
ATOM     72  F   UNL A   1      46.047  36.150  26.613  1.00  0.00    -0.200 F 
ENDBRANCH  48  62
BRANCH  49  73
ATOM     73  C   UNL A   1      36.729  31.904  30.741  1.00  0.00     0.064 A 
ATOM     74  C   UNL A   1      35.847  32.104  31.815  1.00  0.00     0.173 A 
ATOM     75  C   UNL A   1      36.460  32.635  29.566  1.00  0.00     0.173 A 
ATOM     76  F   UNL A   1      36.058  31.485  32.986  1.00  0.00    -0.203 F 
ATOM     77  C   UNL A   1      34.777  33.004  31.729  1.00  0.00     0.198 A 
ATOM     78  C   UNL A   1      35.391  33.528  29.481  1.00  0.00     0.198 A 
ATOM     79  F   UNL A   1      37.285  32.571  28.513  1.00  0.00    -0.203 F 
ATOM     80  F   UNL A   1      33.993  33.216  32.796  1.00  0.00    -0.200 F 
ATOM     81  C   UNL A   1      34.556  33.723  30.566  1.00  0.00     0.200 A 
ATOM     82  F   UNL A   1      35.212  34.247  28.364  1.00  0.00    -0.200 F 
ATOM     83  F   UNL A   1      33.572  34.630  30.504  1.00  0.00    -0.200 F 
ENDBRANCH  49  73
BRANCH  61  84
ATOM     84  C   UNL A   1      42.100  30.032  33.494  1.00  0.00     0.064 A 
ATOM     85  C   UNL A   1      41.677  28.692  33.414  1.00  0.00     0.173 A 
ATOM     86  C   UNL A   1      42.450  30.517  34.761  1.00  0.00     0.173 A 
ATOM     87  F   UNL A   1      41.417  28.118  32.233  1.00  0.00    -0.203 F 
ATOM     88  C   UNL A   1      41.572  27.895  34.555  1.00  0.00     0.198 A 
ATOM     89  C   UNL A   1      42.379  29.709  35.893  1.00  0.00     0.198 A 
ATOM     90  F   UNL A   1      42.911  31.771  34.896  1.00  0.00    -0.203 F 
ATOM     91  F   UNL A   1      41.157  26.624  34.452  1.00  0.00    -0.200 F 
ATOM     92  C   UNL A   1      41.931  28.402  35.792  1.00  0.00     0.200 A 
ATOM     93  F   UNL A   1      42.774  30.191  37.079  1.00  0.00    -0.200 F 
ATOM     94  F   UNL A   1      41.871  27.626  36.882  1.00  0.00    -0.200 F 
ENDBRANCH  61  84
ENDBRANCH  35  36
ENDBRANCH  27  30
ENDBRANCH  25  26
ENDBRANCH  24  25
ENDBRANCH   1  24
TORSDOF 14
ENDMDL
MODEL 2
REMARK VINA RESULT:     -11.1      3.932      6.861
REMARK SMILES Cc1ncn(CC[C@@H]2CCC[C@@]2([NH3+])C(=O)NCCCNC(=O)c2ccc(-c3c4nc(c(-c5c(F)c(F)c(F)c(F)c5F)c5ccc([nH]5)c(-c5c(F)c(F)c(F)c(F)c5F)c5nc(c(-c6c(F)c(F)c(F)c(F)c6F)c6ccc3[nH]6)C=C5)C=C4)cc2)c1C
REMARK SMILES IDX 17 1 16 2 14 3 15 4 12 6 8 7 9 8 10 9 11 10 7 11 6 12 5 13
REMARK SMILES IDX 1 14 2 15 3 16 86 17 4 18 87 19 13 20 18 24 19 25 20 26
REMARK SMILES IDX 21 27 22 29 23 30 24 31 85 32 25 33 84 34 26 35 27 36 28 37
REMARK SMILES IDX 78 38 29 39 83 40 77 41 79 42 30 43 82 44 76 45 75 46 31 48
REMARK SMILES IDX 63 49 43 50 62 51 44 52 47 53 61 54 80 55 45 56 46 57 60 59
REMARK SMILES IDX 81 60 48 61 32 62 33 63 41 64 34 65 35 66 39 67 42 68 36 69
REMARK SMILES IDX 37 70 40 71 38 72 64 73 65 74 73 75 66 76 67 77 71 78 74 79
REMARK SMILES IDX 68 80 69 81 72 82 70 83 49 84 50 85 58 86 51 87 52 88 56 89
REMARK SMILES IDX 59 90 53 91 54 92 57 93 55 94
REMARK H PARENT 16 5 13 21 13 22 13 23 20 28 79 47 47 58
REMARK Flexibility Score: inf
ROOT
ATOM      1  C   UNL A   1      38.514  22.665  25.824  1.00  0.00     0.118 C 
ENDROOT
BRANCH   1   2
ATOM      2  N   UNL A   1      37.464  22.735  24.621  1.00  0.00    -0.351 N 
ATOM      3  C   UNL A   1      36.291  22.857  23.919  1.00  0.00     0.281 C 
ATOM      4  O   UNL A   1      36.607  22.964  22.702  1.00  0.00    -0.268 OA
ATOM      5  H   UNL A   1      38.082  22.593  23.868  1.00  0.00     0.163 HD
BRANCH   3   6
ATOM      6  C   UNL A   1      34.576  22.867  24.161  1.00  0.00     0.176 C 
ATOM      7  C   UNL A   1      33.566  21.683  24.469  1.00  0.00     0.062 C 
ATOM      8  C   UNL A   1      32.537  22.185  25.490  1.00  0.00     0.011 C 
ATOM      9  C   UNL A   1      33.234  23.266  26.275  1.00  0.00     0.008 C 
ATOM     10  C   UNL A   1      34.403  23.762  25.433  1.00  0.00     0.079 C 
BRANCH   7  11
ATOM     11  C   UNL A   1      32.776  20.887  23.329  1.00  0.00     0.032 C 
BRANCH  11  12
ATOM     12  C   UNL A   1      32.305  19.393  23.355  1.00  0.00     0.124 C 
BRANCH  12  13
ATOM     13  N   UNL A   1      32.765  18.388  24.290  1.00  0.00    -0.335 N 
ATOM     14  C   UNL A   1      32.717  14.967  25.454  1.00  0.00     0.069 C 
ATOM     15  C   UNL A   1      32.929  16.413  25.135  1.00  0.00     0.058 A 
ATOM     16  N   UNL A   1      32.687  17.278  26.178  1.00  0.00    -0.242 NA
ATOM     17  C   UNL A   1      33.331  17.170  24.027  1.00  0.00     0.037 A 
ATOM     18  C   UNL A   1      32.652  18.471  25.642  1.00  0.00     0.199 A 
ATOM     19  C   UNL A   1      33.900  17.067  22.691  1.00  0.00     0.066 C 
ENDBRANCH  12  13
ENDBRANCH  11  12
ENDBRANCH   7  11
BRANCH   6  20
ATOM     20  N   UNL A   1      33.994  23.689  23.061  1.00  0.00    -0.345 N 
ATOM     21  H   UNL A   1      34.469  23.470  22.185  1.00  0.00     0.345 HD
ATOM     22  H   UNL A   1      34.116  24.679  23.275  1.00  0.00     0.345 HD
ATOM     23  H   UNL A   1      33.000  23.482  22.970  1.00  0.00     0.345 HD
ENDBRANCH   6  20
ENDBRANCH   3   6
ENDBRANCH   1   2
BRANCH   1  24
ATOM     24  C   UNL A   1      39.514  21.557  26.500  1.00  0.00     0.042 C 
BRANCH  24  25
ATOM     25  C   UNL A   1      40.610  21.835  27.564  1.00  0.00     0.118 C 
BRANCH  25  26
ATOM     26  N   UNL A   1      41.933  22.016  26.929  1.00  0.00    -0.352 N 
ATOM     27  C   UNL A   1      42.617  23.127  26.468  1.00  0.00     0.251 C 
ATOM     28  H   UNL A   1      42.429  21.174  26.809  1.00  0.00     0.163 HD
ATOM     29  O   UNL A   1      43.522  22.988  25.662  1.00  0.00    -0.269 OA
BRANCH  27  30
ATOM     30  C   UNL A   1      42.270  24.473  26.953  1.00  0.00     0.039 A 
ATOM     31  C   UNL A   1      41.296  25.255  26.323  1.00  0.00     0.014 A 
ATOM     32  C   UNL A   1      42.967  24.978  28.036  1.00  0.00     0.014 A 
ATOM     33  C   UNL A   1      41.045  26.529  26.822  1.00  0.00     0.010 A 
ATOM     34  C   UNL A   1      42.533  26.095  28.684  1.00  0.00     0.010 A 
ATOM     35  C   UNL A   1      41.679  26.936  28.007  1.00  0.00    -0.014 A 
BRANCH  35  36
ATOM     36  C   UNL A   1      41.443  28.239  28.593  1.00  0.00     0.031 A 
ATOM     37  C   UNL A   1      42.467  29.234  28.224  1.00  0.00     0.074 A 
ATOM     38  C   UNL A   1      40.324  28.561  29.277  1.00  0.00     0.049 A 
ATOM     39  N   UNL A   1      43.416  29.673  28.979  1.00  0.00    -0.248 NA
ATOM     40  C   UNL A   1      42.576  29.638  26.816  1.00  0.00     0.031 C 
ATOM     41  C   UNL A   1      39.078  27.805  29.449  1.00  0.00     0.029 A 
ATOM     42  N   UNL A   1      40.053  29.721  29.931  1.00  0.00    -0.354 N 
ATOM     43  C   UNL A   1      44.125  30.577  28.201  1.00  0.00     0.074 A 
ATOM     44  C   UNL A   1      43.695  30.363  26.843  1.00  0.00     0.031 C 
ATOM     45  C   UNL A   1      38.120  28.611  29.958  1.00  0.00     0.029 A 
ATOM     46  C   UNL A   1      38.727  29.879  30.312  1.00  0.00     0.049 A 
ATOM     47  H   UNL A   1      40.743  30.396  30.120  1.00  0.00     0.167 HD
ATOM     48  C   UNL A   1      44.805  31.596  28.795  1.00  0.00     0.037 A 
ATOM     49  C   UNL A   1      38.183  31.002  30.847  1.00  0.00     0.037 A 
ATOM     50  C   UNL A   1      44.995  31.331  30.205  1.00  0.00     0.049 A 
ATOM     51  C   UNL A   1      39.307  31.804  31.403  1.00  0.00     0.074 A 
ATOM     52  C   UNL A   1      45.607  30.319  30.923  1.00  0.00     0.029 A 
ATOM     53  N   UNL A   1      44.155  31.956  31.097  1.00  0.00    -0.354 N 
ATOM     54  N   UNL A   1      40.023  31.427  32.429  1.00  0.00    -0.248 NA
ATOM     55  C   UNL A   1      39.948  32.762  30.512  1.00  0.00     0.031 C 
ATOM     56  C   UNL A   1      44.741  30.076  32.031  1.00  0.00     0.029 A 
ATOM     57  C   UNL A   1      43.699  31.002  31.974  1.00  0.00     0.049 A 
ATOM     58  H   UNL A   1      43.923  32.912  31.106  1.00  0.00     0.167 HD
ATOM     59  C   UNL A   1      41.328  31.746  32.084  1.00  0.00     0.074 A 
ATOM     60  C   UNL A   1      41.212  32.624  30.920  1.00  0.00     0.031 C 
ATOM     61  C   UNL A   1      42.387  31.037  32.578  1.00  0.00     0.037 A 
BRANCH  48  62
ATOM     62  C   UNL A   1      44.925  32.981  28.212  1.00  0.00     0.064 A 
ATOM     63  C   UNL A   1      46.207  33.461  27.879  1.00  0.00     0.173 A 
ATOM     64  C   UNL A   1      43.904  33.957  28.256  1.00  0.00     0.173 A 
ATOM     65  F   UNL A   1      47.254  32.624  27.810  1.00  0.00    -0.203 F 
ATOM     66  C   UNL A   1      46.464  34.823  27.712  1.00  0.00     0.198 A 
ATOM     67  C   UNL A   1      44.156  35.309  28.036  1.00  0.00     0.198 A 
ATOM     68  F   UNL A   1      42.651  33.674  28.622  1.00  0.00    -0.203 F 
ATOM     69  F   UNL A   1      47.724  35.242  27.537  1.00  0.00    -0.200 F 
ATOM     70  C   UNL A   1      45.441  35.746  27.801  1.00  0.00     0.200 A 
ATOM     71  F   UNL A   1      43.151  36.189  28.141  1.00  0.00    -0.200 F 
ATOM     72  F   UNL A   1      45.695  37.057  27.711  1.00  0.00    -0.200 F 
ENDBRANCH  48  62
BRANCH  49  73
ATOM     73  C   UNL A   1      36.845  31.581  30.575  1.00  0.00     0.064 A 
ATOM     74  C   UNL A   1      35.974  31.915  31.625  1.00  0.00     0.173 A 
ATOM     75  C   UNL A   1      36.508  32.083  29.301  1.00  0.00     0.173 A 
ATOM     76  F   UNL A   1      36.246  31.519  32.878  1.00  0.00    -0.203 F 
ATOM     77  C   UNL A   1      34.851  32.725  31.420  1.00  0.00     0.198 A 
ATOM     78  C   UNL A   1      35.386  32.887  29.096  1.00  0.00     0.198 A 
ATOM     79  F   UNL A   1      37.314  31.883  28.249  1.00  0.00    -0.203 F 
ATOM     80  F   UNL A   1      34.079  33.075  32.458  1.00  0.00    -0.200 F 
ATOM     81  C   UNL A   1      34.564  33.220  30.158  1.00  0.00     0.200 A 
ATOM     82  F   UNL A   1      35.142  33.392  27.879  1.00  0.00    -0.200 F 
ATOM     83  F   UNL A   1      33.527  34.047  29.972  1.00  0.00    -0.200 F 
ENDBRANCH  49  73
BRANCH  61  84
ATOM     84  C   UNL A   1      42.126  30.057  33.691  1.00  0.00     0.064 A 
ATOM     85  C   UNL A   1      41.747  28.716  33.495  1.00  0.00     0.173 A 
ATOM     86  C   UNL A   1      42.422  30.452  35.002  1.00  0.00     0.173 A 
ATOM     87  F   UNL A   1      41.541  28.229  32.265  1.00  0.00    -0.203 F 
ATOM     88  C   UNL A   1      41.633  27.830  34.567  1.00  0.00     0.198 A 
ATOM     89  C   UNL A   1      42.342  29.557  36.066  1.00  0.00     0.198 A 
ATOM     90  F   UNL A   1      42.841  31.704  35.247  1.00  0.00    -0.203 F 
ATOM     91  F   UNL A   1      41.260  26.559  34.354  1.00  0.00    -0.200 F 
ATOM     92  C   UNL A   1      41.938  28.250  35.850  1.00  0.00     0.200 A 
ATOM     93  F   UNL A   1      42.686  29.956  37.298  1.00  0.00    -0.200 F 
ATOM     94  F   UNL A   1      41.869  27.389  36.875  1.00  0.00    -0.200 F 
ENDBRANCH  61  84
ENDBRANCH  35  36
ENDBRANCH  27  30
ENDBRANCH  25  26
ENDBRANCH  24  25
ENDBRANCH   1  24
TORSDOF 14
ENDMDL
MODEL 3
REMARK VINA RESULT:     -11.0      5.118     11.271
REMARK SMILES Cc1ncn(CC[C@@H]2CCC[C@@]2([NH3+])C(=O)NCCCNC(=O)c2ccc(-c3c4nc(c(-c5c(F)c(F)c(F)c(F)c5F)c5ccc([nH]5)c(-c5c(F)c(F)c(F)c(F)c5F)c5nc(c(-c6c(F)c(F)c(F)c(F)c6F)c6ccc3[nH]6)C=C5)C=C4)cc2)c1C
REMARK SMILES IDX 17 1 16 2 14 3 15 4 12 6 8 7 9 8 10 9 11 10 7 11 6 12 5 13
REMARK SMILES IDX 1 14 2 15 3 16 86 17 4 18 87 19 13 20 18 24 19 25 20 26
REMARK SMILES IDX 21 27 22 29 23 30 24 31 85 32 25 33 84 34 26 35 27 36 28 37
REMARK SMILES IDX 78 38 29 39 83 40 77 41 79 42 30 43 82 44 76 45 75 46 31 48
REMARK SMILES IDX 63 49 43 50 62 51 44 52 47 53 61 54 80 55 45 56 46 57 60 59
REMARK SMILES IDX 81 60 48 61 32 62 33 63 41 64 34 65 35 66 39 67 42 68 36 69
REMARK SMILES IDX 37 70 40 71 38 72 64 73 65 74 73 75 66 76 67 77 71 78 74 79
REMARK SMILES IDX 68 80 69 81 72 82 70 83 49 84 50 85 58 86 51 87 52 88 56 89
REMARK SMILES IDX 59 90 53 91 54 92 57 93 55 94
REMARK H PARENT 16 5 13 21 13 22 13 23 20 28 79 47 47 58
REMARK Flexibility Score: inf
ROOT
ATOM      1  C   UNL A   1      31.836  28.177  27.504  1.00  0.00     0.118 C 
ENDROOT
BRANCH   1   2
ATOM      2  N   UNL A   1      31.069  27.007  26.731  1.00  0.00    -0.351 N 
ATOM      3  C   UNL A   1      30.797  25.813  26.112  1.00  0.00     0.281 C 
ATOM      4  O   UNL A   1      29.547  25.769  25.942  1.00  0.00    -0.268 OA
ATOM      5  H   UNL A   1      30.191  27.439  26.628  1.00  0.00     0.163 HD
BRANCH   3   6
ATOM      6  C   UNL A   1      31.600  24.417  25.474  1.00  0.00     0.176 C 
ATOM      7  C   UNL A   1      33.087  24.223  24.955  1.00  0.00     0.062 C 
ATOM      8  C   UNL A   1      33.581  22.849  25.425  1.00  0.00     0.011 C 
ATOM      9  C   UNL A   1      32.808  22.543  26.681  1.00  0.00     0.008 C 
ATOM     10  C   UNL A   1      31.552  23.406  26.668  1.00  0.00     0.079 C 
BRANCH   7  11
ATOM     11  C   UNL A   1      33.508  24.398  23.423  1.00  0.00     0.032 C 
BRANCH  11  12
ATOM     12  C   UNL A   1      33.642  25.733  22.614  1.00  0.00     0.124 C 
BRANCH  12  13
ATOM     13  N   UNL A   1      32.609  26.740  22.488  1.00  0.00    -0.335 N 
ATOM     14  C   UNL A   1      30.594  29.334  23.996  1.00  0.00     0.069 C 
ATOM     15  C   UNL A   1      31.330  28.343  23.153  1.00  0.00     0.058 A 
ATOM     16  N   UNL A   1      30.531  27.436  22.494  1.00  0.00    -0.242 NA
ATOM     17  C   UNL A   1      32.663  28.067  22.822  1.00  0.00     0.037 A 
ATOM     18  C   UNL A   1      31.342  26.509  22.053  1.00  0.00     0.199 A 
ATOM     19  C   UNL A   1      34.018  28.590  22.917  1.00  0.00     0.066 C 
ENDBRANCH  12  13
ENDBRANCH  11  12
ENDBRANCH   7  11
BRANCH   6  20
ATOM     20  N   UNL A   1      30.681  23.821  24.461  1.00  0.00    -0.345 N 
ATOM     21  H   UNL A   1      29.873  24.431  24.335  1.00  0.00     0.345 HD
ATOM     22  H   UNL A   1      30.368  22.906  24.783  1.00  0.00     0.345 HD
ATOM     23  H   UNL A   1      31.173  23.720  23.574  1.00  0.00     0.345 HD
ENDBRANCH   6  20
ENDBRANCH   3   6
ENDBRANCH   1   2
BRANCH   1  24
ATOM     24  C   UNL A   1      32.515  29.626  27.149  1.00  0.00     0.042 C 
BRANCH  24  25
ATOM     25  C   UNL A   1      34.032  29.921  27.005  1.00  0.00     0.118 C 
BRANCH  25  26
ATOM     26  N   UNL A   1      34.323  31.347  27.262  1.00  0.00    -0.352 N 
ATOM     27  C   UNL A   1      35.310  31.996  27.983  1.00  0.00     0.251 C 
ATOM     28  H   UNL A   1      33.685  31.961  26.833  1.00  0.00     0.163 HD
ATOM     29  O   UNL A   1      35.134  33.146  28.348  1.00  0.00    -0.269 OA
BRANCH  27  30
ATOM     30  C   UNL A   1      36.575  31.314  28.301  1.00  0.00     0.039 A 
ATOM     31  C   UNL A   1      37.562  31.918  29.086  1.00  0.00     0.014 A 
ATOM     32  C   UNL A   1      36.794  30.058  27.763  1.00  0.00     0.014 A 
ATOM     33  C   UNL A   1      38.743  31.222  29.319  1.00  0.00     0.010 A 
ATOM     34  C   UNL A   1      37.816  29.277  28.213  1.00  0.00     0.010 A 
ATOM     35  C   UNL A   1      38.855  29.896  28.868  1.00  0.00    -0.014 A 
BRANCH  35  36
ATOM     36  C   UNL A   1      40.048  29.108  29.097  1.00  0.00     0.031 A 
ATOM     37  C   UNL A   1      40.329  28.885  30.527  1.00  0.00     0.074 A 
ATOM     38  C   UNL A   1      40.746  28.503  28.112  1.00  0.00     0.049 A 
ATOM     39  N   UNL A   1      41.241  29.467  31.229  1.00  0.00    -0.248 NA
ATOM     40  C   UNL A   1      39.377  28.086  31.312  1.00  0.00     0.031 C 
ATOM     41  C   UNL A   1      40.422  28.347  26.689  1.00  0.00     0.029 A 
ATOM     42  N   UNL A   1      41.916  27.819  28.220  1.00  0.00    -0.354 N 
ATOM     43  C   UNL A   1      41.116  28.948  32.509  1.00  0.00     0.074 A 
ATOM     44  C   UNL A   1      39.846  28.271  32.548  1.00  0.00     0.031 C 
ATOM     45  C   UNL A   1      41.247  27.435  26.129  1.00  0.00     0.029 A 
ATOM     46  C   UNL A   1      42.263  27.077  27.099  1.00  0.00     0.049 A 
ATOM     47  H   UNL A   1      42.473  27.849  29.030  1.00  0.00     0.167 HD
ATOM     48  C   UNL A   1      42.200  28.905  33.331  1.00  0.00     0.037 A 
ATOM     49  C   UNL A   1      43.300  26.207  27.014  1.00  0.00     0.037 A 
ATOM     50  C   UNL A   1      43.242  29.787  32.853  1.00  0.00     0.049 A 
ATOM     51  C   UNL A   1      44.254  26.562  28.101  1.00  0.00     0.074 A 
ATOM     52  C   UNL A   1      43.315  31.145  32.599  1.00  0.00     0.029 A 
ATOM     53  N   UNL A   1      44.293  29.230  32.163  1.00  0.00    -0.354 N 
ATOM     54  N   UNL A   1      44.936  27.675  28.126  1.00  0.00    -0.248 NA
ATOM     55  C   UNL A   1      44.061  25.918  29.393  1.00  0.00     0.031 C 
ATOM     56  C   UNL A   1      44.070  31.256  31.393  1.00  0.00     0.029 A 
ATOM     57  C   UNL A   1      44.484  29.975  31.026  1.00  0.00     0.049 A 
ATOM     58  H   UNL A   1      44.813  28.440  32.435  1.00  0.00     0.167 HD
ATOM     59  C   UNL A   1      44.879  28.094  29.447  1.00  0.00     0.074 A 
ATOM     60  C   UNL A   1      44.382  26.938  30.193  1.00  0.00     0.031 C 
ATOM     61  C   UNL A   1      44.951  29.418  29.776  1.00  0.00     0.037 A 
BRANCH  48  62
ATOM     62  C   UNL A   1      42.476  27.786  34.303  1.00  0.00     0.064 A 
ATOM     63  C   UNL A   1      43.036  26.590  33.811  1.00  0.00     0.173 A 
ATOM     64  C   UNL A   1      41.940  27.712  35.609  1.00  0.00     0.173 A 
ATOM     65  F   UNL A   1      43.572  26.541  32.582  1.00  0.00    -0.203 F 
ATOM     66  C   UNL A   1      42.965  25.393  34.527  1.00  0.00     0.198 A 
ATOM     67  C   UNL A   1      41.920  26.528  36.341  1.00  0.00     0.198 A 
ATOM     68  F   UNL A   1      41.315  28.739  36.191  1.00  0.00    -0.203 F 
ATOM     69  F   UNL A   1      43.384  24.255  33.957  1.00  0.00    -0.200 F 
ATOM     70  C   UNL A   1      42.397  25.361  35.786  1.00  0.00     0.200 A 
ATOM     71  F   UNL A   1      41.352  26.515  37.554  1.00  0.00    -0.200 F 
ATOM     72  F   UNL A   1      42.265  24.203  36.445  1.00  0.00    -0.200 F 
ENDBRANCH  48  62
BRANCH  49  73
ATOM     73  C   UNL A   1      43.332  24.897  26.318  1.00  0.00     0.064 A 
ATOM     74  C   UNL A   1      44.231  24.658  25.266  1.00  0.00     0.173 A 
ATOM     75  C   UNL A   1      42.686  23.766  26.857  1.00  0.00     0.173 A 
ATOM     76  F   UNL A   1      44.924  25.672  24.728  1.00  0.00    -0.203 F 
ATOM     77  C   UNL A   1      44.489  23.363  24.800  1.00  0.00     0.198 A 
ATOM     78  C   UNL A   1      42.941  22.475  26.389  1.00  0.00     0.198 A 
ATOM     79  F   UNL A   1      41.867  23.879  27.912  1.00  0.00    -0.203 F 
ATOM     80  F   UNL A   1      45.401  23.167  23.837  1.00  0.00    -0.200 F 
ATOM     81  C   UNL A   1      43.852  22.272  25.369  1.00  0.00     0.200 A 
ATOM     82  F   UNL A   1      42.349  21.426  26.975  1.00  0.00    -0.200 F 
ATOM     83  F   UNL A   1      44.147  21.028  24.968  1.00  0.00    -0.200 F 
ENDBRANCH  49  73
BRANCH  61  84
ATOM     84  C   UNL A   1      45.333  30.398  28.698  1.00  0.00     0.064 A 
ATOM     85  C   UNL A   1      44.419  31.002  27.815  1.00  0.00     0.173 A 
ATOM     86  C   UNL A   1      46.656  30.856  28.661  1.00  0.00     0.173 A 
ATOM     87  F   UNL A   1      43.117  30.695  27.851  1.00  0.00    -0.203 F 
ATOM     88  C   UNL A   1      44.825  31.988  26.914  1.00  0.00     0.198 A 
ATOM     89  C   UNL A   1      47.051  31.864  27.786  1.00  0.00     0.198 A 
ATOM     90  F   UNL A   1      47.564  30.356  29.515  1.00  0.00    -0.203 F 
ATOM     91  F   UNL A   1      43.936  32.541  26.076  1.00  0.00    -0.200 F 
ATOM     92  C   UNL A   1      46.139  32.423  26.906  1.00  0.00     0.200 A 
ATOM     93  F   UNL A   1      48.313  32.315  27.817  1.00  0.00    -0.200 F 
ATOM     94  F   UNL A   1      46.521  33.398  26.071  1.00  0.00    -0.200 F 
ENDBRANCH  61  84
ENDBRANCH  35  36
ENDBRANCH  27  30
ENDBRANCH  25  26
ENDBRANCH  24  25
ENDBRANCH   1  24
TORSDOF 14
ENDMDL
