MODEL 1
REMARK VINA RESULT:     -13.3      0.000      0.000
REMARK SMILES Cc1cc(F)c(-c2ccc(F)c(C(=O)NCCCNC(=O)c3ccc(-c4c5nc(c(-c6c(F)c(F)c(F)c(F)c6F)c6ccc([nH]6)c(-c6c(F)c(F)c(F)c(F)c6F)c6nc(c(-c7c(F)c(F)c(F)c(F)c7F)c7ccc4[nH]7)C=C6)C=C5)cc3)c2)cc1F
REMARK SMILES IDX 17 1 16 2 15 3 13 4 14 5 12 7 7 8 8 9 85 10 9 11 10 12 11 13
REMARK SMILES IDX 6 14 1 15 2 16 3 17 87 18 4 19 86 20 88 21 5 22 18 23 19 24
REMARK SMILES IDX 20 25 21 27 22 28 23 29 84 30 24 31 83 32 25 33 26 34 27 35
REMARK SMILES IDX 77 36 28 37 82 38 76 39 78 40 29 41 81 42 75 43 74 44 30 46
REMARK SMILES IDX 62 47 42 48 61 49 43 50 46 51 60 52 79 53 44 54 45 55 59 57
REMARK SMILES IDX 80 58 47 59 31 60 32 61 40 62 33 63 34 64 38 65 41 66 35 67
REMARK SMILES IDX 36 68 39 69 37 70 63 71 64 72 72 73 65 74 66 75 70 76 73 77
REMARK SMILES IDX 67 78 68 79 71 80 69 81 48 82 49 83 57 84 50 85 51 86 55 87
REMARK SMILES IDX 58 88 52 89 53 90 56 91 54 92
REMARK H PARENT 15 6 19 26 78 45 46 56
REMARK Flexibility Score: inf
ROOT
ATOM      1  C   UNL A   1      33.523  28.847  24.320  1.00  0.00     0.042 C 
ENDROOT
BRANCH   1   2
ATOM      2  C   UNL A   1      32.557  28.814  23.151  1.00  0.00     0.118 C 
BRANCH   2   3
ATOM      3  N   UNL A   1      32.877  27.813  22.140  1.00  0.00    -0.352 N 
ATOM      4  C   UNL A   1      33.111  26.455  22.147  1.00  0.00     0.254 C 
ATOM      5  O   UNL A   1      33.297  25.934  21.048  1.00  0.00    -0.269 OA
ATOM      6  H   UNL A   1      32.940  28.199  21.237  1.00  0.00     0.163 HD
BRANCH   4   7
ATOM      7  C   UNL A   1      33.202  25.632  23.383  1.00  0.00     0.076 A 
ATOM      8  C   UNL A   1      34.481  24.181  24.888  1.00  0.00    -0.014 A 
ATOM      9  C   UNL A   1      33.285  23.802  25.510  1.00  0.00     0.012 A 
ATOM     10  C   UNL A   1      34.415  25.200  23.924  1.00  0.00     0.025 A 
ATOM     11  C   UNL A   1      32.068  24.354  25.109  1.00  0.00     0.041 A 
ATOM     12  C   UNL A   1      32.027  25.226  24.023  1.00  0.00     0.135 A 
ATOM     13  F   UNL A   1      30.820  25.637  23.609  1.00  0.00    -0.206 F 
BRANCH   8  14
ATOM     14  C   UNL A   1      35.745  23.447  25.115  1.00  0.00     0.020 A 
ATOM     15  C   UNL A   1      39.462  21.379  25.994  1.00  0.00     0.047 C 
ATOM     16  C   UNL A   1      38.157  22.065  25.735  1.00  0.00    -0.012 A 
ATOM     17  C   UNL A   1      37.101  21.405  25.100  1.00  0.00     0.046 A 
ATOM     18  C   UNL A   1      37.992  23.409  26.065  1.00  0.00     0.126 A 
ATOM     19  C   UNL A   1      35.919  22.089  24.803  1.00  0.00     0.131 A 
ATOM     20  C   UNL A   1      36.812  24.089  25.772  1.00  0.00     0.051 A 
ATOM     21  F   UNL A   1      38.978  24.071  26.686  1.00  0.00    -0.207 F 
ATOM     22  F   UNL A   1      34.931  21.397  24.212  1.00  0.00    -0.206 F 
ENDBRANCH   8  14
ENDBRANCH   4   7
ENDBRANCH   2   3
ENDBRANCH   1   2
BRANCH   1  23
ATOM     23  C   UNL A   1      32.852  28.895  25.679  1.00  0.00     0.118 C 
BRANCH  23  24
ATOM     24  N   UNL A   1      32.494  30.249  26.096  1.00  0.00    -0.352 N 
ATOM     25  C   UNL A   1      33.100  31.143  26.952  1.00  0.00     0.251 C 
ATOM     26  H   UNL A   1      31.665  30.586  25.687  1.00  0.00     0.163 HD
ATOM     27  O   UNL A   1      32.504  32.164  27.274  1.00  0.00    -0.269 OA
BRANCH  25  28
ATOM     28  C   UNL A   1      34.441  30.870  27.519  1.00  0.00     0.039 A 
ATOM     29  C   UNL A   1      34.806  29.589  27.917  1.00  0.00     0.014 A 
ATOM     30  C   UNL A   1      35.366  31.914  27.640  1.00  0.00     0.014 A 
ATOM     31  C   UNL A   1      35.963  29.400  28.658  1.00  0.00     0.010 A 
ATOM     32  C   UNL A   1      36.605  31.687  28.254  1.00  0.00     0.010 A 
ATOM     33  C   UNL A   1      36.889  30.441  28.829  1.00  0.00    -0.014 A 
BRANCH  33  34
ATOM     34  C   UNL A   1      38.134  30.168  29.598  1.00  0.00     0.031 A 
ATOM     35  C   UNL A   1      38.299  30.656  31.013  1.00  0.00     0.074 A 
ATOM     36  C   UNL A   1      39.084  29.387  29.041  1.00  0.00     0.049 A 
ATOM     37  N   UNL A   1      39.278  30.426  31.854  1.00  0.00    -0.248 NA
ATOM     38  C   UNL A   1      37.238  31.516  31.562  1.00  0.00     0.031 C 
ATOM     39  C   UNL A   1      39.040  28.860  27.675  1.00  0.00     0.029 A 
ATOM     40  N   UNL A   1      40.242  28.861  29.559  1.00  0.00    -0.354 N 
ATOM     41  C   UNL A   1      38.960  31.121  33.013  1.00  0.00     0.074 A 
ATOM     42  C   UNL A   1      37.716  31.814  32.762  1.00  0.00     0.031 C 
ATOM     43  C   UNL A   1      40.067  28.019  27.493  1.00  0.00     0.029 A 
ATOM     44  C   UNL A   1      40.892  28.011  28.696  1.00  0.00     0.049 A 
ATOM     45  H   UNL A   1      40.574  29.072  30.461  1.00  0.00     0.167 HD
ATOM     46  C   UNL A   1      39.635  31.160  34.186  1.00  0.00     0.037 A 
ATOM     47  C   UNL A   1      42.029  27.306  28.846  1.00  0.00     0.037 A 
ATOM     48  C   UNL A   1      40.855  30.440  34.442  1.00  0.00     0.049 A 
ATOM     49  C   UNL A   1      42.775  27.399  30.147  1.00  0.00     0.074 A 
ATOM     50  C   UNL A   1      41.595  30.394  35.611  1.00  0.00     0.029 A 
ATOM     51  N   UNL A   1      41.512  29.640  33.520  1.00  0.00    -0.354 N 
ATOM     52  N   UNL A   1      42.444  28.038  31.242  1.00  0.00    -0.248 NA
ATOM     53  C   UNL A   1      44.057  26.685  30.232  1.00  0.00     0.031 C 
ATOM     54  C   UNL A   1      42.726  29.610  35.380  1.00  0.00     0.029 A 
ATOM     55  C   UNL A   1      42.663  29.119  34.085  1.00  0.00     0.049 A 
ATOM     56  H   UNL A   1      41.206  29.469  32.600  1.00  0.00     0.167 HD
ATOM     57  C   UNL A   1      43.463  27.792  32.150  1.00  0.00     0.074 A 
ATOM     58  C   UNL A   1      44.418  26.930  31.485  1.00  0.00     0.031 C 
ATOM     59  C   UNL A   1      43.595  28.246  33.418  1.00  0.00     0.037 A 
BRANCH  46  60
ATOM     60  C   UNL A   1      39.081  32.001  35.300  1.00  0.00     0.064 A 
ATOM     61  C   UNL A   1      38.339  31.437  36.348  1.00  0.00     0.173 A 
ATOM     62  C   UNL A   1      39.383  33.370  35.374  1.00  0.00     0.173 A 
ATOM     63  F   UNL A   1      38.015  30.134  36.321  1.00  0.00    -0.203 F 
ATOM     64  C   UNL A   1      37.914  32.211  37.424  1.00  0.00     0.198 A 
ATOM     65  C   UNL A   1      38.982  34.136  36.467  1.00  0.00     0.198 A 
ATOM     66  F   UNL A   1      40.098  33.959  34.404  1.00  0.00    -0.203 F 
ATOM     67  F   UNL A   1      37.185  31.655  38.402  1.00  0.00    -0.200 F 
ATOM     68  C   UNL A   1      38.247  33.557  37.489  1.00  0.00     0.200 A 
ATOM     69  F   UNL A   1      39.319  35.431  36.535  1.00  0.00    -0.200 F 
ATOM     70  F   UNL A   1      37.858  34.294  38.538  1.00  0.00    -0.200 F 
ENDBRANCH  46  60
BRANCH  47  71
ATOM     71  C   UNL A   1      42.523  26.457  27.730  1.00  0.00     0.064 A 
ATOM     72  C   UNL A   1      43.416  26.964  26.776  1.00  0.00     0.173 A 
ATOM     73  C   UNL A   1      42.138  25.112  27.611  1.00  0.00     0.173 A 
ATOM     74  F   UNL A   1      43.802  28.246  26.834  1.00  0.00    -0.203 F 
ATOM     75  C   UNL A   1      43.900  26.160  25.745  1.00  0.00     0.198 A 
ATOM     76  C   UNL A   1      42.648  24.302  26.601  1.00  0.00     0.198 A 
ATOM     77  F   UNL A   1      41.288  24.576  28.501  1.00  0.00    -0.203 F 
ATOM     78  F   UNL A   1      44.726  26.678  24.826  1.00  0.00    -0.200 F 
ATOM     79  C   UNL A   1      43.523  24.828  25.664  1.00  0.00     0.200 A 
ATOM     80  F   UNL A   1      42.298  23.010  26.541  1.00  0.00    -0.200 F 
ATOM     81  F   UNL A   1      44.002  24.051  24.682  1.00  0.00    -0.200 F 
ENDBRANCH  47  71
BRANCH  59  82
ATOM     82  C   UNL A   1      44.799  27.813  34.199  1.00  0.00     0.064 A 
ATOM     83  C   UNL A   1      44.806  26.612  34.922  1.00  0.00     0.173 A 
ATOM     84  C   UNL A   1      45.994  28.544  34.120  1.00  0.00     0.173 A 
ATOM     85  F   UNL A   1      43.683  25.886  35.036  1.00  0.00    -0.203 F 
ATOM     86  C   UNL A   1      45.969  26.156  35.535  1.00  0.00     0.198 A 
ATOM     87  C   UNL A   1      47.162  28.070  34.710  1.00  0.00     0.198 A 
ATOM     88  F   UNL A   1      46.039  29.695  33.432  1.00  0.00    -0.203 F 
ATOM     89  F   UNL A   1      45.951  25.013  36.233  1.00  0.00    -0.200 F 
ATOM     90  C   UNL A   1      47.149  26.877  35.415  1.00  0.00     0.200 A 
ATOM     91  F   UNL A   1      48.305  28.758  34.578  1.00  0.00    -0.200 F 
ATOM     92  F   UNL A   1      48.275  26.418  35.978  1.00  0.00    -0.200 F 
ENDBRANCH  59  82
ENDBRANCH  33  34
ENDBRANCH  25  28
ENDBRANCH  23  24
ENDBRANCH   1  23
TORSDOF 11
ENDMDL
MODEL 2
REMARK VINA RESULT:     -13.3      1.222      2.143
REMARK SMILES Cc1cc(F)c(-c2ccc(F)c(C(=O)NCCCNC(=O)c3ccc(-c4c5nc(c(-c6c(F)c(F)c(F)c(F)c6F)c6ccc([nH]6)c(-c6c(F)c(F)c(F)c(F)c6F)c6nc(c(-c7c(F)c(F)c(F)c(F)c7F)c7ccc4[nH]7)C=C6)C=C5)cc3)c2)cc1F
REMARK SMILES IDX 17 1 16 2 15 3 13 4 14 5 12 7 7 8 8 9 85 10 9 11 10 12 11 13
REMARK SMILES IDX 6 14 1 15 2 16 3 17 87 18 4 19 86 20 88 21 5 22 18 23 19 24
REMARK SMILES IDX 20 25 21 27 22 28 23 29 84 30 24 31 83 32 25 33 26 34 27 35
REMARK SMILES IDX 77 36 28 37 82 38 76 39 78 40 29 41 81 42 75 43 74 44 30 46
REMARK SMILES IDX 62 47 42 48 61 49 43 50 46 51 60 52 79 53 44 54 45 55 59 57
REMARK SMILES IDX 80 58 47 59 31 60 32 61 40 62 33 63 34 64 38 65 41 66 35 67
REMARK SMILES IDX 36 68 39 69 37 70 63 71 64 72 72 73 65 74 66 75 70 76 73 77
REMARK SMILES IDX 67 78 68 79 71 80 69 81 48 82 49 83 57 84 50 85 51 86 55 87
REMARK SMILES IDX 58 88 52 89 53 90 56 91 54 92
REMARK H PARENT 15 6 19 26 78 45 46 56
REMARK Flexibility Score: inf
ROOT
ATOM      1  C   UNL A   1      31.997  27.869  26.660  1.00  0.00     0.042 C 
ENDROOT
BRANCH   1   2
ATOM      2  C   UNL A   1      31.277  26.880  25.764  1.00  0.00     0.118 C 
BRANCH   2   3
ATOM      3  N   UNL A   1      30.744  25.718  26.464  1.00  0.00    -0.352 N 
ATOM      4  C   UNL A   1      30.927  24.355  26.380  1.00  0.00     0.254 C 
ATOM      5  O   UNL A   1      30.323  23.676  27.210  1.00  0.00    -0.269 OA
ATOM      6  H   UNL A   1      30.099  25.966  27.166  1.00  0.00     0.163 HD
BRANCH   4   7
ATOM      7  C   UNL A   1      31.748  23.688  25.333  1.00  0.00     0.076 A 
ATOM      8  C   UNL A   1      33.867  22.705  24.594  1.00  0.00    -0.014 A 
ATOM      9  C   UNL A   1      33.408  22.755  23.271  1.00  0.00     0.012 A 
ATOM     10  C   UNL A   1      32.960  23.050  25.608  1.00  0.00     0.025 A 
ATOM     11  C   UNL A   1      32.127  23.223  22.981  1.00  0.00     0.041 A 
ATOM     12  C   UNL A   1      31.325  23.729  24.002  1.00  0.00     0.135 A 
ATOM     13  F   UNL A   1      30.150  24.270  23.651  1.00  0.00    -0.206 F 
BRANCH   8  14
ATOM     14  C   UNL A   1      35.288  22.449  24.917  1.00  0.00     0.020 A 
ATOM     15  C   UNL A   1      39.435  21.832  26.054  1.00  0.00     0.047 C 
ATOM     16  C   UNL A   1      37.990  22.024  25.712  1.00  0.00    -0.012 A 
ATOM     17  C   UNL A   1      37.191  20.953  25.300  1.00  0.00     0.046 A 
ATOM     18  C   UNL A   1      37.426  23.297  25.733  1.00  0.00     0.126 A 
ATOM     19  C   UNL A   1      35.865  21.169  24.916  1.00  0.00     0.131 A 
ATOM     20  C   UNL A   1      36.102  23.512  25.353  1.00  0.00     0.051 A 
ATOM     21  F   UNL A   1      38.157  24.346  26.134  1.00  0.00    -0.207 F 
ATOM     22  F   UNL A   1      35.140  20.100  24.552  1.00  0.00    -0.206 F 
ENDBRANCH   8  14
ENDBRANCH   4   7
ENDBRANCH   2   3
ENDBRANCH   1   2
BRANCH   1  23
ATOM     23  C   UNL A   1      32.836  28.889  25.914  1.00  0.00     0.118 C 
BRANCH  23  24
ATOM     24  N   UNL A   1      32.498  30.269  26.251  1.00  0.00    -0.352 N 
ATOM     25  C   UNL A   1      33.125  31.206  27.044  1.00  0.00     0.251 C 
ATOM     26  H   UNL A   1      31.667  30.590  25.834  1.00  0.00     0.163 HD
ATOM     27  O   UNL A   1      32.545  32.251  27.310  1.00  0.00    -0.269 OA
BRANCH  25  28
ATOM     28  C   UNL A   1      34.471  30.953  27.608  1.00  0.00     0.039 A 
ATOM     29  C   UNL A   1      34.879  29.667  27.944  1.00  0.00     0.014 A 
ATOM     30  C   UNL A   1      35.357  32.022  27.791  1.00  0.00     0.014 A 
ATOM     31  C   UNL A   1      36.036  29.482  28.686  1.00  0.00     0.010 A 
ATOM     32  C   UNL A   1      36.598  31.809  28.405  1.00  0.00     0.010 A 
ATOM     33  C   UNL A   1      36.922  30.545  28.918  1.00  0.00    -0.014 A 
BRANCH  33  34
ATOM     34  C   UNL A   1      38.171  30.279  29.684  1.00  0.00     0.031 A 
ATOM     35  C   UNL A   1      38.328  30.746  31.107  1.00  0.00     0.074 A 
ATOM     36  C   UNL A   1      39.133  29.520  29.115  1.00  0.00     0.049 A 
ATOM     37  N   UNL A   1      39.309  30.517  31.945  1.00  0.00    -0.248 NA
ATOM     38  C   UNL A   1      37.255  31.582  31.668  1.00  0.00     0.031 C 
ATOM     39  C   UNL A   1      39.097  29.013  27.741  1.00  0.00     0.029 A 
ATOM     40  N   UNL A   1      40.297  29.002  29.626  1.00  0.00    -0.354 N 
ATOM     41  C   UNL A   1      38.980  31.189  33.114  1.00  0.00     0.074 A 
ATOM     42  C   UNL A   1      37.727  31.868  32.873  1.00  0.00     0.031 C 
ATOM     43  C   UNL A   1      40.136  28.190  27.547  1.00  0.00     0.029 A 
ATOM     44  C   UNL A   1      40.960  28.175  28.751  1.00  0.00     0.049 A 
ATOM     45  H   UNL A   1      40.626  29.204  30.531  1.00  0.00     0.167 HD
ATOM     46  C   UNL A   1      39.654  31.220  34.288  1.00  0.00     0.037 A 
ATOM     47  C   UNL A   1      42.107  27.485  28.891  1.00  0.00     0.037 A 
ATOM     48  C   UNL A   1      40.884  30.513  34.534  1.00  0.00     0.049 A 
ATOM     49  C   UNL A   1      42.851  27.567  30.193  1.00  0.00     0.074 A 
ATOM     50  C   UNL A   1      41.624  30.459  35.703  1.00  0.00     0.029 A 
ATOM     51  N   UNL A   1      41.553  29.737  33.600  1.00  0.00    -0.354 N 
ATOM     52  N   UNL A   1      42.510  28.185  31.298  1.00  0.00    -0.248 NA
ATOM     53  C   UNL A   1      44.143  26.871  30.269  1.00  0.00     0.031 C 
ATOM     54  C   UNL A   1      42.766  29.696  35.461  1.00  0.00     0.029 A 
ATOM     55  C   UNL A   1      42.711  29.224  34.159  1.00  0.00     0.049 A 
ATOM     56  H   UNL A   1      41.250  29.577  32.677  1.00  0.00     0.167 HD
ATOM     57  C   UNL A   1      43.532  27.938  32.203  1.00  0.00     0.074 A 
ATOM     58  C   UNL A   1      44.499  27.101  31.526  1.00  0.00     0.031 C 
ATOM     59  C   UNL A   1      43.656  28.375  33.478  1.00  0.00     0.037 A 
BRANCH  46  60
ATOM     60  C   UNL A   1      39.087  32.035  35.415  1.00  0.00     0.064 A 
ATOM     61  C   UNL A   1      38.321  31.449  36.433  1.00  0.00     0.173 A 
ATOM     62  C   UNL A   1      39.400  33.398  35.532  1.00  0.00     0.173 A 
ATOM     63  F   UNL A   1      37.987  30.151  36.364  1.00  0.00    -0.203 F 
ATOM     64  C   UNL A   1      37.884  32.198  37.523  1.00  0.00     0.198 A 
ATOM     65  C   UNL A   1      38.986  34.138  36.637  1.00  0.00     0.198 A 
ATOM     66  F   UNL A   1      40.138  34.007  34.591  1.00  0.00    -0.203 F 
ATOM     67  F   UNL A   1      37.133  31.622  38.472  1.00  0.00    -0.200 F 
ATOM     68  C   UNL A   1      38.227  33.538  37.630  1.00  0.00     0.200 A 
ATOM     69  F   UNL A   1      39.333  35.428  36.747  1.00  0.00    -0.200 F 
ATOM     70  F   UNL A   1      37.826  34.250  38.692  1.00  0.00    -0.200 F 
ENDBRANCH  46  60
BRANCH  47  71
ATOM     71  C   UNL A   1      42.614  26.660  27.762  1.00  0.00     0.064 A 
ATOM     72  C   UNL A   1      42.264  25.307  27.641  1.00  0.00     0.173 A 
ATOM     73  C   UNL A   1      43.430  27.213  26.763  1.00  0.00     0.173 A 
ATOM     74  F   UNL A   1      41.501  24.727  28.577  1.00  0.00    -0.203 F 
ATOM     75  C   UNL A   1      42.717  24.541  26.568  1.00  0.00     0.198 A 
ATOM     76  C   UNL A   1      43.854  26.454  25.675  1.00  0.00     0.198 A 
ATOM     77  F   UNL A   1      43.790  28.504  26.829  1.00  0.00    -0.203 F 
ATOM     78  F   UNL A   1      42.396  23.242  26.494  1.00  0.00    -0.200 F 
ATOM     79  C   UNL A   1      43.502  25.117  25.582  1.00  0.00     0.200 A 
ATOM     80  F   UNL A   1      44.594  27.023  24.714  1.00  0.00    -0.200 F 
ATOM     81  F   UNL A   1      43.922  24.384  24.542  1.00  0.00    -0.200 F 
ENDBRANCH  47  71
BRANCH  59  82
ATOM     82  C   UNL A   1      44.866  27.947  34.254  1.00  0.00     0.064 A 
ATOM     83  C   UNL A   1      46.010  28.754  34.323  1.00  0.00     0.173 A 
ATOM     84  C   UNL A   1      44.830  26.781  35.033  1.00  0.00     0.173 A 
ATOM     85  F   UNL A   1      46.094  29.872  33.586  1.00  0.00    -0.203 F 
ATOM     86  C   UNL A   1      47.075  28.410  35.151  1.00  0.00     0.198 A 
ATOM     87  C   UNL A   1      45.885  26.455  35.880  1.00  0.00     0.198 A 
ATOM     88  F   UNL A   1      43.753  25.981  35.006  1.00  0.00    -0.203 F 
ATOM     89  F   UNL A   1      48.166  29.187  35.192  1.00  0.00    -0.200 F 
ATOM     90  C   UNL A   1      47.005  27.270  35.939  1.00  0.00     0.200 A 
ATOM     91  F   UNL A   1      45.809  25.364  36.655  1.00  0.00    -0.200 F 
ATOM     92  F   UNL A   1      48.018  26.959  36.760  1.00  0.00    -0.200 F 
ENDBRANCH  59  82
ENDBRANCH  33  34
ENDBRANCH  25  28
ENDBRANCH  23  24
ENDBRANCH   1  23
TORSDOF 11
ENDMDL
MODEL 3
REMARK VINA RESULT:     -13.2      3.403      6.984
REMARK SMILES Cc1cc(F)c(-c2ccc(F)c(C(=O)NCCCNC(=O)c3ccc(-c4c5nc(c(-c6c(F)c(F)c(F)c(F)c6F)c6ccc([nH]6)c(-c6c(F)c(F)c(F)c(F)c6F)c6nc(c(-c7c(F)c(F)c(F)c(F)c7F)c7ccc4[nH]7)C=C6)C=C5)cc3)c2)cc1F
REMARK SMILES IDX 17 1 16 2 15 3 13 4 14 5 12 7 7 8 8 9 85 10 9 11 10 12 11 13
REMARK SMILES IDX 6 14 1 15 2 16 3 17 87 18 4 19 86 20 88 21 5 22 18 23 19 24
REMARK SMILES IDX 20 25 21 27 22 28 23 29 84 30 24 31 83 32 25 33 26 34 27 35
REMARK SMILES IDX 77 36 28 37 82 38 76 39 78 40 29 41 81 42 75 43 74 44 30 46
REMARK SMILES IDX 62 47 42 48 61 49 43 50 46 51 60 52 79 53 44 54 45 55 59 57
REMARK SMILES IDX 80 58 47 59 31 60 32 61 40 62 33 63 34 64 38 65 41 66 35 67
REMARK SMILES IDX 36 68 39 69 37 70 63 71 64 72 72 73 65 74 66 75 70 76 73 77
REMARK SMILES IDX 67 78 68 79 71 80 69 81 48 82 49 83 57 84 50 85 51 86 55 87
REMARK SMILES IDX 58 88 52 89 53 90 56 91 54 92
REMARK H PARENT 15 6 19 26 78 45 46 56
REMARK Flexibility Score: inf
ROOT
ATOM      1  C   UNL A   1      32.923  35.043  29.094  1.00  0.00     0.042 C 
ENDROOT
BRANCH   1   2
ATOM      2  C   UNL A   1      33.578  36.406  29.213  1.00  0.00     0.118 C 
BRANCH   2   3
ATOM      3  N   UNL A   1      33.146  37.176  30.373  1.00  0.00    -0.352 N 
ATOM      4  C   UNL A   1      33.322  37.073  31.736  1.00  0.00     0.254 C 
ATOM      5  O   UNL A   1      32.836  37.979  32.413  1.00  0.00    -0.269 OA
ATOM      6  H   UNL A   1      32.600  37.956  30.124  1.00  0.00     0.163 HD
BRANCH   4   7
ATOM      7  C   UNL A   1      33.999  35.930  32.405  1.00  0.00     0.076 A 
ATOM      8  C   UNL A   1      36.043  34.710  32.990  1.00  0.00    -0.014 A 
ATOM      9  C   UNL A   1      35.259  33.607  33.353  1.00  0.00     0.012 A 
ATOM     10  C   UNL A   1      35.373  35.898  32.653  1.00  0.00     0.025 A 
ATOM     11  C   UNL A   1      33.868  33.671  33.286  1.00  0.00     0.041 A 
ATOM     12  C   UNL A   1      33.249  34.808  32.771  1.00  0.00     0.135 A 
ATOM     13  F   UNL A   1      31.917  34.771  32.623  1.00  0.00    -0.206 F 
BRANCH   8  14
ATOM     14  C   UNL A   1      37.508  34.603  32.815  1.00  0.00     0.020 A 
ATOM     15  C   UNL A   1      41.795  34.447  32.136  1.00  0.00     0.047 C 
ATOM     16  C   UNL A   1      40.322  34.556  32.381  1.00  0.00    -0.012 A 
ATOM     17  C   UNL A   1      39.803  34.612  33.677  1.00  0.00     0.046 A 
ATOM     18  C   UNL A   1      39.429  34.535  31.312  1.00  0.00     0.126 A 
ATOM     19  C   UNL A   1      38.420  34.640  33.882  1.00  0.00     0.131 A 
ATOM     20  C   UNL A   1      38.051  34.566  31.516  1.00  0.00     0.051 A 
ATOM     21  F   UNL A   1      39.891  34.494  30.054  1.00  0.00    -0.207 F 
ATOM     22  F   UNL A   1      37.980  34.716  35.148  1.00  0.00    -0.206 F 
ENDBRANCH   8  14
ENDBRANCH   4   7
ENDBRANCH   2   3
ENDBRANCH   1   2
BRANCH   1  23
ATOM     23  C   UNL A   1      33.897  33.904  28.858  1.00  0.00     0.118 C 
BRANCH  23  24
ATOM     24  N   UNL A   1      33.344  32.837  28.028  1.00  0.00    -0.352 N 
ATOM     25  C   UNL A   1      33.870  31.643  27.586  1.00  0.00     0.251 C 
ATOM     26  H   UNL A   1      32.421  33.002  27.729  1.00  0.00     0.163 HD
ATOM     27  O   UNL A   1      33.260  30.991  26.748  1.00  0.00    -0.269 OA
BRANCH  25  28
ATOM     28  C   UNL A   1      35.179  31.154  28.081  1.00  0.00     0.039 A 
ATOM     29  C   UNL A   1      35.329  29.856  28.553  1.00  0.00     0.014 A 
ATOM     30  C   UNL A   1      36.289  32.007  28.055  1.00  0.00     0.014 A 
ATOM     31  C   UNL A   1      36.487  29.497  29.227  1.00  0.00     0.010 A 
ATOM     32  C   UNL A   1      37.510  31.587  28.600  1.00  0.00     0.010 A 
ATOM     33  C   UNL A   1      37.602  30.350  29.252  1.00  0.00    -0.014 A 
BRANCH  33  34
ATOM     34  C   UNL A   1      38.834  29.894  29.954  1.00  0.00     0.031 A 
ATOM     35  C   UNL A   1      39.104  30.279  31.384  1.00  0.00     0.074 A 
ATOM     36  C   UNL A   1      39.666  29.041  29.318  1.00  0.00     0.049 A 
ATOM     37  N   UNL A   1      40.078  29.892  32.170  1.00  0.00    -0.248 NA
ATOM     38  C   UNL A   1      38.171  31.223  32.019  1.00  0.00     0.031 C 
ATOM     39  C   UNL A   1      39.512  28.599  27.930  1.00  0.00     0.029 A 
ATOM     40  N   UNL A   1      40.771  28.357  29.760  1.00  0.00    -0.354 N 
ATOM     41  C   UNL A   1      39.884  30.554  33.376  1.00  0.00     0.074 A 
ATOM     42  C   UNL A   1      38.721  31.398  33.212  1.00  0.00     0.031 C 
ATOM     43  C   UNL A   1      40.426  27.657  27.663  1.00  0.00     0.029 A 
ATOM     44  C   UNL A   1      41.287  27.487  28.828  1.00  0.00     0.049 A 
ATOM     45  H   UNL A   1      41.158  28.478  30.657  1.00  0.00     0.167 HD
ATOM     46  C   UNL A   1      40.600  30.449  34.520  1.00  0.00     0.037 A 
ATOM     47  C   UNL A   1      42.339  26.650  28.895  1.00  0.00     0.037 A 
ATOM     48  C   UNL A   1      41.736  29.581  34.688  1.00  0.00     0.049 A 
ATOM     49  C   UNL A   1      43.136  26.584  30.167  1.00  0.00     0.074 A 
ATOM     50  C   UNL A   1      42.506  29.385  35.821  1.00  0.00     0.029 A 
ATOM     51  N   UNL A   1      42.262  28.764  33.700  1.00  0.00    -0.354 N 
ATOM     52  N   UNL A   1      42.920  27.195  31.306  1.00  0.00    -0.248 NA
ATOM     53  C   UNL A   1      44.328  25.724  30.163  1.00  0.00     0.031 C 
ATOM     54  C   UNL A   1      43.529  28.491  35.504  1.00  0.00     0.029 A 
ATOM     55  C   UNL A   1      43.363  28.083  34.190  1.00  0.00     0.049 A 
ATOM     56  H   UNL A   1      41.906  28.681  32.786  1.00  0.00     0.167 HD
ATOM     57  C   UNL A   1      43.935  26.783  32.157  1.00  0.00     0.074 A 
ATOM     58  C   UNL A   1      44.758  25.856  31.410  1.00  0.00     0.031 C 
ATOM     59  C   UNL A   1      44.163  27.148  33.440  1.00  0.00     0.037 A 
BRANCH  46  60
ATOM     60  C   UNL A   1      40.187  31.285  35.698  1.00  0.00     0.064 A 
ATOM     61  C   UNL A   1      40.936  32.398  36.108  1.00  0.00     0.173 A 
ATOM     62  C   UNL A   1      38.975  31.031  36.359  1.00  0.00     0.173 A 
ATOM     63  F   UNL A   1      42.106  32.680  35.515  1.00  0.00    -0.203 F 
ATOM     64  C   UNL A   1      40.491  33.221  37.139  1.00  0.00     0.198 A 
ATOM     65  C   UNL A   1      38.519  31.872  37.371  1.00  0.00     0.198 A 
ATOM     66  F   UNL A   1      38.215  29.985  36.000  1.00  0.00    -0.203 F 
ATOM     67  F   UNL A   1      41.235  34.265  37.530  1.00  0.00    -0.200 F 
ATOM     68  C   UNL A   1      39.277  32.965  37.761  1.00  0.00     0.200 A 
ATOM     69  F   UNL A   1      37.338  31.633  37.957  1.00  0.00    -0.200 F 
ATOM     70  F   UNL A   1      38.839  33.773  38.736  1.00  0.00    -0.200 F 
ENDBRANCH  46  60
BRANCH  47  71
ATOM     71  C   UNL A   1      42.690  25.813  27.717  1.00  0.00     0.064 A 
ATOM     72  C   UNL A   1      42.064  24.578  27.495  1.00  0.00     0.173 A 
ATOM     73  C   UNL A   1      43.634  26.243  26.772  1.00  0.00     0.173 A 
ATOM     74  F   UNL A   1      41.168  24.113  28.377  1.00  0.00    -0.203 F 
ATOM     75  C   UNL A   1      42.374  23.806  26.377  1.00  0.00     0.198 A 
ATOM     76  C   UNL A   1      43.917  25.486  25.639  1.00  0.00     0.198 A 
ATOM     77  F   UNL A   1      44.259  27.420  26.934  1.00  0.00    -0.203 F 
ATOM     78  F   UNL A   1      41.786  22.614  26.206  1.00  0.00    -0.200 F 
ATOM     79  C   UNL A   1      43.292  24.265  25.445  1.00  0.00     0.200 A 
ATOM     80  F   UNL A   1      44.789  25.945  24.730  1.00  0.00    -0.200 F 
ATOM     81  F   UNL A   1      43.576  23.529  24.362  1.00  0.00    -0.200 F 
ENDBRANCH  47  71
BRANCH  59  82
ATOM     82  C   UNL A   1      45.335  26.537  34.148  1.00  0.00     0.064 A 
ATOM     83  C   UNL A   1      46.573  27.191  34.207  1.00  0.00     0.173 A 
ATOM     84  C   UNL A   1      45.180  25.348  34.876  1.00  0.00     0.173 A 
ATOM     85  F   UNL A   1      46.772  28.324  33.516  1.00  0.00    -0.203 F 
ATOM     86  C   UNL A   1      47.614  26.679  34.975  1.00  0.00     0.198 A 
ATOM     87  C   UNL A   1      46.214  24.854  35.666  1.00  0.00     0.198 A 
ATOM     88  F   UNL A   1      44.011  24.690  34.858  1.00  0.00    -0.203 F 
ATOM     89  F   UNL A   1      48.795  27.312  35.008  1.00  0.00    -0.200 F 
ATOM     90  C   UNL A   1      47.429  25.520  35.716  1.00  0.00     0.200 A 
ATOM     91  F   UNL A   1      46.028  23.744  36.395  1.00  0.00    -0.200 F 
ATOM     92  F   UNL A   1      48.422  25.047  36.481  1.00  0.00    -0.200 F 
ENDBRANCH  59  82
ENDBRANCH  33  34
ENDBRANCH  25  28
ENDBRANCH  23  24
ENDBRANCH   1  23
TORSDOF 11
ENDMDL
