MODEL 1
REMARK VINA RESULT:     -13.7      0.000      0.000
REMARK SMILES Cc1nnc(SCC2=C(C(=O)NCCCNC(=O)c3ccc(-c4c5nc(c(-c6c(F)c(F)c(F)c(F)c6F)c6ccc([nH]6)c(-c6c(F)c(F)c(F)c(F)c6F)c6nc(c(-c7c(F)c(F)c(F)c(F)c7F)c7ccc4[nH]7)C=C6)C=C5)cc3)N3C(=O)[C@H](NC(=O)c4ccc(F)cc4F)[C@H]3SC2)s1
REMARK SMILES IDX 13 1 12 2 10 3 11 4 9 6 8 7 99 8 82 9 98 10 83 11 97 12
REMARK SMILES IDX 84 13 85 14 7 15 6 16 5 17 1 18 2 19 3 20 100 21 4 22 86 23
REMARK SMILES IDX 87 24 88 26 89 27 90 28 95 29 91 30 94 31 96 32 92 33 93 34
REMARK SMILES IDX 14 35 15 36 16 37 17 38 18 40 19 41 20 42 81 43 21 44 80 45
REMARK SMILES IDX 22 46 23 47 24 48 74 49 25 50 79 51 73 52 75 53 26 54 78 55
REMARK SMILES IDX 72 56 71 57 27 59 59 60 39 61 58 62 40 63 43 64 57 65 76 66
REMARK SMILES IDX 41 67 42 68 56 70 77 71 44 72 28 73 29 74 37 75 30 76 31 77
REMARK SMILES IDX 35 78 38 79 32 80 33 81 36 82 34 83 60 84 61 85 69 86 62 87
REMARK SMILES IDX 63 88 67 89 70 90 64 91 65 92 68 93 66 94 45 95 46 96 54 97
REMARK SMILES IDX 47 98 48 99 52 100 55 101 49 102 50 103 53 104 51 105
REMARK H PARENT 12 5 86 25 16 39 75 58 43 69
REMARK Flexibility Score: inf
ROOT
ATOM      1  C   UNL A   1      37.023  20.837  24.659  1.00  0.00     0.118 C 
ENDROOT
BRANCH   1   2
ATOM      2  N   UNL A   1      36.104  21.121  25.730  1.00  0.00    -0.351 N 
ATOM      3  C   UNL A   1      34.824  21.499  25.898  1.00  0.00     0.268 C 
ATOM      4  O   UNL A   1      34.435  21.179  27.031  1.00  0.00    -0.268 OA
ATOM      5  H   UNL A   1      36.545  21.001  26.602  1.00  0.00     0.163 HD
BRANCH   3   6
ATOM      6  C   UNL A   1      33.848  22.239  24.961  1.00  0.00     0.111 C 
ATOM      7  C   UNL A   1      32.714  21.848  24.286  1.00  0.00    -0.020 C 
ATOM      8  C   UNL A   1      31.905  22.749  23.323  1.00  0.00     0.106 C 
ATOM      9  N   UNL A   1      34.145  23.593  24.879  1.00  0.00    -0.290 N 
ATOM     10  S   UNL A   1      32.582  24.370  22.958  1.00  0.00    -0.129 SA
ATOM     11  C   UNL A   1      35.102  24.509  25.179  1.00  0.00     0.253 C 
ATOM     12  C   UNL A   1      33.093  24.548  24.668  1.00  0.00     0.181 C 
ATOM     13  O   UNL A   1      36.282  24.477  25.449  1.00  0.00    -0.272 OA
ATOM     14  C   UNL A   1      34.084  25.685  24.942  1.00  0.00     0.206 C 
BRANCH   7  15
ATOM     15  C   UNL A   1      32.024  20.511  24.277  1.00  0.00     0.111 C 
BRANCH  15  16
ATOM     16  S   UNL A   1      32.288  19.524  22.777  1.00  0.00    -0.089 SA
BRANCH  16  17
ATOM     17  C   UNL A   1      33.186  18.126  23.314  1.00  0.00     0.174 A 
ATOM     18  C   UNL A   1      35.408  15.714  25.309  1.00  0.00     0.081 C 
ATOM     19  C   UNL A   1      34.523  16.492  24.404  1.00  0.00     0.115 A 
ATOM     20  N   UNL A   1      34.136  16.103  23.208  1.00  0.00    -0.143 NA
ATOM     21  S   UNL A   1      33.926  18.037  24.861  1.00  0.00    -0.091 S 
ATOM     22  N   UNL A   1      33.385  17.066  22.566  1.00  0.00    -0.132 NA
ENDBRANCH  16  17
ENDBRANCH  15  16
ENDBRANCH   7  15
BRANCH  14  23
ATOM     23  N   UNL A   1      33.804  26.562  26.120  1.00  0.00    -0.338 N 
ATOM     24  C   UNL A   1      32.924  27.617  26.253  1.00  0.00     0.254 C 
ATOM     25  H   UNL A   1      34.331  26.355  26.926  1.00  0.00     0.164 HD
ATOM     26  O   UNL A   1      32.975  28.360  27.228  1.00  0.00    -0.269 OA
BRANCH  24  27
ATOM     27  C   UNL A   1      31.920  27.900  25.214  1.00  0.00     0.075 A 
ATOM     28  C   UNL A   1      32.096  28.981  24.347  1.00  0.00     0.020 A 
ATOM     29  C   UNL A   1      30.749  27.144  25.143  1.00  0.00     0.138 A 
ATOM     30  C   UNL A   1      31.149  29.217  23.344  1.00  0.00     0.040 A 
ATOM     31  C   UNL A   1      29.836  27.334  24.112  1.00  0.00     0.079 A 
ATOM     32  F   UNL A   1      30.505  26.176  26.038  1.00  0.00    -0.206 F 
ATOM     33  C   UNL A   1      30.051  28.368  23.213  1.00  0.00     0.126 A 
ATOM     34  F   UNL A   1      29.180  28.561  22.215  1.00  0.00    -0.207 F 
ENDBRANCH  24  27
ENDBRANCH  14  23
ENDBRANCH   3   6
ENDBRANCH   1   2
BRANCH   1  35
ATOM     35  C   UNL A   1      37.987  19.711  25.005  1.00  0.00     0.042 C 
BRANCH  35  36
ATOM     36  C   UNL A   1      39.131  20.206  25.866  1.00  0.00     0.118 C 
BRANCH  36  37
ATOM     37  N   UNL A   1      40.178  19.193  25.973  1.00  0.00    -0.352 N 
ATOM     38  C   UNL A   1      41.535  19.345  26.080  1.00  0.00     0.251 C 
ATOM     39  H   UNL A   1      39.859  18.261  25.968  1.00  0.00     0.163 HD
ATOM     40  O   UNL A   1      42.275  18.380  25.905  1.00  0.00    -0.269 OA
BRANCH  38  41
ATOM     41  C   UNL A   1      42.104  20.672  26.385  1.00  0.00     0.039 A 
ATOM     42  C   UNL A   1      42.430  21.530  25.332  1.00  0.00     0.014 A 
ATOM     43  C   UNL A   1      42.318  21.068  27.707  1.00  0.00     0.014 A 
ATOM     44  C   UNL A   1      42.920  22.804  25.612  1.00  0.00     0.010 A 
ATOM     45  C   UNL A   1      42.691  22.375  27.985  1.00  0.00     0.010 A 
ATOM     46  C   UNL A   1      43.020  23.248  26.940  1.00  0.00    -0.014 A 
BRANCH  46  47
ATOM     47  C   UNL A   1      43.500  24.611  27.266  1.00  0.00     0.031 A 
ATOM     48  C   UNL A   1      42.537  25.625  27.823  1.00  0.00     0.074 A 
ATOM     49  C   UNL A   1      44.776  24.948  26.997  1.00  0.00     0.049 A 
ATOM     50  N   UNL A   1      42.736  26.889  28.099  1.00  0.00    -0.248 NA
ATOM     51  C   UNL A   1      41.158  25.170  28.072  1.00  0.00     0.031 C 
ATOM     52  C   UNL A   1      45.779  24.061  26.402  1.00  0.00     0.029 A 
ATOM     53  N   UNL A   1      45.447  26.130  27.177  1.00  0.00    -0.354 N 
ATOM     54  C   UNL A   1      41.509  27.378  28.528  1.00  0.00     0.074 A 
ATOM     55  C   UNL A   1      40.557  26.297  28.426  1.00  0.00     0.031 C 
ATOM     56  C   UNL A   1      46.940  24.723  26.287  1.00  0.00     0.029 A 
ATOM     57  C   UNL A   1      46.754  26.092  26.756  1.00  0.00     0.049 A 
ATOM     58  H   UNL A   1      45.031  26.931  27.571  1.00  0.00     0.167 HD
ATOM     59  C   UNL A   1      41.213  28.614  28.989  1.00  0.00     0.037 A 
ATOM     60  C   UNL A   1      47.689  27.061  26.739  1.00  0.00     0.037 A 
ATOM     61  C   UNL A   1      42.180  29.669  29.127  1.00  0.00     0.049 A 
ATOM     62  C   UNL A   1      47.329  28.423  27.270  1.00  0.00     0.074 A 
ATOM     63  C   UNL A   1      42.004  30.932  29.663  1.00  0.00     0.029 A 
ATOM     64  N   UNL A   1      43.503  29.584  28.723  1.00  0.00    -0.354 N 
ATOM     65  N   UNL A   1      46.189  28.847  27.760  1.00  0.00    -0.248 NA
ATOM     66  C   UNL A   1      48.389  29.441  27.256  1.00  0.00     0.031 C 
ATOM     67  C   UNL A   1      43.205  31.633  29.526  1.00  0.00     0.029 A 
ATOM     68  C   UNL A   1      44.148  30.784  28.970  1.00  0.00     0.049 A 
ATOM     69  H   UNL A   1      43.922  28.789  28.321  1.00  0.00     0.167 HD
ATOM     70  C   UNL A   1      46.403  30.165  28.141  1.00  0.00     0.074 A 
ATOM     71  C   UNL A   1      47.788  30.463  27.846  1.00  0.00     0.031 C 
ATOM     72  C   UNL A   1      45.533  31.051  28.684  1.00  0.00     0.037 A 
BRANCH  59  73
ATOM     73  C   UNL A   1      39.795  28.901  29.390  1.00  0.00     0.064 A 
ATOM     74  C   UNL A   1      38.847  29.370  28.469  1.00  0.00     0.173 A 
ATOM     75  C   UNL A   1      39.361  28.627  30.695  1.00  0.00     0.173 A 
ATOM     76  F   UNL A   1      39.212  29.661  27.211  1.00  0.00    -0.203 F 
ATOM     77  C   UNL A   1      37.519  29.564  28.843  1.00  0.00     0.198 A 
ATOM     78  C   UNL A   1      38.027  28.792  31.058  1.00  0.00     0.198 A 
ATOM     79  F   UNL A   1      40.227  28.176  31.615  1.00  0.00    -0.203 F 
ATOM     80  F   UNL A   1      36.638  30.044  27.955  1.00  0.00    -0.200 F 
ATOM     81  C   UNL A   1      37.108  29.263  30.133  1.00  0.00     0.200 A 
ATOM     82  F   UNL A   1      37.629  28.485  32.301  1.00  0.00    -0.200 F 
ATOM     83  F   UNL A   1      35.826  29.427  30.484  1.00  0.00    -0.200 F 
ENDBRANCH  59  73
BRANCH  60  84
ATOM     84  C   UNL A   1      49.050  26.787  26.203  1.00  0.00     0.064 A 
ATOM     85  C   UNL A   1      49.377  27.077  24.870  1.00  0.00     0.173 A 
ATOM     86  C   UNL A   1      50.039  26.189  26.998  1.00  0.00     0.173 A 
ATOM     87  F   UNL A   1      48.463  27.636  24.063  1.00  0.00    -0.203 F 
ATOM     88  C   UNL A   1      50.622  26.739  24.342  1.00  0.00     0.198 A 
ATOM     89  C   UNL A   1      51.297  25.886  26.480  1.00  0.00     0.198 A 
ATOM     90  F   UNL A   1      49.787  25.900  28.283  1.00  0.00    -0.203 F 
ATOM     91  F   UNL A   1      50.881  26.963  23.047  1.00  0.00    -0.200 F 
ATOM     92  C   UNL A   1      51.582  26.146  25.148  1.00  0.00     0.200 A 
ATOM     93  F   UNL A   1      52.229  25.333  27.269  1.00  0.00    -0.200 F 
ATOM     94  F   UNL A   1      52.777  25.816  24.639  1.00  0.00    -0.200 F 
ENDBRANCH  60  84
BRANCH  72  95
ATOM     95  C   UNL A   1      46.066  32.410  29.039  1.00  0.00     0.064 A 
ATOM     96  C   UNL A   1      46.658  32.670  30.282  1.00  0.00     0.173 A 
ATOM     97  C   UNL A   1      46.020  33.452  28.100  1.00  0.00     0.173 A 
ATOM     98  F   UNL A   1      46.713  31.710  31.219  1.00  0.00    -0.203 F 
ATOM     99  C   UNL A   1      47.156  33.933  30.585  1.00  0.00     0.198 A 
ATOM    100  C   UNL A   1      46.555  34.703  28.392  1.00  0.00     0.198 A 
ATOM    101  F   UNL A   1      45.474  33.252  26.891  1.00  0.00    -0.203 F 
ATOM    102  F   UNL A   1      47.667  34.176  31.801  1.00  0.00    -0.200 F 
ATOM    103  C   UNL A   1      47.113  34.945  29.637  1.00  0.00     0.200 A 
ATOM    104  F   UNL A   1      46.529  35.673  27.469  1.00  0.00    -0.200 F 
ATOM    105  F   UNL A   1      47.604  36.159  29.928  1.00  0.00    -0.200 F 
ENDBRANCH  72  95
ENDBRANCH  46  47
ENDBRANCH  38  41
ENDBRANCH  36  37
ENDBRANCH  35  36
ENDBRANCH   1  35
TORSDOF 15
ENDMDL
MODEL 2
REMARK VINA RESULT:     -13.4      4.315      8.825
REMARK SMILES Cc1nnc(SCC2=C(C(=O)NCCCNC(=O)c3ccc(-c4c5nc(c(-c6c(F)c(F)c(F)c(F)c6F)c6ccc([nH]6)c(-c6c(F)c(F)c(F)c(F)c6F)c6nc(c(-c7c(F)c(F)c(F)c(F)c7F)c7ccc4[nH]7)C=C6)C=C5)cc3)N3C(=O)[C@H](NC(=O)c4ccc(F)cc4F)[C@H]3SC2)s1
REMARK SMILES IDX 13 1 12 2 10 3 11 4 9 6 8 7 99 8 82 9 98 10 83 11 97 12
REMARK SMILES IDX 84 13 85 14 7 15 6 16 5 17 1 18 2 19 3 20 100 21 4 22 86 23
REMARK SMILES IDX 87 24 88 26 89 27 90 28 95 29 91 30 94 31 96 32 92 33 93 34
REMARK SMILES IDX 14 35 15 36 16 37 17 38 18 40 19 41 20 42 81 43 21 44 80 45
REMARK SMILES IDX 22 46 23 47 24 48 74 49 25 50 79 51 73 52 75 53 26 54 78 55
REMARK SMILES IDX 72 56 71 57 27 59 59 60 39 61 58 62 40 63 43 64 57 65 76 66
REMARK SMILES IDX 41 67 42 68 56 70 77 71 44 72 28 73 29 74 37 75 30 76 31 77
REMARK SMILES IDX 35 78 38 79 32 80 33 81 36 82 34 83 60 84 61 85 69 86 62 87
REMARK SMILES IDX 63 88 67 89 70 90 64 91 65 92 68 93 66 94 45 95 46 96 54 97
REMARK SMILES IDX 47 98 48 99 52 100 55 101 49 102 50 103 53 104 51 105
REMARK H PARENT 12 5 86 25 16 39 75 58 43 69
REMARK Flexibility Score: inf
ROOT
ATOM      1  C   UNL A   1      32.002  28.128  27.336  1.00  0.00     0.118 C 
ENDROOT
BRANCH   1   2
ATOM      2  N   UNL A   1      30.947  27.228  26.951  1.00  0.00    -0.351 N 
ATOM      3  C   UNL A   1      30.691  26.308  26.002  1.00  0.00     0.268 C 
ATOM      4  O   UNL A   1      29.806  25.534  26.395  1.00  0.00    -0.268 OA
ATOM      5  H   UNL A   1      30.183  27.309  27.567  1.00  0.00     0.163 HD
BRANCH   3   6
ATOM      6  C   UNL A   1      31.282  26.105  24.593  1.00  0.00     0.111 C 
ATOM      7  C   UNL A   1      31.064  26.726  23.384  1.00  0.00    -0.020 C 
ATOM      8  C   UNL A   1      31.725  26.313  22.048  1.00  0.00     0.106 C 
ATOM      9  N   UNL A   1      32.305  25.166  24.597  1.00  0.00    -0.290 N 
ATOM     10  S   UNL A   1      32.736  24.831  22.060  1.00  0.00    -0.129 SA
ATOM     11  C   UNL A   1      32.883  24.201  25.359  1.00  0.00     0.253 C 
ATOM     12  C   UNL A   1      33.393  25.285  23.665  1.00  0.00     0.181 C 
ATOM     13  O   UNL A   1      32.564  23.555  26.331  1.00  0.00    -0.272 OA
ATOM     14  C   UNL A   1      34.137  24.170  24.409  1.00  0.00     0.206 C 
BRANCH   7  15
ATOM     15  C   UNL A   1      30.152  27.877  23.054  1.00  0.00     0.111 C 
BRANCH  15  16
ATOM     16  S   UNL A   1      30.454  29.390  24.010  1.00  0.00    -0.089 SA
BRANCH  16  17
ATOM     17  C   UNL A   1      29.481  30.613  23.232  1.00  0.00     0.174 A 
ATOM     18  C   UNL A   1      27.677  32.786  20.632  1.00  0.00     0.081 C 
ATOM     19  C   UNL A   1      28.288  32.068  21.779  1.00  0.00     0.115 A 
ATOM     20  N   UNL A   1      28.264  32.480  23.029  1.00  0.00    -0.143 NA
ATOM     21  S   UNL A   1      29.128  30.585  21.551  1.00  0.00    -0.091 S 
ATOM     22  N   UNL A   1      28.982  31.649  23.864  1.00  0.00    -0.132 NA
ENDBRANCH  16  17
ENDBRANCH  15  16
ENDBRANCH   7  15
BRANCH  14  23
ATOM     23  N   UNL A   1      35.447  24.527  25.035  1.00  0.00    -0.338 N 
ATOM     24  C   UNL A   1      36.437  23.714  25.550  1.00  0.00     0.254 C 
ATOM     25  H   UNL A   1      35.631  25.493  25.089  1.00  0.00     0.164 HD
ATOM     26  O   UNL A   1      37.353  24.184  26.216  1.00  0.00    -0.269 OA
BRANCH  24  27
ATOM     27  C   UNL A   1      36.403  22.258  25.342  1.00  0.00     0.075 A 
ATOM     28  C   UNL A   1      35.181  21.580  25.331  1.00  0.00     0.020 A 
ATOM     29  C   UNL A   1      37.592  21.534  25.240  1.00  0.00     0.138 A 
ATOM     30  C   UNL A   1      35.164  20.200  25.100  1.00  0.00     0.040 A 
ATOM     31  C   UNL A   1      37.580  20.174  24.948  1.00  0.00     0.079 A 
ATOM     32  F   UNL A   1      38.779  22.146  25.363  1.00  0.00    -0.206 F 
ATOM     33  C   UNL A   1      36.360  19.519  24.872  1.00  0.00     0.126 A 
ATOM     34  F   UNL A   1      36.334  18.211  24.591  1.00  0.00    -0.207 F 
ENDBRANCH  24  27
ENDBRANCH  14  23
ENDBRANCH   3   6
ENDBRANCH   1   2
BRANCH   1  35
ATOM     35  C   UNL A   1      33.378  27.614  26.937  1.00  0.00     0.042 C 
BRANCH  35  36
ATOM     36  C   UNL A   1      34.140  28.643  26.127  1.00  0.00     0.118 C 
BRANCH  36  37
ATOM     37  N   UNL A   1      33.845  29.995  26.593  1.00  0.00    -0.352 N 
ATOM     38  C   UNL A   1      34.468  30.744  27.556  1.00  0.00     0.251 C 
ATOM     39  H   UNL A   1      33.084  30.433  26.148  1.00  0.00     0.163 HD
ATOM     40  O   UNL A   1      33.926  31.758  27.988  1.00  0.00    -0.269 OA
BRANCH  38  41
ATOM     41  C   UNL A   1      35.778  30.318  28.084  1.00  0.00     0.039 A 
ATOM     42  C   UNL A   1      35.844  29.739  29.353  1.00  0.00     0.014 A 
ATOM     43  C   UNL A   1      36.941  30.492  27.330  1.00  0.00     0.014 A 
ATOM     44  C   UNL A   1      37.070  29.287  29.839  1.00  0.00     0.010 A 
ATOM     45  C   UNL A   1      38.136  29.937  27.763  1.00  0.00     0.010 A 
ATOM     46  C   UNL A   1      38.218  29.351  29.033  1.00  0.00    -0.014 A 
BRANCH  46  47
ATOM     47  C   UNL A   1      39.525  28.843  29.508  1.00  0.00     0.031 A 
ATOM     48  C   UNL A   1      40.339  29.669  30.469  1.00  0.00     0.074 A 
ATOM     49  C   UNL A   1      40.002  27.680  29.024  1.00  0.00     0.049 A 
ATOM     50  N   UNL A   1      41.538  29.443  30.942  1.00  0.00    -0.248 NA
ATOM     51  C   UNL A   1      39.743  30.933  30.934  1.00  0.00     0.031 C 
ATOM     52  C   UNL A   1      39.323  26.829  28.044  1.00  0.00     0.029 A 
ATOM     53  N   UNL A   1      41.175  27.018  29.280  1.00  0.00    -0.354 N 
ATOM     54  C   UNL A   1      41.842  30.541  31.735  1.00  0.00     0.074 A 
ATOM     55  C   UNL A   1      40.732  31.460  31.641  1.00  0.00     0.031 C 
ATOM     56  C   UNL A   1      40.080  25.749  27.799  1.00  0.00     0.029 A 
ATOM     57  C   UNL A   1      41.316  25.852  28.567  1.00  0.00     0.049 A 
ATOM     58  H   UNL A   1      41.853  27.347  29.914  1.00  0.00     0.167 HD
ATOM     59  C   UNL A   1      42.942  30.749  32.495  1.00  0.00     0.037 A 
ATOM     60  C   UNL A   1      42.338  24.976  28.530  1.00  0.00     0.037 A 
ATOM     61  C   UNL A   1      44.021  29.806  32.616  1.00  0.00     0.049 A 
ATOM     62  C   UNL A   1      43.542  25.232  29.396  1.00  0.00     0.074 A 
ATOM     63  C   UNL A   1      45.141  29.880  33.423  1.00  0.00     0.029 A 
ATOM     64  N   UNL A   1      44.114  28.619  31.906  1.00  0.00    -0.354 N 
ATOM     65  N   UNL A   1      43.778  26.230  30.214  1.00  0.00    -0.248 NA
ATOM     66  C   UNL A   1      44.621  24.235  29.343  1.00  0.00     0.031 C 
ATOM     67  C   UNL A   1      45.943  28.768  33.156  1.00  0.00     0.029 A 
ATOM     68  C   UNL A   1      45.289  27.966  32.235  1.00  0.00     0.049 A 
ATOM     69  H   UNL A   1      43.444  28.289  31.264  1.00  0.00     0.167 HD
ATOM     70  C   UNL A   1      45.011  25.965  30.794  1.00  0.00     0.074 A 
ATOM     71  C   UNL A   1      45.464  24.701  30.252  1.00  0.00     0.031 C 
ATOM     72  C   UNL A   1      45.710  26.700  31.694  1.00  0.00     0.037 A 
BRANCH  59  73
ATOM     73  C   UNL A   1      43.040  32.034  33.264  1.00  0.00     0.064 A 
ATOM     74  C   UNL A   1      43.622  33.184  32.712  1.00  0.00     0.173 A 
ATOM     75  C   UNL A   1      42.470  32.137  34.543  1.00  0.00     0.173 A 
ATOM     76  F   UNL A   1      44.193  33.137  31.499  1.00  0.00    -0.203 F 
ATOM     77  C   UNL A   1      43.641  34.386  33.416  1.00  0.00     0.198 A 
ATOM     78  C   UNL A   1      42.463  33.347  35.230  1.00  0.00     0.198 A 
ATOM     79  F   UNL A   1      41.900  31.067  35.116  1.00  0.00    -0.203 F 
ATOM     80  F   UNL A   1      44.233  35.464  32.882  1.00  0.00    -0.200 F 
ATOM     81  C   UNL A   1      43.051  34.470  34.668  1.00  0.00     0.200 A 
ATOM     82  F   UNL A   1      41.878  33.429  36.433  1.00  0.00    -0.200 F 
ATOM     83  F   UNL A   1      43.049  35.633  35.333  1.00  0.00    -0.200 F 
ENDBRANCH  59  73
BRANCH  60  84
ATOM     84  C   UNL A   1      42.274  23.779  27.647  1.00  0.00     0.064 A 
ATOM     85  C   UNL A   1      41.797  22.550  28.125  1.00  0.00     0.173 A 
ATOM     86  C   UNL A   1      42.730  23.827  26.321  1.00  0.00     0.173 A 
ATOM     87  F   UNL A   1      41.362  22.447  29.390  1.00  0.00    -0.203 F 
ATOM     88  C   UNL A   1      41.820  21.407  27.326  1.00  0.00     0.198 A 
ATOM     89  C   UNL A   1      42.717  22.693  25.512  1.00  0.00     0.198 A 
ATOM     90  F   UNL A   1      43.186  24.978  25.807  1.00  0.00    -0.203 F 
ATOM     91  F   UNL A   1      41.425  20.231  27.833  1.00  0.00    -0.200 F 
ATOM     92  C   UNL A   1      42.278  21.480  26.021  1.00  0.00     0.200 A 
ATOM     93  F   UNL A   1      43.141  22.773  24.243  1.00  0.00    -0.200 F 
ATOM     94  F   UNL A   1      42.306  20.380  25.255  1.00  0.00    -0.200 F 
ENDBRANCH  60  84
BRANCH  72  95
ATOM     95  C   UNL A   1      47.012  26.134  32.184  1.00  0.00     0.064 A 
ATOM     96  C   UNL A   1      47.081  25.317  33.321  1.00  0.00     0.173 A 
ATOM     97  C   UNL A   1      48.198  26.379  31.475  1.00  0.00     0.173 A 
ATOM     98  F   UNL A   1      45.977  25.064  34.040  1.00  0.00    -0.203 F 
ATOM     99  C   UNL A   1      48.297  24.793  33.750  1.00  0.00     0.198 A 
ATOM    100  C   UNL A   1      49.405  25.821  31.885  1.00  0.00     0.198 A 
ATOM    101  F   UNL A   1      48.184  27.146  30.375  1.00  0.00    -0.203 F 
ATOM    102  F   UNL A   1      48.350  24.061  34.872  1.00  0.00    -0.200 F 
ATOM    103  C   UNL A   1      49.455  25.037  33.027  1.00  0.00     0.200 A 
ATOM    104  F   UNL A   1      50.519  26.042  31.175  1.00  0.00    -0.200 F 
ATOM    105  F   UNL A   1      50.623  24.522  33.436  1.00  0.00    -0.200 F 
ENDBRANCH  72  95
ENDBRANCH  46  47
ENDBRANCH  38  41
ENDBRANCH  36  37
ENDBRANCH  35  36
ENDBRANCH   1  35
TORSDOF 15
ENDMDL
MODEL 3
REMARK VINA RESULT:     -12.8      0.893      7.150
REMARK SMILES Cc1nnc(SCC2=C(C(=O)NCCCNC(=O)c3ccc(-c4c5nc(c(-c6c(F)c(F)c(F)c(F)c6F)c6ccc([nH]6)c(-c6c(F)c(F)c(F)c(F)c6F)c6nc(c(-c7c(F)c(F)c(F)c(F)c7F)c7ccc4[nH]7)C=C6)C=C5)cc3)N3C(=O)[C@H](NC(=O)c4ccc(F)cc4F)[C@H]3SC2)s1
REMARK SMILES IDX 13 1 12 2 10 3 11 4 9 6 8 7 99 8 82 9 98 10 83 11 97 12
REMARK SMILES IDX 84 13 85 14 7 15 6 16 5 17 1 18 2 19 3 20 100 21 4 22 86 23
REMARK SMILES IDX 87 24 88 26 89 27 90 28 95 29 91 30 94 31 96 32 92 33 93 34
REMARK SMILES IDX 14 35 15 36 16 37 17 38 18 40 19 41 20 42 81 43 21 44 80 45
REMARK SMILES IDX 22 46 23 47 24 48 74 49 25 50 79 51 73 52 75 53 26 54 78 55
REMARK SMILES IDX 72 56 71 57 27 59 59 60 39 61 58 62 40 63 43 64 57 65 76 66
REMARK SMILES IDX 41 67 42 68 56 70 77 71 44 72 28 73 29 74 37 75 30 76 31 77
REMARK SMILES IDX 35 78 38 79 32 80 33 81 36 82 34 83 60 84 61 85 69 86 62 87
REMARK SMILES IDX 63 88 67 89 70 90 64 91 65 92 68 93 66 94 45 95 46 96 54 97
REMARK SMILES IDX 47 98 48 99 52 100 55 101 49 102 50 103 53 104 51 105
REMARK H PARENT 12 5 86 25 16 39 75 58 43 69
REMARK Flexibility Score: inf
ROOT
ATOM      1  C   UNL A   1      37.087  21.254  25.323  1.00  0.00     0.118 C 
ENDROOT
BRANCH   1   2
ATOM      2  N   UNL A   1      35.987  21.372  26.244  1.00  0.00    -0.351 N 
ATOM      3  C   UNL A   1      34.662  21.603  26.220  1.00  0.00     0.268 C 
ATOM      4  O   UNL A   1      34.140  21.173  27.259  1.00  0.00    -0.268 OA
ATOM      5  H   UNL A   1      36.298  21.244  27.169  1.00  0.00     0.163 HD
BRANCH   3   6
ATOM      6  C   UNL A   1      33.766  22.295  25.172  1.00  0.00     0.111 C 
ATOM      7  C   UNL A   1      32.681  21.873  24.438  1.00  0.00    -0.020 C 
ATOM      8  C   UNL A   1      31.956  22.723  23.368  1.00  0.00     0.106 C 
ATOM      9  N   UNL A   1      34.083  23.640  25.037  1.00  0.00    -0.290 N 
ATOM     10  S   UNL A   1      32.675  24.316  22.964  1.00  0.00    -0.129 SA
ATOM     11  C   UNL A   1      35.025  24.566  25.355  1.00  0.00     0.253 C 
ATOM     12  C   UNL A   1      33.059  24.588  24.694  1.00  0.00     0.181 C 
ATOM     13  O   UNL A   1      36.180  24.542  25.714  1.00  0.00    -0.272 OA
ATOM     14  C   UNL A   1      34.040  25.732  24.977  1.00  0.00     0.206 C 
BRANCH   7  15
ATOM     15  C   UNL A   1      31.979  20.543  24.452  1.00  0.00     0.111 C 
BRANCH  15  16
ATOM     16  S   UNL A   1      32.142  19.575  22.925  1.00  0.00    -0.089 SA
BRANCH  16  17
ATOM     17  C   UNL A   1      33.088  18.180  23.377  1.00  0.00     0.174 A 
ATOM     18  C   UNL A   1      35.300  15.683  25.278  1.00  0.00     0.081 C 
ATOM     19  C   UNL A   1      34.442  16.509  24.391  1.00  0.00     0.115 A 
ATOM     20  N   UNL A   1      34.185  16.246  23.128  1.00  0.00    -0.143 NA
ATOM     21  S   UNL A   1      33.700  17.950  24.965  1.00  0.00    -0.091 S 
ATOM     22  N   UNL A   1      33.423  17.232  22.535  1.00  0.00    -0.132 NA
ENDBRANCH  16  17
ENDBRANCH  15  16
ENDBRANCH   7  15
BRANCH  14  23
ATOM     23  N   UNL A   1      33.682  26.677  26.080  1.00  0.00    -0.338 N 
ATOM     24  C   UNL A   1      32.791  27.731  26.093  1.00  0.00     0.254 C 
ATOM     25  H   UNL A   1      34.158  26.523  26.928  1.00  0.00     0.164 HD
ATOM     26  O   UNL A   1      32.778  28.532  27.022  1.00  0.00    -0.269 OA
BRANCH  24  27
ATOM     27  C   UNL A   1      31.854  27.943  24.978  1.00  0.00     0.075 A 
ATOM     28  C   UNL A   1      30.681  27.188  24.895  1.00  0.00     0.020 A 
ATOM     29  C   UNL A   1      32.170  28.837  23.954  1.00  0.00     0.138 A 
ATOM     30  C   UNL A   1      29.785  27.425  23.847  1.00  0.00     0.040 A 
ATOM     31  C   UNL A   1      31.257  29.121  22.944  1.00  0.00     0.079 A 
ATOM     32  F   UNL A   1      33.343  29.488  23.952  1.00  0.00    -0.206 F 
ATOM     33  C   UNL A   1      30.065  28.415  22.905  1.00  0.00     0.126 A 
ATOM     34  F   UNL A   1      29.177  28.679  21.940  1.00  0.00    -0.207 F 
ENDBRANCH  24  27
ENDBRANCH  14  23
ENDBRANCH   3   6
ENDBRANCH   1   2
BRANCH   1  35
ATOM     35  C   UNL A   1      38.401  20.943  26.026  1.00  0.00     0.042 C 
BRANCH  35  36
ATOM     36  C   UNL A   1      39.344  20.173  25.123  1.00  0.00     0.118 C 
BRANCH  36  37
ATOM     37  N   UNL A   1      40.245  19.334  25.909  1.00  0.00    -0.352 N 
ATOM     38  C   UNL A   1      41.390  19.670  26.582  1.00  0.00     0.251 C 
ATOM     39  H   UNL A   1      39.992  18.384  25.962  1.00  0.00     0.163 HD
ATOM     40  O   UNL A   1      42.151  18.790  26.974  1.00  0.00    -0.269 OA
BRANCH  38  41
ATOM     41  C   UNL A   1      41.713  21.092  26.816  1.00  0.00     0.039 A 
ATOM     42  C   UNL A   1      41.752  21.573  28.126  1.00  0.00     0.014 A 
ATOM     43  C   UNL A   1      41.972  21.948  25.743  1.00  0.00     0.014 A 
ATOM     44  C   UNL A   1      42.106  22.901  28.359  1.00  0.00     0.010 A 
ATOM     45  C   UNL A   1      42.438  23.233  25.982  1.00  0.00     0.010 A 
ATOM     46  C   UNL A   1      42.485  23.730  27.291  1.00  0.00    -0.014 A 
BRANCH  46  47
ATOM     47  C   UNL A   1      42.903  25.134  27.513  1.00  0.00     0.031 A 
ATOM     48  C   UNL A   1      44.315  25.548  27.194  1.00  0.00     0.074 A 
ATOM     49  C   UNL A   1      42.036  26.007  28.060  1.00  0.00     0.049 A 
ATOM     50  N   UNL A   1      44.900  26.702  27.389  1.00  0.00    -0.248 NA
ATOM     51  C   UNL A   1      45.197  24.522  26.611  1.00  0.00     0.031 C 
ATOM     52  C   UNL A   1      40.662  25.696  28.463  1.00  0.00     0.029 A 
ATOM     53  N   UNL A   1      42.182  27.331  28.384  1.00  0.00    -0.354 N 
ATOM     54  C   UNL A   1      46.215  26.531  26.976  1.00  0.00     0.074 A 
ATOM     55  C   UNL A   1      46.362  25.152  26.571  1.00  0.00     0.031 C 
ATOM     56  C   UNL A   1      40.087  26.802  28.958  1.00  0.00     0.029 A 
ATOM     57  C   UNL A   1      41.061  27.887  28.952  1.00  0.00     0.049 A 
ATOM     58  H   UNL A   1      43.013  27.835  28.225  1.00  0.00     0.167 HD
ATOM     59  C   UNL A   1      47.204  27.452  26.917  1.00  0.00     0.037 A 
ATOM     60  C   UNL A   1      40.855  29.129  29.427  1.00  0.00     0.037 A 
ATOM     61  C   UNL A   1      47.033  28.833  27.280  1.00  0.00     0.049 A 
ATOM     62  C   UNL A   1      41.973  30.134  29.336  1.00  0.00     0.074 A 
ATOM     63  C   UNL A   1      47.945  29.868  27.178  1.00  0.00     0.029 A 
ATOM     64  N   UNL A   1      45.873  29.369  27.819  1.00  0.00    -0.354 N 
ATOM     65  N   UNL A   1      43.185  29.984  28.857  1.00  0.00    -0.248 NA
ATOM     66  C   UNL A   1      41.693  31.485  29.842  1.00  0.00     0.031 C 
ATOM     67  C   UNL A   1      47.358  31.017  27.714  1.00  0.00     0.029 A 
ATOM     68  C   UNL A   1      46.057  30.715  28.084  1.00  0.00     0.049 A 
ATOM     69  H   UNL A   1      45.043  28.867  27.988  1.00  0.00     0.167 HD
ATOM     70  C   UNL A   1      43.798  31.225  28.974  1.00  0.00     0.074 A 
ATOM     71  C   UNL A   1      42.817  32.121  29.549  1.00  0.00     0.031 C 
ATOM     72  C   UNL A   1      45.059  31.591  28.640  1.00  0.00     0.037 A 
BRANCH  59  73
ATOM     73  C   UNL A   1      48.555  27.013  26.435  1.00  0.00     0.064 A 
ATOM     74  C   UNL A   1      49.491  26.421  27.296  1.00  0.00     0.173 A 
ATOM     75  C   UNL A   1      48.887  27.112  25.076  1.00  0.00     0.173 A 
ATOM     76  F   UNL A   1      49.230  26.314  28.608  1.00  0.00    -0.203 F 
ATOM     77  C   UNL A   1      50.713  25.956  26.817  1.00  0.00     0.198 A 
ATOM     78  C   UNL A   1      50.097  26.619  24.594  1.00  0.00     0.198 A 
ATOM     79  F   UNL A   1      48.028  27.669  24.209  1.00  0.00    -0.203 F 
ATOM     80  F   UNL A   1      51.606  25.425  27.664  1.00  0.00    -0.200 F 
ATOM     81  C   UNL A   1      51.010  26.044  25.465  1.00  0.00     0.200 A 
ATOM     82  F   UNL A   1      50.374  26.691  23.284  1.00  0.00    -0.200 F 
ATOM     83  F   UNL A   1      52.176  25.574  25.001  1.00  0.00    -0.200 F 
ENDBRANCH  59  73
BRANCH  60  84
ATOM     84  C   UNL A   1      39.546  29.499  30.031  1.00  0.00     0.064 A 
ATOM     85  C   UNL A   1      39.305  29.326  31.402  1.00  0.00     0.173 A 
ATOM     86  C   UNL A   1      38.494  29.990  29.244  1.00  0.00     0.173 A 
ATOM     87  F   UNL A   1      40.273  28.845  32.197  1.00  0.00    -0.203 F 
ATOM     88  C   UNL A   1      38.051  29.587  31.953  1.00  0.00     0.198 A 
ATOM     89  C   UNL A   1      37.252  30.288  29.803  1.00  0.00     0.198 A 
ATOM     90  F   UNL A   1      38.671  30.187  27.930  1.00  0.00    -0.203 F 
ATOM     91  F   UNL A   1      37.830  29.344  33.252  1.00  0.00    -0.200 F 
ATOM     92  C   UNL A   1      37.027  30.070  31.154  1.00  0.00     0.200 A 
ATOM     93  F   UNL A   1      36.271  30.775  29.030  1.00  0.00    -0.200 F 
ATOM     94  F   UNL A   1      35.820  30.315  31.682  1.00  0.00    -0.200 F 
ENDBRANCH  60  84
BRANCH  72  95
ATOM     95  C   UNL A   1      45.434  33.031  28.840  1.00  0.00     0.064 A 
ATOM     96  C   UNL A   1      45.192  34.002  27.858  1.00  0.00     0.173 A 
ATOM     97  C   UNL A   1      46.002  33.450  30.053  1.00  0.00     0.173 A 
ATOM     98  F   UNL A   1      44.663  33.651  26.676  1.00  0.00    -0.203 F 
ATOM     99  C   UNL A   1      45.536  35.333  28.070  1.00  0.00     0.198 A 
ATOM    100  C   UNL A   1      46.309  34.788  30.277  1.00  0.00     0.198 A 
ATOM    101  F   UNL A   1      46.244  32.562  31.030  1.00  0.00    -0.203 F 
ATOM    102  F   UNL A   1      45.349  36.235  27.096  1.00  0.00    -0.200 F 
ATOM    103  C   UNL A   1      46.086  35.727  29.282  1.00  0.00     0.200 A 
ATOM    104  F   UNL A   1      46.821  35.169  31.455  1.00  0.00    -0.200 F 
ATOM    105  F   UNL A   1      46.406  37.012  29.488  1.00  0.00    -0.200 F 
ENDBRANCH  72  95
ENDBRANCH  46  47
ENDBRANCH  38  41
ENDBRANCH  36  37
ENDBRANCH  35  36
ENDBRANCH   1  35
TORSDOF 15
ENDMDL
