MODEL 1
REMARK VINA RESULT:     -13.2      0.000      0.000
REMARK SMILES CCCc1cc(S(F)(F)(F)(F)F)cc2c1O[C@@H](C(F)(F)F)C(C(=O)NCCCNC(=O)c1ccc(-c3c4nc(c(-c5c(F)c(F)c(F)c(F)c5F)c5ccc([nH]5)c(-c5c(F)c(F)c(F)c(F)c5F)c5nc(c(-c6c(F)c(F)c(F)c(F)c6F)c6ccc3[nH]6)C=C5)C=C4)cc1)=C2
REMARK SMILES IDX 27 1 26 2 25 3 23 4 24 5 22 7 4 8 5 9 15 10 6 11 14 12 16 13
REMARK SMILES IDX 13 14 95 15 17 16 3 17 2 18 1 19 7 20 8 21 9 22 10 23 11 24
REMARK SMILES IDX 12 25 18 26 19 27 20 28 21 29 28 30 29 31 30 32 31 34 32 35
REMARK SMILES IDX 33 36 94 37 34 38 93 39 35 40 36 41 37 42 87 43 38 44 92 45
REMARK SMILES IDX 86 46 88 47 39 48 91 49 85 50 84 51 40 53 72 54 52 55 71 56
REMARK SMILES IDX 53 57 56 58 70 59 89 60 54 61 55 62 69 64 90 65 57 66 41 67
REMARK SMILES IDX 42 68 50 69 43 70 44 71 48 72 51 73 45 74 46 75 49 76 47 77
REMARK SMILES IDX 73 78 74 79 82 80 75 81 76 82 80 83 83 84 77 85 78 86 81 87
REMARK SMILES IDX 79 88 58 89 59 90 67 91 60 92 61 93 65 94 68 95 62 96 63 97
REMARK SMILES IDX 66 98 64 99
REMARK H PARENT 25 6 29 33 88 52 56 63
REMARK Flexibility Score: inf
ROOT
ATOM      1  C   UNL A   1      33.056  27.633  26.126  1.00  0.00     0.042 C 
ENDROOT
BRANCH   1   2
ATOM      2  C   UNL A   1      33.544  26.468  25.280  1.00  0.00     0.118 C 
BRANCH   2   3
ATOM      3  N   UNL A   1      33.530  26.852  23.861  1.00  0.00    -0.352 N 
ATOM      4  C   UNL A   1      33.664  25.824  22.820  1.00  0.00     0.251 C 
ATOM      5  O   UNL A   1      33.652  26.157  21.593  1.00  0.00    -0.270 OA
ATOM      6  H   UNL A   1      33.431  27.799  23.609  1.00  0.00     0.163 HD
BRANCH   4   7
ATOM      7  C   UNL A   1      33.816  24.363  23.209  1.00  0.00     0.067 C 
ATOM      8  C   UNL A   1      34.008  20.472  24.718  1.00  0.00    -0.004 A 
ATOM      9  C   UNL A   1      35.234  19.910  25.023  1.00  0.00     0.032 A 
ATOM     10  C   UNL A   1      33.970  21.772  24.274  1.00  0.00     0.131 A 
ATOM     11  C   UNL A   1      36.392  20.631  24.892  1.00  0.00     0.108 A 
ATOM     12  C   UNL A   1      35.119  22.524  24.111  1.00  0.00     0.019 A 
ATOM     13  O   UNL A   1      32.740  22.352  24.084  1.00  0.00    -0.475 OA
ATOM     14  C   UNL A   1      36.335  21.930  24.431  1.00  0.00     0.036 A 
ATOM     15  C   UNL A   1      34.971  23.901  23.673  1.00  0.00     0.025 C 
ATOM     16  C   UNL A   1      32.647  23.396  23.074  1.00  0.00     0.314 C 
BRANCH   8  17
ATOM     17  C   UNL A   1      32.728  19.668  24.870  1.00  0.00     0.039 C 
BRANCH  17  18
ATOM     18  C   UNL A   1      32.790  18.441  23.975  1.00  0.00     0.001 C 
ATOM     19  C   UNL A   1      32.192  18.772  22.619  1.00  0.00     0.004 C 
ENDBRANCH  17  18
ENDBRANCH   8  17
BRANCH  11  20
ATOM     20  S   UNL A   1      37.985  19.884  25.319  1.00  0.00     0.310 S 
ATOM     21  F   UNL A   1      38.465  19.589  23.837  1.00  0.00    -0.094 F 
ATOM     22  F   UNL A   1      37.299  18.465  25.306  1.00  0.00    -0.094 F 
ATOM     23  F   UNL A   1      39.322  19.264  25.811  1.00  0.00    -0.094 F 
ATOM     24  F   UNL A   1      38.692  21.290  25.192  1.00  0.00    -0.094 F 
ATOM     25  F   UNL A   1      36.666  20.508  24.712  1.00  0.00    -0.094 F 
ENDBRANCH  11  20
BRANCH  16  26
ATOM     26  C   UNL A   1      31.347  24.159  23.267  1.00  0.00     0.429 C 
ATOM     27  F   UNL A   1      30.319  23.325  23.140  1.00  0.00    -0.167 F 
ATOM     28  F   UNL A   1      31.329  24.703  24.480  1.00  0.00    -0.167 F 
ATOM     29  F   UNL A   1      31.256  25.118  22.349  1.00  0.00    -0.167 F 
ENDBRANCH  16  26
ENDBRANCH   4   7
ENDBRANCH   2   3
ENDBRANCH   1   2
BRANCH   1  30
ATOM     30  C   UNL A   1      34.242  28.486  26.545  1.00  0.00     0.118 C 
BRANCH  30  31
ATOM     31  N   UNL A   1      33.785  29.854  26.829  1.00  0.00    -0.352 N 
ATOM     32  C   UNL A   1      34.626  30.759  27.626  1.00  0.00     0.251 C 
ATOM     33  H   UNL A   1      32.916  30.164  26.485  1.00  0.00     0.163 HD
ATOM     34  O   UNL A   1      34.232  31.942  27.871  1.00  0.00    -0.269 OA
BRANCH  32  35
ATOM     35  C   UNL A   1      35.968  30.279  28.157  1.00  0.00     0.039 A 
ATOM     36  C   UNL A   1      37.102  30.437  27.378  1.00  0.00     0.014 A 
ATOM     37  C   UNL A   1      36.028  29.718  29.359  1.00  0.00     0.014 A 
ATOM     38  C   UNL A   1      38.220  29.702  27.839  1.00  0.00     0.010 A 
ATOM     39  C   UNL A   1      37.193  29.138  29.801  1.00  0.00     0.010 A 
ATOM     40  C   UNL A   1      38.338  29.204  29.057  1.00  0.00    -0.014 A 
BRANCH  40  41
ATOM     41  C   UNL A   1      39.676  28.729  29.601  1.00  0.00     0.031 A 
ATOM     42  C   UNL A   1      40.208  27.544  29.089  1.00  0.00     0.074 A 
ATOM     43  C   UNL A   1      40.292  29.498  30.573  1.00  0.00     0.049 A 
ATOM     44  N   UNL A   1      41.372  26.973  29.401  1.00  0.00    -0.248 NA
ATOM     45  C   UNL A   1      39.539  26.708  28.080  1.00  0.00     0.031 C 
ATOM     46  C   UNL A   1      39.766  30.698  31.089  1.00  0.00     0.029 A 
ATOM     47  N   UNL A   1      41.491  29.255  31.208  1.00  0.00    -0.354 N 
ATOM     48  C   UNL A   1      41.545  25.858  28.689  1.00  0.00     0.074 A 
ATOM     49  C   UNL A   1      40.365  25.668  27.834  1.00  0.00     0.031 C 
ATOM     50  C   UNL A   1      40.628  31.168  32.028  1.00  0.00     0.029 A 
ATOM     51  C   UNL A   1      41.708  30.269  32.116  1.00  0.00     0.049 A 
ATOM     52  H   UNL A   1      42.087  28.491  31.041  1.00  0.00     0.167 HD
ATOM     53  C   UNL A   1      42.640  24.993  28.718  1.00  0.00     0.037 A 
ATOM     54  C   UNL A   1      42.781  30.417  32.981  1.00  0.00     0.037 A 
ATOM     55  C   UNL A   1      43.733  25.165  29.553  1.00  0.00     0.049 A 
ATOM     56  C   UNL A   1      43.849  29.520  33.051  1.00  0.00     0.074 A 
ATOM     57  C   UNL A   1      44.849  24.306  29.589  1.00  0.00     0.029 A 
ATOM     58  N   UNL A   1      43.939  26.164  30.477  1.00  0.00    -0.354 N 
ATOM     59  N   UNL A   1      44.039  28.426  32.311  1.00  0.00    -0.248 NA
ATOM     60  C   UNL A   1      44.975  29.649  33.986  1.00  0.00     0.031 C 
ATOM     61  C   UNL A   1      45.711  24.776  30.529  1.00  0.00     0.029 A 
ATOM     62  C   UNL A   1      45.149  25.935  31.096  1.00  0.00     0.049 A 
ATOM     63  H   UNL A   1      43.328  26.913  30.665  1.00  0.00     0.167 HD
ATOM     64  C   UNL A   1      45.186  27.833  32.654  1.00  0.00     0.074 A 
ATOM     65  C   UNL A   1      45.800  28.608  33.741  1.00  0.00     0.031 C 
ATOM     66  C   UNL A   1      45.744  26.681  32.101  1.00  0.00     0.037 A 
BRANCH  53  67
ATOM     67  C   UNL A   1      42.633  23.795  27.782  1.00  0.00     0.064 A 
ATOM     68  C   UNL A   1      43.185  23.871  26.514  1.00  0.00     0.173 A 
ATOM     69  C   UNL A   1      42.091  22.669  28.230  1.00  0.00     0.173 A 
ATOM     70  F   UNL A   1      43.955  24.882  26.117  1.00  0.00    -0.203 F 
ATOM     71  C   UNL A   1      42.857  22.778  25.678  1.00  0.00     0.198 A 
ATOM     72  C   UNL A   1      41.924  21.592  27.393  1.00  0.00     0.198 A 
ATOM     73  F   UNL A   1      41.706  22.583  29.501  1.00  0.00    -0.203 F 
ATOM     74  F   UNL A   1      43.027  22.928  24.368  1.00  0.00    -0.200 F 
ATOM     75  C   UNL A   1      42.392  21.620  26.110  1.00  0.00     0.200 A 
ATOM     76  F   UNL A   1      41.298  20.507  27.840  1.00  0.00    -0.200 F 
ATOM     77  F   UNL A   1      42.381  20.537  25.336  1.00  0.00    -0.200 F 
ENDBRANCH  53  67
BRANCH  54  78
ATOM     78  C   UNL A   1      42.796  31.624  33.904  1.00  0.00     0.064 A 
ATOM     79  C   UNL A   1      42.229  31.544  35.165  1.00  0.00     0.173 A 
ATOM     80  C   UNL A   1      43.328  32.756  33.459  1.00  0.00     0.173 A 
ATOM     81  F   UNL A   1      41.917  30.390  35.748  1.00  0.00    -0.203 F 
ATOM     82  C   UNL A   1      42.012  32.802  35.777  1.00  0.00     0.198 A 
ATOM     83  C   UNL A   1      43.194  33.921  34.174  1.00  0.00     0.198 A 
ATOM     84  F   UNL A   1      43.996  32.762  32.308  1.00  0.00    -0.203 F 
ATOM     85  F   UNL A   1      41.165  32.853  36.801  1.00  0.00    -0.200 F 
ATOM     86  C   UNL A   1      42.592  33.927  35.402  1.00  0.00     0.200 A 
ATOM     87  F   UNL A   1      43.657  35.059  33.666  1.00  0.00    -0.200 F 
ATOM     88  F   UNL A   1      42.591  35.008  36.177  1.00  0.00    -0.200 F 
ENDBRANCH  54  78
BRANCH  66  89
ATOM     89  C   UNL A   1      47.090  26.215  32.633  1.00  0.00     0.064 A 
ATOM     90  C   UNL A   1      48.253  26.725  32.081  1.00  0.00     0.173 A 
ATOM     91  C   UNL A   1      47.128  25.326  33.620  1.00  0.00     0.173 A 
ATOM     92  F   UNL A   1      48.270  27.789  31.282  1.00  0.00    -0.203 F 
ATOM     93  C   UNL A   1      49.421  26.015  32.446  1.00  0.00     0.198 A 
ATOM     94  C   UNL A   1      48.321  24.772  34.016  1.00  0.00     0.198 A 
ATOM     95  F   UNL A   1      46.001  24.969  34.228  1.00  0.00    -0.203 F 
ATOM     96  F   UNL A   1      50.511  26.193  31.704  1.00  0.00    -0.200 F 
ATOM     97  C   UNL A   1      49.505  25.187  33.471  1.00  0.00     0.200 A 
ATOM     98  F   UNL A   1      48.325  23.818  34.944  1.00  0.00    -0.200 F 
ATOM     99  F   UNL A   1      50.677  24.780  33.949  1.00  0.00    -0.200 F 
ENDBRANCH  66  89
ENDBRANCH  40  41
ENDBRANCH  32  35
ENDBRANCH  30  31
ENDBRANCH   1  30
TORSDOF 14
ENDMDL
MODEL 2
REMARK VINA RESULT:     -12.9      1.067      2.298
REMARK SMILES CCCc1cc(S(F)(F)(F)(F)F)cc2c1O[C@@H](C(F)(F)F)C(C(=O)NCCCNC(=O)c1ccc(-c3c4nc(c(-c5c(F)c(F)c(F)c(F)c5F)c5ccc([nH]5)c(-c5c(F)c(F)c(F)c(F)c5F)c5nc(c(-c6c(F)c(F)c(F)c(F)c6F)c6ccc3[nH]6)C=C5)C=C4)cc1)=C2
REMARK SMILES IDX 27 1 26 2 25 3 23 4 24 5 22 7 4 8 5 9 15 10 6 11 14 12 16 13
REMARK SMILES IDX 13 14 95 15 17 16 3 17 2 18 1 19 7 20 8 21 9 22 10 23 11 24
REMARK SMILES IDX 12 25 18 26 19 27 20 28 21 29 28 30 29 31 30 32 31 34 32 35
REMARK SMILES IDX 33 36 94 37 34 38 93 39 35 40 36 41 37 42 87 43 38 44 92 45
REMARK SMILES IDX 86 46 88 47 39 48 91 49 85 50 84 51 40 53 72 54 52 55 71 56
REMARK SMILES IDX 53 57 56 58 70 59 89 60 54 61 55 62 69 64 90 65 57 66 41 67
REMARK SMILES IDX 42 68 50 69 43 70 44 71 48 72 51 73 45 74 46 75 49 76 47 77
REMARK SMILES IDX 73 78 74 79 82 80 75 81 76 82 80 83 83 84 77 85 78 86 81 87
REMARK SMILES IDX 79 88 58 89 59 90 67 91 60 92 61 93 65 94 68 95 62 96 63 97
REMARK SMILES IDX 66 98 64 99
REMARK H PARENT 25 6 29 33 88 52 56 63
REMARK Flexibility Score: inf
ROOT
ATOM      1  C   UNL A   1      33.160  27.638  26.197  1.00  0.00     0.042 C 
ENDROOT
BRANCH   1   2
ATOM      2  C   UNL A   1      33.660  26.499  25.323  1.00  0.00     0.118 C 
BRANCH   2   3
ATOM      3  N   UNL A   1      33.622  26.911  23.913  1.00  0.00    -0.352 N 
ATOM      4  C   UNL A   1      33.702  25.901  22.849  1.00  0.00     0.251 C 
ATOM      5  O   UNL A   1      33.669  26.257  21.629  1.00  0.00    -0.270 OA
ATOM      6  H   UNL A   1      33.544  27.866  23.681  1.00  0.00     0.163 HD
BRANCH   4   7
ATOM      7  C   UNL A   1      33.822  24.428  23.207  1.00  0.00     0.067 C 
ATOM      8  C   UNL A   1      33.923  20.502  24.629  1.00  0.00    -0.004 A 
ATOM      9  C   UNL A   1      35.134  19.911  24.941  1.00  0.00     0.032 A 
ATOM     10  C   UNL A   1      33.914  21.811  24.214  1.00  0.00     0.131 A 
ATOM     11  C   UNL A   1      36.306  20.615  24.846  1.00  0.00     0.108 A 
ATOM     12  C   UNL A   1      35.079  22.547  24.089  1.00  0.00     0.019 A 
ATOM     13  O   UNL A   1      32.698  22.417  24.017  1.00  0.00    -0.475 OA
ATOM     14  C   UNL A   1      36.279  21.925  24.415  1.00  0.00     0.036 A 
ATOM     15  C   UNL A   1      34.962  23.937  23.680  1.00  0.00     0.025 C 
ATOM     16  C   UNL A   1      32.640  23.485  23.030  1.00  0.00     0.314 C 
BRANCH   8  17
ATOM     17  C   UNL A   1      32.627  19.717  24.742  1.00  0.00     0.039 C 
BRANCH  17  18
ATOM     18  C   UNL A   1      32.833  18.316  24.188  1.00  0.00     0.001 C 
ATOM     19  C   UNL A   1      32.408  17.292  25.227  1.00  0.00     0.004 C 
ENDBRANCH  17  18
ENDBRANCH   8  17
BRANCH  11  20
ATOM     20  S   UNL A   1      37.878  19.831  25.283  1.00  0.00     0.310 S 
ATOM     21  F   UNL A   1      38.376  19.557  23.803  1.00  0.00    -0.094 F 
ATOM     22  F   UNL A   1      37.167  18.425  25.232  1.00  0.00    -0.094 F 
ATOM     23  F   UNL A   1      39.197  19.178  25.784  1.00  0.00    -0.094 F 
ATOM     24  F   UNL A   1      38.612  21.226  25.195  1.00  0.00    -0.094 F 
ATOM     25  F   UNL A   1      36.580  20.491  24.669  1.00  0.00    -0.094 F 
ENDBRANCH  11  20
BRANCH  16  26
ATOM     26  C   UNL A   1      31.350  24.266  23.219  1.00  0.00     0.429 C 
ATOM     27  F   UNL A   1      31.259  25.206  22.283  1.00  0.00    -0.167 F 
ATOM     28  F   UNL A   1      30.313  23.440  23.119  1.00  0.00    -0.167 F 
ATOM     29  F   UNL A   1      31.349  24.836  24.421  1.00  0.00    -0.167 F 
ENDBRANCH  16  26
ENDBRANCH   4   7
ENDBRANCH   2   3
ENDBRANCH   1   2
BRANCH   1  30
ATOM     30  C   UNL A   1      34.319  28.560  26.539  1.00  0.00     0.118 C 
BRANCH  30  31
ATOM     31  N   UNL A   1      33.799  29.806  27.122  1.00  0.00    -0.352 N 
ATOM     32  C   UNL A   1      34.643  30.603  28.024  1.00  0.00     0.251 C 
ATOM     33  H   UNL A   1      32.886  30.106  26.908  1.00  0.00     0.163 HD
ATOM     34  O   UNL A   1      34.194  31.680  28.528  1.00  0.00    -0.269 OA
BRANCH  32  35
ATOM     35  C   UNL A   1      36.053  30.139  28.355  1.00  0.00     0.039 A 
ATOM     36  C   UNL A   1      36.288  29.482  29.551  1.00  0.00     0.014 A 
ATOM     37  C   UNL A   1      37.033  30.372  27.492  1.00  0.00     0.014 A 
ATOM     38  C   UNL A   1      37.660  29.363  29.879  1.00  0.00     0.010 A 
ATOM     39  C   UNL A   1      38.339  30.105  27.828  1.00  0.00     0.010 A 
ATOM     40  C   UNL A   1      38.651  29.511  29.018  1.00  0.00    -0.014 A 
BRANCH  40  41
ATOM     41  C   UNL A   1      40.062  29.044  29.336  1.00  0.00     0.031 A 
ATOM     42  C   UNL A   1      40.462  27.795  28.858  1.00  0.00     0.074 A 
ATOM     43  C   UNL A   1      40.872  29.883  30.081  1.00  0.00     0.049 A 
ATOM     44  N   UNL A   1      41.656  27.216  28.993  1.00  0.00    -0.248 NA
ATOM     45  C   UNL A   1      39.593  26.887  28.094  1.00  0.00     0.031 C 
ATOM     46  C   UNL A   1      40.479  31.148  30.560  1.00  0.00     0.029 A 
ATOM     47  N   UNL A   1      42.169  29.661  30.490  1.00  0.00    -0.354 N 
ATOM     48  C   UNL A   1      41.665  26.029  28.383  1.00  0.00     0.074 A 
ATOM     49  C   UNL A   1      40.336  25.798  27.802  1.00  0.00     0.031 C 
ATOM     50  C   UNL A   1      41.519  31.677  31.257  1.00  0.00     0.029 A 
ATOM     51  C   UNL A   1      42.579  30.753  31.225  1.00  0.00     0.049 A 
ATOM     52  H   UNL A   1      42.708  28.863  30.291  1.00  0.00     0.167 HD
ATOM     53  C   UNL A   1      42.730  25.131  28.288  1.00  0.00     0.037 A 
ATOM     54  C   UNL A   1      43.806  30.947  31.842  1.00  0.00     0.037 A 
ATOM     55  C   UNL A   1      43.970  25.346  28.868  1.00  0.00     0.049 A 
ATOM     56  C   UNL A   1      44.852  30.023  31.795  1.00  0.00     0.074 A 
ATOM     57  C   UNL A   1      45.057  24.454  28.775  1.00  0.00     0.029 A 
ATOM     58  N   UNL A   1      44.373  26.424  29.623  1.00  0.00    -0.354 N 
ATOM     59  N   UNL A   1      44.873  28.854  31.152  1.00  0.00    -0.248 NA
ATOM     60  C   UNL A   1      46.143  30.204  32.472  1.00  0.00     0.031 C 
ATOM     61  C   UNL A   1      46.097  24.984  29.472  1.00  0.00     0.029 A 
ATOM     62  C   UNL A   1      45.677  26.214  30.013  1.00  0.00     0.049 A 
ATOM     63  H   UNL A   1      43.823  27.211  29.847  1.00  0.00     0.167 HD
ATOM     64  C   UNL A   1      46.055  28.257  31.324  1.00  0.00     0.074 A 
ATOM     65  C   UNL A   1      46.886  29.113  32.180  1.00  0.00     0.031 C 
ATOM     66  C   UNL A   1      46.474  27.035  30.796  1.00  0.00     0.037 A 
BRANCH  53  67
ATOM     67  C   UNL A   1      42.518  23.846  27.503  1.00  0.00     0.064 A 
ATOM     68  C   UNL A   1      42.048  22.698  28.120  1.00  0.00     0.173 A 
ATOM     69  C   UNL A   1      42.786  23.869  26.203  1.00  0.00     0.173 A 
ATOM     70  F   UNL A   1      41.531  22.693  29.345  1.00  0.00    -0.203 F 
ATOM     71  C   UNL A   1      42.168  21.532  27.328  1.00  0.00     0.198 A 
ATOM     72  C   UNL A   1      42.752  22.714  25.462  1.00  0.00     0.198 A 
ATOM     73  F   UNL A   1      43.091  25.023  25.614  1.00  0.00    -0.203 F 
ATOM     74  F   UNL A   1      42.087  20.356  27.942  1.00  0.00    -0.200 F 
ATOM     75  C   UNL A   1      42.354  21.532  26.020  1.00  0.00     0.200 A 
ATOM     76  F   UNL A   1      43.111  22.746  24.181  1.00  0.00    -0.200 F 
ATOM     77  F   UNL A   1      42.164  20.438  25.286  1.00  0.00    -0.200 F 
ENDBRANCH  53  67
BRANCH  54  78
ATOM     78  C   UNL A   1      44.024  32.239  32.612  1.00  0.00     0.064 A 
ATOM     79  C   UNL A   1      44.552  33.350  31.975  1.00  0.00     0.173 A 
ATOM     80  C   UNL A   1      43.732  32.262  33.908  1.00  0.00     0.173 A 
ATOM     81  F   UNL A   1      44.621  33.461  30.651  1.00  0.00    -0.203 F 
ATOM     82  C   UNL A   1      45.010  34.354  32.860  1.00  0.00     0.198 A 
ATOM     83  C   UNL A   1      44.089  33.336  34.686  1.00  0.00     0.198 A 
ATOM     84  F   UNL A   1      43.089  31.234  34.456  1.00  0.00    -0.203 F 
ATOM     85  F   UNL A   1      45.841  35.273  32.376  1.00  0.00    -0.200 F 
ATOM     86  C   UNL A   1      44.669  34.443  34.132  1.00  0.00     0.200 A 
ATOM     87  F   UNL A   1      43.868  33.297  35.996  1.00  0.00    -0.200 F 
ATOM     88  F   UNL A   1      44.879  35.552  34.838  1.00  0.00    -0.200 F 
ENDBRANCH  54  78
BRANCH  66  89
ATOM     89  C   UNL A   1      47.891  26.575  31.100  1.00  0.00     0.064 A 
ATOM     90  C   UNL A   1      48.129  25.804  32.225  1.00  0.00     0.173 A 
ATOM     91  C   UNL A   1      48.877  26.921  30.280  1.00  0.00     0.173 A 
ATOM     92  F   UNL A   1      47.158  25.225  32.926  1.00  0.00    -0.203 F 
ATOM     93  C   UNL A   1      49.498  25.685  32.560  1.00  0.00     0.198 A 
ATOM     94  C   UNL A   1      50.185  26.654  30.607  1.00  0.00     0.198 A 
ATOM     95  F   UNL A   1      48.596  27.533  29.133  1.00  0.00    -0.203 F 
ATOM     96  F   UNL A   1      49.802  25.283  33.791  1.00  0.00    -0.200 F 
ATOM     97  C   UNL A   1      50.496  25.946  31.735  1.00  0.00     0.200 A 
ATOM     98  F   UNL A   1      51.161  27.089  29.816  1.00  0.00    -0.200 F 
ATOM     99  F   UNL A   1      51.738  25.542  31.988  1.00  0.00    -0.200 F 
ENDBRANCH  66  89
ENDBRANCH  40  41
ENDBRANCH  32  35
ENDBRANCH  30  31
ENDBRANCH   1  30
TORSDOF 14
ENDMDL
MODEL 3
REMARK VINA RESULT:     -12.8      0.672      7.100
REMARK SMILES CCCc1cc(S(F)(F)(F)(F)F)cc2c1O[C@@H](C(F)(F)F)C(C(=O)NCCCNC(=O)c1ccc(-c3c4nc(c(-c5c(F)c(F)c(F)c(F)c5F)c5ccc([nH]5)c(-c5c(F)c(F)c(F)c(F)c5F)c5nc(c(-c6c(F)c(F)c(F)c(F)c6F)c6ccc3[nH]6)C=C5)C=C4)cc1)=C2
REMARK SMILES IDX 27 1 26 2 25 3 23 4 24 5 22 7 4 8 5 9 15 10 6 11 14 12 16 13
REMARK SMILES IDX 13 14 95 15 17 16 3 17 2 18 1 19 7 20 8 21 9 22 10 23 11 24
REMARK SMILES IDX 12 25 18 26 19 27 20 28 21 29 28 30 29 31 30 32 31 34 32 35
REMARK SMILES IDX 33 36 94 37 34 38 93 39 35 40 36 41 37 42 87 43 38 44 92 45
REMARK SMILES IDX 86 46 88 47 39 48 91 49 85 50 84 51 40 53 72 54 52 55 71 56
REMARK SMILES IDX 53 57 56 58 70 59 89 60 54 61 55 62 69 64 90 65 57 66 41 67
REMARK SMILES IDX 42 68 50 69 43 70 44 71 48 72 51 73 45 74 46 75 49 76 47 77
REMARK SMILES IDX 73 78 74 79 82 80 75 81 76 82 80 83 83 84 77 85 78 86 81 87
REMARK SMILES IDX 79 88 58 89 59 90 67 91 60 92 61 93 65 94 68 95 62 96 63 97
REMARK SMILES IDX 66 98 64 99
REMARK H PARENT 25 6 29 33 88 52 56 63
REMARK Flexibility Score: inf
ROOT
ATOM      1  C   UNL A   1      34.412  27.875  25.542  1.00  0.00     0.042 C 
ENDROOT
BRANCH   1   2
ATOM      2  C   UNL A   1      33.517  26.858  24.851  1.00  0.00     0.118 C 
BRANCH   2   3
ATOM      3  N   UNL A   1      33.465  27.149  23.411  1.00  0.00    -0.352 N 
ATOM      4  C   UNL A   1      33.533  26.051  22.437  1.00  0.00     0.251 C 
ATOM      5  O   UNL A   1      33.487  26.303  21.191  1.00  0.00    -0.270 OA
ATOM      6  H   UNL A   1      33.385  28.080  23.100  1.00  0.00     0.163 HD
BRANCH   4   7
ATOM      7  C   UNL A   1      33.655  24.614  22.917  1.00  0.00     0.067 C 
ATOM      8  C   UNL A   1      33.784  20.827  24.674  1.00  0.00    -0.004 A 
ATOM      9  C   UNL A   1      35.003  20.249  24.981  1.00  0.00     0.032 A 
ATOM     10  C   UNL A   1      33.769  22.095  24.146  1.00  0.00     0.131 A 
ATOM     11  C   UNL A   1      36.175  20.926  24.771  1.00  0.00     0.108 A 
ATOM     12  C   UNL A   1      34.933  22.800  23.903  1.00  0.00     0.019 A 
ATOM     13  O   UNL A   1      32.550  22.697  23.951  1.00  0.00    -0.475 OA
ATOM     14  C   UNL A   1      36.141  22.193  24.228  1.00  0.00     0.036 A 
ATOM     15  C   UNL A   1      34.810  24.150  23.379  1.00  0.00     0.025 C 
ATOM     16  C   UNL A   1      32.457  23.675  22.878  1.00  0.00     0.314 C 
BRANCH   8  17
ATOM     17  C   UNL A   1      32.487  20.072  24.913  1.00  0.00     0.039 C 
BRANCH  17  18
ATOM     18  C   UNL A   1      32.642  18.635  24.442  1.00  0.00     0.001 C 
ATOM     19  C   UNL A   1      32.255  18.539  22.975  1.00  0.00     0.004 C 
ENDBRANCH  17  18
ENDBRANCH   8  17
BRANCH  11  20
ATOM     20  S   UNL A   1      37.759  20.162  25.204  1.00  0.00     0.310 S 
ATOM     21  F   UNL A   1      38.243  19.867  23.723  1.00  0.00    -0.094 F 
ATOM     22  F   UNL A   1      37.059  18.750  25.183  1.00  0.00    -0.094 F 
ATOM     23  F   UNL A   1      39.088  19.527  25.700  1.00  0.00    -0.094 F 
ATOM     24  F   UNL A   1      38.480  21.561  25.084  1.00  0.00    -0.094 F 
ATOM     25  F   UNL A   1      36.449  20.801  24.593  1.00  0.00    -0.094 F 
ENDBRANCH  11  20
BRANCH  16  26
ATOM     26  C   UNL A   1      31.185  24.488  23.055  1.00  0.00     0.429 C 
ATOM     27  F   UNL A   1      31.090  25.383  22.077  1.00  0.00    -0.167 F 
ATOM     28  F   UNL A   1      30.132  23.676  23.017  1.00  0.00    -0.167 F 
ATOM     29  F   UNL A   1      31.220  25.114  24.228  1.00  0.00    -0.167 F 
ENDBRANCH  16  26
ENDBRANCH   4   7
ENDBRANCH   2   3
ENDBRANCH   1   2
BRANCH   1  30
ATOM     30  C   UNL A   1      33.906  28.118  26.954  1.00  0.00     0.118 C 
BRANCH  30  31
ATOM     31  N   UNL A   1      33.413  29.499  27.067  1.00  0.00    -0.352 N 
ATOM     32  C   UNL A   1      34.272  30.541  27.647  1.00  0.00     0.251 C 
ATOM     33  H   UNL A   1      32.507  29.725  26.753  1.00  0.00     0.163 HD
ATOM     34  O   UNL A   1      33.847  31.734  27.744  1.00  0.00    -0.269 OA
BRANCH  32  35
ATOM     35  C   UNL A   1      35.670  30.191  28.131  1.00  0.00     0.039 A 
ATOM     36  C   UNL A   1      36.750  30.389  27.287  1.00  0.00     0.014 A 
ATOM     37  C   UNL A   1      35.831  29.701  29.354  1.00  0.00     0.014 A 
ATOM     38  C   UNL A   1      37.942  29.764  27.726  1.00  0.00     0.010 A 
ATOM     39  C   UNL A   1      37.057  29.233  29.764  1.00  0.00     0.010 A 
ATOM     40  C   UNL A   1      38.157  29.342  28.959  1.00  0.00    -0.014 A 
BRANCH  40  41
ATOM     41  C   UNL A   1      39.551  28.998  29.455  1.00  0.00     0.031 A 
ATOM     42  C   UNL A   1      40.169  29.883  30.340  1.00  0.00     0.074 A 
ATOM     43  C   UNL A   1      40.131  27.825  29.003  1.00  0.00     0.049 A 
ATOM     44  N   UNL A   1      41.366  29.756  30.916  1.00  0.00    -0.248 NA
ATOM     45  C   UNL A   1      39.569  31.146  30.795  1.00  0.00     0.031 C 
ATOM     46  C   UNL A   1      39.510  26.922  28.117  1.00  0.00     0.029 A 
ATOM     47  N   UNL A   1      41.377  27.325  29.311  1.00  0.00    -0.354 N 
ATOM     48  C   UNL A   1      41.606  30.797  31.716  1.00  0.00     0.074 A 
ATOM     49  C   UNL A   1      40.457  31.709  31.645  1.00  0.00     0.031 C 
ATOM     50  C   UNL A   1      40.373  25.898  27.887  1.00  0.00     0.029 A 
ATOM     51  C   UNL A   1      41.547  26.143  28.623  1.00  0.00     0.049 A 
ATOM     52  H   UNL A   1      42.031  27.739  29.918  1.00  0.00     0.167 HD
ATOM     53  C   UNL A   1      42.737  31.020  32.503  1.00  0.00     0.037 A 
ATOM     54  C   UNL A   1      42.658  25.313  28.625  1.00  0.00     0.037 A 
ATOM     55  C   UNL A   1      43.829  30.167  32.537  1.00  0.00     0.049 A 
ATOM     56  C   UNL A   1      43.813  25.566  29.367  1.00  0.00     0.074 A 
ATOM     57  C   UNL A   1      44.974  30.374  33.331  1.00  0.00     0.029 A 
ATOM     58  N   UNL A   1      44.010  28.999  31.831  1.00  0.00    -0.354 N 
ATOM     59  N   UNL A   1      44.037  26.587  30.197  1.00  0.00    -0.248 NA
ATOM     60  C   UNL A   1      45.008  24.711  29.351  1.00  0.00     0.031 C 
ATOM     61  C   UNL A   1      45.838  29.349  33.099  1.00  0.00     0.029 A 
ATOM     62  C   UNL A   1      45.247  28.486  32.156  1.00  0.00     0.049 A 
ATOM     63  H   UNL A   1      43.367  28.599  31.201  1.00  0.00     0.167 HD
ATOM     64  C   UNL A   1      45.251  26.479  30.741  1.00  0.00     0.074 A 
ATOM     65  C   UNL A   1      45.895  25.275  30.200  1.00  0.00     0.031 C 
ATOM     66  C   UNL A   1      45.845  27.335  31.670  1.00  0.00     0.037 A 
BRANCH  53  67
ATOM     67  C   UNL A   1      42.773  32.268  33.371  1.00  0.00     0.064 A 
ATOM     68  C   UNL A   1      43.282  33.462  32.889  1.00  0.00     0.173 A 
ATOM     69  C   UNL A   1      42.286  32.173  34.602  1.00  0.00     0.173 A 
ATOM     70  F   UNL A   1      43.544  33.673  31.602  1.00  0.00    -0.203 F 
ATOM     71  C   UNL A   1      43.499  34.438  33.890  1.00  0.00     0.198 A 
ATOM     72  C   UNL A   1      42.413  33.216  35.486  1.00  0.00     0.198 A 
ATOM     73  F   UNL A   1      41.668  31.057  34.983  1.00  0.00    -0.203 F 
ATOM     74  F   UNL A   1      44.302  35.457  33.598  1.00  0.00    -0.200 F 
ATOM     75  C   UNL A   1      42.960  34.406  35.096  1.00  0.00     0.200 A 
ATOM     76  F   UNL A   1      41.997  33.066  36.741  1.00  0.00    -0.200 F 
ATOM     77  F   UNL A   1      42.949  35.476  35.887  1.00  0.00    -0.200 F 
ENDBRANCH  53  67
BRANCH  54  78
ATOM     78  C   UNL A   1      42.615  24.057  27.770  1.00  0.00     0.064 A 
ATOM     79  C   UNL A   1      43.131  24.069  26.486  1.00  0.00     0.173 A 
ATOM     80  C   UNL A   1      42.040  22.969  28.271  1.00  0.00     0.173 A 
ATOM     81  F   UNL A   1      43.930  25.033  26.035  1.00  0.00    -0.203 F 
ATOM     82  C   UNL A   1      42.733  22.964  25.696  1.00  0.00     0.198 A 
ATOM     83  C   UNL A   1      41.803  21.874  27.476  1.00  0.00     0.198 A 
ATOM     84  F   UNL A   1      41.690  22.941  29.554  1.00  0.00    -0.203 F 
ATOM     85  F   UNL A   1      42.871  23.064  24.378  1.00  0.00    -0.200 F 
ATOM     86  C   UNL A   1      42.234  21.841  26.179  1.00  0.00     0.200 A 
ATOM     87  F   UNL A   1      41.146  20.832  27.975  1.00  0.00    -0.200 F 
ATOM     88  F   UNL A   1      42.155  20.736  25.442  1.00  0.00    -0.200 F 
ENDBRANCH  54  78
BRANCH  66  89
ATOM     89  C   UNL A   1      47.233  26.981  32.179  1.00  0.00     0.064 A 
ATOM     90  C   UNL A   1      47.362  26.142  33.273  1.00  0.00     0.173 A 
ATOM     91  C   UNL A   1      48.299  27.483  31.565  1.00  0.00     0.173 A 
ATOM     92  F   UNL A   1      46.354  25.421  33.757  1.00  0.00    -0.203 F 
ATOM     93  C   UNL A   1      48.663  26.120  33.829  1.00  0.00     0.198 A 
ATOM     94  C   UNL A   1      49.556  27.308  32.092  1.00  0.00     0.198 A 
ATOM     95  F   UNL A   1      48.148  28.161  30.432  1.00  0.00    -0.203 F 
ATOM     96  F   UNL A   1      48.801  25.645  35.063  1.00  0.00    -0.200 F 
ATOM     97  C   UNL A   1      49.750  26.539  33.207  1.00  0.00     0.200 A 
ATOM     98  F   UNL A   1      50.598  27.895  31.511  1.00  0.00    -0.200 F 
ATOM     99  F   UNL A   1      50.969  26.229  33.640  1.00  0.00    -0.200 F 
ENDBRANCH  66  89
ENDBRANCH  40  41
ENDBRANCH  32  35
ENDBRANCH  30  31
ENDBRANCH   1  30
TORSDOF 14
ENDMDL
