MODEL 1
REMARK VINA RESULT:     -11.1      0.000      0.000
REMARK SMILES CCC[N@@H+](C)CC[C@@H]1CCC[C@]1([NH2+]C)C(=O)NCCCNC(=O)c1ccc(-c2c3nc(c(-c4c(F)c(F)c(F)c(F)c4F)c4ccc([nH]4)c(-c4c(F)c(F)c(F)c(F)c4F)c4nc(c(-c5c(F)c(F)c(F)c(F)c5F)c5ccc2[nH]5)C=C4)C=C3)cc1
REMARK SMILES IDX 15 1 16 2 17 3 12 5 8 6 9 7 10 8 11 9 7 10 6 11 4 12 5 13
REMARK SMILES IDX 3 15 2 16 1 17 13 18 14 19 18 22 19 23 20 24 21 25 22 26
REMARK SMILES IDX 23 28 24 29 25 30 86 31 26 32 85 33 27 34 28 35 29 36 79 37
REMARK SMILES IDX 30 38 84 39 78 40 80 41 31 42 83 43 77 44 76 45 32 47 64 48
REMARK SMILES IDX 44 49 63 50 45 51 48 52 62 53 81 54 46 55 47 56 61 58 82 59
REMARK SMILES IDX 49 60 33 61 34 62 42 63 35 64 36 65 40 66 43 67 37 68 38 69
REMARK SMILES IDX 41 70 39 71 65 72 66 73 74 74 67 75 68 76 72 77 75 78 69 79
REMARK SMILES IDX 70 80 73 81 71 82 50 83 51 84 59 85 52 86 53 87 57 88 60 89
REMARK SMILES IDX 54 90 55 91 58 92 56 93
REMARK H PARENT 17 4 4 14 13 20 13 21 21 27 80 46 48 57
REMARK Flexibility Score: inf
ROOT
ATOM      1  C   UNL A   1      36.602  22.777  25.012  1.00  0.00     0.281 C 
ATOM      2  O   UNL A   1      37.273  23.796  24.789  1.00  0.00    -0.268 OA
ATOM      3  N   UNL A   1      37.253  21.620  24.718  1.00  0.00    -0.351 N 
ATOM      4  H   UNL A   1      38.100  21.737  24.231  1.00  0.00     0.163 HD
ENDROOT
BRANCH   1   5
ATOM      5  C   UNL A   1      35.140  22.877  25.634  1.00  0.00     0.178 C 
ATOM      6  C   UNL A   1      33.901  22.482  24.748  1.00  0.00     0.066 C 
ATOM      7  C   UNL A   1      33.977  23.571  23.652  1.00  0.00     0.011 C 
ATOM      8  C   UNL A   1      34.392  24.850  24.371  1.00  0.00     0.008 C 
ATOM      9  C   UNL A   1      34.828  24.407  25.767  1.00  0.00     0.079 C 
BRANCH   6  10
ATOM     10  C   UNL A   1      33.588  21.125  24.080  1.00  0.00     0.072 C 
BRANCH  10  11
ATOM     11  C   UNL A   1      33.484  19.754  24.802  1.00  0.00     0.262 C 
BRANCH  11  12
ATOM     12  N   UNL A   1      33.394  18.459  24.128  1.00  0.00    -0.337 N 
ATOM     13  C   UNL A   1      32.347  18.431  23.113  1.00  0.00     0.332 C 
ATOM     14  H   UNL A   1      34.285  18.367  23.642  1.00  0.00     0.347 HD
BRANCH  12  15
ATOM     15  C   UNL A   1      33.372  17.295  25.006  1.00  0.00     0.261 C 
BRANCH  15  16
ATOM     16  C   UNL A   1      34.281  16.108  24.620  1.00  0.00     0.058 C 
ATOM     17  C   UNL A   1      35.562  15.861  25.400  1.00  0.00     0.010 C 
ENDBRANCH  15  16
ENDBRANCH  12  15
ENDBRANCH  11  12
ENDBRANCH  10  11
ENDBRANCH   6  10
BRANCH   5  18
ATOM     18  N   UNL A   1      35.080  22.253  26.972  1.00  0.00    -0.336 N 
ATOM     19  C   UNL A   1      33.757  22.197  27.586  1.00  0.00     0.331 C 
ATOM     20  H   UNL A   1      35.692  22.783  27.592  1.00  0.00     0.346 HD
ATOM     21  H   UNL A   1      35.367  21.283  26.838  1.00  0.00     0.346 HD
ENDBRANCH   5  18
ENDBRANCH   1   5
BRANCH   3  22
ATOM     22  C   UNL A   1      36.904  20.256  25.003  1.00  0.00     0.118 C 
BRANCH  22  23
ATOM     23  C   UNL A   1      38.120  19.336  24.961  1.00  0.00     0.042 C 
BRANCH  23  24
ATOM     24  C   UNL A   1      39.353  19.910  25.635  1.00  0.00     0.118 C 
BRANCH  24  25
ATOM     25  N   UNL A   1      40.417  18.929  25.799  1.00  0.00    -0.352 N 
ATOM     26  C   UNL A   1      41.759  19.069  26.090  1.00  0.00     0.251 C 
ATOM     27  H   UNL A   1      40.127  17.996  25.679  1.00  0.00     0.163 HD
ATOM     28  O   UNL A   1      42.480  18.083  26.055  1.00  0.00    -0.269 OA
BRANCH  26  29
ATOM     29  C   UNL A   1      42.348  20.395  26.412  1.00  0.00     0.039 A 
ATOM     30  C   UNL A   1      42.938  21.141  25.384  1.00  0.00     0.014 A 
ATOM     31  C   UNL A   1      42.349  20.908  27.707  1.00  0.00     0.014 A 
ATOM     32  C   UNL A   1      43.447  22.419  25.644  1.00  0.00     0.010 A 
ATOM     33  C   UNL A   1      42.729  22.224  27.937  1.00  0.00     0.010 A 
ATOM     34  C   UNL A   1      43.302  22.994  26.915  1.00  0.00    -0.014 A 
BRANCH  34  35
ATOM     35  C   UNL A   1      43.771  24.373  27.230  1.00  0.00     0.031 A 
ATOM     36  C   UNL A   1      42.795  25.384  27.778  1.00  0.00     0.074 A 
ATOM     37  C   UNL A   1      45.032  24.749  26.937  1.00  0.00     0.049 A 
ATOM     38  N   UNL A   1      42.941  26.674  27.953  1.00  0.00    -0.248 NA
ATOM     39  C   UNL A   1      41.455  24.886  28.132  1.00  0.00     0.031 C 
ATOM     40  C   UNL A   1      46.065  23.887  26.361  1.00  0.00     0.029 A 
ATOM     41  N   UNL A   1      45.656  25.967  27.068  1.00  0.00    -0.354 N 
ATOM     42  C   UNL A   1      41.706  27.139  28.389  1.00  0.00     0.074 A 
ATOM     43  C   UNL A   1      40.806  26.008  28.396  1.00  0.00     0.031 C 
ATOM     44  C   UNL A   1      47.198  24.593  26.213  1.00  0.00     0.029 A 
ATOM     45  C   UNL A   1      46.961  25.969  26.634  1.00  0.00     0.049 A 
ATOM     46  H   UNL A   1      45.210  26.763  27.436  1.00  0.00     0.167 HD
ATOM     47  C   UNL A   1      41.359  28.389  28.777  1.00  0.00     0.037 A 
ATOM     48  C   UNL A   1      47.858  26.972  26.573  1.00  0.00     0.037 A 
ATOM     49  C   UNL A   1      42.275  29.497  28.833  1.00  0.00     0.049 A 
ATOM     50  C   UNL A   1      47.454  28.348  27.034  1.00  0.00     0.074 A 
ATOM     51  C   UNL A   1      42.046  30.783  29.287  1.00  0.00     0.029 A 
ATOM     52  N   UNL A   1      43.602  29.443  28.433  1.00  0.00    -0.354 N 
ATOM     53  N   UNL A   1      46.300  28.761  27.499  1.00  0.00    -0.248 NA
ATOM     54  C   UNL A   1      48.482  29.397  26.968  1.00  0.00     0.031 C 
ATOM     55  C   UNL A   1      43.221  31.521  29.123  1.00  0.00     0.029 A 
ATOM     56  C   UNL A   1      44.199  30.678  28.618  1.00  0.00     0.049 A 
ATOM     57  H   UNL A   1      44.052  28.645  28.072  1.00  0.00     0.167 HD
ATOM     58  C   UNL A   1      46.474  30.101  27.816  1.00  0.00     0.074 A 
ATOM     59  C   UNL A   1      47.847  30.431  27.500  1.00  0.00     0.031 C 
ATOM     60  C   UNL A   1      45.577  30.980  28.324  1.00  0.00     0.037 A 
BRANCH  47  61
ATOM     61  C   UNL A   1      39.934  28.626  29.188  1.00  0.00     0.064 A 
ATOM     62  C   UNL A   1      38.969  29.084  28.277  1.00  0.00     0.173 A 
ATOM     63  C   UNL A   1      39.516  28.351  30.499  1.00  0.00     0.173 A 
ATOM     64  F   UNL A   1      39.316  29.373  27.013  1.00  0.00    -0.203 F 
ATOM     65  C   UNL A   1      37.649  29.285  28.670  1.00  0.00     0.198 A 
ATOM     66  C   UNL A   1      38.188  28.521  30.880  1.00  0.00     0.198 A 
ATOM     67  F   UNL A   1      40.395  27.905  31.410  1.00  0.00    -0.203 F 
ATOM     68  F   UNL A   1      36.758  29.773  27.796  1.00  0.00    -0.200 F 
ATOM     69  C   UNL A   1      37.258  28.996  29.968  1.00  0.00     0.200 A 
ATOM     70  F   UNL A   1      37.809  28.226  32.131  1.00  0.00    -0.200 F 
ATOM     71  F   UNL A   1      35.984  29.180  30.343  1.00  0.00    -0.200 F 
ENDBRANCH  47  61
BRANCH  48  72
ATOM     72  C   UNL A   1      49.239  26.714  26.080  1.00  0.00     0.064 A 
ATOM     73  C   UNL A   1      49.599  27.024  24.761  1.00  0.00     0.173 A 
ATOM     74  C   UNL A   1      50.217  26.133  26.902  1.00  0.00     0.173 A 
ATOM     75  F   UNL A   1      48.693  27.561  23.930  1.00  0.00    -0.203 F 
ATOM     76  C   UNL A   1      50.872  26.737  24.273  1.00  0.00     0.198 A 
ATOM     77  C   UNL A   1      51.500  25.876  26.422  1.00  0.00     0.198 A 
ATOM     78  F   UNL A   1      49.928  25.821  28.173  1.00  0.00    -0.203 F 
ATOM     79  F   UNL A   1      51.168  26.991  22.991  1.00  0.00    -0.200 F 
ATOM     80  C   UNL A   1      51.823  26.167  25.104  1.00  0.00     0.200 A 
ATOM     81  F   UNL A   1      52.420  25.338  27.233  1.00  0.00    -0.200 F 
ATOM     82  F   UNL A   1      53.046  25.889  24.634  1.00  0.00    -0.200 F 
ENDBRANCH  48  72
BRANCH  60  83
ATOM     83  C   UNL A   1      46.061  32.367  28.631  1.00  0.00     0.064 A 
ATOM     84  C   UNL A   1      46.632  32.694  29.869  1.00  0.00     0.173 A 
ATOM     85  C   UNL A   1      46.000  33.369  27.648  1.00  0.00     0.173 A 
ATOM     86  F   UNL A   1      46.702  31.776  30.844  1.00  0.00    -0.203 F 
ATOM     87  C   UNL A   1      47.105  33.980  30.120  1.00  0.00     0.198 A 
ATOM     88  C   UNL A   1      46.503  34.643  27.893  1.00  0.00     0.198 A 
ATOM     89  F   UNL A   1      45.469  33.104  26.445  1.00  0.00    -0.203 F 
ATOM     90  F   UNL A   1      47.608  34.283  31.324  1.00  0.00    -0.200 F 
ATOM     91  C   UNL A   1      47.048  34.949  29.130  1.00  0.00     0.200 A 
ATOM     92  F   UNL A   1      46.461  35.573  26.928  1.00  0.00    -0.200 F 
ATOM     93  F   UNL A   1      47.515  36.182  29.369  1.00  0.00    -0.200 F 
ENDBRANCH  60  83
ENDBRANCH  34  35
ENDBRANCH  26  29
ENDBRANCH  24  25
ENDBRANCH  23  24
ENDBRANCH  22  23
ENDBRANCH   3  22
TORSDOF 16
ENDMDL
MODEL 2
REMARK VINA RESULT:     -11.0      6.369     11.761
REMARK SMILES CCC[N@@H+](C)CC[C@@H]1CCC[C@]1([NH2+]C)C(=O)NCCCNC(=O)c1ccc(-c2c3nc(c(-c4c(F)c(F)c(F)c(F)c4F)c4ccc([nH]4)c(-c4c(F)c(F)c(F)c(F)c4F)c4nc(c(-c5c(F)c(F)c(F)c(F)c5F)c5ccc2[nH]5)C=C4)C=C3)cc1
REMARK SMILES IDX 15 1 16 2 17 3 12 5 8 6 9 7 10 8 11 9 7 10 6 11 4 12 5 13
REMARK SMILES IDX 3 15 2 16 1 17 13 18 14 19 18 22 19 23 20 24 21 25 22 26
REMARK SMILES IDX 23 28 24 29 25 30 86 31 26 32 85 33 27 34 28 35 29 36 79 37
REMARK SMILES IDX 30 38 84 39 78 40 80 41 31 42 83 43 77 44 76 45 32 47 64 48
REMARK SMILES IDX 44 49 63 50 45 51 48 52 62 53 81 54 46 55 47 56 61 58 82 59
REMARK SMILES IDX 49 60 33 61 34 62 42 63 35 64 36 65 40 66 43 67 37 68 38 69
REMARK SMILES IDX 41 70 39 71 65 72 66 73 74 74 67 75 68 76 72 77 75 78 69 79
REMARK SMILES IDX 70 80 73 81 71 82 50 83 51 84 59 85 52 86 53 87 57 88 60 89
REMARK SMILES IDX 54 90 55 91 58 92 56 93
REMARK H PARENT 17 4 4 14 13 20 13 21 21 27 80 46 48 57
REMARK Flexibility Score: inf
ROOT
ATOM      1  C   UNL A   1      33.287  28.695  26.198  1.00  0.00     0.281 C 
ATOM      2  O   UNL A   1      34.119  28.349  27.050  1.00  0.00    -0.268 OA
ATOM      3  N   UNL A   1      32.503  29.733  26.593  1.00  0.00    -0.351 N 
ATOM      4  H   UNL A   1      32.588  29.976  27.542  1.00  0.00     0.163 HD
ENDROOT
BRANCH   1   5
ATOM      5  C   UNL A   1      33.226  27.984  24.775  1.00  0.00     0.178 C 
ATOM      6  C   UNL A   1      31.866  27.361  24.286  1.00  0.00     0.066 C 
ATOM      7  C   UNL A   1      31.675  26.240  25.335  1.00  0.00     0.011 C 
ATOM      8  C   UNL A   1      33.066  25.667  25.582  1.00  0.00     0.008 C 
ATOM      9  C   UNL A   1      34.032  26.649  24.921  1.00  0.00     0.079 C 
BRANCH   6  10
ATOM     10  C   UNL A   1      30.510  28.066  24.060  1.00  0.00     0.072 C 
BRANCH  10  11
ATOM     11  C   UNL A   1      30.116  28.909  22.816  1.00  0.00     0.262 C 
BRANCH  11  12
ATOM     12  N   UNL A   1      29.006  29.861  22.769  1.00  0.00    -0.337 N 
ATOM     13  C   UNL A   1      27.707  29.200  22.756  1.00  0.00     0.332 C 
ATOM     14  H   UNL A   1      29.075  30.370  23.649  1.00  0.00     0.347 HD
BRANCH  12  15
ATOM     15  C   UNL A   1      29.124  30.912  21.766  1.00  0.00     0.261 C 
BRANCH  15  16
ATOM     16  C   UNL A   1      28.028  32.000  21.758  1.00  0.00     0.058 C 
ATOM     17  C   UNL A   1      27.661  32.685  20.452  1.00  0.00     0.010 C 
ENDBRANCH  15  16
ENDBRANCH  12  15
ENDBRANCH  11  12
ENDBRANCH  10  11
ENDBRANCH   6  10
BRANCH   5  18
ATOM     18  N   UNL A   1      33.855  28.819  23.730  1.00  0.00    -0.336 N 
ATOM     19  C   UNL A   1      33.880  28.241  22.390  1.00  0.00     0.331 C 
ATOM     20  H   UNL A   1      34.818  28.999  24.012  1.00  0.00     0.346 HD
ATOM     21  H   UNL A   1      33.280  29.657  23.662  1.00  0.00     0.346 HD
ENDBRANCH   5  18
ENDBRANCH   1   5
BRANCH   3  22
ATOM     22  C   UNL A   1      31.572  30.533  25.847  1.00  0.00     0.118 C 
BRANCH  22  23
ATOM     23  C   UNL A   1      31.361  31.903  26.482  1.00  0.00     0.042 C 
BRANCH  23  24
ATOM     24  C   UNL A   1      32.615  32.499  27.096  1.00  0.00     0.118 C 
BRANCH  24  25
ATOM     25  N   UNL A   1      32.433  33.879  27.530  1.00  0.00    -0.352 N 
ATOM     26  C   UNL A   1      33.073  34.630  28.493  1.00  0.00     0.251 C 
ATOM     27  H   UNL A   1      31.723  34.362  27.048  1.00  0.00     0.163 HD
ATOM     28  O   UNL A   1      32.650  35.747  28.754  1.00  0.00    -0.269 OA
BRANCH  26  29
ATOM     29  C   UNL A   1      34.243  34.099  29.240  1.00  0.00     0.039 A 
ATOM     30  C   UNL A   1      34.033  33.124  30.222  1.00  0.00     0.014 A 
ATOM     31  C   UNL A   1      35.538  34.557  29.007  1.00  0.00     0.014 A 
ATOM     32  C   UNL A   1      35.121  32.560  30.901  1.00  0.00     0.010 A 
ATOM     33  C   UNL A   1      36.623  33.905  29.580  1.00  0.00     0.010 A 
ATOM     34  C   UNL A   1      36.433  32.911  30.550  1.00  0.00    -0.014 A 
BRANCH  34  35
ATOM     35  C   UNL A   1      37.627  32.299  31.196  1.00  0.00     0.031 A 
ATOM     36  C   UNL A   1      38.394  31.220  30.473  1.00  0.00     0.074 A 
ATOM     37  C   UNL A   1      37.966  32.631  32.458  1.00  0.00     0.049 A 
ATOM     38  N   UNL A   1      39.345  30.435  30.914  1.00  0.00    -0.248 NA
ATOM     39  C   UNL A   1      38.006  30.955  29.077  1.00  0.00     0.031 C 
ATOM     40  C   UNL A   1      37.282  33.623  33.290  1.00  0.00     0.029 A 
ATOM     41  N   UNL A   1      38.965  32.153  33.272  1.00  0.00    -0.354 N 
ATOM     42  C   UNL A   1      39.629  29.561  29.871  1.00  0.00     0.074 A 
ATOM     43  C   UNL A   1      38.714  29.872  28.797  1.00  0.00     0.031 C 
ATOM     44  C   UNL A   1      37.896  33.698  34.482  1.00  0.00     0.029 A 
ATOM     45  C   UNL A   1      38.983  32.727  34.521  1.00  0.00     0.049 A 
ATOM     46  H   UNL A   1      39.607  31.463  32.987  1.00  0.00     0.167 HD
ATOM     47  C   UNL A   1      40.586  28.606  29.801  1.00  0.00     0.037 A 
ATOM     48  C   UNL A   1      39.780  32.487  35.580  1.00  0.00     0.037 A 
ATOM     49  C   UNL A   1      41.540  28.345  30.846  1.00  0.00     0.049 A 
ATOM     50  C   UNL A   1      40.854  31.436  35.468  1.00  0.00     0.074 A 
ATOM     51  C   UNL A   1      42.599  27.456  30.845  1.00  0.00     0.029 A 
ATOM     52  N   UNL A   1      41.555  28.986  32.076  1.00  0.00    -0.354 N 
ATOM     53  N   UNL A   1      41.150  30.658  34.455  1.00  0.00    -0.248 NA
ATOM     54  C   UNL A   1      41.709  31.234  36.646  1.00  0.00     0.031 C 
ATOM     55  C   UNL A   1      43.231  27.527  32.089  1.00  0.00     0.029 A 
ATOM     56  C   UNL A   1      42.599  28.500  32.846  1.00  0.00     0.049 A 
ATOM     57  H   UNL A   1      40.919  29.682  32.360  1.00  0.00     0.167 HD
ATOM     58  C   UNL A   1      42.245  29.906  34.858  1.00  0.00     0.074 A 
ATOM     59  C   UNL A   1      42.568  30.327  36.205  1.00  0.00     0.031 C 
ATOM     60  C   UNL A   1      42.923  28.953  34.175  1.00  0.00     0.037 A 
BRANCH  47  61
ATOM     61  C   UNL A   1      40.664  27.781  28.549  1.00  0.00     0.064 A 
ATOM     62  C   UNL A   1      39.951  26.580  28.410  1.00  0.00     0.173 A 
ATOM     63  C   UNL A   1      41.428  28.217  27.455  1.00  0.00     0.173 A 
ATOM     64  F   UNL A   1      39.214  26.110  29.429  1.00  0.00    -0.203 F 
ATOM     65  C   UNL A   1      40.023  25.833  27.237  1.00  0.00     0.198 A 
ATOM     66  C   UNL A   1      41.470  27.486  26.271  1.00  0.00     0.198 A 
ATOM     67  F   UNL A   1      42.124  29.361  27.530  1.00  0.00    -0.203 F 
ATOM     68  F   UNL A   1      39.375  24.663  27.149  1.00  0.00    -0.200 F 
ATOM     69  C   UNL A   1      40.775  26.291  26.166  1.00  0.00     0.200 A 
ATOM     70  F   UNL A   1      42.186  27.938  25.232  1.00  0.00    -0.200 F 
ATOM     71  F   UNL A   1      40.834  25.577  25.033  1.00  0.00    -0.200 F 
ENDBRANCH  47  61
BRANCH  48  72
ATOM     72  C   UNL A   1      39.617  33.270  36.835  1.00  0.00     0.064 A 
ATOM     73  C   UNL A   1      40.388  34.418  37.069  1.00  0.00     0.173 A 
ATOM     74  C   UNL A   1      38.713  32.880  37.834  1.00  0.00     0.173 A 
ATOM     75  F   UNL A   1      41.282  34.820  36.154  1.00  0.00    -0.203 F 
ATOM     76  C   UNL A   1      40.283  35.128  38.263  1.00  0.00     0.198 A 
ATOM     77  C   UNL A   1      38.586  33.609  39.015  1.00  0.00     0.198 A 
ATOM     78  F   UNL A   1      37.948  31.793  37.660  1.00  0.00    -0.203 F 
ATOM     79  F   UNL A   1      41.074  36.186  38.482  1.00  0.00    -0.200 F 
ATOM     80  C   UNL A   1      39.379  34.726  39.234  1.00  0.00     0.200 A 
ATOM     81  F   UNL A   1      37.701  33.225  39.945  1.00  0.00    -0.200 F 
ATOM     82  F   UNL A   1      39.280  35.406  40.383  1.00  0.00    -0.200 F 
ENDBRANCH  48  72
BRANCH  60  83
ATOM     83  C   UNL A   1      44.120  28.340  34.841  1.00  0.00     0.064 A 
ATOM     84  C   UNL A   1      45.392  28.923  34.756  1.00  0.00     0.173 A 
ATOM     85  C   UNL A   1      43.977  27.181  35.620  1.00  0.00     0.173 A 
ATOM     86  F   UNL A   1      45.583  30.024  34.013  1.00  0.00    -0.203 F 
ATOM     87  C   UNL A   1      46.483  28.355  35.409  1.00  0.00     0.198 A 
ATOM     88  C   UNL A   1      45.063  26.635  36.297  1.00  0.00     0.198 A 
ATOM     89  F   UNL A   1      42.779  26.590  35.739  1.00  0.00    -0.203 F 
ATOM     90  F   UNL A   1      47.699  28.903  35.280  1.00  0.00    -0.200 F 
ATOM     91  C   UNL A   1      46.316  27.218  36.186  1.00  0.00     0.200 A 
ATOM     92  F   UNL A   1      44.895  25.546  37.060  1.00  0.00    -0.200 F 
ATOM     93  F   UNL A   1      47.364  26.680  36.824  1.00  0.00    -0.200 F 
ENDBRANCH  60  83
ENDBRANCH  34  35
ENDBRANCH  26  29
ENDBRANCH  24  25
ENDBRANCH  23  24
ENDBRANCH  22  23
ENDBRANCH   3  22
TORSDOF 16
ENDMDL
MODEL 3
REMARK VINA RESULT:     -10.8      6.370     10.612
REMARK SMILES CCC[N@@H+](C)CC[C@@H]1CCC[C@]1([NH2+]C)C(=O)NCCCNC(=O)c1ccc(-c2c3nc(c(-c4c(F)c(F)c(F)c(F)c4F)c4ccc([nH]4)c(-c4c(F)c(F)c(F)c(F)c4F)c4nc(c(-c5c(F)c(F)c(F)c(F)c5F)c5ccc2[nH]5)C=C4)C=C3)cc1
REMARK SMILES IDX 15 1 16 2 17 3 12 5 8 6 9 7 10 8 11 9 7 10 6 11 4 12 5 13
REMARK SMILES IDX 3 15 2 16 1 17 13 18 14 19 18 22 19 23 20 24 21 25 22 26
REMARK SMILES IDX 23 28 24 29 25 30 86 31 26 32 85 33 27 34 28 35 29 36 79 37
REMARK SMILES IDX 30 38 84 39 78 40 80 41 31 42 83 43 77 44 76 45 32 47 64 48
REMARK SMILES IDX 44 49 63 50 45 51 48 52 62 53 81 54 46 55 47 56 61 58 82 59
REMARK SMILES IDX 49 60 33 61 34 62 42 63 35 64 36 65 40 66 43 67 37 68 38 69
REMARK SMILES IDX 41 70 39 71 65 72 66 73 74 74 67 75 68 76 72 77 75 78 69 79
REMARK SMILES IDX 70 80 73 81 71 82 50 83 51 84 59 85 52 86 53 87 57 88 60 89
REMARK SMILES IDX 54 90 55 91 58 92 56 93
REMARK H PARENT 17 4 4 14 13 20 13 21 21 27 80 46 48 57
REMARK Flexibility Score: inf
ROOT
ATOM      1  C   UNL A   1      33.471  29.255  26.200  1.00  0.00     0.281 C 
ATOM      2  O   UNL A   1      34.474  29.021  26.890  1.00  0.00    -0.268 OA
ATOM      3  N   UNL A   1      32.670  30.226  26.714  1.00  0.00    -0.351 N 
ATOM      4  H   UNL A   1      32.901  30.509  27.628  1.00  0.00     0.163 HD
ENDROOT
BRANCH   1   5
ATOM      5  C   UNL A   1      33.224  28.493  24.824  1.00  0.00     0.178 C 
ATOM      6  C   UNL A   1      31.777  27.980  24.479  1.00  0.00     0.066 C 
ATOM      7  C   UNL A   1      31.576  26.928  25.595  1.00  0.00     0.011 C 
ATOM      8  C   UNL A   1      32.926  26.238  25.758  1.00  0.00     0.008 C 
ATOM      9  C   UNL A   1      33.917  27.095  24.972  1.00  0.00     0.079 C 
BRANCH   6  10
ATOM     10  C   UNL A   1      30.476  28.799  24.327  1.00  0.00     0.072 C 
BRANCH  10  11
ATOM     11  C   UNL A   1      29.886  29.337  22.995  1.00  0.00     0.262 C 
BRANCH  11  12
ATOM     12  N   UNL A   1      28.499  29.763  22.807  1.00  0.00    -0.337 N 
ATOM     13  C   UNL A   1      27.545  28.700  23.102  1.00  0.00     0.332 C 
ATOM     14  H   UNL A   1      28.363  30.490  23.508  1.00  0.00     0.347 HD
BRANCH  12  15
ATOM     15  C   UNL A   1      28.219  30.452  21.553  1.00  0.00     0.261 C 
BRANCH  15  16
ATOM     16  C   UNL A   1      28.720  31.907  21.427  1.00  0.00     0.058 C 
ATOM     17  C   UNL A   1      28.565  32.857  22.603  1.00  0.00     0.010 C 
ENDBRANCH  15  16
ENDBRANCH  12  15
ENDBRANCH  11  12
ENDBRANCH  10  11
ENDBRANCH   6  10
BRANCH   5  18
ATOM     18  N   UNL A   1      33.835  29.219  23.690  1.00  0.00    -0.336 N 
ATOM     19  C   UNL A   1      34.057  28.432  22.481  1.00  0.00     0.331 C 
ATOM     20  H   UNL A   1      34.736  29.580  23.999  1.00  0.00     0.346 HD
ATOM     21  H   UNL A   1      33.165  29.943  23.433  1.00  0.00     0.346 HD
ENDBRANCH   5  18
ENDBRANCH   1   5
BRANCH   3  22
ATOM     22  C   UNL A   1      31.543  30.906  26.139  1.00  0.00     0.118 C 
BRANCH  22  23
ATOM     23  C   UNL A   1      31.394  32.323  26.683  1.00  0.00     0.042 C 
BRANCH  23  24
ATOM     24  C   UNL A   1      32.710  32.989  27.041  1.00  0.00     0.118 C 
BRANCH  24  25
ATOM     25  N   UNL A   1      32.533  34.271  27.711  1.00  0.00    -0.352 N 
ATOM     26  C   UNL A   1      33.142  34.819  28.821  1.00  0.00     0.251 C 
ATOM     27  H   UNL A   1      31.855  34.852  27.296  1.00  0.00     0.163 HD
ATOM     28  O   UNL A   1      32.727  35.880  29.264  1.00  0.00    -0.269 OA
BRANCH  26  29
ATOM     29  C   UNL A   1      34.266  34.131  29.508  1.00  0.00     0.039 A 
ATOM     30  C   UNL A   1      33.977  33.158  30.472  1.00  0.00     0.014 A 
ATOM     31  C   UNL A   1      35.597  34.440  29.236  1.00  0.00     0.014 A 
ATOM     32  C   UNL A   1      35.013  32.449  31.092  1.00  0.00     0.010 A 
ATOM     33  C   UNL A   1      36.617  33.647  29.749  1.00  0.00     0.010 A 
ATOM     34  C   UNL A   1      36.344  32.653  30.699  1.00  0.00    -0.014 A 
BRANCH  34  35
ATOM     35  C   UNL A   1      37.480  31.885  31.282  1.00  0.00     0.031 A 
ATOM     36  C   UNL A   1      37.973  32.222  32.667  1.00  0.00     0.074 A 
ATOM     37  C   UNL A   1      38.130  30.963  30.545  1.00  0.00     0.049 A 
ATOM     38  N   UNL A   1      39.048  31.809  33.293  1.00  0.00    -0.248 NA
ATOM     39  C   UNL A   1      37.176  33.194  33.435  1.00  0.00     0.031 C 
ATOM     40  C   UNL A   1      37.790  30.573  29.175  1.00  0.00     0.029 A 
ATOM     41  N   UNL A   1      39.232  30.196  30.840  1.00  0.00    -0.354 N 
ATOM     42  C   UNL A   1      39.074  32.503  34.497  1.00  0.00     0.074 A 
ATOM     43  C   UNL A   1      37.945  33.405  34.491  1.00  0.00     0.031 C 
ATOM     44  C   UNL A   1      38.644  29.624  28.761  1.00  0.00     0.029 A 
ATOM     45  C   UNL A   1      39.625  29.373  29.811  1.00  0.00     0.049 A 
ATOM     46  H   UNL A   1      39.697  30.233  31.707  1.00  0.00     0.167 HD
ATOM     47  C   UNL A   1      39.943  32.380  35.528  1.00  0.00     0.037 A 
ATOM     48  C   UNL A   1      40.666  28.523  29.722  1.00  0.00     0.037 A 
ATOM     49  C   UNL A   1      41.026  31.433  35.559  1.00  0.00     0.049 A 
ATOM     50  C   UNL A   1      41.604  28.386  30.893  1.00  0.00     0.074 A 
ATOM     51  C   UNL A   1      41.914  31.171  36.586  1.00  0.00     0.029 A 
ATOM     52  N   UNL A   1      41.357  30.582  34.514  1.00  0.00    -0.354 N 
ATOM     53  N   UNL A   1      41.584  29.005  32.048  1.00  0.00    -0.248 NA
ATOM     54  C   UNL A   1      42.707  27.425  30.750  1.00  0.00     0.031 C 
ATOM     55  C   UNL A   1      42.810  30.191  36.150  1.00  0.00     0.029 A 
ATOM     56  C   UNL A   1      42.446  29.804  34.870  1.00  0.00     0.049 A 
ATOM     57  H   UNL A   1      40.888  30.537  33.650  1.00  0.00     0.167 HD
ATOM     58  C   UNL A   1      42.641  28.483  32.781  1.00  0.00     0.074 A 
ATOM     59  C   UNL A   1      43.278  27.489  31.944  1.00  0.00     0.031 C 
ATOM     60  C   UNL A   1      43.049  28.798  34.034  1.00  0.00     0.037 A 
BRANCH  47  61
ATOM     61  C   UNL A   1      39.753  33.277  36.717  1.00  0.00     0.064 A 
ATOM     62  C   UNL A   1      38.839  32.968  37.737  1.00  0.00     0.173 A 
ATOM     63  C   UNL A   1      40.526  34.439  36.862  1.00  0.00     0.173 A 
ATOM     64  F   UNL A   1      38.067  31.875  37.643  1.00  0.00    -0.203 F 
ATOM     65  C   UNL A   1      38.685  33.804  38.840  1.00  0.00     0.198 A 
ATOM     66  C   UNL A   1      40.394  35.254  37.984  1.00  0.00     0.198 A 
ATOM     67  F   UNL A   1      41.420  34.780  35.922  1.00  0.00    -0.203 F 
ATOM     68  F   UNL A   1      37.768  33.515  39.774  1.00  0.00    -0.200 F 
ATOM     69  C   UNL A   1      39.468  34.941  38.967  1.00  0.00     0.200 A 
ATOM     70  F   UNL A   1      41.162  36.345  38.112  1.00  0.00    -0.200 F 
ATOM     71  F   UNL A   1      39.326  35.738  40.035  1.00  0.00    -0.200 F 
ENDBRANCH  47  61
BRANCH  48  72
ATOM     72  C   UNL A   1      40.869  27.710  28.492  1.00  0.00     0.064 A 
ATOM     73  C   UNL A   1      41.686  28.176  27.452  1.00  0.00     0.173 A 
ATOM     74  C   UNL A   1      40.236  26.470  28.316  1.00  0.00     0.173 A 
ATOM     75  F   UNL A   1      42.297  29.365  27.563  1.00  0.00    -0.203 F 
ATOM     76  C   UNL A   1      41.840  27.450  26.273  1.00  0.00     0.198 A 
ATOM     77  C   UNL A   1      40.416  25.730  27.149  1.00  0.00     0.198 A 
ATOM     78  F   UNL A   1      39.447  25.976  29.280  1.00  0.00    -0.203 F 
ATOM     79  F   UNL A   1      42.581  27.947  25.274  1.00  0.00    -0.200 F 
ATOM     80  C   UNL A   1      41.208  26.225  26.123  1.00  0.00     0.200 A 
ATOM     81  F   UNL A   1      39.814  24.540  27.014  1.00  0.00    -0.200 F 
ATOM     82  F   UNL A   1      41.354  25.528  24.989  1.00  0.00    -0.200 F 
ENDBRANCH  48  72
BRANCH  60  83
ATOM     83  C   UNL A   1      44.198  28.021  34.606  1.00  0.00     0.064 A 
ATOM     84  C   UNL A   1      44.006  26.810  35.287  1.00  0.00     0.173 A 
ATOM     85  C   UNL A   1      45.515  28.471  34.420  1.00  0.00     0.173 A 
ATOM     86  F   UNL A   1      42.766  26.345  35.501  1.00  0.00    -0.203 F 
ATOM     87  C   UNL A   1      45.090  26.090  35.781  1.00  0.00     0.198 A 
ATOM     88  C   UNL A   1      46.597  27.731  34.888  1.00  0.00     0.198 A 
ATOM     89  F   UNL A   1      45.752  29.619  33.769  1.00  0.00    -0.203 F 
ATOM     90  F   UNL A   1      44.883  24.958  36.467  1.00  0.00    -0.200 F 
ATOM     91  C   UNL A   1      46.383  26.545  35.573  1.00  0.00     0.200 A 
ATOM     92  F   UNL A   1      47.846  28.166  34.671  1.00  0.00    -0.200 F 
ATOM     93  F   UNL A   1      47.426  25.843  36.038  1.00  0.00    -0.200 F 
ENDBRANCH  60  83
ENDBRANCH  34  35
ENDBRANCH  26  29
ENDBRANCH  24  25
ENDBRANCH  23  24
ENDBRANCH  22  23
ENDBRANCH   3  22
TORSDOF 16
ENDMDL
