MODEL 1
REMARK VINA RESULT:     -13.1      0.000      0.000
REMARK SMILES COC(=O)c1cc(F)cc(-c2ccc(C(=O)NCCCNC(=O)c3ccc(-c4c5nc(c(-c6c(F)c(F)c(F)c(F)c6F)c6ccc([nH]6)c(-c6c(F)c(F)c(F)c(F)c6F)c6nc(c(-c7c(F)c(F)c(F)c(F)c7F)c7ccc4[nH]7)C=C6)C=C5)cc3)cc2C)c1
REMARK SMILES IDX 18 1 17 2 15 3 16 4 14 6 11 7 12 8 88 9 13 10 87 11 89 12
REMARK SMILES IDX 10 13 5 14 6 15 90 16 7 17 8 18 9 19 3 20 4 21 2 22 1 23
REMARK SMILES IDX 19 24 20 25 21 26 22 27 23 29 24 30 25 31 86 32 26 33 85 34
REMARK SMILES IDX 27 35 28 36 29 37 79 38 30 39 84 40 78 41 80 42 31 43 83 44
REMARK SMILES IDX 77 45 76 46 32 48 64 49 44 50 63 51 45 52 48 53 62 54 81 55
REMARK SMILES IDX 46 56 47 57 61 59 82 60 49 61 33 62 34 63 42 64 35 65 36 66
REMARK SMILES IDX 40 67 43 68 37 69 38 70 41 71 39 72 65 73 66 74 74 75 67 76
REMARK SMILES IDX 68 77 72 78 75 79 69 80 70 81 73 82 71 83 50 84 51 85 59 86
REMARK SMILES IDX 52 87 53 88 57 89 60 90 54 91 55 92 58 93 56 94
REMARK H PARENT 17 5 21 28 80 47 48 58
REMARK Flexibility Score: inf
ROOT
ATOM      1  C   UNL A   1      32.158  26.980  26.223  1.00  0.00     0.118 C 
ENDROOT
BRANCH   1   2
ATOM      2  N   UNL A   1      30.922  26.280  26.495  1.00  0.00    -0.352 N 
ATOM      3  C   UNL A   1      30.569  24.959  26.522  1.00  0.00     0.251 C 
ATOM      4  O   UNL A   1      29.404  24.717  26.849  1.00  0.00    -0.269 OA
ATOM      5  H   UNL A   1      30.174  26.885  26.706  1.00  0.00     0.163 HD
BRANCH   3   6
ATOM      6  C   UNL A   1      31.485  23.819  26.214  1.00  0.00     0.040 A 
ATOM      7  C   UNL A   1      33.162  21.674  25.372  1.00  0.00    -0.015 A 
ATOM      8  C   UNL A   1      33.092  22.074  26.717  1.00  0.00     0.010 A 
ATOM      9  C   UNL A   1      32.388  22.373  24.429  1.00  0.00    -0.042 A 
ATOM     10  C   UNL A   1      32.295  23.150  27.127  1.00  0.00     0.014 A 
ATOM     11  C   UNL A   1      31.558  23.427  24.867  1.00  0.00     0.018 A 
ATOM     12  C   UNL A   1      32.424  22.096  22.950  1.00  0.00     0.045 C 
BRANCH   7  13
ATOM     13  C   UNL A   1      34.068  20.570  25.027  1.00  0.00    -0.014 A 
ATOM     14  C   UNL A   1      34.417  18.210  24.493  1.00  0.00     0.063 A 
ATOM     15  C   UNL A   1      35.800  18.403  24.515  1.00  0.00     0.055 A 
ATOM     16  C   UNL A   1      33.558  19.293  24.735  1.00  0.00     0.024 A 
ATOM     17  C   UNL A   1      36.302  19.670  24.787  1.00  0.00     0.124 A 
ATOM     18  F   UNL A   1      37.628  19.859  24.813  1.00  0.00    -0.207 F 
ATOM     19  C   UNL A   1      35.457  20.745  25.048  1.00  0.00     0.048 A 
BRANCH  14  20
ATOM     20  C   UNL A   1      33.808  16.883  24.225  1.00  0.00     0.337 C 
ATOM     21  O   UNL A   1      34.131  16.172  23.291  1.00  0.00    -0.246 OA
BRANCH  20  22
ATOM     22  O   UNL A   1      32.828  16.629  25.128  1.00  0.00    -0.465 OA
ATOM     23  C   UNL A   1      32.569  15.238  25.326  1.00  0.00     0.282 C 
ENDBRANCH  20  22
ENDBRANCH  14  20
ENDBRANCH   7  13
ENDBRANCH   3   6
ENDBRANCH   1   2
BRANCH   1  24
ATOM     24  C   UNL A   1      31.907  28.235  25.380  1.00  0.00     0.042 C 
BRANCH  24  25
ATOM     25  C   UNL A   1      33.093  29.196  25.440  1.00  0.00     0.118 C 
BRANCH  25  26
ATOM     26  N   UNL A   1      32.692  30.469  26.018  1.00  0.00    -0.352 N 
ATOM     27  C   UNL A   1      33.246  31.259  26.981  1.00  0.00     0.251 C 
ATOM     28  H   UNL A   1      31.859  30.830  25.639  1.00  0.00     0.163 HD
ATOM     29  O   UNL A   1      32.601  32.240  27.350  1.00  0.00    -0.269 OA
BRANCH  27  30
ATOM     30  C   UNL A   1      34.562  30.980  27.597  1.00  0.00     0.039 A 
ATOM     31  C   UNL A   1      34.746  29.699  28.135  1.00  0.00     0.014 A 
ATOM     32  C   UNL A   1      35.569  31.936  27.750  1.00  0.00     0.014 A 
ATOM     33  C   UNL A   1      35.910  29.387  28.830  1.00  0.00     0.010 A 
ATOM     34  C   UNL A   1      36.768  31.602  28.380  1.00  0.00     0.010 A 
ATOM     35  C   UNL A   1      36.934  30.336  28.953  1.00  0.00    -0.014 A 
BRANCH  35  36
ATOM     36  C   UNL A   1      38.161  30.016  29.715  1.00  0.00     0.031 A 
ATOM     37  C   UNL A   1      38.353  30.562  31.103  1.00  0.00     0.074 A 
ATOM     38  C   UNL A   1      39.091  29.223  29.151  1.00  0.00     0.049 A 
ATOM     39  N   UNL A   1      39.350  30.379  31.930  1.00  0.00    -0.248 NA
ATOM     40  C   UNL A   1      37.296  31.444  31.627  1.00  0.00     0.031 C 
ATOM     41  C   UNL A   1      39.011  28.663  27.800  1.00  0.00     0.029 A 
ATOM     42  N   UNL A   1      40.276  28.741  29.642  1.00  0.00    -0.354 N 
ATOM     43  C   UNL A   1      39.039  31.118  33.065  1.00  0.00     0.074 A 
ATOM     44  C   UNL A   1      37.794  31.802  32.802  1.00  0.00     0.031 C 
ATOM     45  C   UNL A   1      40.078  27.879  27.587  1.00  0.00     0.029 A 
ATOM     46  C   UNL A   1      40.935  27.912  28.767  1.00  0.00     0.049 A 
ATOM     47  H   UNL A   1      40.621  28.965  30.536  1.00  0.00     0.167 HD
ATOM     48  C   UNL A   1      39.720  31.188  34.233  1.00  0.00     0.037 A 
ATOM     49  C   UNL A   1      42.098  27.251  28.909  1.00  0.00     0.037 A 
ATOM     50  C   UNL A   1      40.947  30.482  34.489  1.00  0.00     0.049 A 
ATOM     51  C   UNL A   1      42.844  27.370  30.209  1.00  0.00     0.074 A 
ATOM     52  C   UNL A   1      41.703  30.462  35.647  1.00  0.00     0.029 A 
ATOM     53  N   UNL A   1      41.596  29.667  33.571  1.00  0.00    -0.354 N 
ATOM     54  N   UNL A   1      42.519  28.035  31.292  1.00  0.00    -0.248 NA
ATOM     55  C   UNL A   1      44.114  26.641  30.311  1.00  0.00     0.031 C 
ATOM     56  C   UNL A   1      42.834  29.674  35.415  1.00  0.00     0.029 A 
ATOM     57  C   UNL A   1      42.753  29.154  34.133  1.00  0.00     0.049 A 
ATOM     58  H   UNL A   1      41.281  29.482  32.657  1.00  0.00     0.167 HD
ATOM     59  C   UNL A   1      43.525  27.783  32.212  1.00  0.00     0.074 A 
ATOM     60  C   UNL A   1      44.462  26.885  31.567  1.00  0.00     0.031 C 
ATOM     61  C   UNL A   1      43.665  28.254  33.475  1.00  0.00     0.037 A 
BRANCH  48  62
ATOM     62  C   UNL A   1      39.152  32.031  35.336  1.00  0.00     0.064 A 
ATOM     63  C   UNL A   1      39.455  33.400  35.419  1.00  0.00     0.173 A 
ATOM     64  C   UNL A   1      38.393  31.466  36.372  1.00  0.00     0.173 A 
ATOM     65  F   UNL A   1      40.178  33.992  34.456  1.00  0.00    -0.203 F 
ATOM     66  C   UNL A   1      39.041  34.162  36.508  1.00  0.00     0.198 A 
ATOM     67  C   UNL A   1      37.956  32.237  37.446  1.00  0.00     0.198 A 
ATOM     68  F   UNL A   1      38.064  30.165  36.334  1.00  0.00    -0.203 F 
ATOM     69  F   UNL A   1      39.379  35.456  36.586  1.00  0.00    -0.200 F 
ATOM     70  C   UNL A   1      38.292  33.580  37.521  1.00  0.00     0.200 A 
ATOM     71  F   UNL A   1      37.214  31.678  38.412  1.00  0.00    -0.200 F 
ATOM     72  F   UNL A   1      37.897  34.314  38.570  1.00  0.00    -0.200 F 
ENDBRANCH  48  62
BRANCH  49  73
ATOM     73  C   UNL A   1      42.600  26.388  27.806  1.00  0.00     0.064 A 
ATOM     74  C   UNL A   1      42.241  25.035  27.714  1.00  0.00     0.173 A 
ATOM     75  C   UNL A   1      43.460  26.902  26.826  1.00  0.00     0.173 A 
ATOM     76  F   UNL A   1      41.427  24.491  28.630  1.00  0.00    -0.203 F 
ATOM     77  C   UNL A   1      42.736  24.227  26.692  1.00  0.00     0.198 A 
ATOM     78  C   UNL A   1      43.928  26.101  25.786  1.00  0.00     0.198 A 
ATOM     79  F   UNL A   1      43.820  28.194  26.862  1.00  0.00    -0.203 F 
ATOM     80  F   UNL A   1      42.404  22.930  26.647  1.00  0.00    -0.200 F 
ATOM     81  C   UNL A   1      43.572  24.763  25.724  1.00  0.00     0.200 A 
ATOM     82  F   UNL A   1      44.714  26.631  24.839  1.00  0.00    -0.200 F 
ATOM     83  F   UNL A   1      44.029  23.991  24.729  1.00  0.00    -0.200 F 
ENDBRANCH  49  73
BRANCH  61  84
ATOM     84  C   UNL A   1      44.859  27.787  34.257  1.00  0.00     0.064 A 
ATOM     85  C   UNL A   1      44.781  26.631  35.049  1.00  0.00     0.173 A 
ATOM     86  C   UNL A   1      46.059  28.514  34.271  1.00  0.00     0.173 A 
ATOM     87  F   UNL A   1      43.652  25.907  35.081  1.00  0.00    -0.203 F 
ATOM     88  C   UNL A   1      45.856  26.226  35.834  1.00  0.00     0.198 A 
ATOM     89  C   UNL A   1      47.144  28.086  35.028  1.00  0.00     0.198 A 
ATOM     90  F   UNL A   1      46.187  29.620  33.523  1.00  0.00    -0.203 F 
ATOM     91  F   UNL A   1      45.746  25.140  36.611  1.00  0.00    -0.200 F 
ATOM     92  C   UNL A   1      47.040  26.949  35.816  1.00  0.00     0.200 A 
ATOM     93  F   UNL A   1      48.298  28.767  34.986  1.00  0.00    -0.200 F 
ATOM     94  F   UNL A   1      48.083  26.546  36.555  1.00  0.00    -0.200 F 
ENDBRANCH  61  84
ENDBRANCH  35  36
ENDBRANCH  27  30
ENDBRANCH  25  26
ENDBRANCH  24  25
ENDBRANCH   1  24
TORSDOF 13
ENDMDL
MODEL 2
REMARK VINA RESULT:     -12.9      1.127      2.131
REMARK SMILES COC(=O)c1cc(F)cc(-c2ccc(C(=O)NCCCNC(=O)c3ccc(-c4c5nc(c(-c6c(F)c(F)c(F)c(F)c6F)c6ccc([nH]6)c(-c6c(F)c(F)c(F)c(F)c6F)c6nc(c(-c7c(F)c(F)c(F)c(F)c7F)c7ccc4[nH]7)C=C6)C=C5)cc3)cc2C)c1
REMARK SMILES IDX 18 1 17 2 15 3 16 4 14 6 11 7 12 8 88 9 13 10 87 11 89 12
REMARK SMILES IDX 10 13 5 14 6 15 90 16 7 17 8 18 9 19 3 20 4 21 2 22 1 23
REMARK SMILES IDX 19 24 20 25 21 26 22 27 23 29 24 30 25 31 86 32 26 33 85 34
REMARK SMILES IDX 27 35 28 36 29 37 79 38 30 39 84 40 78 41 80 42 31 43 83 44
REMARK SMILES IDX 77 45 76 46 32 48 64 49 44 50 63 51 45 52 48 53 62 54 81 55
REMARK SMILES IDX 46 56 47 57 61 59 82 60 49 61 33 62 34 63 42 64 35 65 36 66
REMARK SMILES IDX 40 67 43 68 37 69 38 70 41 71 39 72 65 73 66 74 74 75 67 76
REMARK SMILES IDX 68 77 72 78 75 79 69 80 70 81 73 82 71 83 50 84 51 85 59 86
REMARK SMILES IDX 52 87 53 88 57 89 60 90 54 91 55 92 58 93 56 94
REMARK H PARENT 17 5 21 28 80 47 48 58
REMARK Flexibility Score: inf
ROOT
ATOM      1  C   UNL A   1      31.342  29.030  23.977  1.00  0.00     0.118 C 
ENDROOT
BRANCH   1   2
ATOM      2  N   UNL A   1      30.037  28.461  23.728  1.00  0.00    -0.352 N 
ATOM      3  C   UNL A   1      29.547  27.184  23.721  1.00  0.00     0.251 C 
ATOM      4  O   UNL A   1      28.337  27.070  23.507  1.00  0.00    -0.269 OA
ATOM      5  H   UNL A   1      29.354  29.139  23.516  1.00  0.00     0.163 HD
BRANCH   3   6
ATOM      6  C   UNL A   1      30.355  25.953  23.974  1.00  0.00     0.040 A 
ATOM      7  C   UNL A   1      31.999  23.636  24.214  1.00  0.00    -0.015 A 
ATOM      8  C   UNL A   1      31.163  24.063  25.260  1.00  0.00     0.010 A 
ATOM      9  C   UNL A   1      32.023  24.395  23.030  1.00  0.00    -0.042 A 
ATOM     10  C   UNL A   1      30.381  25.219  25.157  1.00  0.00     0.014 A 
ATOM     11  C   UNL A   1      31.196  25.534  22.928  1.00  0.00     0.018 A 
ATOM     12  C   UNL A   1      32.924  24.094  21.863  1.00  0.00     0.045 C 
BRANCH   7  13
ATOM     13  C   UNL A   1      32.825  22.441  24.433  1.00  0.00    -0.014 A 
ATOM     14  C   UNL A   1      33.085  20.012  24.378  1.00  0.00     0.063 A 
ATOM     15  C   UNL A   1      34.335  20.125  24.991  1.00  0.00     0.055 A 
ATOM     16  C   UNL A   1      32.342  21.167  24.090  1.00  0.00     0.024 A 
ATOM     17  C   UNL A   1      34.818  21.387  25.313  1.00  0.00     0.124 A 
ATOM     18  F   UNL A   1      36.015  21.500  25.904  1.00  0.00    -0.207 F 
ATOM     19  C   UNL A   1      34.079  22.536  25.049  1.00  0.00     0.048 A 
BRANCH  14  20
ATOM     20  C   UNL A   1      32.496  18.697  24.018  1.00  0.00     0.337 C 
ATOM     21  O   UNL A   1      32.313  18.334  22.870  1.00  0.00    -0.246 OA
BRANCH  20  22
ATOM     22  O   UNL A   1      32.156  18.015  25.141  1.00  0.00    -0.465 OA
ATOM     23  C   UNL A   1      32.955  16.855  25.379  1.00  0.00     0.282 C 
ENDBRANCH  20  22
ENDBRANCH  14  20
ENDBRANCH   7  13
ENDBRANCH   3   6
ENDBRANCH   1   2
BRANCH   1  24
ATOM     24  C   UNL A   1      31.769  28.814  25.433  1.00  0.00     0.042 C 
BRANCH  24  25
ATOM     25  C   UNL A   1      33.073  29.545  25.748  1.00  0.00     0.118 C 
BRANCH  25  26
ATOM     26  N   UNL A   1      32.802  30.848  26.334  1.00  0.00    -0.352 N 
ATOM     27  C   UNL A   1      33.457  31.592  27.269  1.00  0.00     0.251 C 
ATOM     28  H   UNL A   1      31.986  31.276  25.987  1.00  0.00     0.163 HD
ATOM     29  O   UNL A   1      32.909  32.625  27.659  1.00  0.00    -0.269 OA
BRANCH  27  30
ATOM     30  C   UNL A   1      34.769  31.209  27.834  1.00  0.00     0.039 A 
ATOM     31  C   UNL A   1      34.840  29.963  28.471  1.00  0.00     0.014 A 
ATOM     32  C   UNL A   1      35.888  32.046  27.845  1.00  0.00     0.014 A 
ATOM     33  C   UNL A   1      36.003  29.570  29.126  1.00  0.00     0.010 A 
ATOM     34  C   UNL A   1      37.079  31.622  28.435  1.00  0.00     0.010 A 
ATOM     35  C   UNL A   1      37.135  30.396  29.107  1.00  0.00    -0.014 A 
BRANCH  35  36
ATOM     36  C   UNL A   1      38.364  29.993  29.826  1.00  0.00     0.031 A 
ATOM     37  C   UNL A   1      38.639  30.520  31.207  1.00  0.00     0.074 A 
ATOM     38  C   UNL A   1      39.221  29.144  29.228  1.00  0.00     0.049 A 
ATOM     39  N   UNL A   1      39.650  30.269  31.999  1.00  0.00    -0.248 NA
ATOM     40  C   UNL A   1      37.661  31.466  31.769  1.00  0.00     0.031 C 
ATOM     41  C   UNL A   1      39.058  28.597  27.879  1.00  0.00     0.029 A 
ATOM     42  N   UNL A   1      40.389  28.584  29.676  1.00  0.00    -0.354 N 
ATOM     43  C   UNL A   1      39.428  31.021  33.145  1.00  0.00     0.074 A 
ATOM     44  C   UNL A   1      38.221  31.786  32.927  1.00  0.00     0.031 C 
ATOM     45  C   UNL A   1      40.063  27.746  27.627  1.00  0.00     0.029 A 
ATOM     46  C   UNL A   1      40.961  27.718  28.777  1.00  0.00     0.049 A 
ATOM     47  H   UNL A   1      40.778  28.782  30.558  1.00  0.00     0.167 HD
ATOM     48  C   UNL A   1      40.152  31.041  34.289  1.00  0.00     0.037 A 
ATOM     49  C   UNL A   1      42.083  26.982  28.876  1.00  0.00     0.037 A 
ATOM     50  C   UNL A   1      41.339  30.256  34.500  1.00  0.00     0.049 A 
ATOM     51  C   UNL A   1      42.880  27.047  30.150  1.00  0.00     0.074 A 
ATOM     52  C   UNL A   1      42.132  30.182  35.631  1.00  0.00     0.029 A 
ATOM     53  N   UNL A   1      41.901  29.405  33.558  1.00  0.00    -0.354 N 
ATOM     54  N   UNL A   1      42.636  27.727  31.245  1.00  0.00    -0.248 NA
ATOM     55  C   UNL A   1      44.103  26.236  30.206  1.00  0.00     0.031 C 
ATOM     56  C   UNL A   1      43.200  29.323  35.358  1.00  0.00     0.029 A 
ATOM     57  C   UNL A   1      43.041  28.815  34.079  1.00  0.00     0.049 A 
ATOM     58  H   UNL A   1      41.543  29.245  32.656  1.00  0.00     0.167 HD
ATOM     59  C   UNL A   1      43.655  27.405  32.128  1.00  0.00     0.074 A 
ATOM     60  C   UNL A   1      44.509  26.452  31.449  1.00  0.00     0.031 C 
ATOM     61  C   UNL A   1      43.870  27.861  33.388  1.00  0.00     0.037 A 
BRANCH  48  62
ATOM     62  C   UNL A   1      39.679  31.915  35.413  1.00  0.00     0.064 A 
ATOM     63  C   UNL A   1      38.745  31.437  36.346  1.00  0.00     0.173 A 
ATOM     64  C   UNL A   1      40.070  33.260  35.508  1.00  0.00     0.173 A 
ATOM     65  F   UNL A   1      38.336  30.160  36.300  1.00  0.00    -0.203 F 
ATOM     66  C   UNL A   1      38.201  32.279  37.313  1.00  0.00     0.198 A 
ATOM     67  C   UNL A   1      39.545  34.091  36.495  1.00  0.00     0.198 A 
ATOM     68  F   UNL A   1      40.970  33.762  34.650  1.00  0.00    -0.203 F 
ATOM     69  F   UNL A   1      37.279  31.811  38.164  1.00  0.00    -0.200 F 
ATOM     70  C   UNL A   1      38.602  33.605  37.386  1.00  0.00     0.200 A 
ATOM     71  F   UNL A   1      39.951  35.366  36.578  1.00  0.00    -0.200 F 
ATOM     72  F   UNL A   1      38.076  34.414  38.316  1.00  0.00    -0.200 F 
ENDBRANCH  48  62
BRANCH  49  73
ATOM     73  C   UNL A   1      42.489  26.093  27.755  1.00  0.00     0.064 A 
ATOM     74  C   UNL A   1      43.457  26.488  26.820  1.00  0.00     0.173 A 
ATOM     75  C   UNL A   1      41.903  24.831  27.592  1.00  0.00     0.173 A 
ATOM     76  F   UNL A   1      44.044  27.689  26.926  1.00  0.00    -0.203 F 
ATOM     77  C   UNL A   1      43.813  25.659  25.758  1.00  0.00     0.198 A 
ATOM     78  C   UNL A   1      42.282  23.989  26.548  1.00  0.00     0.198 A 
ATOM     79  F   UNL A   1      40.982  24.401  28.468  1.00  0.00    -0.203 F 
ATOM     80  F   UNL A   1      44.716  26.075  24.860  1.00  0.00    -0.200 F 
ATOM     81  C   UNL A   1      43.231  24.407  25.627  1.00  0.00     0.200 A 
ATOM     82  F   UNL A   1      41.737  22.770  26.441  1.00  0.00    -0.200 F 
ATOM     83  F   UNL A   1      43.590  23.602  24.619  1.00  0.00    -0.200 F 
ENDBRANCH  49  73
BRANCH  61  84
ATOM     84  C   UNL A   1      45.056  27.314  34.127  1.00  0.00     0.064 A 
ATOM     85  C   UNL A   1      44.931  26.160  34.916  1.00  0.00     0.173 A 
ATOM     86  C   UNL A   1      46.300  27.962  34.102  1.00  0.00     0.173 A 
ATOM     87  F   UNL A   1      43.760  25.509  34.983  1.00  0.00    -0.203 F 
ATOM     88  C   UNL A   1      46.005  25.683  35.662  1.00  0.00     0.198 A 
ATOM     89  C   UNL A   1      47.381  27.461  34.820  1.00  0.00     0.198 A 
ATOM     90  F   UNL A   1      46.473  29.063  33.355  1.00  0.00    -0.203 F 
ATOM     91  F   UNL A   1      45.852  24.600  36.437  1.00  0.00    -0.200 F 
ATOM     92  C   UNL A   1      47.231  26.329  35.606  1.00  0.00     0.200 A 
ATOM     93  F   UNL A   1      48.573  28.068  34.742  1.00  0.00    -0.200 F 
ATOM     94  F   UNL A   1      48.270  25.855  36.308  1.00  0.00    -0.200 F 
ENDBRANCH  61  84
ENDBRANCH  35  36
ENDBRANCH  27  30
ENDBRANCH  25  26
ENDBRANCH  24  25
ENDBRANCH   1  24
TORSDOF 13
ENDMDL
MODEL 3
REMARK VINA RESULT:     -12.9      1.618      2.708
REMARK SMILES COC(=O)c1cc(F)cc(-c2ccc(C(=O)NCCCNC(=O)c3ccc(-c4c5nc(c(-c6c(F)c(F)c(F)c(F)c6F)c6ccc([nH]6)c(-c6c(F)c(F)c(F)c(F)c6F)c6nc(c(-c7c(F)c(F)c(F)c(F)c7F)c7ccc4[nH]7)C=C6)C=C5)cc3)cc2C)c1
REMARK SMILES IDX 18 1 17 2 15 3 16 4 14 6 11 7 12 8 88 9 13 10 87 11 89 12
REMARK SMILES IDX 10 13 5 14 6 15 90 16 7 17 8 18 9 19 3 20 4 21 2 22 1 23
REMARK SMILES IDX 19 24 20 25 21 26 22 27 23 29 24 30 25 31 86 32 26 33 85 34
REMARK SMILES IDX 27 35 28 36 29 37 79 38 30 39 84 40 78 41 80 42 31 43 83 44
REMARK SMILES IDX 77 45 76 46 32 48 64 49 44 50 63 51 45 52 48 53 62 54 81 55
REMARK SMILES IDX 46 56 47 57 61 59 82 60 49 61 33 62 34 63 42 64 35 65 36 66
REMARK SMILES IDX 40 67 43 68 37 69 38 70 41 71 39 72 65 73 66 74 74 75 67 76
REMARK SMILES IDX 68 77 72 78 75 79 69 80 70 81 73 82 71 83 50 84 51 85 59 86
REMARK SMILES IDX 52 87 53 88 57 89 60 90 54 91 55 92 58 93 56 94
REMARK H PARENT 17 5 21 28 80 47 48 58
REMARK Flexibility Score: inf
ROOT
ATOM      1  C   UNL A   1      31.307  28.771  24.109  1.00  0.00     0.118 C 
ENDROOT
BRANCH   1   2
ATOM      2  N   UNL A   1      30.101  27.997  23.917  1.00  0.00    -0.352 N 
ATOM      3  C   UNL A   1      29.817  26.660  23.966  1.00  0.00     0.251 C 
ATOM      4  O   UNL A   1      28.636  26.351  23.791  1.00  0.00    -0.269 OA
ATOM      5  H   UNL A   1      29.316  28.552  23.703  1.00  0.00     0.163 HD
BRANCH   3   6
ATOM      6  C   UNL A   1      30.815  25.580  24.236  1.00  0.00     0.040 A 
ATOM      7  C   UNL A   1      32.766  23.517  24.489  1.00  0.00    -0.015 A 
ATOM      8  C   UNL A   1      32.094  24.043  25.606  1.00  0.00     0.010 A 
ATOM      9  C   UNL A   1      32.463  24.047  23.222  1.00  0.00    -0.042 A 
ATOM     10  C   UNL A   1      31.161  25.079  25.487  1.00  0.00     0.014 A 
ATOM     11  C   UNL A   1      31.489  25.062  23.117  1.00  0.00     0.018 A 
ATOM     12  C   UNL A   1      33.159  23.628  21.955  1.00  0.00     0.045 C 
BRANCH   7  13
ATOM     13  C   UNL A   1      33.768  22.468  24.717  1.00  0.00    -0.014 A 
ATOM     14  C   UNL A   1      36.089  21.812  25.115  1.00  0.00     0.063 A 
ATOM     15  C   UNL A   1      35.735  20.466  25.002  1.00  0.00     0.055 A 
ATOM     16  C   UNL A   1      35.106  22.806  24.986  1.00  0.00     0.024 A 
ATOM     17  C   UNL A   1      34.408  20.134  24.753  1.00  0.00     0.124 A 
ATOM     18  F   UNL A   1      34.065  18.844  24.641  1.00  0.00    -0.207 F 
ATOM     19  C   UNL A   1      33.431  21.114  24.604  1.00  0.00     0.048 A 
BRANCH  14  20
ATOM     20  C   UNL A   1      37.487  22.244  25.364  1.00  0.00     0.337 C 
ATOM     21  O   UNL A   1      38.431  21.475  25.404  1.00  0.00    -0.246 OA
BRANCH  20  22
ATOM     22  O   UNL A   1      37.531  23.582  25.587  1.00  0.00    -0.465 OA
ATOM     23  C   UNL A   1      38.565  23.987  26.485  1.00  0.00     0.282 C 
ENDBRANCH  20  22
ENDBRANCH  14  20
ENDBRANCH   7  13
ENDBRANCH   3   6
ENDBRANCH   1   2
BRANCH   1  24
ATOM     24  C   UNL A   1      31.626  28.936  25.598  1.00  0.00     0.042 C 
BRANCH  24  25
ATOM     25  C   UNL A   1      32.929  29.703  25.811  1.00  0.00     0.118 C 
BRANCH  25  26
ATOM     26  N   UNL A   1      32.662  31.032  26.337  1.00  0.00    -0.352 N 
ATOM     27  C   UNL A   1      33.305  31.805  27.256  1.00  0.00     0.251 C 
ATOM     28  H   UNL A   1      31.861  31.456  25.953  1.00  0.00     0.163 HD
ATOM     29  O   UNL A   1      32.763  32.859  27.591  1.00  0.00    -0.269 OA
BRANCH  27  30
ATOM     30  C   UNL A   1      34.599  31.428  27.868  1.00  0.00     0.039 A 
ATOM     31  C   UNL A   1      34.699  30.125  28.373  1.00  0.00     0.014 A 
ATOM     32  C   UNL A   1      35.664  32.314  28.046  1.00  0.00     0.014 A 
ATOM     33  C   UNL A   1      35.839  29.721  29.062  1.00  0.00     0.010 A 
ATOM     34  C   UNL A   1      36.837  31.888  28.669  1.00  0.00     0.010 A 
ATOM     35  C   UNL A   1      36.921  30.600  29.211  1.00  0.00    -0.014 A 
BRANCH  35  36
ATOM     36  C   UNL A   1      38.122  30.182  29.966  1.00  0.00     0.031 A 
ATOM     37  C   UNL A   1      38.327  30.653  31.380  1.00  0.00     0.074 A 
ATOM     38  C   UNL A   1      39.017  29.371  29.373  1.00  0.00     0.049 A 
ATOM     39  N   UNL A   1      39.305  30.382  32.205  1.00  0.00    -0.248 NA
ATOM     40  C   UNL A   1      37.311  31.562  31.936  1.00  0.00     0.031 C 
ATOM     41  C   UNL A   1      38.923  28.880  27.997  1.00  0.00     0.029 A 
ATOM     42  N   UNL A   1      40.172  28.807  29.850  1.00  0.00    -0.354 N 
ATOM     43  C   UNL A   1      39.020  31.081  33.371  1.00  0.00     0.074 A 
ATOM     44  C   UNL A   1      37.813  31.839  33.131  1.00  0.00     0.031 C 
ATOM     45  C   UNL A   1      39.951  28.053  27.755  1.00  0.00     0.029 A 
ATOM     46  C   UNL A   1      40.797  27.988  28.942  1.00  0.00     0.049 A 
ATOM     47  H   UNL A   1      40.518  28.972  30.756  1.00  0.00     0.167 HD
ATOM     48  C   UNL A   1      39.692  31.062  34.546  1.00  0.00     0.037 A 
ATOM     49  C   UNL A   1      41.924  27.263  29.061  1.00  0.00     0.037 A 
ATOM     50  C   UNL A   1      40.880  30.284  34.778  1.00  0.00     0.049 A 
ATOM     51  C   UNL A   1      42.661  27.283  30.372  1.00  0.00     0.074 A 
ATOM     52  C   UNL A   1      41.622  30.171  35.940  1.00  0.00     0.029 A 
ATOM     53  N   UNL A   1      41.496  29.481  33.828  1.00  0.00    -0.354 N 
ATOM     54  N   UNL A   1      42.359  27.913  31.482  1.00  0.00    -0.248 NA
ATOM     55  C   UNL A   1      43.893  26.487  30.449  1.00  0.00     0.031 C 
ATOM     56  C   UNL A   1      42.714  29.339  35.680  1.00  0.00     0.029 A 
ATOM     57  C   UNL A   1      42.620  28.884  34.375  1.00  0.00     0.049 A 
ATOM     58  H   UNL A   1      41.181  29.355  32.904  1.00  0.00     0.167 HD
ATOM     59  C   UNL A   1      43.342  27.567  32.396  1.00  0.00     0.074 A 
ATOM     60  C   UNL A   1      44.240  26.654  31.717  1.00  0.00     0.031 C 
ATOM     61  C   UNL A   1      43.493  27.971  33.682  1.00  0.00     0.037 A 
BRANCH  48  62
ATOM     62  C   UNL A   1      39.156  31.881  35.684  1.00  0.00     0.064 A 
ATOM     63  C   UNL A   1      39.601  33.196  35.890  1.00  0.00     0.173 A 
ATOM     64  C   UNL A   1      38.280  31.329  36.632  1.00  0.00     0.173 A 
ATOM     65  F   UNL A   1      40.440  33.771  35.015  1.00  0.00    -0.203 F 
ATOM     66  C   UNL A   1      39.209  33.917  37.015  1.00  0.00     0.198 A 
ATOM     67  C   UNL A   1      37.868  32.064  37.741  1.00  0.00     0.198 A 
ATOM     68  F   UNL A   1      37.815  30.081  36.474  1.00  0.00    -0.203 F 
ATOM     69  F   UNL A   1      39.682  35.155  37.213  1.00  0.00    -0.200 F 
ATOM     70  C   UNL A   1      38.344  33.351  37.939  1.00  0.00     0.200 A 
ATOM     71  F   UNL A   1      37.014  31.523  38.620  1.00  0.00    -0.200 F 
ATOM     72  F   UNL A   1      37.970  34.045  39.023  1.00  0.00    -0.200 F 
ENDBRANCH  48  62
BRANCH  49  73
ATOM     73  C   UNL A   1      42.393  26.428  27.923  1.00  0.00     0.064 A 
ATOM     74  C   UNL A   1      43.312  26.919  26.984  1.00  0.00     0.173 A 
ATOM     75  C   UNL A   1      41.918  25.122  27.748  1.00  0.00     0.173 A 
ATOM     76  F   UNL A   1      43.792  28.166  27.100  1.00  0.00    -0.203 F 
ATOM     77  C   UNL A   1      43.726  26.139  25.906  1.00  0.00     0.198 A 
ATOM     78  C   UNL A   1      42.357  24.331  26.688  1.00  0.00     0.198 A 
ATOM     79  F   UNL A   1      41.048  24.601  28.627  1.00  0.00    -0.203 F 
ATOM     80  F   UNL A   1      44.579  26.644  25.005  1.00  0.00    -0.200 F 
ATOM     81  C   UNL A   1      43.255  24.843  25.764  1.00  0.00     0.200 A 
ATOM     82  F   UNL A   1      41.919  23.070  26.570  1.00  0.00    -0.200 F 
ATOM     83  F   UNL A   1      43.671  24.086  24.740  1.00  0.00    -0.200 F 
ENDBRANCH  49  73
BRANCH  61  84
ATOM     84  C   UNL A   1      44.653  27.408  34.450  1.00  0.00     0.064 A 
ATOM     85  C   UNL A   1      45.898  28.057  34.433  1.00  0.00     0.173 A 
ATOM     86  C   UNL A   1      44.552  26.199  35.154  1.00  0.00     0.173 A 
ATOM     87  F   UNL A   1      46.051  29.211  33.765  1.00  0.00    -0.203 F 
ATOM     88  C   UNL A   1      47.000  27.510  35.083  1.00  0.00     0.198 A 
ATOM     89  C   UNL A   1      45.646  25.674  35.833  1.00  0.00     0.198 A 
ATOM     90  F   UNL A   1      43.381  25.546  35.210  1.00  0.00    -0.203 F 
ATOM     91  F   UNL A   1      48.187  28.128  35.022  1.00  0.00    -0.200 F 
ATOM     92  C   UNL A   1      46.871  26.323  35.790  1.00  0.00     0.200 A 
ATOM     93  F   UNL A   1      45.514  24.544  36.541  1.00  0.00    -0.200 F 
ATOM     94  F   UNL A   1      47.928  25.809  36.434  1.00  0.00    -0.200 F 
ENDBRANCH  61  84
ENDBRANCH  35  36
ENDBRANCH  27  30
ENDBRANCH  25  26
ENDBRANCH  24  25
ENDBRANCH   1  24
TORSDOF 13
ENDMDL
