MODEL 1
REMARK VINA RESULT:     -13.7      0.000      0.000
REMARK SMILES O=C(NCCCNC(=O)c1ccnc(-n2cnnn2)c1)c1ccc(-c2c3nc(c(-c4c(F)c(F)c(F)c(F)c4F)c4ccc([nH]4)c(-c4c(F)c(F)c(F)c(F)c4F)c4nc(c(-c5c(F)c(F)c(F)c(F)c5F)c5ccc2[nH]5)C=C4)C=C3)cc1
REMARK SMILES IDX 4 1 3 2 1 3 2 4 21 6 22 7 83 8 23 9 82 10 24 11 25 12 26 13
REMARK SMILES IDX 76 14 27 15 81 16 75 17 77 18 28 19 80 20 74 21 73 22 29 24
REMARK SMILES IDX 61 25 41 26 60 27 42 28 45 29 59 30 78 31 43 32 44 33 58 35
REMARK SMILES IDX 79 36 46 37 30 38 31 39 39 40 32 41 33 42 37 43 40 44 34 45
REMARK SMILES IDX 35 46 38 47 36 48 62 49 63 50 71 51 64 52 65 53 69 54 72 55
REMARK SMILES IDX 66 56 67 57 70 58 68 59 47 60 48 61 56 62 49 63 50 64 54 65
REMARK SMILES IDX 57 66 51 67 52 68 55 69 53 70 5 71 6 72 7 73 8 74 9 76 10 77
REMARK SMILES IDX 11 78 20 79 12 80 14 81 13 82 15 83 16 84 19 85 17 86 18 87
REMARK H PARENT 3 5 77 23 45 34 7 75
REMARK Flexibility Score: inf
ROOT
ATOM      1  C   UNL A   1      33.276  29.636  26.914  1.00  0.00     0.118 C 
ENDROOT
BRANCH   1   2
ATOM      2  N   UNL A   1      33.594  30.872  27.598  1.00  0.00    -0.352 N 
ATOM      3  O   UNL A   1      34.639  32.629  28.429  1.00  0.00    -0.269 OA
ATOM      4  C   UNL A   1      34.740  31.458  28.056  1.00  0.00     0.251 C 
ATOM      5  H   UNL A   1      32.795  31.420  27.775  1.00  0.00     0.163 HD
BRANCH   4   6
ATOM      6  C   UNL A   1      36.047  30.771  28.222  1.00  0.00     0.039 A 
ATOM      7  C   UNL A   1      36.324  29.434  27.932  1.00  0.00     0.014 A 
ATOM      8  C   UNL A   1      37.077  31.574  28.751  1.00  0.00     0.014 A 
ATOM      9  C   UNL A   1      37.569  28.889  28.256  1.00  0.00     0.010 A 
ATOM     10  C   UNL A   1      38.318  31.040  29.069  1.00  0.00     0.010 A 
ATOM     11  C   UNL A   1      38.550  29.687  28.858  1.00  0.00    -0.014 A 
BRANCH  11  12
ATOM     12  C   UNL A   1      39.882  29.132  29.093  1.00  0.00     0.031 A 
ATOM     13  C   UNL A   1      40.206  28.922  30.537  1.00  0.00     0.074 A 
ATOM     14  C   UNL A   1      40.677  28.668  28.105  1.00  0.00     0.049 A 
ATOM     15  N   UNL A   1      41.177  29.435  31.220  1.00  0.00    -0.248 NA
ATOM     16  C   UNL A   1      39.267  28.128  31.349  1.00  0.00     0.031 C 
ATOM     17  C   UNL A   1      40.358  28.541  26.680  1.00  0.00     0.029 A 
ATOM     18  N   UNL A   1      41.923  28.115  28.180  1.00  0.00    -0.354 N 
ATOM     19  C   UNL A   1      41.075  28.898  32.503  1.00  0.00     0.074 A 
ATOM     20  C   UNL A   1      39.807  28.222  32.564  1.00  0.00     0.031 C 
ATOM     21  C   UNL A   1      41.277  27.750  26.080  1.00  0.00     0.029 A 
ATOM     22  C   UNL A   1      42.318  27.420  27.039  1.00  0.00     0.049 A 
ATOM     23  H   UNL A   1      42.496  28.200  28.976  1.00  0.00     0.167 HD
ATOM     24  C   UNL A   1      42.145  28.868  33.346  1.00  0.00     0.037 A 
ATOM     25  C   UNL A   1      43.389  26.591  26.916  1.00  0.00     0.037 A 
ATOM     26  C   UNL A   1      43.169  29.783  32.921  1.00  0.00     0.049 A 
ATOM     27  C   UNL A   1      44.318  26.893  28.031  1.00  0.00     0.074 A 
ATOM     28  C   UNL A   1      43.254  31.152  32.771  1.00  0.00     0.029 A 
ATOM     29  N   UNL A   1      44.236  29.265  32.235  1.00  0.00    -0.354 N 
ATOM     30  N   UNL A   1      44.986  28.007  28.137  1.00  0.00    -0.248 NA
ATOM     31  C   UNL A   1      44.149  26.141  29.265  1.00  0.00     0.031 C 
ATOM     32  C   UNL A   1      44.063  31.345  31.613  1.00  0.00     0.029 A 
ATOM     33  C   UNL A   1      44.478  30.090  31.169  1.00  0.00     0.049 A 
ATOM     34  H   UNL A   1      44.738  28.450  32.465  1.00  0.00     0.167 HD
ATOM     35  C   UNL A   1      44.926  28.319  29.485  1.00  0.00     0.074 A 
ATOM     36  C   UNL A   1      44.467  27.096  30.142  1.00  0.00     0.031 C 
ATOM     37  C   UNL A   1      44.975  29.617  29.901  1.00  0.00     0.037 A 
BRANCH  24  38
ATOM     38  C   UNL A   1      42.441  27.752  34.323  1.00  0.00     0.064 A 
ATOM     39  C   UNL A   1      43.019  26.558  33.843  1.00  0.00     0.173 A 
ATOM     40  C   UNL A   1      41.887  27.680  35.618  1.00  0.00     0.173 A 
ATOM     41  F   UNL A   1      43.565  26.506  32.618  1.00  0.00    -0.203 F 
ATOM     42  C   UNL A   1      42.956  25.363  34.565  1.00  0.00     0.198 A 
ATOM     43  C   UNL A   1      41.872  26.499  36.357  1.00  0.00     0.198 A 
ATOM     44  F   UNL A   1      41.233  28.708  36.172  1.00  0.00    -0.203 F 
ATOM     45  F   UNL A   1      43.393  24.225  34.009  1.00  0.00    -0.200 F 
ATOM     46  C   UNL A   1      42.373  25.332  35.818  1.00  0.00     0.200 A 
ATOM     47  F   UNL A   1      41.285  26.484  37.563  1.00  0.00    -0.200 F 
ATOM     48  F   UNL A   1      42.246  24.177  36.483  1.00  0.00    -0.200 F 
ENDBRANCH  24  38
BRANCH  25  49
ATOM     49  C   UNL A   1      43.520  25.344  26.118  1.00  0.00     0.064 A 
ATOM     50  C   UNL A   1      44.628  25.124  25.279  1.00  0.00     0.173 A 
ATOM     51  C   UNL A   1      42.718  24.220  26.391  1.00  0.00     0.173 A 
ATOM     52  F   UNL A   1      45.477  26.126  25.006  1.00  0.00    -0.203 F 
ATOM     53  C   UNL A   1      44.926  23.854  24.768  1.00  0.00     0.198 A 
ATOM     54  C   UNL A   1      43.012  22.955  25.877  1.00  0.00     0.198 A 
ATOM     55  F   UNL A   1      41.687  24.305  27.244  1.00  0.00    -0.203 F 
ATOM     56  F   UNL A   1      46.027  23.671  24.024  1.00  0.00    -0.200 F 
ATOM     57  C   UNL A   1      44.124  22.769  25.076  1.00  0.00     0.200 A 
ATOM     58  F   UNL A   1      42.251  21.906  26.218  1.00  0.00    -0.200 F 
ATOM     59  F   UNL A   1      44.443  21.541  24.642  1.00  0.00    -0.200 F 
ENDBRANCH  25  49
BRANCH  37  60
ATOM     60  C   UNL A   1      45.366  30.662  28.896  1.00  0.00     0.064 A 
ATOM     61  C   UNL A   1      44.467  31.286  28.013  1.00  0.00     0.173 A 
ATOM     62  C   UNL A   1      46.680  31.147  28.931  1.00  0.00     0.173 A 
ATOM     63  F   UNL A   1      43.173  30.948  27.991  1.00  0.00    -0.203 F 
ATOM     64  C   UNL A   1      44.881  32.323  27.177  1.00  0.00     0.198 A 
ATOM     65  C   UNL A   1      47.079  32.207  28.123  1.00  0.00     0.198 A 
ATOM     66  F   UNL A   1      47.565  30.625  29.794  1.00  0.00    -0.203 F 
ATOM     67  F   UNL A   1      44.007  32.898  26.338  1.00  0.00    -0.200 F 
ATOM     68  C   UNL A   1      46.184  32.786  27.240  1.00  0.00     0.200 A 
ATOM     69  F   UNL A   1      48.327  32.686  28.226  1.00  0.00    -0.200 F 
ATOM     70  F   UNL A   1      46.571  33.813  26.468  1.00  0.00    -0.200 F 
ENDBRANCH  37  60
ENDBRANCH  11  12
ENDBRANCH   4   6
ENDBRANCH   1   2
BRANCH   1  71
ATOM     71  C   UNL A   1      32.377  29.783  25.689  1.00  0.00     0.042 C 
BRANCH  71  72
ATOM     72  C   UNL A   1      31.478  28.579  25.408  1.00  0.00     0.118 C 
BRANCH  72  73
ATOM     73  N   UNL A   1      31.777  27.944  24.134  1.00  0.00    -0.352 N 
ATOM     74  C   UNL A   1      30.968  27.706  23.054  1.00  0.00     0.251 C 
ATOM     75  H   UNL A   1      32.707  27.637  24.033  1.00  0.00     0.163 HD
ATOM     76  O   UNL A   1      31.347  26.983  22.143  1.00  0.00    -0.269 OA
BRANCH  74  77
ATOM     77  C   UNL A   1      29.619  28.297  22.982  1.00  0.00     0.045 A 
ATOM     78  C   UNL A   1      28.502  27.594  23.424  1.00  0.00     0.034 A 
ATOM     79  C   UNL A   1      29.505  29.621  22.559  1.00  0.00     0.063 A 
ATOM     80  C   UNL A   1      27.288  28.247  23.399  1.00  0.00     0.114 A 
ATOM     81  C   UNL A   1      28.243  30.203  22.577  1.00  0.00     0.157 A 
ATOM     82  N   UNL A   1      27.140  29.528  22.998  1.00  0.00    -0.237 NA
BRANCH  81  83
ATOM     83  N   UNL A   1      28.087  31.546  22.149  1.00  0.00    -0.182 N 
ATOM     84  C   UNL A   1      27.773  32.022  20.901  1.00  0.00     0.254 A 
ATOM     85  N   UNL A   1      28.219  32.605  22.978  1.00  0.00    -0.039 NA
ATOM     86  N   UNL A   1      27.776  33.335  20.923  1.00  0.00    -0.117 NA
ATOM     87  N   UNL A   1      28.071  33.681  22.217  1.00  0.00    -0.024 NA
ENDBRANCH  81  83
ENDBRANCH  74  77
ENDBRANCH  72  73
ENDBRANCH  71  72
ENDBRANCH   1  71
TORSDOF 11
ENDMDL
MODEL 2
REMARK VINA RESULT:     -13.4      5.971     11.393
REMARK SMILES O=C(NCCCNC(=O)c1ccnc(-n2cnnn2)c1)c1ccc(-c2c3nc(c(-c4c(F)c(F)c(F)c(F)c4F)c4ccc([nH]4)c(-c4c(F)c(F)c(F)c(F)c4F)c4nc(c(-c5c(F)c(F)c(F)c(F)c5F)c5ccc2[nH]5)C=C4)C=C3)cc1
REMARK SMILES IDX 4 1 3 2 1 3 2 4 21 6 22 7 83 8 23 9 82 10 24 11 25 12 26 13
REMARK SMILES IDX 76 14 27 15 81 16 75 17 77 18 28 19 80 20 74 21 73 22 29 24
REMARK SMILES IDX 61 25 41 26 60 27 42 28 45 29 59 30 78 31 43 32 44 33 58 35
REMARK SMILES IDX 79 36 46 37 30 38 31 39 39 40 32 41 33 42 37 43 40 44 34 45
REMARK SMILES IDX 35 46 38 47 36 48 62 49 63 50 71 51 64 52 65 53 69 54 72 55
REMARK SMILES IDX 66 56 67 57 70 58 68 59 47 60 48 61 56 62 49 63 50 64 54 65
REMARK SMILES IDX 57 66 51 67 52 68 55 69 53 70 5 71 6 72 7 73 8 74 9 76 10 77
REMARK SMILES IDX 11 78 20 79 12 80 14 81 13 82 15 83 16 84 19 85 17 86 18 87
REMARK H PARENT 3 5 77 23 45 34 7 75
REMARK Flexibility Score: inf
ROOT
ATOM      1  C   UNL A   1      41.247  20.120  27.172  1.00  0.00     0.118 C 
ENDROOT
BRANCH   1   2
ATOM      2  N   UNL A   1      40.029  20.640  26.584  1.00  0.00    -0.352 N 
ATOM      3  O   UNL A   1      38.513  21.941  25.649  1.00  0.00    -0.269 OA
ATOM      4  C   UNL A   1      39.519  21.887  26.360  1.00  0.00     0.251 C 
ATOM      5  H   UNL A   1      39.428  19.926  26.271  1.00  0.00     0.163 HD
BRANCH   4   6
ATOM      6  C   UNL A   1      40.020  23.143  26.977  1.00  0.00     0.039 A 
ATOM      7  C   UNL A   1      41.175  23.284  27.747  1.00  0.00     0.014 A 
ATOM      8  C   UNL A   1      39.209  24.275  26.761  1.00  0.00     0.014 A 
ATOM      9  C   UNL A   1      41.459  24.502  28.369  1.00  0.00     0.010 A 
ATOM     10  C   UNL A   1      39.489  25.489  27.371  1.00  0.00     0.010 A 
ATOM     11  C   UNL A   1      40.594  25.591  28.208  1.00  0.00    -0.014 A 
BRANCH  11  12
ATOM     12  C   UNL A   1      40.958  26.889  28.776  1.00  0.00     0.031 A 
ATOM     13  C   UNL A   1      42.185  27.493  28.174  1.00  0.00     0.074 A 
ATOM     14  C   UNL A   1      40.163  27.576  29.625  1.00  0.00     0.049 A 
ATOM     15  N   UNL A   1      43.284  27.826  28.767  1.00  0.00    -0.248 NA
ATOM     16  C   UNL A   1      42.235  27.642  26.709  1.00  0.00     0.031 C 
ATOM     17  C   UNL A   1      38.805  27.234  30.059  1.00  0.00     0.029 A 
ATOM     18  N   UNL A   1      40.365  28.791  30.213  1.00  0.00    -0.354 N 
ATOM     19  C   UNL A   1      44.102  28.385  27.785  1.00  0.00     0.074 A 
ATOM     20  C   UNL A   1      43.469  28.112  26.523  1.00  0.00     0.031 C 
ATOM     21  C   UNL A   1      38.234  28.313  30.643  1.00  0.00     0.029 A 
ATOM     22  C   UNL A   1      39.218  29.377  30.742  1.00  0.00     0.049 A 
ATOM     23  H   UNL A   1      41.251  29.219  30.259  1.00  0.00     0.167 HD
ATOM     24  C   UNL A   1      45.129  29.219  28.107  1.00  0.00     0.037 A 
ATOM     25  C   UNL A   1      39.078  30.659  31.174  1.00  0.00     0.037 A 
ATOM     26  C   UNL A   1      45.485  29.096  29.495  1.00  0.00     0.049 A 
ATOM     27  C   UNL A   1      40.439  31.199  31.417  1.00  0.00     0.074 A 
ATOM     28  C   UNL A   1      45.985  28.083  30.288  1.00  0.00     0.029 A 
ATOM     29  N   UNL A   1      45.005  30.046  30.359  1.00  0.00    -0.354 N 
ATOM     30  N   UNL A   1      41.220  30.789  32.375  1.00  0.00    -0.248 NA
ATOM     31  C   UNL A   1      41.099  31.870  30.309  1.00  0.00     0.031 C 
ATOM     32  C   UNL A   1      45.339  28.251  31.548  1.00  0.00     0.029 A 
ATOM     33  C   UNL A   1      44.540  29.392  31.469  1.00  0.00     0.049 A 
ATOM     34  H   UNL A   1      44.996  31.018  30.210  1.00  0.00     0.167 HD
ATOM     35  C   UNL A   1      42.478  30.738  31.796  1.00  0.00     0.074 A 
ATOM     36  C   UNL A   1      42.356  31.489  30.548  1.00  0.00     0.031 C 
ATOM     37  C   UNL A   1      43.413  29.852  32.242  1.00  0.00     0.037 A 
BRANCH  24  38
ATOM     38  C   UNL A   1      45.556  30.417  27.288  1.00  0.00     0.064 A 
ATOM     39  C   UNL A   1      46.933  30.662  27.101  1.00  0.00     0.173 A 
ATOM     40  C   UNL A   1      44.700  31.492  26.972  1.00  0.00     0.173 A 
ATOM     41  F   UNL A   1      47.842  29.716  27.383  1.00  0.00    -0.203 F 
ATOM     42  C   UNL A   1      47.415  31.919  26.723  1.00  0.00     0.198 A 
ATOM     43  C   UNL A   1      45.181  32.727  26.544  1.00  0.00     0.198 A 
ATOM     44  F   UNL A   1      43.378  31.434  27.175  1.00  0.00    -0.203 F 
ATOM     45  F   UNL A   1      48.736  32.144  26.694  1.00  0.00    -0.200 F 
ATOM     46  C   UNL A   1      46.539  32.954  26.454  1.00  0.00     0.200 A 
ATOM     47  F   UNL A   1      44.317  33.724  26.306  1.00  0.00    -0.200 F 
ATOM     48  F   UNL A   1      46.997  34.177  26.160  1.00  0.00    -0.200 F 
ENDBRANCH  24  38
BRANCH  25  49
ATOM     49  C   UNL A   1      37.898  31.557  31.075  1.00  0.00     0.064 A 
ATOM     50  C   UNL A   1      37.420  32.005  29.830  1.00  0.00     0.173 A 
ATOM     51  C   UNL A   1      37.038  31.748  32.174  1.00  0.00     0.173 A 
ATOM     52  F   UNL A   1      38.150  31.817  28.720  1.00  0.00    -0.203 F 
ATOM     53  C   UNL A   1      36.153  32.584  29.691  1.00  0.00     0.198 A 
ATOM     54  C   UNL A   1      35.777  32.331  32.035  1.00  0.00     0.198 A 
ATOM     55  F   UNL A   1      37.364  31.283  33.388  1.00  0.00    -0.203 F 
ATOM     56  F   UNL A   1      35.707  32.941  28.477  1.00  0.00    -0.200 F 
ATOM     57  C   UNL A   1      35.328  32.737  30.791  1.00  0.00     0.200 A 
ATOM     58  F   UNL A   1      34.972  32.434  33.103  1.00  0.00    -0.200 F 
ATOM     59  F   UNL A   1      34.089  33.232  30.652  1.00  0.00    -0.200 F 
ENDBRANCH  25  49
BRANCH  37  60
ATOM     60  C   UNL A   1      43.142  29.136  33.534  1.00  0.00     0.064 A 
ATOM     61  C   UNL A   1      43.450  29.651  34.805  1.00  0.00     0.173 A 
ATOM     62  C   UNL A   1      42.410  27.942  33.480  1.00  0.00     0.173 A 
ATOM     63  F   UNL A   1      44.059  30.835  34.942  1.00  0.00    -0.203 F 
ATOM     64  C   UNL A   1      43.076  28.977  35.967  1.00  0.00     0.198 A 
ATOM     65  C   UNL A   1      42.005  27.292  34.642  1.00  0.00     0.198 A 
ATOM     66  F   UNL A   1      42.040  27.434  32.294  1.00  0.00    -0.203 F 
ATOM     67  F   UNL A   1      43.388  29.484  37.168  1.00  0.00    -0.200 F 
ATOM     68  C   UNL A   1      42.347  27.803  35.883  1.00  0.00     0.200 A 
ATOM     69  F   UNL A   1      41.254  26.185  34.555  1.00  0.00    -0.200 F 
ATOM     70  F   UNL A   1      41.947  27.178  37.000  1.00  0.00    -0.200 F 
ENDBRANCH  37  60
ENDBRANCH  11  12
ENDBRANCH   4   6
ENDBRANCH   1   2
BRANCH   1  71
ATOM     71  C   UNL A   1      42.358  19.788  26.179  1.00  0.00     0.042 C 
BRANCH  71  72
ATOM     72  C   UNL A   1      43.174  20.992  25.709  1.00  0.00     0.118 C 
BRANCH  72  73
ATOM     73  N   UNL A   1      44.545  20.641  25.371  1.00  0.00    -0.352 N 
ATOM     74  C   UNL A   1      45.670  21.420  25.325  1.00  0.00     0.251 C 
ATOM     75  H   UNL A   1      44.685  19.695  25.141  1.00  0.00     0.163 HD
ATOM     76  O   UNL A   1      46.702  20.990  24.830  1.00  0.00    -0.269 OA
BRANCH  74  77
ATOM     77  C   UNL A   1      45.651  22.799  25.848  1.00  0.00     0.045 A 
ATOM     78  C   UNL A   1      45.218  23.071  27.143  1.00  0.00     0.034 A 
ATOM     79  C   UNL A   1      46.181  23.811  25.048  1.00  0.00     0.063 A 
ATOM     80  C   UNL A   1      45.309  24.374  27.584  1.00  0.00     0.114 A 
ATOM     81  C   UNL A   1      46.243  25.094  25.578  1.00  0.00     0.157 A 
ATOM     82  N   UNL A   1      45.816  25.378  26.838  1.00  0.00    -0.237 NA
BRANCH  81  83
ATOM     83  N   UNL A   1      46.770  26.151  24.793  1.00  0.00    -0.182 N 
ATOM     84  C   UNL A   1      46.568  27.502  24.918  1.00  0.00     0.254 A 
ATOM     85  N   UNL A   1      47.613  25.950  23.756  1.00  0.00    -0.039 NA
ATOM     86  N   UNL A   1      47.202  28.128  23.953  1.00  0.00    -0.117 NA
ATOM     87  N   UNL A   1      47.832  27.148  23.231  1.00  0.00    -0.024 NA
ENDBRANCH  81  83
ENDBRANCH  74  77
ENDBRANCH  72  73
ENDBRANCH  71  72
ENDBRANCH   1  71
TORSDOF 11
ENDMDL
MODEL 3
REMARK VINA RESULT:     -13.4      3.750      6.777
REMARK SMILES O=C(NCCCNC(=O)c1ccnc(-n2cnnn2)c1)c1ccc(-c2c3nc(c(-c4c(F)c(F)c(F)c(F)c4F)c4ccc([nH]4)c(-c4c(F)c(F)c(F)c(F)c4F)c4nc(c(-c5c(F)c(F)c(F)c(F)c5F)c5ccc2[nH]5)C=C4)C=C3)cc1
REMARK SMILES IDX 4 1 3 2 1 3 2 4 21 6 22 7 83 8 23 9 82 10 24 11 25 12 26 13
REMARK SMILES IDX 76 14 27 15 81 16 75 17 77 18 28 19 80 20 74 21 73 22 29 24
REMARK SMILES IDX 61 25 41 26 60 27 42 28 45 29 59 30 78 31 43 32 44 33 58 35
REMARK SMILES IDX 79 36 46 37 30 38 31 39 39 40 32 41 33 42 37 43 40 44 34 45
REMARK SMILES IDX 35 46 38 47 36 48 62 49 63 50 71 51 64 52 65 53 69 54 72 55
REMARK SMILES IDX 66 56 67 57 70 58 68 59 47 60 48 61 56 62 49 63 50 64 54 65
REMARK SMILES IDX 57 66 51 67 52 68 55 69 53 70 5 71 6 72 7 73 8 74 9 76 10 77
REMARK SMILES IDX 11 78 20 79 12 80 14 81 13 82 15 83 16 84 19 85 17 86 18 87
REMARK H PARENT 3 5 77 23 45 34 7 75
REMARK Flexibility Score: inf
ROOT
ATOM      1  C   UNL A   1      34.881  33.952  29.539  1.00  0.00     0.118 C 
ENDROOT
BRANCH   1   2
ATOM      2  N   UNL A   1      34.422  32.903  28.652  1.00  0.00    -0.352 N 
ATOM      3  O   UNL A   1      34.093  30.966  27.649  1.00  0.00    -0.269 OA
ATOM      4  C   UNL A   1      34.868  31.657  28.314  1.00  0.00     0.251 C 
ATOM      5  H   UNL A   1      33.592  33.146  28.181  1.00  0.00     0.163 HD
BRANCH   4   6
ATOM      6  C   UNL A   1      36.225  31.124  28.601  1.00  0.00     0.039 A 
ATOM      7  C   UNL A   1      37.366  31.875  28.894  1.00  0.00     0.014 A 
ATOM      8  C   UNL A   1      36.338  29.722  28.539  1.00  0.00     0.014 A 
ATOM      9  C   UNL A   1      38.606  31.245  29.020  1.00  0.00     0.010 A 
ATOM     10  C   UNL A   1      37.566  29.090  28.670  1.00  0.00     0.010 A 
ATOM     11  C   UNL A   1      38.708  29.857  28.871  1.00  0.00    -0.014 A 
BRANCH  11  12
ATOM     12  C   UNL A   1      39.992  29.200  29.112  1.00  0.00     0.031 A 
ATOM     13  C   UNL A   1      40.306  28.992  30.558  1.00  0.00     0.074 A 
ATOM     14  C   UNL A   1      40.741  28.654  28.129  1.00  0.00     0.049 A 
ATOM     15  N   UNL A   1      41.320  29.437  31.226  1.00  0.00    -0.248 NA
ATOM     16  C   UNL A   1      39.310  28.293  31.389  1.00  0.00     0.031 C 
ATOM     17  C   UNL A   1      40.403  28.526  26.709  1.00  0.00     0.029 A 
ATOM     18  N   UNL A   1      41.938  28.002  28.210  1.00  0.00    -0.354 N 
ATOM     19  C   UNL A   1      41.182  28.935  32.520  1.00  0.00     0.074 A 
ATOM     20  C   UNL A   1      39.863  28.366  32.600  1.00  0.00     0.031 C 
ATOM     21  C   UNL A   1      41.252  27.651  26.120  1.00  0.00     0.029 A 
ATOM     22  C   UNL A   1      42.268  27.256  27.081  1.00  0.00     0.049 A 
ATOM     23  H   UNL A   1      42.520  28.056  29.001  1.00  0.00     0.167 HD
ATOM     24  C   UNL A   1      42.250  28.834  33.359  1.00  0.00     0.037 A 
ATOM     25  C   UNL A   1      43.267  26.340  26.969  1.00  0.00     0.037 A 
ATOM     26  C   UNL A   1      43.343  29.654  32.912  1.00  0.00     0.049 A 
ATOM     27  C   UNL A   1      44.225  26.587  28.075  1.00  0.00     0.074 A 
ATOM     28  C   UNL A   1      43.539  31.009  32.735  1.00  0.00     0.029 A 
ATOM     29  N   UNL A   1      44.361  29.037  32.231  1.00  0.00    -0.354 N 
ATOM     30  N   UNL A   1      44.981  27.644  28.156  1.00  0.00    -0.248 NA
ATOM     31  C   UNL A   1      44.002  25.875  29.323  1.00  0.00     0.031 C 
ATOM     32  C   UNL A   1      44.354  31.113  31.570  1.00  0.00     0.029 A 
ATOM     33  C   UNL A   1      44.663  29.819  31.149  1.00  0.00     0.049 A 
ATOM     34  H   UNL A   1      44.796  28.189  32.476  1.00  0.00     0.167 HD
ATOM     35  C   UNL A   1      44.955  27.986  29.498  1.00  0.00     0.074 A 
ATOM     36  C   UNL A   1      44.401  26.818  30.180  1.00  0.00     0.031 C 
ATOM     37  C   UNL A   1      45.112  29.283  29.888  1.00  0.00     0.037 A 
BRANCH  24  38
ATOM     38  C   UNL A   1      42.460  27.716  34.356  1.00  0.00     0.064 A 
ATOM     39  C   UNL A   1      42.989  26.488  33.906  1.00  0.00     0.173 A 
ATOM     40  C   UNL A   1      41.867  27.689  35.636  1.00  0.00     0.173 A 
ATOM     41  F   UNL A   1      43.565  26.392  32.698  1.00  0.00    -0.203 F 
ATOM     42  C   UNL A   1      42.842  25.307  34.640  1.00  0.00     0.198 A 
ATOM     43  C   UNL A   1      41.770  26.520  36.388  1.00  0.00     0.198 A 
ATOM     44  F   UNL A   1      41.253  28.757  36.160  1.00  0.00    -0.203 F 
ATOM     45  F   UNL A   1      43.235  24.140  34.109  1.00  0.00    -0.200 F 
ATOM     46  C   UNL A   1      42.224  25.322  35.876  1.00  0.00     0.200 A 
ATOM     47  F   UNL A   1      41.149  26.551  37.576  1.00  0.00    -0.200 F 
ATOM     48  F   UNL A   1      42.018  24.184  36.550  1.00  0.00    -0.200 F 
ENDBRANCH  24  38
BRANCH  25  49
ATOM     49  C   UNL A   1      43.292  25.071  26.195  1.00  0.00     0.064 A 
ATOM     50  C   UNL A   1      44.274  24.828  25.218  1.00  0.00     0.173 A 
ATOM     51  C   UNL A   1      42.538  23.955  26.607  1.00  0.00     0.173 A 
ATOM     52  F   UNL A   1      45.074  25.822  24.803  1.00  0.00    -0.203 F 
ATOM     53  C   UNL A   1      44.503  23.544  24.706  1.00  0.00     0.198 A 
ATOM     54  C   UNL A   1      42.763  22.677  26.093  1.00  0.00     0.198 A 
ATOM     55  F   UNL A   1      41.635  24.065  27.592  1.00  0.00    -0.203 F 
ATOM     56  F   UNL A   1      45.492  23.341  23.822  1.00  0.00    -0.200 F 
ATOM     57  C   UNL A   1      43.755  22.469  25.151  1.00  0.00     0.200 A 
ATOM     58  F   UNL A   1      42.060  21.638  26.564  1.00  0.00    -0.200 F 
ATOM     59  F   UNL A   1      44.015  21.229  24.711  1.00  0.00    -0.200 F 
ENDBRANCH  25  49
BRANCH  37  60
ATOM     60  C   UNL A   1      45.581  30.273  28.861  1.00  0.00     0.064 A 
ATOM     61  C   UNL A   1      44.730  30.961  27.979  1.00  0.00     0.173 A 
ATOM     62  C   UNL A   1      46.933  30.640  28.873  1.00  0.00     0.173 A 
ATOM     63  F   UNL A   1      43.410  30.740  27.977  1.00  0.00    -0.203 F 
ATOM     64  C   UNL A   1      45.223  31.944  27.121  1.00  0.00     0.198 A 
ATOM     65  C   UNL A   1      47.414  31.647  28.042  1.00  0.00     0.198 A 
ATOM     66  F   UNL A   1      47.780  30.054  29.734  1.00  0.00    -0.203 F 
ATOM     67  F   UNL A   1      44.393  32.581  26.282  1.00  0.00    -0.200 F 
ATOM     68  C   UNL A   1      46.563  32.290  27.160  1.00  0.00     0.200 A 
ATOM     69  F   UNL A   1      48.701  32.015  28.122  1.00  0.00    -0.200 F 
ATOM     70  F   UNL A   1      47.029  33.266  26.367  1.00  0.00    -0.200 F 
ENDBRANCH  37  60
ENDBRANCH  11  12
ENDBRANCH   4   6
ENDBRANCH   1   2
BRANCH   1  71
ATOM     71  C   UNL A   1      34.443  33.810  30.995  1.00  0.00     0.042 C 
BRANCH  71  72
ATOM     72  C   UNL A   1      35.503  33.224  31.927  1.00  0.00     0.118 C 
BRANCH  72  73
ATOM     73  N   UNL A   1      35.529  31.770  31.899  1.00  0.00    -0.352 N 
ATOM     74  C   UNL A   1      36.493  30.895  32.326  1.00  0.00     0.251 C 
ATOM     75  H   UNL A   1      34.727  31.349  31.514  1.00  0.00     0.163 HD
ATOM     76  O   UNL A   1      36.421  29.707  32.043  1.00  0.00    -0.269 OA
BRANCH  74  77
ATOM     77  C   UNL A   1      37.646  31.373  33.112  1.00  0.00     0.045 A 
ATOM     78  C   UNL A   1      38.796  31.846  32.486  1.00  0.00     0.034 A 
ATOM     79  C   UNL A   1      37.512  31.438  34.499  1.00  0.00     0.063 A 
ATOM     80  C   UNL A   1      39.795  32.351  33.290  1.00  0.00     0.114 A 
ATOM     81  C   UNL A   1      38.567  31.971  35.229  1.00  0.00     0.157 A 
ATOM     82  N   UNL A   1      39.700  32.431  34.634  1.00  0.00    -0.237 NA
BRANCH  81  83
ATOM     83  N   UNL A   1      38.470  32.049  36.642  1.00  0.00    -0.182 N 
ATOM     84  C   UNL A   1      39.080  32.927  37.501  1.00  0.00     0.254 A 
ATOM     85  N   UNL A   1      37.696  31.218  37.375  1.00  0.00    -0.039 NA
ATOM     86  N   UNL A   1      38.760  32.619  38.737  1.00  0.00    -0.117 NA
ATOM     87  N   UNL A   1      37.913  31.545  38.641  1.00  0.00    -0.024 NA
ENDBRANCH  81  83
ENDBRANCH  74  77
ENDBRANCH  72  73
ENDBRANCH  71  72
ENDBRANCH   1  71
TORSDOF 11
ENDMDL
