MODEL 1
REMARK VINA RESULT:     -13.5      0.000      0.000
REMARK SMILES CC(=O)n1cc2c3c(cccc31)C(=O)C[C@@H]2C(=O)NCCCNC(=O)c1ccc(-c2c3nc(c(-c4c(F)c(F)c(F)c(F)c4F)c4ccc([nH]4)c(-c4c(F)c(F)c(F)c(F)c4F)c4nc(c(-c5c(F)c(F)c(F)c(F)c5F)c5ccc2[nH]5)C=C4)C=C3)cc1
REMARK SMILES IDX 21 1 20 2 19 3 17 4 18 5 16 7 4 8 5 9 12 10 6 11 7 12 11 13
REMARK SMILES IDX 8 14 10 15 15 16 9 17 13 18 14 19 2 20 1 21 3 22 22 23 23 24
REMARK SMILES IDX 24 25 25 27 26 28 27 29 88 30 28 31 87 32 29 33 30 34 31 35
REMARK SMILES IDX 81 36 32 37 86 38 80 39 82 40 33 41 85 42 79 43 78 44 34 46
REMARK SMILES IDX 66 47 46 48 65 49 47 50 50 51 64 52 83 53 48 54 49 55 63 57
REMARK SMILES IDX 84 58 51 59 35 60 36 61 44 62 37 63 38 64 42 65 45 66 39 67
REMARK SMILES IDX 40 68 43 69 41 70 67 71 68 72 76 73 69 74 70 75 74 76 77 77
REMARK SMILES IDX 71 78 72 79 75 80 73 81 52 82 53 83 61 84 54 85 55 86 59 87
REMARK SMILES IDX 62 88 56 89 57 90 60 91 58 92
REMARK H PARENT 19 6 23 26 82 45 50 56
REMARK Flexibility Score: inf
ROOT
ATOM      1  C   UNL A   1      33.725  30.274  27.329  1.00  0.00     0.042 C 
ENDROOT
BRANCH   1   2
ATOM      2  C   UNL A   1      34.284  28.892  27.009  1.00  0.00     0.117 C 
BRANCH   2   3
ATOM      3  N   UNL A   1      34.061  28.473  25.630  1.00  0.00    -0.355 N 
ATOM      4  C   UNL A   1      33.589  27.291  25.129  1.00  0.00     0.228 C 
ATOM      5  O   UNL A   1      33.428  27.212  23.907  1.00  0.00    -0.274 OA
ATOM      6  H   UNL A   1      34.287  29.149  24.951  1.00  0.00     0.163 HD
BRANCH   4   7
ATOM      7  C   UNL A   1      33.304  26.089  26.034  1.00  0.00     0.118 C 
ATOM      8  N   UNL A   1      35.275  23.313  24.485  1.00  0.00    -0.287 N 
ATOM      9  C   UNL A   1      35.240  24.604  25.020  1.00  0.00     0.100 A 
ATOM     10  C   UNL A   1      34.042  22.709  24.765  1.00  0.00     0.057 A 
ATOM     11  C   UNL A   1      33.984  24.850  25.530  1.00  0.00    -0.008 A 
ATOM     12  C   UNL A   1      33.271  23.648  25.431  1.00  0.00     0.015 A 
ATOM     13  C   UNL A   1      33.513  21.434  24.496  1.00  0.00     0.027 A 
ATOM     14  C   UNL A   1      31.958  23.376  25.814  1.00  0.00     0.027 A 
ATOM     15  C   UNL A   1      32.202  21.155  24.925  1.00  0.00     0.003 A 
ATOM     16  C   UNL A   1      31.770  25.925  26.196  1.00  0.00     0.099 C 
ATOM     17  C   UNL A   1      31.424  22.112  25.582  1.00  0.00     0.012 A 
ATOM     18  C   UNL A   1      31.213  24.512  26.400  1.00  0.00     0.164 C 
ATOM     19  O   UNL A   1      30.126  24.317  26.935  1.00  0.00    -0.294 OA
BRANCH   8  20
ATOM     20  C   UNL A   1      36.333  22.726  23.755  1.00  0.00     0.227 C 
ATOM     21  C   UNL A   1      37.184  21.759  24.525  1.00  0.00     0.115 C 
ATOM     22  O   UNL A   1      36.491  22.993  22.577  1.00  0.00    -0.274 OA
ENDBRANCH   8  20
ENDBRANCH   4   7
ENDBRANCH   2   3
ENDBRANCH   1   2
BRANCH   1  23
ATOM     23  C   UNL A   1      34.828  31.259  27.623  1.00  0.00     0.118 C 
BRANCH  23  24
ATOM     24  N   UNL A   1      34.647  31.961  28.897  1.00  0.00    -0.352 N 
ATOM     25  C   UNL A   1      35.382  31.802  30.055  1.00  0.00     0.251 C 
ATOM     26  H   UNL A   1      33.917  32.621  28.930  1.00  0.00     0.163 HD
ATOM     27  O   UNL A   1      34.979  32.218  31.132  1.00  0.00    -0.269 OA
BRANCH  25  28
ATOM     28  C   UNL A   1      36.681  31.123  29.950  1.00  0.00     0.039 A 
ATOM     29  C   UNL A   1      37.870  31.824  29.751  1.00  0.00     0.014 A 
ATOM     30  C   UNL A   1      36.680  29.738  30.105  1.00  0.00     0.014 A 
ATOM     31  C   UNL A   1      39.060  31.106  29.744  1.00  0.00     0.010 A 
ATOM     32  C   UNL A   1      37.849  29.079  30.338  1.00  0.00     0.010 A 
ATOM     33  C   UNL A   1      39.027  29.734  30.038  1.00  0.00    -0.014 A 
BRANCH  33  34
ATOM     34  C   UNL A   1      40.231  28.929  30.053  1.00  0.00     0.031 A 
ATOM     35  C   UNL A   1      40.795  28.726  31.401  1.00  0.00     0.074 A 
ATOM     36  C   UNL A   1      40.665  28.271  28.956  1.00  0.00     0.049 A 
ATOM     37  N   UNL A   1      41.840  29.298  31.896  1.00  0.00    -0.248 NA
ATOM     38  C   UNL A   1      40.035  27.925  32.374  1.00  0.00     0.031 C 
ATOM     39  C   UNL A   1      39.978  28.098  27.665  1.00  0.00     0.029 A 
ATOM     40  N   UNL A   1      41.799  27.537  28.789  1.00  0.00    -0.354 N 
ATOM     41  C   UNL A   1      42.011  28.733  33.154  1.00  0.00     0.074 A 
ATOM     42  C   UNL A   1      40.775  28.071  33.477  1.00  0.00     0.031 C 
ATOM     43  C   UNL A   1      40.595  27.137  26.943  1.00  0.00     0.029 A 
ATOM     44  C   UNL A   1      41.822  26.777  27.624  1.00  0.00     0.049 A 
ATOM     45  H   UNL A   1      42.540  27.544  29.438  1.00  0.00     0.167 HD
ATOM     46  C   UNL A   1      43.263  28.596  33.671  1.00  0.00     0.037 A 
ATOM     47  C   UNL A   1      42.798  25.916  27.256  1.00  0.00     0.037 A 
ATOM     48  C   UNL A   1      44.226  29.314  32.876  1.00  0.00     0.049 A 
ATOM     49  C   UNL A   1      44.027  26.324  27.976  1.00  0.00     0.074 A 
ATOM     50  C   UNL A   1      44.660  30.616  32.760  1.00  0.00     0.029 A 
ATOM     51  N   UNL A   1      44.578  28.663  31.723  1.00  0.00    -0.354 N 
ATOM     52  N   UNL A   1      44.631  27.463  27.774  1.00  0.00    -0.248 NA
ATOM     53  C   UNL A   1      44.401  25.623  29.200  1.00  0.00     0.031 C 
ATOM     54  C   UNL A   1      45.180  30.751  31.435  1.00  0.00     0.029 A 
ATOM     55  C   UNL A   1      45.093  29.522  30.790  1.00  0.00     0.049 A 
ATOM     56  H   UNL A   1      44.473  27.694  31.584  1.00  0.00     0.167 HD
ATOM     57  C   UNL A   1      45.132  27.805  29.013  1.00  0.00     0.074 A 
ATOM     58  C   UNL A   1      45.118  26.578  29.796  1.00  0.00     0.031 C 
ATOM     59  C   UNL A   1      45.191  29.108  29.409  1.00  0.00     0.037 A 
BRANCH  46  60
ATOM     60  C   UNL A   1      43.703  27.468  34.570  1.00  0.00     0.064 A 
ATOM     61  C   UNL A   1      43.778  26.160  34.052  1.00  0.00     0.173 A 
ATOM     62  C   UNL A   1      43.771  27.573  35.975  1.00  0.00     0.173 A 
ATOM     63  F   UNL A   1      43.676  25.944  32.732  1.00  0.00    -0.203 F 
ATOM     64  C   UNL A   1      43.887  25.042  34.885  1.00  0.00     0.198 A 
ATOM     65  C   UNL A   1      43.934  26.461  36.799  1.00  0.00     0.198 A 
ATOM     66  F   UNL A   1      43.567  28.734  36.609  1.00  0.00    -0.203 F 
ATOM     67  F   UNL A   1      43.856  23.811  34.357  1.00  0.00    -0.200 F 
ATOM     68  C   UNL A   1      43.970  25.194  36.257  1.00  0.00     0.200 A 
ATOM     69  F   UNL A   1      43.981  26.628  38.129  1.00  0.00    -0.200 F 
ATOM     70  F   UNL A   1      44.035  24.124  37.060  1.00  0.00    -0.200 F 
ENDBRANCH  46  60
BRANCH  47  71
ATOM     71  C   UNL A   1      42.662  24.579  26.634  1.00  0.00     0.064 A 
ATOM     72  C   UNL A   1      43.267  24.311  25.394  1.00  0.00     0.173 A 
ATOM     73  C   UNL A   1      42.249  23.466  27.388  1.00  0.00     0.173 A 
ATOM     74  F   UNL A   1      43.706  25.321  24.628  1.00  0.00    -0.203 F 
ATOM     75  C   UNL A   1      43.517  23.003  24.970  1.00  0.00     0.198 A 
ATOM     76  C   UNL A   1      42.499  22.160  26.962  1.00  0.00     0.198 A 
ATOM     77  F   UNL A   1      41.701  23.624  28.602  1.00  0.00    -0.203 F 
ATOM     78  F   UNL A   1      44.180  22.788  23.825  1.00  0.00    -0.200 F 
ATOM     79  C   UNL A   1      43.154  21.929  25.765  1.00  0.00     0.200 A 
ATOM     80  F   UNL A   1      42.173  21.129  27.755  1.00  0.00    -0.200 F 
ATOM     81  F   UNL A   1      43.476  20.680  25.404  1.00  0.00    -0.200 F 
ENDBRANCH  47  71
BRANCH  59  82
ATOM     82  C   UNL A   1      45.211  30.157  28.342  1.00  0.00     0.064 A 
ATOM     83  C   UNL A   1      44.078  30.831  27.862  1.00  0.00     0.173 A 
ATOM     84  C   UNL A   1      46.458  30.542  27.834  1.00  0.00     0.173 A 
ATOM     85  F   UNL A   1      42.859  30.562  28.345  1.00  0.00    -0.203 F 
ATOM     86  C   UNL A   1      44.191  31.829  26.893  1.00  0.00     0.198 A 
ATOM     87  C   UNL A   1      46.572  31.559  26.892  1.00  0.00     0.198 A 
ATOM     88  F   UNL A   1      47.576  29.951  28.283  1.00  0.00    -0.203 F 
ATOM     89  F   UNL A   1      43.095  32.454  26.437  1.00  0.00    -0.200 F 
ATOM     90  C   UNL A   1      45.440  32.197  26.415  1.00  0.00     0.200 A 
ATOM     91  F   UNL A   1      47.785  31.932  26.461  1.00  0.00    -0.200 F 
ATOM     92  F   UNL A   1      45.553  33.178  25.510  1.00  0.00    -0.200 F 
ENDBRANCH  59  82
ENDBRANCH  33  34
ENDBRANCH  25  28
ENDBRANCH  23  24
ENDBRANCH   1  23
TORSDOF 11
ENDMDL
MODEL 2
REMARK VINA RESULT:     -13.4      3.169      8.874
REMARK SMILES CC(=O)n1cc2c3c(cccc31)C(=O)C[C@@H]2C(=O)NCCCNC(=O)c1ccc(-c2c3nc(c(-c4c(F)c(F)c(F)c(F)c4F)c4ccc([nH]4)c(-c4c(F)c(F)c(F)c(F)c4F)c4nc(c(-c5c(F)c(F)c(F)c(F)c5F)c5ccc2[nH]5)C=C4)C=C3)cc1
REMARK SMILES IDX 21 1 20 2 19 3 17 4 18 5 16 7 4 8 5 9 12 10 6 11 7 12 11 13
REMARK SMILES IDX 8 14 10 15 15 16 9 17 13 18 14 19 2 20 1 21 3 22 22 23 23 24
REMARK SMILES IDX 24 25 25 27 26 28 27 29 88 30 28 31 87 32 29 33 30 34 31 35
REMARK SMILES IDX 81 36 32 37 86 38 80 39 82 40 33 41 85 42 79 43 78 44 34 46
REMARK SMILES IDX 66 47 46 48 65 49 47 50 50 51 64 52 83 53 48 54 49 55 63 57
REMARK SMILES IDX 84 58 51 59 35 60 36 61 44 62 37 63 38 64 42 65 45 66 39 67
REMARK SMILES IDX 40 68 43 69 41 70 67 71 68 72 76 73 69 74 70 75 74 76 77 77
REMARK SMILES IDX 71 78 72 79 75 80 73 81 52 82 53 83 61 84 54 85 55 86 59 87
REMARK SMILES IDX 62 88 56 89 57 90 60 91 58 92
REMARK H PARENT 19 6 23 26 82 45 50 56
REMARK Flexibility Score: inf
ROOT
ATOM      1  C   UNL A   1      38.300  22.501  25.739  1.00  0.00     0.042 C 
ENDROOT
BRANCH   1   2
ATOM      2  C   UNL A   1      37.400  23.726  25.856  1.00  0.00     0.117 C 
BRANCH   2   3
ATOM      3  N   UNL A   1      36.057  23.423  26.338  1.00  0.00    -0.355 N 
ATOM      4  C   UNL A   1      34.836  23.823  25.868  1.00  0.00     0.228 C 
ATOM      5  O   UNL A   1      33.832  23.366  26.423  1.00  0.00    -0.274 OA
ATOM      6  H   UNL A   1      36.024  22.838  27.129  1.00  0.00     0.163 HD
BRANCH   4   7
ATOM      7  C   UNL A   1      34.705  24.831  24.722  1.00  0.00     0.118 C 
ATOM      8  N   UNL A   1      32.436  27.465  26.100  1.00  0.00    -0.287 N 
ATOM      9  C   UNL A   1      33.603  26.706  26.222  1.00  0.00     0.100 A 
ATOM     10  C   UNL A   1      31.930  27.254  24.812  1.00  0.00     0.057 A 
ATOM     11  C   UNL A   1      33.775  25.951  25.083  1.00  0.00    -0.008 A 
ATOM     12  C   UNL A   1      32.774  26.349  24.186  1.00  0.00     0.015 A 
ATOM     13  C   UNL A   1      30.811  27.755  24.123  1.00  0.00     0.027 A 
ATOM     14  C   UNL A   1      32.522  25.887  22.895  1.00  0.00     0.027 A 
ATOM     15  C   UNL A   1      30.589  27.315  22.805  1.00  0.00     0.003 A 
ATOM     16  C   UNL A   1      34.291  24.081  23.429  1.00  0.00     0.099 C 
ATOM     17  C   UNL A   1      31.435  26.391  22.187  1.00  0.00     0.012 A 
ATOM     18  C   UNL A   1      33.432  24.830  22.404  1.00  0.00     0.164 C 
ATOM     19  O   UNL A   1      33.404  24.502  21.221  1.00  0.00    -0.294 OA
BRANCH   8  20
ATOM     20  C   UNL A   1      31.838  28.268  27.099  1.00  0.00     0.227 C 
ATOM     21  C   UNL A   1      32.132  29.736  27.002  1.00  0.00     0.115 C 
ATOM     22  O   UNL A   1      31.120  27.766  27.944  1.00  0.00    -0.274 OA
ENDBRANCH   8  20
ENDBRANCH   4   7
ENDBRANCH   2   3
ENDBRANCH   1   2
BRANCH   1  23
ATOM     23  C   UNL A   1      39.341  22.477  26.830  1.00  0.00     0.118 C 
BRANCH  23  24
ATOM     24  N   UNL A   1      40.700  22.268  26.324  1.00  0.00    -0.352 N 
ATOM     25  C   UNL A   1      41.701  23.209  26.192  1.00  0.00     0.251 C 
ATOM     26  H   UNL A   1      40.924  21.350  26.046  1.00  0.00     0.163 HD
ATOM     27  O   UNL A   1      42.690  23.001  25.504  1.00  0.00    -0.269 OA
BRANCH  25  28
ATOM     28  C   UNL A   1      41.545  24.477  26.920  1.00  0.00     0.039 A 
ATOM     29  C   UNL A   1      42.095  24.676  28.186  1.00  0.00     0.014 A 
ATOM     30  C   UNL A   1      40.855  25.496  26.266  1.00  0.00     0.014 A 
ATOM     31  C   UNL A   1      41.966  25.933  28.765  1.00  0.00     0.010 A 
ATOM     32  C   UNL A   1      40.940  26.775  26.724  1.00  0.00     0.010 A 
ATOM     33  C   UNL A   1      41.383  26.968  28.018  1.00  0.00    -0.014 A 
BRANCH  33  34
ATOM     34  C   UNL A   1      41.222  28.302  28.560  1.00  0.00     0.031 A 
ATOM     35  C   UNL A   1      42.247  29.259  28.099  1.00  0.00     0.074 A 
ATOM     36  C   UNL A   1      40.122  28.664  29.255  1.00  0.00     0.049 A 
ATOM     37  N   UNL A   1      43.247  29.707  28.779  1.00  0.00    -0.248 NA
ATOM     38  C   UNL A   1      42.267  29.647  26.680  1.00  0.00     0.031 C 
ATOM     39  C   UNL A   1      38.876  27.905  29.449  1.00  0.00     0.029 A 
ATOM     40  N   UNL A   1      39.852  29.843  29.880  1.00  0.00    -0.354 N 
ATOM     41  C   UNL A   1      43.876  30.628  27.951  1.00  0.00     0.074 A 
ATOM     42  C   UNL A   1      43.373  30.395  26.623  1.00  0.00     0.031 C 
ATOM     43  C   UNL A   1      37.915  28.719  29.940  1.00  0.00     0.029 A 
ATOM     44  C   UNL A   1      38.528  29.986  30.282  1.00  0.00     0.049 A 
ATOM     45  H   UNL A   1      40.537  30.534  30.035  1.00  0.00     0.167 HD
ATOM     46  C   UNL A   1      44.512  31.704  28.492  1.00  0.00     0.037 A 
ATOM     47  C   UNL A   1      37.989  31.083  30.862  1.00  0.00     0.037 A 
ATOM     48  C   UNL A   1      44.626  31.563  29.921  1.00  0.00     0.049 A 
ATOM     49  C   UNL A   1      39.105  31.837  31.479  1.00  0.00     0.074 A 
ATOM     50  C   UNL A   1      45.460  30.911  30.802  1.00  0.00     0.029 A 
ATOM     51  N   UNL A   1      43.467  31.850  30.593  1.00  0.00    -0.354 N 
ATOM     52  N   UNL A   1      39.820  31.377  32.469  1.00  0.00    -0.248 NA
ATOM     53  C   UNL A   1      39.678  32.972  30.763  1.00  0.00     0.031 C 
ATOM     54  C   UNL A   1      44.703  30.707  31.998  1.00  0.00     0.029 A 
ATOM     55  C   UNL A   1      43.445  31.277  31.837  1.00  0.00     0.049 A 
ATOM     56  H   UNL A   1      42.738  32.400  30.225  1.00  0.00     0.167 HD
ATOM     57  C   UNL A   1      41.083  31.882  32.238  1.00  0.00     0.074 A 
ATOM     58  C   UNL A   1      40.902  32.979  31.297  1.00  0.00     0.031 C 
ATOM     59  C   UNL A   1      42.195  31.159  32.552  1.00  0.00     0.037 A 
BRANCH  46  60
ATOM     60  C   UNL A   1      44.600  33.064  27.848  1.00  0.00     0.064 A 
ATOM     61  C   UNL A   1      45.813  33.474  27.261  1.00  0.00     0.173 A 
ATOM     62  C   UNL A   1      43.641  34.081  28.040  1.00  0.00     0.173 A 
ATOM     63  F   UNL A   1      46.811  32.595  27.077  1.00  0.00    -0.203 F 
ATOM     64  C   UNL A   1      46.054  34.808  26.918  1.00  0.00     0.198 A 
ATOM     65  C   UNL A   1      43.864  35.400  27.647  1.00  0.00     0.198 A 
ATOM     66  F   UNL A   1      42.507  33.866  28.717  1.00  0.00    -0.203 F 
ATOM     67  F   UNL A   1      47.257  35.171  26.453  1.00  0.00    -0.200 F 
ATOM     68  C   UNL A   1      45.076  35.768  27.107  1.00  0.00     0.200 A 
ATOM     69  F   UNL A   1      42.915  36.321  27.869  1.00  0.00    -0.200 F 
ATOM     70  F   UNL A   1      45.317  37.054  26.815  1.00  0.00    -0.200 F 
ENDBRANCH  46  60
BRANCH  47  71
ATOM     71  C   UNL A   1      36.667  31.703  30.611  1.00  0.00     0.064 A 
ATOM     72  C   UNL A   1      35.804  31.985  31.683  1.00  0.00     0.173 A 
ATOM     73  C   UNL A   1      36.384  32.338  29.389  1.00  0.00     0.173 A 
ATOM     74  F   UNL A   1      36.023  31.433  32.886  1.00  0.00    -0.203 F 
ATOM     75  C   UNL A   1      34.764  32.911  31.560  1.00  0.00     0.198 A 
ATOM     76  C   UNL A   1      35.344  33.262  29.268  1.00  0.00     0.198 A 
ATOM     77  F   UNL A   1      37.179  32.161  28.323  1.00  0.00    -0.203 F 
ATOM     78  F   UNL A   1      34.019  33.224  32.630  1.00  0.00    -0.200 F 
ATOM     79  C   UNL A   1      34.550  33.566  30.359  1.00  0.00     0.200 A 
ATOM     80  F   UNL A   1      35.168  33.914  28.110  1.00  0.00    -0.200 F 
ATOM     81  F   UNL A   1      33.615  34.521  30.266  1.00  0.00    -0.200 F 
ENDBRANCH  47  71
BRANCH  59  82
ATOM     82  C   UNL A   1      42.058  30.093  33.592  1.00  0.00     0.064 A 
ATOM     83  C   UNL A   1      41.761  28.748  33.325  1.00  0.00     0.173 A 
ATOM     84  C   UNL A   1      42.310  30.449  34.923  1.00  0.00     0.173 A 
ATOM     85  F   UNL A   1      41.570  28.320  32.071  1.00  0.00    -0.203 F 
ATOM     86  C   UNL A   1      41.694  27.807  34.354  1.00  0.00     0.198 A 
ATOM     87  C   UNL A   1      42.274  29.504  35.943  1.00  0.00     0.198 A 
ATOM     88  F   UNL A   1      42.629  31.716  35.229  1.00  0.00    -0.203 F 
ATOM     89  F   UNL A   1      41.396  26.528  34.080  1.00  0.00    -0.200 F 
ATOM     90  C   UNL A   1      41.958  28.186  35.661  1.00  0.00     0.200 A 
ATOM     91  F   UNL A   1      42.565  29.871  37.199  1.00  0.00    -0.200 F 
ATOM     92  F   UNL A   1      41.927  27.278  36.646  1.00  0.00    -0.200 F 
ENDBRANCH  59  82
ENDBRANCH  33  34
ENDBRANCH  25  28
ENDBRANCH  23  24
ENDBRANCH   1  23
TORSDOF 11
ENDMDL
MODEL 3
REMARK VINA RESULT:     -13.2      1.677      2.710
REMARK SMILES CC(=O)n1cc2c3c(cccc31)C(=O)C[C@@H]2C(=O)NCCCNC(=O)c1ccc(-c2c3nc(c(-c4c(F)c(F)c(F)c(F)c4F)c4ccc([nH]4)c(-c4c(F)c(F)c(F)c(F)c4F)c4nc(c(-c5c(F)c(F)c(F)c(F)c5F)c5ccc2[nH]5)C=C4)C=C3)cc1
REMARK SMILES IDX 21 1 20 2 19 3 17 4 18 5 16 7 4 8 5 9 12 10 6 11 7 12 11 13
REMARK SMILES IDX 8 14 10 15 15 16 9 17 13 18 14 19 2 20 1 21 3 22 22 23 23 24
REMARK SMILES IDX 24 25 25 27 26 28 27 29 88 30 28 31 87 32 29 33 30 34 31 35
REMARK SMILES IDX 81 36 32 37 86 38 80 39 82 40 33 41 85 42 79 43 78 44 34 46
REMARK SMILES IDX 66 47 46 48 65 49 47 50 50 51 64 52 83 53 48 54 49 55 63 57
REMARK SMILES IDX 84 58 51 59 35 60 36 61 44 62 37 63 38 64 42 65 45 66 39 67
REMARK SMILES IDX 40 68 43 69 41 70 67 71 68 72 76 73 69 74 70 75 74 76 77 77
REMARK SMILES IDX 71 78 72 79 75 80 73 81 52 82 53 83 61 84 54 85 55 86 59 87
REMARK SMILES IDX 62 88 56 89 57 90 60 91 58 92
REMARK H PARENT 19 6 23 26 82 45 50 56
REMARK Flexibility Score: inf
ROOT
ATOM      1  C   UNL A   1      34.615  30.733  27.617  1.00  0.00     0.042 C 
ENDROOT
BRANCH   1   2
ATOM      2  C   UNL A   1      33.133  30.823  27.271  1.00  0.00     0.117 C 
BRANCH   2   3
ATOM      3  N   UNL A   1      32.372  29.632  27.631  1.00  0.00    -0.355 N 
ATOM      4  C   UNL A   1      32.395  28.372  27.099  1.00  0.00     0.228 C 
ATOM      5  O   UNL A   1      31.691  27.512  27.636  1.00  0.00    -0.274 OA
ATOM      6  H   UNL A   1      31.741  29.755  28.376  1.00  0.00     0.163 HD
BRANCH   4   7
ATOM      7  C   UNL A   1      33.229  28.038  25.858  1.00  0.00     0.118 C 
ATOM      8  N   UNL A   1      30.853  28.558  23.017  1.00  0.00    -0.287 N 
ATOM      9  C   UNL A   1      31.485  29.061  24.157  1.00  0.00     0.100 A 
ATOM     10  C   UNL A   1      31.477  27.348  22.690  1.00  0.00     0.057 A 
ATOM     11  C   UNL A   1      32.411  28.145  24.604  1.00  0.00    -0.008 A 
ATOM     12  C   UNL A   1      32.450  27.119  23.651  1.00  0.00     0.015 A 
ATOM     13  C   UNL A   1      31.288  26.417  21.653  1.00  0.00     0.027 A 
ATOM     14  C   UNL A   1      33.228  25.962  23.641  1.00  0.00     0.027 A 
ATOM     15  C   UNL A   1      32.108  25.273  21.628  1.00  0.00     0.003 A 
ATOM     16  C   UNL A   1      33.886  26.645  26.046  1.00  0.00     0.099 C 
ATOM     17  C   UNL A   1      33.075  25.042  22.609  1.00  0.00     0.012 A 
ATOM     18  C   UNL A   1      34.135  25.791  24.798  1.00  0.00     0.164 C 
ATOM     19  O   UNL A   1      34.986  24.907  24.778  1.00  0.00    -0.294 OA
BRANCH   8  20
ATOM     20  C   UNL A   1      29.756  29.130  22.333  1.00  0.00     0.227 C 
ATOM     21  C   UNL A   1      28.406  28.805  22.902  1.00  0.00     0.115 C 
ATOM     22  O   UNL A   1      29.939  29.851  21.369  1.00  0.00    -0.274 OA
ENDBRANCH   8  20
ENDBRANCH   4   7
ENDBRANCH   2   3
ENDBRANCH   1   2
BRANCH   1  23
ATOM     23  C   UNL A   1      35.188  32.089  27.944  1.00  0.00     0.118 C 
BRANCH  23  24
ATOM     24  N   UNL A   1      34.933  32.502  29.326  1.00  0.00    -0.352 N 
ATOM     25  C   UNL A   1      35.568  32.055  30.468  1.00  0.00     0.251 C 
ATOM     26  H   UNL A   1      34.228  33.177  29.456  1.00  0.00     0.163 HD
ATOM     27  O   UNL A   1      35.096  32.244  31.580  1.00  0.00    -0.269 OA
BRANCH  25  28
ATOM     28  C   UNL A   1      36.845  31.346  30.304  1.00  0.00     0.039 A 
ATOM     29  C   UNL A   1      38.046  32.023  30.097  1.00  0.00     0.014 A 
ATOM     30  C   UNL A   1      36.811  29.957  30.411  1.00  0.00     0.014 A 
ATOM     31  C   UNL A   1      39.216  31.276  30.033  1.00  0.00     0.010 A 
ATOM     32  C   UNL A   1      37.967  29.261  30.588  1.00  0.00     0.010 A 
ATOM     33  C   UNL A   1      39.155  29.896  30.279  1.00  0.00    -0.014 A 
BRANCH  33  34
ATOM     34  C   UNL A   1      40.337  29.060  30.233  1.00  0.00     0.031 A 
ATOM     35  C   UNL A   1      40.936  28.801  31.557  1.00  0.00     0.074 A 
ATOM     36  C   UNL A   1      40.720  28.424  29.105  1.00  0.00     0.049 A 
ATOM     37  N   UNL A   1      42.010  29.331  32.036  1.00  0.00    -0.248 NA
ATOM     38  C   UNL A   1      40.185  27.991  32.529  1.00  0.00     0.031 C 
ATOM     39  C   UNL A   1      39.990  28.309  27.831  1.00  0.00     0.029 A 
ATOM     40  N   UNL A   1      41.829  27.667  28.881  1.00  0.00    -0.354 N 
ATOM     41  C   UNL A   1      42.204  28.725  33.271  1.00  0.00     0.074 A 
ATOM     42  C   UNL A   1      40.961  28.085  33.612  1.00  0.00     0.031 C 
ATOM     43  C   UNL A   1      40.559  27.354  27.062  1.00  0.00     0.029 A 
ATOM     44  C   UNL A   1      41.796  26.942  27.694  1.00  0.00     0.049 A 
ATOM     45  H   UNL A   1      42.589  27.635  29.507  1.00  0.00     0.167 HD
ATOM     46  C   UNL A   1      43.467  28.540  33.745  1.00  0.00     0.037 A 
ATOM     47  C   UNL A   1      42.738  26.068  27.271  1.00  0.00     0.037 A 
ATOM     48  C   UNL A   1      44.423  29.257  32.942  1.00  0.00     0.049 A 
ATOM     49  C   UNL A   1      43.998  26.423  27.964  1.00  0.00     0.074 A 
ATOM     50  C   UNL A   1      44.889  30.550  32.851  1.00  0.00     0.029 A 
ATOM     51  N   UNL A   1      44.723  28.632  31.760  1.00  0.00    -0.354 N 
ATOM     52  N   UNL A   1      44.626  27.551  27.777  1.00  0.00    -0.248 NA
ATOM     53  C   UNL A   1      44.390  25.675  29.155  1.00  0.00     0.031 C 
ATOM     54  C   UNL A   1      45.371  30.712  31.515  1.00  0.00     0.029 A 
ATOM     55  C   UNL A   1      45.233  29.505  30.837  1.00  0.00     0.049 A 
ATOM     56  H   UNL A   1      44.588  27.670  31.595  1.00  0.00     0.167 HD
ATOM     57  C   UNL A   1      45.173  27.843  29.010  1.00  0.00     0.074 A 
ATOM     58  C   UNL A   1      45.150  26.593  29.757  1.00  0.00     0.031 C 
ATOM     59  C   UNL A   1      45.278  29.131  29.442  1.00  0.00     0.037 A 
BRANCH  46  60
ATOM     60  C   UNL A   1      43.904  27.374  34.596  1.00  0.00     0.064 A 
ATOM     61  C   UNL A   1      43.919  26.080  34.041  1.00  0.00     0.173 A 
ATOM     62  C   UNL A   1      44.025  27.438  36.000  1.00  0.00     0.173 A 
ATOM     63  F   UNL A   1      43.763  25.904  32.719  1.00  0.00    -0.203 F 
ATOM     64  C   UNL A   1      44.023  24.936  34.838  1.00  0.00     0.198 A 
ATOM     65  C   UNL A   1      44.183  26.298  36.787  1.00  0.00     0.198 A 
ATOM     66  F   UNL A   1      43.880  28.585  36.673  1.00  0.00    -0.203 F 
ATOM     67  F   UNL A   1      43.935  23.722  34.278  1.00  0.00    -0.200 F 
ATOM     68  C   UNL A   1      44.160  25.047  36.210  1.00  0.00     0.200 A 
ATOM     69  F   UNL A   1      44.282  26.426  38.119  1.00  0.00    -0.200 F 
ATOM     70  F   UNL A   1      44.221  23.953  36.981  1.00  0.00    -0.200 F 
ENDBRANCH  46  60
BRANCH  47  71
ATOM     71  C   UNL A   1      42.547  24.755  26.614  1.00  0.00     0.064 A 
ATOM     72  C   UNL A   1      43.193  24.472  25.398  1.00  0.00     0.173 A 
ATOM     73  C   UNL A   1      42.031  23.656  27.324  1.00  0.00     0.173 A 
ATOM     74  F   UNL A   1      43.730  25.466  24.675  1.00  0.00    -0.203 F 
ATOM     75  C   UNL A   1      43.380  23.159  24.957  1.00  0.00     0.198 A 
ATOM     76  C   UNL A   1      42.217  22.345  26.882  1.00  0.00     0.198 A 
ATOM     77  F   UNL A   1      41.436  23.826  28.514  1.00  0.00    -0.203 F 
ATOM     78  F   UNL A   1      44.081  22.924  23.840  1.00  0.00    -0.200 F 
ATOM     79  C   UNL A   1      42.912  22.096  25.712  1.00  0.00     0.200 A 
ATOM     80  F   UNL A   1      41.790  21.323  27.636  1.00  0.00    -0.200 F 
ATOM     81  F   UNL A   1      43.172  20.835  25.338  1.00  0.00    -0.200 F 
ENDBRANCH  47  71
BRANCH  59  82
ATOM     82  C   UNL A   1      45.294  30.211  28.407  1.00  0.00     0.064 A 
ATOM     83  C   UNL A   1      44.167  30.937  27.991  1.00  0.00     0.173 A 
ATOM     84  C   UNL A   1      46.533  30.570  27.862  1.00  0.00     0.173 A 
ATOM     85  F   UNL A   1      42.959  30.694  28.514  1.00  0.00    -0.203 F 
ATOM     86  C   UNL A   1      44.278  31.961  27.049  1.00  0.00     0.198 A 
ATOM     87  C   UNL A   1      46.647  31.610  26.946  1.00  0.00     0.198 A 
ATOM     88  F   UNL A   1      47.646  29.928  28.249  1.00  0.00    -0.203 F 
ATOM     89  F   UNL A   1      43.187  32.635  26.654  1.00  0.00    -0.200 F 
ATOM     90  C   UNL A   1      45.519  32.300  26.533  1.00  0.00     0.200 A 
ATOM     91  F   UNL A   1      47.854  31.956  26.479  1.00  0.00    -0.200 F 
ATOM     92  F   UNL A   1      45.632  33.304  25.653  1.00  0.00    -0.200 F 
ENDBRANCH  59  82
ENDBRANCH  33  34
ENDBRANCH  25  28
ENDBRANCH  23  24
ENDBRANCH   1  23
TORSDOF 11
ENDMDL
