MODEL 1
REMARK VINA RESULT:     -12.7      0.000      0.000
REMARK SMILES COc1cccc(CSc2nc3ccccc3c(=O)n2CCC(=O)NCCCNC(=O)c2ccc(-c3c4nc(c(-c5c(F)c(F)c(F)c(F)c5F)c5ccc([nH]5)c(-c5c(F)c(F)c(F)c(F)c5F)c5nc(c(-c6c(F)c(F)c(F)c(F)c6F)c6ccc3[nH]6)C=C5)C=C4)cc2)c1
REMARK SMILES IDX 23 1 24 2 25 3 22 5 21 6 20 7 10 8 11 9 12 10 18 11 13 12
REMARK SMILES IDX 17 13 19 14 14 15 16 16 15 17 9 18 8 19 7 20 3 21 4 22 95 23
REMARK SMILES IDX 5 24 6 25 2 26 1 27 26 28 27 29 28 30 29 31 30 32 31 34
REMARK SMILES IDX 32 35 33 36 94 37 34 38 93 39 35 40 36 41 37 42 87 43 38 44
REMARK SMILES IDX 92 45 86 46 88 47 39 48 91 49 85 50 84 51 40 53 72 54 52 55
REMARK SMILES IDX 71 56 53 57 56 58 70 59 89 60 54 61 55 62 69 64 90 65 57 66
REMARK SMILES IDX 41 67 42 68 50 69 43 70 44 71 48 72 51 73 45 74 46 75 49 76
REMARK SMILES IDX 47 77 73 78 74 79 82 80 75 81 76 82 80 83 83 84 77 85 78 86
REMARK SMILES IDX 81 87 79 88 58 89 59 90 67 91 60 92 61 93 65 94 68 95 62 96
REMARK SMILES IDX 63 97 66 98 64 99
REMARK H PARENT 25 4 29 33 88 52 56 63
REMARK Flexibility Score: inf
ROOT
ATOM      1  C   UNL A   1      30.677  25.067  26.591  1.00  0.00     0.221 C 
ATOM      2  O   UNL A   1      29.565  24.618  26.876  1.00  0.00    -0.275 OA
ATOM      3  N   UNL A   1      30.897  26.399  26.779  1.00  0.00    -0.356 N 
ATOM      4  H   UNL A   1      30.120  26.903  27.113  1.00  0.00     0.163 HD
ENDROOT
BRANCH   1   5
ATOM      5  C   UNL A   1      31.765  24.146  26.070  1.00  0.00     0.122 C 
BRANCH   5   6
ATOM      6  C   UNL A   1      31.455  23.566  24.683  1.00  0.00     0.138 C 
BRANCH   6   7
ATOM      7  N   UNL A   1      32.632  23.157  23.917  1.00  0.00    -0.287 N 
ATOM      8  C   UNL A   1      33.296  23.888  22.950  1.00  0.00     0.171 A 
ATOM      9  N   UNL A   1      34.573  23.721  22.743  1.00  0.00    -0.224 NA
ATOM     10  C   UNL A   1      35.277  22.824  23.561  1.00  0.00     0.079 A 
ATOM     11  C   UNL A   1      33.158  21.904  24.281  1.00  0.00     0.262 A 
ATOM     12  C   UNL A   1      36.642  22.998  23.811  1.00  0.00     0.029 A 
ATOM     13  C   UNL A   1      34.624  21.791  24.209  1.00  0.00     0.066 A 
ATOM     14  O   UNL A   1      32.509  20.978  24.734  1.00  0.00    -0.269 OA
ATOM     15  C   UNL A   1      37.337  22.115  24.647  1.00  0.00     0.002 A 
ATOM     16  C   UNL A   1      35.317  20.840  24.968  1.00  0.00     0.016 A 
ATOM     17  C   UNL A   1      36.684  21.007  25.187  1.00  0.00     0.001 A 
BRANCH   8  18
ATOM     18  S   UNL A   1      32.650  25.238  22.028  1.00  0.00    -0.083 SA
BRANCH  18  19
ATOM     19  C   UNL A   1      32.394  26.744  22.974  1.00  0.00     0.113 C 
BRANCH  19  20
ATOM     20  C   UNL A   1      31.010  27.322  22.903  1.00  0.00    -0.034 A 
ATOM     21  C   UNL A   1      29.588  29.264  22.569  1.00  0.00     0.119 A 
ATOM     22  C   UNL A   1      28.527  28.557  23.132  1.00  0.00     0.046 A 
ATOM     23  C   UNL A   1      30.804  28.614  22.386  1.00  0.00     0.051 A 
ATOM     24  C   UNL A   1      28.675  27.216  23.496  1.00  0.00     0.004 A 
ATOM     25  C   UNL A   1      29.917  26.602  23.389  1.00  0.00     0.005 A 
BRANCH  21  26
ATOM     26  O   UNL A   1      29.330  30.573  22.275  1.00  0.00    -0.497 OA
ATOM     27  C   UNL A   1      28.435  30.842  21.200  1.00  0.00     0.278 C 
ENDBRANCH  21  26
ENDBRANCH  19  20
ENDBRANCH  18  19
ENDBRANCH   8  18
ENDBRANCH   6   7
ENDBRANCH   5   6
ENDBRANCH   1   5
BRANCH   3  28
ATOM     28  C   UNL A   1      32.100  27.197  26.565  1.00  0.00     0.117 C 
BRANCH  28  29
ATOM     29  C   UNL A   1      31.788  28.683  26.469  1.00  0.00     0.042 C 
BRANCH  29  30
ATOM     30  C   UNL A   1      32.803  29.567  25.750  1.00  0.00     0.118 C 
BRANCH  30  31
ATOM     31  N   UNL A   1      32.745  30.932  26.242  1.00  0.00    -0.352 N 
ATOM     32  C   UNL A   1      33.450  31.598  27.214  1.00  0.00     0.251 C 
ATOM     33  H   UNL A   1      32.068  31.488  25.791  1.00  0.00     0.163 HD
ATOM     34  O   UNL A   1      32.947  32.634  27.655  1.00  0.00    -0.269 OA
BRANCH  32  35
ATOM     35  C   UNL A   1      34.770  31.163  27.765  1.00  0.00     0.039 A 
ATOM     36  C   UNL A   1      34.875  29.832  28.204  1.00  0.00     0.014 A 
ATOM     37  C   UNL A   1      35.850  32.017  27.999  1.00  0.00     0.014 A 
ATOM     38  C   UNL A   1      36.022  29.369  28.868  1.00  0.00     0.010 A 
ATOM     39  C   UNL A   1      37.026  31.536  28.604  1.00  0.00     0.010 A 
ATOM     40  C   UNL A   1      37.118  30.218  29.077  1.00  0.00    -0.014 A 
BRANCH  40  41
ATOM     41  C   UNL A   1      38.314  29.755  29.847  1.00  0.00     0.031 A 
ATOM     42  C   UNL A   1      38.572  30.273  31.242  1.00  0.00     0.074 A 
ATOM     43  C   UNL A   1      39.184  28.876  29.307  1.00  0.00     0.049 A 
ATOM     44  N   UNL A   1      39.583  30.040  32.048  1.00  0.00    -0.248 NA
ATOM     45  C   UNL A   1      37.565  31.186  31.804  1.00  0.00     0.031 C 
ATOM     46  C   UNL A   1      39.074  28.289  27.973  1.00  0.00     0.029 A 
ATOM     47  N   UNL A   1      40.340  28.327  29.815  1.00  0.00    -0.354 N 
ATOM     48  C   UNL A   1      39.342  30.792  33.192  1.00  0.00     0.074 A 
ATOM     49  C   UNL A   1      38.113  31.519  32.964  1.00  0.00     0.031 C 
ATOM     50  C   UNL A   1      40.109  27.457  27.771  1.00  0.00     0.029 A 
ATOM     51  C   UNL A   1      40.983  27.483  28.941  1.00  0.00     0.049 A 
ATOM     52  H   UNL A   1      40.677  28.522  30.720  1.00  0.00     0.167 HD
ATOM     53  C   UNL A   1      40.065  30.860  34.338  1.00  0.00     0.037 A 
ATOM     54  C   UNL A   1      42.153  26.820  29.056  1.00  0.00     0.037 A 
ATOM     55  C   UNL A   1      41.276  30.119  34.585  1.00  0.00     0.049 A 
ATOM     56  C   UNL A   1      42.959  26.942  30.324  1.00  0.00     0.074 A 
ATOM     57  C   UNL A   1      42.050  30.090  35.733  1.00  0.00     0.029 A 
ATOM     58  N   UNL A   1      41.891  29.278  33.670  1.00  0.00    -0.354 N 
ATOM     59  N   UNL A   1      42.694  27.619  31.415  1.00  0.00    -0.248 NA
ATOM     60  C   UNL A   1      44.229  26.200  30.379  1.00  0.00     0.031 C 
ATOM     61  C   UNL A   1      43.163  29.279  35.494  1.00  0.00     0.029 A 
ATOM     62  C   UNL A   1      43.049  28.747  34.220  1.00  0.00     0.049 A 
ATOM     63  H   UNL A   1      41.556  29.086  32.765  1.00  0.00     0.167 HD
ATOM     64  C   UNL A   1      43.739  27.357  32.293  1.00  0.00     0.074 A 
ATOM     65  C   UNL A   1      44.640  26.450  31.615  1.00  0.00     0.031 C 
ATOM     66  C   UNL A   1      43.931  27.826  33.550  1.00  0.00     0.037 A 
BRANCH  53  67
ATOM     67  C   UNL A   1      39.576  31.779  35.424  1.00  0.00     0.064 A 
ATOM     68  C   UNL A   1      40.010  33.109  35.517  1.00  0.00     0.173 A 
ATOM     69  C   UNL A   1      38.615  31.339  36.348  1.00  0.00     0.173 A 
ATOM     70  F   UNL A   1      40.930  33.582  34.662  1.00  0.00    -0.203 F 
ATOM     71  C   UNL A   1      39.526  33.955  36.513  1.00  0.00     0.198 A 
ATOM     72  C   UNL A   1      38.108  32.196  37.322  1.00  0.00     0.198 A 
ATOM     73  F   UNL A   1      38.153  30.080  36.297  1.00  0.00    -0.203 F 
ATOM     74  F   UNL A   1      39.993  35.207  36.612  1.00  0.00    -0.200 F 
ATOM     75  C   UNL A   1      38.571  33.500  37.409  1.00  0.00     0.200 A 
ATOM     76  F   UNL A   1      37.171  31.761  38.174  1.00  0.00    -0.200 F 
ATOM     77  F   UNL A   1      38.098  34.318  38.359  1.00  0.00    -0.200 F 
ENDBRANCH  53  67
BRANCH  54  78
ATOM     78  C   UNL A   1      42.645  25.974  27.933  1.00  0.00     0.064 A 
ATOM     79  C   UNL A   1      42.280  24.624  27.830  1.00  0.00     0.173 A 
ATOM     80  C   UNL A   1      43.510  26.489  26.957  1.00  0.00     0.173 A 
ATOM     81  F   UNL A   1      41.476  24.075  28.754  1.00  0.00    -0.203 F 
ATOM     82  C   UNL A   1      42.781  23.816  26.811  1.00  0.00     0.198 A 
ATOM     83  C   UNL A   1      43.984  25.690  25.919  1.00  0.00     0.198 A 
ATOM     84  F   UNL A   1      43.895  27.773  27.009  1.00  0.00    -0.203 F 
ATOM     85  F   UNL A   1      42.462  22.516  26.772  1.00  0.00    -0.200 F 
ATOM     86  C   UNL A   1      43.628  24.352  25.852  1.00  0.00     0.200 A 
ATOM     87  F   UNL A   1      44.792  26.214  24.987  1.00  0.00    -0.200 F 
ATOM     88  F   UNL A   1      44.109  23.575  24.872  1.00  0.00    -0.200 F 
ENDBRANCH  54  78
BRANCH  66  89
ATOM     89  C   UNL A   1      45.127  27.327  34.309  1.00  0.00     0.064 A 
ATOM     90  C   UNL A   1      46.350  28.013  34.306  1.00  0.00     0.173 A 
ATOM     91  C   UNL A   1      45.029  26.170  35.101  1.00  0.00     0.173 A 
ATOM     92  F   UNL A   1      46.503  29.116  33.558  1.00  0.00    -0.203 F 
ATOM     93  C   UNL A   1      47.434  27.550  35.048  1.00  0.00     0.198 A 
ATOM     94  C   UNL A   1      46.103  25.729  35.867  1.00  0.00     0.198 A 
ATOM     95  F   UNL A   1      43.880  25.478  35.147  1.00  0.00    -0.203 F 
ATOM     96  F   UNL A   1      48.606  28.198  34.995  1.00  0.00    -0.200 F 
ATOM     97  C   UNL A   1      47.308  26.415  35.835  1.00  0.00     0.200 A 
ATOM     98  F   UNL A   1      45.973  24.641  36.639  1.00  0.00    -0.200 F 
ATOM     99  F   UNL A   1      48.347  25.979  36.559  1.00  0.00    -0.200 F 
ENDBRANCH  66  89
ENDBRANCH  40  41
ENDBRANCH  32  35
ENDBRANCH  30  31
ENDBRANCH  29  30
ENDBRANCH  28  29
ENDBRANCH   3  28
TORSDOF 16
ENDMDL
MODEL 2
REMARK VINA RESULT:     -12.6      4.773      8.736
REMARK SMILES COc1cccc(CSc2nc3ccccc3c(=O)n2CCC(=O)NCCCNC(=O)c2ccc(-c3c4nc(c(-c5c(F)c(F)c(F)c(F)c5F)c5ccc([nH]5)c(-c5c(F)c(F)c(F)c(F)c5F)c5nc(c(-c6c(F)c(F)c(F)c(F)c6F)c6ccc3[nH]6)C=C5)C=C4)cc2)c1
REMARK SMILES IDX 23 1 24 2 25 3 22 5 21 6 20 7 10 8 11 9 12 10 18 11 13 12
REMARK SMILES IDX 17 13 19 14 14 15 16 16 15 17 9 18 8 19 7 20 3 21 4 22 95 23
REMARK SMILES IDX 5 24 6 25 2 26 1 27 26 28 27 29 28 30 29 31 30 32 31 34
REMARK SMILES IDX 32 35 33 36 94 37 34 38 93 39 35 40 36 41 37 42 87 43 38 44
REMARK SMILES IDX 92 45 86 46 88 47 39 48 91 49 85 50 84 51 40 53 72 54 52 55
REMARK SMILES IDX 71 56 53 57 56 58 70 59 89 60 54 61 55 62 69 64 90 65 57 66
REMARK SMILES IDX 41 67 42 68 50 69 43 70 44 71 48 72 51 73 45 74 46 75 49 76
REMARK SMILES IDX 47 77 73 78 74 79 82 80 75 81 76 82 80 83 83 84 77 85 78 86
REMARK SMILES IDX 81 87 79 88 58 89 59 90 67 91 60 92 61 93 65 94 68 95 62 96
REMARK SMILES IDX 63 97 66 98 64 99
REMARK H PARENT 25 4 29 33 88 52 56 63
REMARK Flexibility Score: inf
ROOT
ATOM      1  C   UNL A   1      36.665  22.896  23.838  1.00  0.00     0.221 C 
ATOM      2  O   UNL A   1      36.805  23.371  22.709  1.00  0.00    -0.275 OA
ATOM      3  N   UNL A   1      37.776  22.749  24.613  1.00  0.00    -0.356 N 
ATOM      4  H   UNL A   1      38.619  23.021  24.183  1.00  0.00     0.163 HD
ENDROOT
BRANCH   1   5
ATOM      5  C   UNL A   1      35.285  22.513  24.342  1.00  0.00     0.122 C 
BRANCH   5   6
ATOM      6  C   UNL A   1      34.160  22.868  23.360  1.00  0.00     0.138 C 
BRANCH   6   7
ATOM      7  N   UNL A   1      33.226  23.882  23.845  1.00  0.00    -0.287 N 
ATOM      8  C   UNL A   1      32.229  23.718  24.788  1.00  0.00     0.171 A 
ATOM      9  N   UNL A   1      31.849  24.713  25.542  1.00  0.00    -0.224 NA
ATOM     10  C   UNL A   1      32.512  25.943  25.419  1.00  0.00     0.079 A 
ATOM     11  C   UNL A   1      33.440  25.171  23.323  1.00  0.00     0.262 A 
ATOM     12  C   UNL A   1      32.595  26.827  26.500  1.00  0.00     0.029 A 
ATOM     13  C   UNL A   1      33.174  26.280  24.252  1.00  0.00     0.066 A 
ATOM     14  O   UNL A   1      33.915  25.411  22.226  1.00  0.00    -0.269 OA
ATOM     15  C   UNL A   1      33.279  28.044  26.381  1.00  0.00     0.002 A 
ATOM     16  C   UNL A   1      33.777  27.533  24.080  1.00  0.00     0.016 A 
ATOM     17  C   UNL A   1      33.828  28.418  25.156  1.00  0.00     0.001 A 
BRANCH   8  18
ATOM     18  S   UNL A   1      31.483  22.202  25.273  1.00  0.00    -0.083 SA
BRANCH  18  19
ATOM     19  C   UNL A   1      32.633  20.943  25.839  1.00  0.00     0.113 C 
BRANCH  19  20
ATOM     20  C   UNL A   1      32.614  19.658  25.064  1.00  0.00    -0.034 A 
ATOM     21  C   UNL A   1      33.161  17.293  24.954  1.00  0.00     0.119 A 
ATOM     22  C   UNL A   1      32.976  17.336  23.573  1.00  0.00     0.046 A 
ATOM     23  C   UNL A   1      32.901  18.437  25.700  1.00  0.00     0.051 A 
ATOM     24  C   UNL A   1      32.528  18.502  22.948  1.00  0.00     0.004 A 
ATOM     25  C   UNL A   1      32.354  19.664  23.692  1.00  0.00     0.005 A 
BRANCH  21  26
ATOM     26  O   UNL A   1      33.624  16.105  25.446  1.00  0.00    -0.497 OA
ATOM     27  C   UNL A   1      32.754  14.980  25.376  1.00  0.00     0.278 C 
ENDBRANCH  21  26
ENDBRANCH  19  20
ENDBRANCH  18  19
ENDBRANCH   8  18
ENDBRANCH   6   7
ENDBRANCH   5   6
ENDBRANCH   1   5
BRANCH   3  28
ATOM     28  C   UNL A   1      37.916  22.255  25.978  1.00  0.00     0.117 C 
BRANCH  28  29
ATOM     29  C   UNL A   1      39.121  21.338  26.132  1.00  0.00     0.042 C 
BRANCH  29  30
ATOM     30  C   UNL A   1      39.096  20.015  25.373  1.00  0.00     0.118 C 
BRANCH  30  31
ATOM     31  N   UNL A   1      40.115  19.109  25.874  1.00  0.00    -0.352 N 
ATOM     32  C   UNL A   1      41.455  19.270  26.127  1.00  0.00     0.251 C 
ATOM     33  H   UNL A   1      39.779  18.204  26.069  1.00  0.00     0.163 HD
ATOM     34  O   UNL A   1      42.133  18.244  26.205  1.00  0.00    -0.269 OA
BRANCH  32  35
ATOM     35  C   UNL A   1      42.139  20.585  26.317  1.00  0.00     0.039 A 
ATOM     36  C   UNL A   1      42.251  21.066  27.633  1.00  0.00     0.014 A 
ATOM     37  C   UNL A   1      42.544  21.425  25.277  1.00  0.00     0.014 A 
ATOM     38  C   UNL A   1      42.744  22.352  27.903  1.00  0.00     0.010 A 
ATOM     39  C   UNL A   1      43.102  22.688  25.551  1.00  0.00     0.010 A 
ATOM     40  C   UNL A   1      43.179  23.183  26.862  1.00  0.00    -0.014 A 
BRANCH  40  41
ATOM     41  C   UNL A   1      43.638  24.582  27.133  1.00  0.00     0.031 A 
ATOM     42  C   UNL A   1      42.664  25.621  27.637  1.00  0.00     0.074 A 
ATOM     43  C   UNL A   1      44.922  24.939  26.926  1.00  0.00     0.049 A 
ATOM     44  N   UNL A   1      42.852  26.899  27.874  1.00  0.00    -0.248 NA
ATOM     45  C   UNL A   1      41.290  25.166  27.898  1.00  0.00     0.031 C 
ATOM     46  C   UNL A   1      45.978  24.052  26.440  1.00  0.00     0.029 A 
ATOM     47  N   UNL A   1      45.558  26.149  27.093  1.00  0.00    -0.354 N 
ATOM     48  C   UNL A   1      41.622  27.397  28.287  1.00  0.00     0.074 A 
ATOM     49  C   UNL A   1      40.684  26.297  28.230  1.00  0.00     0.031 C 
ATOM     50  C   UNL A   1      47.128  24.740  26.358  1.00  0.00     0.029 A 
ATOM     51  C   UNL A   1      46.887  26.130  26.741  1.00  0.00     0.049 A 
ATOM     52  H   UNL A   1      45.103  26.954  27.430  1.00  0.00     0.167 HD
ATOM     53  C   UNL A   1      41.301  28.651  28.693  1.00  0.00     0.037 A 
ATOM     54  C   UNL A   1      47.803  27.119  26.708  1.00  0.00     0.037 A 
ATOM     55  C   UNL A   1      42.233  29.747  28.778  1.00  0.00     0.049 A 
ATOM     56  C   UNL A   1      47.413  28.513  27.128  1.00  0.00     0.074 A 
ATOM     57  C   UNL A   1      42.007  31.039  29.223  1.00  0.00     0.029 A 
ATOM     58  N   UNL A   1      43.568  29.681  28.409  1.00  0.00    -0.354 N 
ATOM     59  N   UNL A   1      46.259  28.958  27.560  1.00  0.00    -0.248 NA
ATOM     60  C   UNL A   1      48.460  29.546  27.059  1.00  0.00     0.031 C 
ATOM     61  C   UNL A   1      43.188  31.770  29.069  1.00  0.00     0.029 A 
ATOM     62  C   UNL A   1      44.170  30.918  28.592  1.00  0.00     0.049 A 
ATOM     63  H   UNL A   1      44.022  28.876  28.069  1.00  0.00     0.167 HD
ATOM     64  C   UNL A   1      46.449  30.304  27.848  1.00  0.00     0.074 A 
ATOM     65  C   UNL A   1      47.833  30.605  27.552  1.00  0.00     0.031 C 
ATOM     66  C   UNL A   1      45.554  31.207  28.318  1.00  0.00     0.037 A 
BRANCH  53  67
ATOM     67  C   UNL A   1      39.870  28.921  29.074  1.00  0.00     0.064 A 
ATOM     68  C   UNL A   1      38.915  29.313  28.125  1.00  0.00     0.173 A 
ATOM     69  C   UNL A   1      39.439  28.729  30.395  1.00  0.00     0.173 A 
ATOM     70  F   UNL A   1      39.274  29.516  26.848  1.00  0.00    -0.203 F 
ATOM     71  C   UNL A   1      37.588  29.534  28.490  1.00  0.00     0.198 A 
ATOM     72  C   UNL A   1      38.105  28.917  30.751  1.00  0.00     0.198 A 
ATOM     73  F   UNL A   1      40.306  28.340  31.343  1.00  0.00    -0.203 F 
ATOM     74  F   UNL A   1      36.704  29.955  27.575  1.00  0.00    -0.200 F 
ATOM     75  C   UNL A   1      37.183  29.328  29.801  1.00  0.00     0.200 A 
ATOM     76  F   UNL A   1      37.712  28.699  32.013  1.00  0.00    -0.200 F 
ATOM     77  F   UNL A   1      35.905  29.529  30.148  1.00  0.00    -0.200 F 
ENDBRANCH  53  67
BRANCH  54  78
ATOM     78  C   UNL A   1      49.194  26.832  26.257  1.00  0.00     0.064 A 
ATOM     79  C   UNL A   1      49.574  27.017  24.921  1.00  0.00     0.173 A 
ATOM     80  C   UNL A   1      50.162  26.342  27.146  1.00  0.00     0.173 A 
ATOM     81  F   UNL A   1      48.678  27.458  24.024  1.00  0.00    -0.203 F 
ATOM     82  C   UNL A   1      50.860  26.700  24.485  1.00  0.00     0.198 A 
ATOM     83  C   UNL A   1      51.457  26.057  26.716  1.00  0.00     0.198 A 
ATOM     84  F   UNL A   1      49.852  26.142  28.435  1.00  0.00    -0.203 F 
ATOM     85  F   UNL A   1      51.177  26.831  23.190  1.00  0.00    -0.200 F 
ATOM     86  C   UNL A   1      51.802  26.225  25.385  1.00  0.00     0.200 A 
ATOM     87  F   UNL A   1      52.368  25.611  27.592  1.00  0.00    -0.200 F 
ATOM     88  F   UNL A   1      53.038  25.921  24.965  1.00  0.00    -0.200 F 
ENDBRANCH  54  78
BRANCH  66  89
ATOM     89  C   UNL A   1      46.047  32.597  28.605  1.00  0.00     0.064 A 
ATOM     90  C   UNL A   1      46.569  32.957  29.856  1.00  0.00     0.173 A 
ATOM     91  C   UNL A   1      46.049  33.570  27.591  1.00  0.00     0.173 A 
ATOM     92  F   UNL A   1      46.580  32.072  30.863  1.00  0.00    -0.203 F 
ATOM     93  C   UNL A   1      47.054  34.242  30.087  1.00  0.00     0.198 A 
ATOM     94  C   UNL A   1      46.564  34.843  27.816  1.00  0.00     0.198 A 
ATOM     95  F   UNL A   1      45.568  33.277  26.373  1.00  0.00    -0.203 F 
ATOM     96  F   UNL A   1      47.508  34.577  31.303  1.00  0.00    -0.200 F 
ATOM     97  C   UNL A   1      47.060  35.181  29.066  1.00  0.00     0.200 A 
ATOM     98  F   UNL A   1      46.584  35.741  26.822  1.00  0.00    -0.200 F 
ATOM     99  F   UNL A   1      47.540  36.413  29.285  1.00  0.00    -0.200 F 
ENDBRANCH  66  89
ENDBRANCH  40  41
ENDBRANCH  32  35
ENDBRANCH  30  31
ENDBRANCH  29  30
ENDBRANCH  28  29
ENDBRANCH   3  28
TORSDOF 16
ENDMDL
MODEL 3
REMARK VINA RESULT:     -12.5      0.690      2.017
REMARK SMILES COc1cccc(CSc2nc3ccccc3c(=O)n2CCC(=O)NCCCNC(=O)c2ccc(-c3c4nc(c(-c5c(F)c(F)c(F)c(F)c5F)c5ccc([nH]5)c(-c5c(F)c(F)c(F)c(F)c5F)c5nc(c(-c6c(F)c(F)c(F)c(F)c6F)c6ccc3[nH]6)C=C5)C=C4)cc2)c1
REMARK SMILES IDX 23 1 24 2 25 3 22 5 21 6 20 7 10 8 11 9 12 10 18 11 13 12
REMARK SMILES IDX 17 13 19 14 14 15 16 16 15 17 9 18 8 19 7 20 3 21 4 22 95 23
REMARK SMILES IDX 5 24 6 25 2 26 1 27 26 28 27 29 28 30 29 31 30 32 31 34
REMARK SMILES IDX 32 35 33 36 94 37 34 38 93 39 35 40 36 41 37 42 87 43 38 44
REMARK SMILES IDX 92 45 86 46 88 47 39 48 91 49 85 50 84 51 40 53 72 54 52 55
REMARK SMILES IDX 71 56 53 57 56 58 70 59 89 60 54 61 55 62 69 64 90 65 57 66
REMARK SMILES IDX 41 67 42 68 50 69 43 70 44 71 48 72 51 73 45 74 46 75 49 76
REMARK SMILES IDX 47 77 73 78 74 79 82 80 75 81 76 82 80 83 83 84 77 85 78 86
REMARK SMILES IDX 81 87 79 88 58 89 59 90 67 91 60 92 61 93 65 94 68 95 62 96
REMARK SMILES IDX 63 97 66 98 64 99
REMARK H PARENT 25 4 29 33 88 52 56 63
REMARK Flexibility Score: inf
ROOT
ATOM      1  C   UNL A   1      33.041  25.745  26.143  1.00  0.00     0.221 C 
ATOM      2  O   UNL A   1      34.206  25.513  25.809  1.00  0.00    -0.275 OA
ATOM      3  N   UNL A   1      32.694  27.038  26.398  1.00  0.00    -0.356 N 
ATOM      4  H   UNL A   1      33.429  27.688  26.313  1.00  0.00     0.163 HD
ENDROOT
BRANCH   1   5
ATOM      5  C   UNL A   1      32.032  24.615  26.239  1.00  0.00     0.122 C 
BRANCH   5   6
ATOM      6  C   UNL A   1      31.523  24.138  24.872  1.00  0.00     0.138 C 
BRANCH   6   7
ATOM      7  N   UNL A   1      32.547  23.535  24.019  1.00  0.00    -0.287 N 
ATOM      8  C   UNL A   1      33.173  24.112  22.930  1.00  0.00     0.171 A 
ATOM      9  N   UNL A   1      34.390  23.773  22.600  1.00  0.00    -0.224 NA
ATOM     10  C   UNL A   1      35.074  22.851  23.406  1.00  0.00     0.079 A 
ATOM     11  C   UNL A   1      32.962  22.253  24.422  1.00  0.00     0.262 A 
ATOM     12  C   UNL A   1      36.470  22.869  23.492  1.00  0.00     0.029 A 
ATOM     13  C   UNL A   1      34.386  21.953  24.202  1.00  0.00     0.066 A 
ATOM     14  O   UNL A   1      32.267  21.447  25.016  1.00  0.00    -0.269 OA
ATOM     15  C   UNL A   1      37.150  21.963  24.316  1.00  0.00     0.002 A 
ATOM     16  C   UNL A   1      35.047  20.975  24.955  1.00  0.00     0.016 A 
ATOM     17  C   UNL A   1      36.440  20.984  25.010  1.00  0.00     0.001 A 
BRANCH   8  18
ATOM     18  S   UNL A   1      32.586  25.468  21.978  1.00  0.00    -0.083 SA
BRANCH  18  19
ATOM     19  C   UNL A   1      32.376  26.999  22.896  1.00  0.00     0.113 C 
BRANCH  19  20
ATOM     20  C   UNL A   1      30.998  27.592  22.852  1.00  0.00    -0.034 A 
ATOM     21  C   UNL A   1      29.590  29.546  22.536  1.00  0.00     0.119 A 
ATOM     22  C   UNL A   1      28.535  28.856  23.129  1.00  0.00     0.046 A 
ATOM     23  C   UNL A   1      30.794  28.881  22.329  1.00  0.00     0.051 A 
ATOM     24  C   UNL A   1      28.676  27.517  23.501  1.00  0.00     0.004 A 
ATOM     25  C   UNL A   1      29.908  26.888  23.370  1.00  0.00     0.005 A 
BRANCH  21  26
ATOM     26  O   UNL A   1      29.339  30.857  22.237  1.00  0.00    -0.497 OA
ATOM     27  C   UNL A   1      28.027  31.192  21.797  1.00  0.00     0.278 C 
ENDBRANCH  21  26
ENDBRANCH  19  20
ENDBRANCH  18  19
ENDBRANCH   8  18
ENDBRANCH   6   7
ENDBRANCH   5   6
ENDBRANCH   1   5
BRANCH   3  28
ATOM     28  C   UNL A   1      31.408  27.613  26.775  1.00  0.00     0.117 C 
BRANCH  28  29
ATOM     29  C   UNL A   1      31.488  29.123  26.949  1.00  0.00     0.042 C 
BRANCH  29  30
ATOM     30  C   UNL A   1      32.443  29.884  26.035  1.00  0.00     0.118 C 
BRANCH  30  31
ATOM     31  N   UNL A   1      32.494  31.291  26.392  1.00  0.00    -0.352 N 
ATOM     32  C   UNL A   1      33.277  31.995  27.274  1.00  0.00     0.251 C 
ATOM     33  H   UNL A   1      31.841  31.847  25.908  1.00  0.00     0.163 HD
ATOM     34  O   UNL A   1      32.861  33.101  27.625  1.00  0.00    -0.269 OA
BRANCH  32  35
ATOM     35  C   UNL A   1      34.583  31.523  27.826  1.00  0.00     0.039 A 
ATOM     36  C   UNL A   1      34.644  30.195  28.283  1.00  0.00     0.014 A 
ATOM     37  C   UNL A   1      35.692  32.342  28.046  1.00  0.00     0.014 A 
ATOM     38  C   UNL A   1      35.776  29.702  28.949  1.00  0.00     0.010 A 
ATOM     39  C   UNL A   1      36.854  31.829  28.654  1.00  0.00     0.010 A 
ATOM     40  C   UNL A   1      36.902  30.514  29.144  1.00  0.00    -0.014 A 
BRANCH  40  41
ATOM     41  C   UNL A   1      38.084  30.021  29.917  1.00  0.00     0.031 A 
ATOM     42  C   UNL A   1      38.317  30.484  31.335  1.00  0.00     0.074 A 
ATOM     43  C   UNL A   1      38.964  29.163  29.359  1.00  0.00     0.049 A 
ATOM     44  N   UNL A   1      39.312  30.219  32.149  1.00  0.00    -0.248 NA
ATOM     45  C   UNL A   1      37.299  31.374  31.914  1.00  0.00     0.031 C 
ATOM     46  C   UNL A   1      38.877  28.630  28.000  1.00  0.00     0.029 A 
ATOM     47  N   UNL A   1      40.111  28.594  29.865  1.00  0.00    -0.354 N 
ATOM     48  C   UNL A   1      39.051  30.925  33.318  1.00  0.00     0.074 A 
ATOM     49  C   UNL A   1      37.826  31.662  33.096  1.00  0.00     0.031 C 
ATOM     50  C   UNL A   1      39.916  27.805  27.785  1.00  0.00     0.029 A 
ATOM     51  C   UNL A   1      40.769  27.785  28.970  1.00  0.00     0.049 A 
ATOM     52  H   UNL A   1      40.431  28.754  30.783  1.00  0.00     0.167 HD
ATOM     53  C   UNL A   1      39.754  30.948  34.478  1.00  0.00     0.037 A 
ATOM     54  C   UNL A   1      41.937  27.117  29.080  1.00  0.00     0.037 A 
ATOM     55  C   UNL A   1      40.960  30.197  34.718  1.00  0.00     0.049 A 
ATOM     56  C   UNL A   1      42.720  27.189  30.367  1.00  0.00     0.074 A 
ATOM     57  C   UNL A   1      41.713  30.122  35.878  1.00  0.00     0.029 A 
ATOM     58  N   UNL A   1      41.592  29.392  33.781  1.00  0.00    -0.354 N 
ATOM     59  N   UNL A   1      42.436  27.823  31.478  1.00  0.00    -0.248 NA
ATOM     60  C   UNL A   1      43.989  26.445  30.415  1.00  0.00     0.031 C 
ATOM     61  C   UNL A   1      42.831  29.321  35.627  1.00  0.00     0.029 A 
ATOM     62  C   UNL A   1      42.739  28.840  34.331  1.00  0.00     0.049 A 
ATOM     63  H   UNL A   1      41.273  29.236  32.863  1.00  0.00     0.167 HD
ATOM     64  C   UNL A   1      43.464  27.526  32.363  1.00  0.00     0.074 A 
ATOM     65  C   UNL A   1      44.377  26.646  31.667  1.00  0.00     0.031 C 
ATOM     66  C   UNL A   1      43.633  27.945  33.641  1.00  0.00     0.037 A 
BRANCH  53  67
ATOM     67  C   UNL A   1      39.245  31.824  35.590  1.00  0.00     0.064 A 
ATOM     68  C   UNL A   1      38.368  31.338  36.571  1.00  0.00     0.173 A 
ATOM     69  C   UNL A   1      39.686  33.151  35.708  1.00  0.00     0.173 A 
ATOM     70  F   UNL A   1      37.910  30.078  36.505  1.00  0.00    -0.203 F 
ATOM     71  C   UNL A   1      37.927  32.157  37.609  1.00  0.00     0.198 A 
ATOM     72  C   UNL A   1      39.271  33.957  36.766  1.00  0.00     0.198 A 
ATOM     73  F   UNL A   1      40.537  33.665  34.806  1.00  0.00    -0.203 F 
ATOM     74  F   UNL A   1      37.050  31.684  38.506  1.00  0.00    -0.200 F 
ATOM     75  C   UNL A   1      38.384  33.462  37.710  1.00  0.00     0.200 A 
ATOM     76  F   UNL A   1      39.729  35.211  36.872  1.00  0.00    -0.200 F 
ATOM     77  F   UNL A   1      37.969  34.244  38.715  1.00  0.00    -0.200 F 
ENDBRANCH  53  67
BRANCH  54  78
ATOM     78  C   UNL A   1      42.449  26.316  27.934  1.00  0.00     0.064 A 
ATOM     79  C   UNL A   1      43.312  26.880  26.985  1.00  0.00     0.173 A 
ATOM     80  C   UNL A   1      42.063  24.980  27.748  1.00  0.00     0.173 A 
ATOM     81  F   UNL A   1      43.689  28.163  27.100  1.00  0.00    -0.203 F 
ATOM     82  C   UNL A   1      43.751  26.149  25.882  1.00  0.00     0.198 A 
ATOM     83  C   UNL A   1      42.528  24.239  26.664  1.00  0.00     0.198 A 
ATOM     84  F   UNL A   1      41.235  24.391  28.624  1.00  0.00    -0.203 F 
ATOM     85  F   UNL A   1      44.528  26.732  24.960  1.00  0.00    -0.200 F 
ATOM     86  C   UNL A   1      43.363  24.826  25.726  1.00  0.00     0.200 A 
ATOM     87  F   UNL A   1      42.162  22.958  26.524  1.00  0.00    -0.200 F 
ATOM     88  F   UNL A   1      43.785  24.123  24.666  1.00  0.00    -0.200 F 
ENDBRANCH  54  78
BRANCH  66  89
ATOM     89  C   UNL A   1      44.815  27.415  34.402  1.00  0.00     0.064 A 
ATOM     90  C   UNL A   1      44.759  26.210  35.118  1.00  0.00     0.173 A 
ATOM     91  C   UNL A   1      46.043  28.098  34.366  1.00  0.00     0.173 A 
ATOM     92  F   UNL A   1      43.609  25.525  35.197  1.00  0.00    -0.203 F 
ATOM     93  C   UNL A   1      45.879  25.721  35.786  1.00  0.00     0.198 A 
ATOM     94  C   UNL A   1      47.168  27.589  35.006  1.00  0.00     0.198 A 
ATOM     95  F   UNL A   1      46.155  29.251  33.690  1.00  0.00    -0.203 F 
ATOM     96  F   UNL A   1      45.791  24.590  36.499  1.00  0.00    -0.200 F 
ATOM     97  C   UNL A   1      47.085  26.404  35.722  1.00  0.00     0.200 A 
ATOM     98  F   UNL A   1      48.335  28.243  34.928  1.00  0.00    -0.200 F 
ATOM     99  F   UNL A   1      48.165  25.924  36.353  1.00  0.00    -0.200 F 
ENDBRANCH  66  89
ENDBRANCH  40  41
ENDBRANCH  32  35
ENDBRANCH  30  31
ENDBRANCH  29  30
ENDBRANCH  28  29
ENDBRANCH   3  28
TORSDOF 16
ENDMDL
