MODEL 1
REMARK VINA RESULT:     -16.2      0.000      0.000
REMARK SMILES Cc1ccc(C2=NN(C(=O)CCC(=O)NCCCNC(=O)c3ccc(-c4c5nc(c(-c6c(F)c(F)c(F)c(F)c6F)c6ccc([nH]6)c(-c6c(F)c(F)c(F)c(F)c6F)c6nc(c(-c7c(F)c(F)c(F)c(F)c7F)c7ccc4[nH]7)C=C6)C=C5)cc3)[C@H](C[C@@H]3C=c4cccc(C)c4=NC3=O)C2)cc1
REMARK SMILES IDX 13 1 14 2 15 3 12 5 11 6 9 7 10 8 8 9 6 10 7 11 99 12 85 13
REMARK SMILES IDX 5 14 1 15 2 16 3 17 101 18 4 19 100 20 86 21 87 22 88 23
REMARK SMILES IDX 97 24 89 25 96 26 98 27 90 28 95 29 91 30 93 31 92 32 94 33
REMARK SMILES IDX 16 34 17 35 18 36 19 37 20 38 21 40 22 41 23 42 84 43 24 44
REMARK SMILES IDX 83 45 25 46 26 47 27 48 77 49 28 50 82 51 76 52 78 53 29 54
REMARK SMILES IDX 81 55 75 56 74 57 30 59 62 60 42 61 61 62 43 63 46 64 60 65
REMARK SMILES IDX 79 66 44 67 45 68 59 70 80 71 47 72 31 73 32 74 40 75 33 76
REMARK SMILES IDX 34 77 38 78 41 79 35 80 36 81 39 82 37 83 63 84 64 85 72 86
REMARK SMILES IDX 65 87 66 88 70 89 73 90 67 91 68 92 71 93 69 94 48 95 49 96
REMARK SMILES IDX 57 97 50 98 51 99 55 100 58 101 52 102 53 103 56 104 54 105
REMARK H PARENT 15 4 19 39 78 58 46 69
REMARK Flexibility Score: inf
ROOT
ATOM      1  C   UNL A   1      33.020  22.284  23.019  1.00  0.00     0.220 C 
ATOM      2  O   UNL A   1      32.381  21.773  22.091  1.00  0.00    -0.275 OA
ATOM      3  N   UNL A   1      33.091  21.525  24.155  1.00  0.00    -0.356 N 
ATOM      4  H   UNL A   1      32.718  20.627  24.004  1.00  0.00     0.163 HD
ENDROOT
BRANCH   1   5
ATOM      5  C   UNL A   1      33.640  23.660  22.800  1.00  0.00     0.110 C 
BRANCH   5   6
ATOM      6  C   UNL A   1      33.832  24.585  23.977  1.00  0.00     0.112 C 
BRANCH   6   7
ATOM      7  C   UNL A   1      33.569  25.996  23.551  1.00  0.00     0.243 C 
ATOM      8  O   UNL A   1      33.789  26.394  22.412  1.00  0.00    -0.273 OA
BRANCH   7   9
ATOM      9  N   UNL A   1      33.077  26.777  24.575  1.00  0.00    -0.230 N 
ATOM     10  C   UNL A   1      33.668  28.260  27.000  1.00  0.00     0.070 C 
ATOM     11  N   UNL A   1      34.383  27.591  25.707  1.00  0.00    -0.174 NA
ATOM     12  C   UNL A   1      31.745  27.811  27.159  1.00  0.00     0.086 C 
ATOM     13  C   UNL A   1      31.322  26.977  25.431  1.00  0.00     0.118 C 
BRANCH  10  14
ATOM     14  C   UNL A   1      34.058  29.537  27.612  1.00  0.00    -0.002 A 
ATOM     15  C   UNL A   1      37.166  33.473  28.503  1.00  0.00     0.044 C 
ATOM     16  C   UNL A   1      36.146  32.434  28.092  1.00  0.00    -0.051 A 
ATOM     17  C   UNL A   1      34.390  32.727  27.871  1.00  0.00     0.004 A 
ATOM     18  C   UNL A   1      36.805  30.770  28.104  1.00  0.00     0.004 A 
ATOM     19  C   UNL A   1      33.275  31.299  27.618  1.00  0.00     0.010 A 
ATOM     20  C   UNL A   1      35.800  29.357  27.872  1.00  0.00     0.010 A 
ENDBRANCH  10  14
BRANCH  13  21
ATOM     21  C   UNL A   1      30.100  27.737  24.790  1.00  0.00     0.045 C 
BRANCH  21  22
ATOM     22  C   UNL A   1      30.531  28.762  23.750  1.00  0.00     0.106 C 
ATOM     23  C   UNL A   1      30.030  30.073  24.204  1.00  0.00    -0.003 C 
ATOM     24  C   UNL A   1      30.073  28.430  22.324  1.00  0.00     0.253 C 
ATOM     25  C   UNL A   1      29.446  30.982  23.453  1.00  0.00    -0.003 A 
ATOM     26  N   UNL A   1      29.514  29.425  21.545  1.00  0.00    -0.212 NA
ATOM     27  O   UNL A   1      30.257  27.295  21.888  1.00  0.00    -0.272 OA
ATOM     28  C   UNL A   1      29.117  32.272  23.985  1.00  0.00     0.010 A 
ATOM     29  C   UNL A   1      29.220  30.582  22.053  1.00  0.00     0.077 A 
ATOM     30  C   UNL A   1      28.599  33.195  23.174  1.00  0.00     0.001 A 
ATOM     31  C   UNL A   1      28.551  31.656  21.250  1.00  0.00    -0.025 A 
ATOM     32  C   UNL A   1      28.294  32.860  21.802  1.00  0.00     0.005 A 
ATOM     33  C   UNL A   1      28.133  31.268  19.875  1.00  0.00     0.047 C 
ENDBRANCH  21  22
ENDBRANCH  13  21
ENDBRANCH   7   9
ENDBRANCH   6   7
ENDBRANCH   5   6
ENDBRANCH   1   5
BRANCH   3  34
ATOM     34  C   UNL A   1      33.605  21.685  25.652  1.00  0.00     0.117 C 
BRANCH  34  35
ATOM     35  C   UNL A   1      35.058  23.058  26.644  1.00  0.00     0.042 C 
BRANCH  35  36
ATOM     36  C   UNL A   1      36.692  23.590  25.829  1.00  0.00     0.118 C 
BRANCH  36  37
ATOM     37  N   UNL A   1      38.254  23.205  26.455  1.00  0.00    -0.352 N 
ATOM     38  C   UNL A   1      39.501  24.020  27.333  1.00  0.00     0.251 C 
ATOM     39  H   UNL A   1      38.501  22.272  26.261  1.00  0.00     0.163 HD
ATOM     40  O   UNL A   1      40.287  23.052  27.455  1.00  0.00    -0.269 OA
BRANCH  38  41
ATOM     41  C   UNL A   1      39.369  26.091  27.970  1.00  0.00     0.039 A 
ATOM     42  C   UNL A   1      39.279  27.382  27.309  1.00  0.00     0.014 A 
ATOM     43  C   UNL A   1      39.353  26.561  29.400  1.00  0.00     0.014 A 
ATOM     44  C   UNL A   1      39.927  28.535  27.752  1.00  0.00     0.010 A 
ATOM     45  C   UNL A   1      40.245  27.462  29.842  1.00  0.00     0.010 A 
ATOM     46  C   UNL A   1      40.576  28.443  28.956  1.00  0.00    -0.014 A 
BRANCH  46  47
ATOM     47  C   UNL A   1      41.155  29.512  29.700  1.00  0.00     0.031 A 
ATOM     48  C   UNL A   1      40.069  30.338  30.293  1.00  0.00     0.074 A 
ATOM     49  C   UNL A   1      42.472  29.280  29.920  1.00  0.00     0.049 A 
ATOM     50  N   UNL A   1      40.009  31.621  30.280  1.00  0.00    -0.248 NA
ATOM     51  C   UNL A   1      38.760  29.770  30.741  1.00  0.00     0.031 C 
ATOM     52  C   UNL A   1      43.399  29.773  30.919  1.00  0.00     0.029 A 
ATOM     53  N   UNL A   1      43.303  28.509  29.070  1.00  0.00    -0.354 N 
ATOM     54  C   UNL A   1      39.059  31.917  31.242  1.00  0.00     0.074 A 
ATOM     55  C   UNL A   1      38.117  30.841  31.204  1.00  0.00     0.031 C 
ATOM     56  C   UNL A   1      44.654  29.668  30.428  1.00  0.00     0.029 A 
ATOM     57  C   UNL A   1      44.578  29.117  29.081  1.00  0.00     0.049 A 
ATOM     58  H   UNL A   1      43.043  27.703  28.568  1.00  0.00     0.167 HD
ATOM     59  C   UNL A   1      39.433  32.700  32.297  1.00  0.00     0.037 A 
ATOM     60  C   UNL A   1      44.967  29.762  27.939  1.00  0.00     0.037 A 
ATOM     61  C   UNL A   1      40.871  32.973  32.190  1.00  0.00     0.049 A 
ATOM     62  C   UNL A   1      44.617  31.234  27.990  1.00  0.00     0.074 A 
ATOM     63  C   UNL A   1      42.006  32.466  32.799  1.00  0.00     0.029 A 
ATOM     64  N   UNL A   1      41.319  33.554  31.024  1.00  0.00    -0.354 N 
ATOM     65  N   UNL A   1      43.981  31.799  28.979  1.00  0.00    -0.248 NA
ATOM     66  C   UNL A   1      44.881  32.155  26.890  1.00  0.00     0.031 C 
ATOM     67  C   UNL A   1      43.133  32.783  31.968  1.00  0.00     0.029 A 
ATOM     68  C   UNL A   1      42.677  33.447  30.844  1.00  0.00     0.049 A 
ATOM     69  H   UNL A   1      40.723  34.002  30.382  1.00  0.00     0.167 HD
ATOM     70  C   UNL A   1      43.765  33.113  28.699  1.00  0.00     0.074 A 
ATOM     71  C   UNL A   1      44.271  33.264  27.340  1.00  0.00     0.031 C 
ATOM     72  C   UNL A   1      43.210  33.983  29.600  1.00  0.00     0.037 A 
BRANCH  59  73
ATOM     73  C   UNL A   1      38.611  32.993  33.528  1.00  0.00     0.064 A 
ATOM     74  C   UNL A   1      37.522  33.884  33.441  1.00  0.00     0.173 A 
ATOM     75  C   UNL A   1      38.768  32.376  34.790  1.00  0.00     0.173 A 
ATOM     76  F   UNL A   1      37.212  34.495  32.290  1.00  0.00    -0.203 F 
ATOM     77  C   UNL A   1      36.686  34.165  34.523  1.00  0.00     0.198 A 
ATOM     78  C   UNL A   1      37.948  32.681  35.883  1.00  0.00     0.198 A 
ATOM     79  F   UNL A   1      39.676  31.416  34.998  1.00  0.00    -0.203 F 
ATOM     80  F   UNL A   1      35.657  35.007  34.359  1.00  0.00    -0.200 F 
ATOM     81  C   UNL A   1      36.903  33.572  35.747  1.00  0.00     0.200 A 
ATOM     82  F   UNL A   1      38.163  32.085  37.065  1.00  0.00    -0.200 F 
ATOM     83  F   UNL A   1      36.095  33.839  36.782  1.00  0.00    -0.200 F 
ENDBRANCH  59  73
BRANCH  60  84
ATOM     84  C   UNL A   1      44.740  28.885  26.749  1.00  0.00     0.064 A 
ATOM     85  C   UNL A   1      45.651  27.827  26.543  1.00  0.00     0.173 A 
ATOM     86  C   UNL A   1      43.473  28.784  26.161  1.00  0.00     0.173 A 
ATOM     87  F   UNL A   1      46.875  27.875  27.091  1.00  0.00    -0.203 F 
ATOM     88  C   UNL A   1      45.250  26.649  25.924  1.00  0.00     0.198 A 
ATOM     89  C   UNL A   1      43.087  27.614  25.516  1.00  0.00     0.198 A 
ATOM     90  F   UNL A   1      42.561  29.752  26.329  1.00  0.00    -0.203 F 
ATOM     91  F   UNL A   1      46.053  25.576  25.941  1.00  0.00    -0.200 F 
ATOM     92  C   UNL A   1      43.966  26.542  25.419  1.00  0.00     0.200 A 
ATOM     93  F   UNL A   1      41.822  27.487  25.092  1.00  0.00    -0.200 F 
ATOM     94  F   UNL A   1      43.555  25.371  24.917  1.00  0.00    -0.200 F 
ENDBRANCH  60  84
BRANCH  72  95
ATOM     95  C   UNL A   1      43.067  35.456  29.315  1.00  0.00     0.064 A 
ATOM     96  C   UNL A   1      43.678  36.421  30.124  1.00  0.00     0.173 A 
ATOM     97  C   UNL A   1      42.263  35.973  28.270  1.00  0.00     0.173 A 
ATOM     98  F   UNL A   1      44.259  36.083  31.285  1.00  0.00    -0.203 F 
ATOM     99  C   UNL A   1      43.681  37.769  29.782  1.00  0.00     0.198 A 
ATOM    100  C   UNL A   1      42.204  37.326  27.973  1.00  0.00     0.198 A 
ATOM    101  F   UNL A   1      41.500  35.211  27.480  1.00  0.00    -0.203 F 
ATOM    102  F   UNL A   1      44.398  38.630  30.514  1.00  0.00    -0.200 F 
ATOM    103  C   UNL A   1      42.956  38.220  28.697  1.00  0.00     0.200 A 
ATOM    104  F   UNL A   1      41.421  37.744  26.969  1.00  0.00    -0.200 F 
ATOM    105  F   UNL A   1      42.959  39.515  28.365  1.00  0.00    -0.200 F 
ENDBRANCH  72  95
ENDBRANCH  46  47
ENDBRANCH  38  41
ENDBRANCH  36  37
ENDBRANCH  35  36
ENDBRANCH  34  35
ENDBRANCH   3  34
TORSDOF 16
ENDMDL
MODEL 2
REMARK VINA RESULT:     -15.7      1.917      2.860
REMARK SMILES Cc1ccc(C2=NN(C(=O)CCC(=O)NCCCNC(=O)c3ccc(-c4c5nc(c(-c6c(F)c(F)c(F)c(F)c6F)c6ccc([nH]6)c(-c6c(F)c(F)c(F)c(F)c6F)c6nc(c(-c7c(F)c(F)c(F)c(F)c7F)c7ccc4[nH]7)C=C6)C=C5)cc3)[C@H](C[C@@H]3C=c4cccc(C)c4=NC3=O)C2)cc1
REMARK SMILES IDX 13 1 14 2 15 3 12 5 11 6 9 7 10 8 8 9 6 10 7 11 99 12 85 13
REMARK SMILES IDX 5 14 1 15 2 16 3 17 101 18 4 19 100 20 86 21 87 22 88 23
REMARK SMILES IDX 97 24 89 25 96 26 98 27 90 28 95 29 91 30 93 31 92 32 94 33
REMARK SMILES IDX 16 34 17 35 18 36 19 37 20 38 21 40 22 41 23 42 84 43 24 44
REMARK SMILES IDX 83 45 25 46 26 47 27 48 77 49 28 50 82 51 76 52 78 53 29 54
REMARK SMILES IDX 81 55 75 56 74 57 30 59 62 60 42 61 61 62 43 63 46 64 60 65
REMARK SMILES IDX 79 66 44 67 45 68 59 70 80 71 47 72 31 73 32 74 40 75 33 76
REMARK SMILES IDX 34 77 38 78 41 79 35 80 36 81 39 82 37 83 63 84 64 85 72 86
REMARK SMILES IDX 65 87 66 88 70 89 73 90 67 91 68 92 71 93 69 94 48 95 49 96
REMARK SMILES IDX 57 97 50 98 51 99 55 100 58 101 52 102 53 103 56 104 54 105
REMARK H PARENT 15 4 19 39 78 58 46 69
REMARK Flexibility Score: inf
ROOT
ATOM      1  C   UNL A   1      32.358  21.379  22.789  1.00  0.00     0.220 C 
ATOM      2  O   UNL A   1      31.829  20.848  21.805  1.00  0.00    -0.275 OA
ATOM      3  N   UNL A   1      32.410  20.595  23.909  1.00  0.00    -0.356 N 
ATOM      4  H   UNL A   1      32.122  19.675  23.710  1.00  0.00     0.163 HD
ENDROOT
BRANCH   1   5
ATOM      5  C   UNL A   1      32.880  22.805  22.648  1.00  0.00     0.110 C 
BRANCH   5   6
ATOM      6  C   UNL A   1      32.312  23.895  23.525  1.00  0.00     0.112 C 
BRANCH   6   7
ATOM      7  C   UNL A   1      33.158  25.124  23.404  1.00  0.00     0.243 C 
ATOM      8  O   UNL A   1      34.024  25.249  22.545  1.00  0.00    -0.273 OA
BRANCH   7   9
ATOM      9  N   UNL A   1      32.862  26.068  24.364  1.00  0.00    -0.230 N 
ATOM     10  C   UNL A   1      33.856  27.725  26.532  1.00  0.00     0.070 C 
ATOM     11  N   UNL A   1      34.358  26.834  25.273  1.00  0.00    -0.174 NA
ATOM     12  C   UNL A   1      31.920  27.538  26.909  1.00  0.00     0.086 C 
ATOM     13  C   UNL A   1      31.235  26.577  25.338  1.00  0.00     0.118 C 
BRANCH  10  14
ATOM     14  C   UNL A   1      34.447  29.004  26.948  1.00  0.00    -0.002 A 
ATOM     15  C   UNL A   1      34.363  33.735  28.833  1.00  0.00     0.044 C 
ATOM     16  C   UNL A   1      34.447  32.267  28.474  1.00  0.00    -0.051 A 
ATOM     17  C   UNL A   1      35.774  31.154  28.939  1.00  0.00     0.004 A 
ATOM     18  C   UNL A   1      33.209  31.772  27.279  1.00  0.00     0.004 A 
ATOM     19  C   UNL A   1      35.830  29.480  28.204  1.00  0.00     0.010 A 
ATOM     20  C   UNL A   1      33.201  30.190  26.533  1.00  0.00     0.010 A 
ENDBRANCH  10  14
BRANCH  13  21
ATOM     21  C   UNL A   1      30.049  27.407  24.717  1.00  0.00     0.045 C 
BRANCH  21  22
ATOM     22  C   UNL A   1      30.533  28.496  23.769  1.00  0.00     0.106 C 
ATOM     23  C   UNL A   1      30.036  29.780  24.298  1.00  0.00    -0.003 C 
ATOM     24  C   UNL A   1      30.121  28.275  22.308  1.00  0.00     0.253 C 
ATOM     25  C   UNL A   1      29.493  30.750  23.593  1.00  0.00    -0.003 A 
ATOM     26  N   UNL A   1      29.606  29.332  21.583  1.00  0.00    -0.212 NA
ATOM     27  O   UNL A   1      30.302  27.170  21.798  1.00  0.00    -0.272 OA
ATOM     28  C   UNL A   1      29.165  32.006  24.205  1.00  0.00     0.010 A 
ATOM     29  C   UNL A   1      29.311  30.456  22.162  1.00  0.00     0.077 A 
ATOM     30  C   UNL A   1      28.692  32.992  23.445  1.00  0.00     0.001 A 
ATOM     31  C   UNL A   1      28.688  31.596  21.415  1.00  0.00    -0.025 A 
ATOM     32  C   UNL A   1      28.430  32.761  22.043  1.00  0.00     0.005 A 
ATOM     33  C   UNL A   1      28.314  31.314  20.002  1.00  0.00     0.047 C 
ENDBRANCH  21  22
ENDBRANCH  13  21
ENDBRANCH   7   9
ENDBRANCH   6   7
ENDBRANCH   5   6
ENDBRANCH   1   5
BRANCH   3  34
ATOM     34  C   UNL A   1      32.802  20.750  25.442  1.00  0.00     0.117 C 
BRANCH  34  35
ATOM     35  C   UNL A   1      34.641  21.442  26.500  1.00  0.00     0.042 C 
BRANCH  35  36
ATOM     36  C   UNL A   1      36.208  22.006  25.579  1.00  0.00     0.118 C 
BRANCH  36  37
ATOM     37  N   UNL A   1      37.797  21.432  25.935  1.00  0.00    -0.352 N 
ATOM     38  C   UNL A   1      39.296  22.111  26.465  1.00  0.00     0.251 C 
ATOM     39  H   UNL A   1      37.868  20.460  25.802  1.00  0.00     0.163 HD
ATOM     40  O   UNL A   1      39.950  21.045  26.541  1.00  0.00    -0.269 OA
BRANCH  38  41
ATOM     41  C   UNL A   1      39.583  24.221  26.884  1.00  0.00     0.039 A 
ATOM     42  C   UNL A   1      39.938  25.399  26.111  1.00  0.00     0.014 A 
ATOM     43  C   UNL A   1      39.437  24.866  28.236  1.00  0.00     0.014 A 
ATOM     44  C   UNL A   1      40.769  26.418  26.576  1.00  0.00     0.010 A 
ATOM     45  C   UNL A   1      40.437  25.587  28.770  1.00  0.00     0.010 A 
ATOM     46  C   UNL A   1      41.154  26.338  27.888  1.00  0.00    -0.014 A 
BRANCH  46  47
ATOM     47  C   UNL A   1      41.846  27.333  28.640  1.00  0.00     0.031 A 
ATOM     48  C   UNL A   1      40.910  28.447  28.953  1.00  0.00     0.074 A 
ATOM     49  C   UNL A   1      43.014  26.840  29.119  1.00  0.00     0.049 A 
ATOM     50  N   UNL A   1      41.165  29.699  28.826  1.00  0.00    -0.248 NA
ATOM     51  C   UNL A   1      39.447  28.245  29.192  1.00  0.00     0.031 C 
ATOM     52  C   UNL A   1      43.857  27.231  30.231  1.00  0.00     0.029 A 
ATOM     53  N   UNL A   1      43.760  25.805  28.504  1.00  0.00    -0.354 N 
ATOM     54  C   UNL A   1      40.172  30.314  29.568  1.00  0.00     0.074 A 
ATOM     55  C   UNL A   1      39.016  29.481  29.440  1.00  0.00     0.031 C 
ATOM     56  C   UNL A   1      45.112  26.788  29.994  1.00  0.00     0.029 A 
ATOM     57  C   UNL A   1      45.125  26.109  28.704  1.00  0.00     0.049 A 
ATOM     58  H   UNL A   1      43.398  25.024  28.028  1.00  0.00     0.167 HD
ATOM     59  C   UNL A   1      40.547  31.116  30.608  1.00  0.00     0.037 A 
ATOM     60  C   UNL A   1      45.839  26.507  27.607  1.00  0.00     0.037 A 
ATOM     61  C   UNL A   1      42.007  31.045  30.750  1.00  0.00     0.049 A 
ATOM     62  C   UNL A   1      45.851  28.016  27.475  1.00  0.00     0.074 A 
ATOM     63  C   UNL A   1      42.870  30.375  31.599  1.00  0.00     0.029 A 
ATOM     64  N   UNL A   1      42.765  31.365  29.645  1.00  0.00    -0.354 N 
ATOM     65  N   UNL A   1      45.219  28.824  28.280  1.00  0.00    -0.248 NA
ATOM     66  C   UNL A   1      46.506  28.714  26.373  1.00  0.00     0.031 C 
ATOM     67  C   UNL A   1      44.161  30.328  30.969  1.00  0.00     0.029 A 
ATOM     68  C   UNL A   1      44.067  30.936  29.731  1.00  0.00     0.049 A 
ATOM     69  H   UNL A   1      42.408  31.854  28.870  1.00  0.00     0.167 HD
ATOM     70  C   UNL A   1      45.376  30.109  27.860  1.00  0.00     0.074 A 
ATOM     71  C   UNL A   1      46.117  29.977  26.612  1.00  0.00     0.031 C 
ATOM     72  C   UNL A   1      44.909  31.184  28.570  1.00  0.00     0.037 A 
BRANCH  59  73
ATOM     73  C   UNL A   1      39.631  31.733  31.637  1.00  0.00     0.064 A 
ATOM     74  C   UNL A   1      39.168  33.052  31.453  1.00  0.00     0.173 A 
ATOM     75  C   UNL A   1      39.096  31.071  32.765  1.00  0.00     0.173 A 
ATOM     76  F   UNL A   1      39.540  33.779  30.392  1.00  0.00    -0.203 F 
ATOM     77  C   UNL A   1      38.280  33.671  32.335  1.00  0.00     0.198 A 
ATOM     78  C   UNL A   1      38.229  31.703  33.665  1.00  0.00     0.198 A 
ATOM     79  F   UNL A   1      39.341  29.779  33.009  1.00  0.00    -0.203 F 
ATOM     80  F   UNL A   1      37.867  34.920  32.084  1.00  0.00    -0.200 F 
ATOM     81  C   UNL A   1      37.817  33.002  33.447  1.00  0.00     0.200 A 
ATOM     82  F   UNL A   1      37.776  31.034  34.736  1.00  0.00    -0.200 F 
ATOM     83  F   UNL A   1      36.960  33.596  34.287  1.00  0.00    -0.200 F 
ENDBRANCH  59  73
BRANCH  60  84
ATOM     84  C   UNL A   1      45.603  25.566  26.469  1.00  0.00     0.064 A 
ATOM     85  C   UNL A   1      46.203  24.291  26.550  1.00  0.00     0.173 A 
ATOM     86  C   UNL A   1      44.492  25.716  25.630  1.00  0.00     0.173 A 
ATOM     87  F   UNL A   1      47.266  24.095  27.346  1.00  0.00    -0.203 F 
ATOM     88  C   UNL A   1      45.612  23.184  25.954  1.00  0.00     0.198 A 
ATOM     89  C   UNL A   1      43.922  24.609  25.011  1.00  0.00     0.198 A 
ATOM     90  F   UNL A   1      43.873  26.899  25.518  1.00  0.00    -0.203 F 
ATOM     91  F   UNL A   1      46.064  21.953  26.229  1.00  0.00    -0.200 F 
ATOM     92  C   UNL A   1      44.468  23.344  25.192  1.00  0.00     0.200 A 
ATOM     93  F   UNL A   1      42.775  24.756  24.332  1.00  0.00    -0.200 F 
ATOM     94  F   UNL A   1      43.848  22.261  24.706  1.00  0.00    -0.200 F 
ENDBRANCH  60  84
BRANCH  72  95
ATOM     95  C   UNL A   1      45.175  32.606  28.147  1.00  0.00     0.064 A 
ATOM     96  C   UNL A   1      44.533  33.171  27.040  1.00  0.00     0.173 A 
ATOM     97  C   UNL A   1      46.128  33.443  28.778  1.00  0.00     0.173 A 
ATOM     98  F   UNL A   1      43.798  32.419  26.206  1.00  0.00    -0.203 F 
ATOM     99  C   UNL A   1      44.652  34.523  26.734  1.00  0.00     0.198 A 
ATOM    100  C   UNL A   1      46.305  34.772  28.425  1.00  0.00     0.198 A 
ATOM    101  F   UNL A   1      46.931  33.032  29.765  1.00  0.00    -0.203 F 
ATOM    102  F   UNL A   1      43.908  35.042  25.750  1.00  0.00    -0.200 F 
ATOM    103  C   UNL A   1      45.528  35.326  27.436  1.00  0.00     0.200 A 
ATOM    104  F   UNL A   1      47.225  35.504  29.067  1.00  0.00    -0.200 F 
ATOM    105  F   UNL A   1      45.643  36.627  27.147  1.00  0.00    -0.200 F 
ENDBRANCH  72  95
ENDBRANCH  46  47
ENDBRANCH  38  41
ENDBRANCH  36  37
ENDBRANCH  35  36
ENDBRANCH  34  35
ENDBRANCH   3  34
TORSDOF 16
ENDMDL
MODEL 3
REMARK VINA RESULT:     -15.0      3.969      9.872
REMARK SMILES Cc1ccc(C2=NN(C(=O)CCC(=O)NCCCNC(=O)c3ccc(-c4c5nc(c(-c6c(F)c(F)c(F)c(F)c6F)c6ccc([nH]6)c(-c6c(F)c(F)c(F)c(F)c6F)c6nc(c(-c7c(F)c(F)c(F)c(F)c7F)c7ccc4[nH]7)C=C6)C=C5)cc3)[C@H](C[C@@H]3C=c4cccc(C)c4=NC3=O)C2)cc1
REMARK SMILES IDX 13 1 14 2 15 3 12 5 11 6 9 7 10 8 8 9 6 10 7 11 99 12 85 13
REMARK SMILES IDX 5 14 1 15 2 16 3 17 101 18 4 19 100 20 86 21 87 22 88 23
REMARK SMILES IDX 97 24 89 25 96 26 98 27 90 28 95 29 91 30 93 31 92 32 94 33
REMARK SMILES IDX 16 34 17 35 18 36 19 37 20 38 21 40 22 41 23 42 84 43 24 44
REMARK SMILES IDX 83 45 25 46 26 47 27 48 77 49 28 50 82 51 76 52 78 53 29 54
REMARK SMILES IDX 81 55 75 56 74 57 30 59 62 60 42 61 61 62 43 63 46 64 60 65
REMARK SMILES IDX 79 66 44 67 45 68 59 70 80 71 47 72 31 73 32 74 40 75 33 76
REMARK SMILES IDX 34 77 38 78 41 79 35 80 36 81 39 82 37 83 63 84 64 85 72 86
REMARK SMILES IDX 65 87 66 88 70 89 73 90 67 91 68 92 71 93 69 94 48 95 49 96
REMARK SMILES IDX 57 97 50 98 51 99 55 100 58 101 52 102 53 103 56 104 54 105
REMARK H PARENT 15 4 19 39 78 58 46 69
REMARK Flexibility Score: inf
ROOT
ATOM      1  C   UNL A   1      36.991  33.803  30.935  1.00  0.00     0.220 C 
ATOM      2  O   UNL A   1      37.309  34.208  29.810  1.00  0.00    -0.275 OA
ATOM      3  N   UNL A   1      36.343  34.721  31.716  1.00  0.00    -0.356 N 
ATOM      4  H   UNL A   1      36.124  35.531  31.202  1.00  0.00     0.163 HD
ENDROOT
BRANCH   1   5
ATOM      5  C   UNL A   1      37.342  32.368  31.314  1.00  0.00     0.110 C 
BRANCH   5   6
ATOM      6  C   UNL A   1      36.252  31.325  31.365  1.00  0.00     0.112 C 
BRANCH   6   7
ATOM      7  C   UNL A   1      36.861  29.978  31.602  1.00  0.00     0.243 C 
ATOM      8  O   UNL A   1      36.654  29.329  32.621  1.00  0.00    -0.273 OA
BRANCH   7   9
ATOM      9  N   UNL A   1      37.677  29.575  30.567  1.00  0.00    -0.230 N 
ATOM     10  C   UNL A   1      40.087  28.159  29.780  1.00  0.00     0.070 C 
ATOM     11  N   UNL A   1      39.064  28.344  31.025  1.00  0.00    -0.174 NA
ATOM     12  C   UNL A   1      39.764  29.433  28.297  1.00  0.00     0.086 C 
ATOM     13  C   UNL A   1      38.033  30.244  28.756  1.00  0.00     0.118 C 
BRANCH  10  14
ATOM     14  C   UNL A   1      40.708  26.889  29.381  1.00  0.00    -0.002 A 
ATOM     15  C   UNL A   1      41.526  22.915  26.302  1.00  0.00     0.044 C 
ATOM     16  C   UNL A   1      41.464  24.181  27.129  1.00  0.00    -0.051 A 
ATOM     17  C   UNL A   1      42.849  24.943  27.975  1.00  0.00     0.004 A 
ATOM     18  C   UNL A   1      39.788  24.733  27.429  1.00  0.00     0.004 A 
ATOM     19  C   UNL A   1      42.535  26.326  29.130  1.00  0.00     0.010 A 
ATOM     20  C   UNL A   1      39.411  26.047  28.520  1.00  0.00     0.010 A 
ENDBRANCH  10  14
BRANCH  13  21
ATOM     21  C   UNL A   1      37.055  30.070  27.534  1.00  0.00     0.045 C 
BRANCH  21  22
ATOM     22  C   UNL A   1      35.599  29.960  27.963  1.00  0.00     0.106 C 
ATOM     23  C   UNL A   1      35.025  28.803  27.250  1.00  0.00    -0.003 C 
ATOM     24  C   UNL A   1      34.786  31.240  27.734  1.00  0.00     0.253 C 
ATOM     25  C   UNL A   1      33.850  28.762  26.659  1.00  0.00    -0.003 A 
ATOM     26  N   UNL A   1      33.532  31.152  27.160  1.00  0.00    -0.212 NA
ATOM     27  O   UNL A   1      35.250  32.316  28.111  1.00  0.00    -0.272 OA
ATOM     28  C   UNL A   1      33.350  27.536  26.108  1.00  0.00     0.010 A 
ATOM     29  C   UNL A   1      33.105  30.032  26.664  1.00  0.00     0.077 A 
ATOM     30  C   UNL A   1      32.123  27.513  25.588  1.00  0.00     0.001 A 
ATOM     31  C   UNL A   1      31.779  29.922  25.974  1.00  0.00    -0.025 A 
ATOM     32  C   UNL A   1      31.352  28.733  25.502  1.00  0.00     0.005 A 
ATOM     33  C   UNL A   1      31.041  31.202  25.785  1.00  0.00     0.047 C 
ENDBRANCH  21  22
ENDBRANCH  13  21
ENDBRANCH   7   9
ENDBRANCH   6   7
ENDBRANCH   5   6
ENDBRANCH   1   5
BRANCH   3  34
ATOM     34  C   UNL A   1      35.846  34.851  33.221  1.00  0.00     0.117 C 
BRANCH  34  35
ATOM     35  C   UNL A   1      36.409  33.828  35.123  1.00  0.00     0.042 C 
BRANCH  35  36
ATOM     36  C   UNL A   1      37.891  32.642  35.254  1.00  0.00     0.118 C 
BRANCH  36  37
ATOM     37  N   UNL A   1      39.432  33.088  35.892  1.00  0.00    -0.352 N 
ATOM     38  C   UNL A   1      40.869  33.853  35.308  1.00  0.00     0.251 C 
ATOM     39  H   UNL A   1      39.515  32.842  36.841  1.00  0.00     0.163 HD
ATOM     40  O   UNL A   1      41.508  33.863  36.385  1.00  0.00    -0.269 OA
BRANCH  38  41
ATOM     41  C   UNL A   1      41.114  34.561  33.272  1.00  0.00     0.039 A 
ATOM     42  C   UNL A   1      40.264  34.680  32.099  1.00  0.00     0.014 A 
ATOM     43  C   UNL A   1      42.390  35.110  32.690  1.00  0.00     0.014 A 
ATOM     44  C   UNL A   1      40.691  34.431  30.795  1.00  0.00     0.010 A 
ATOM     45  C   UNL A   1      42.924  34.586  31.575  1.00  0.00     0.010 A 
ATOM     46  C   UNL A   1      42.028  34.184  30.629  1.00  0.00    -0.014 A 
BRANCH  46  47
ATOM     47  C   UNL A   1      42.733  34.076  29.394  1.00  0.00     0.031 A 
ATOM     48  C   UNL A   1      43.239  32.685  29.241  1.00  0.00     0.074 A 
ATOM     49  C   UNL A   1      42.459  35.137  28.596  1.00  0.00     0.049 A 
ATOM     50  N   UNL A   1      44.424  32.355  28.871  1.00  0.00    -0.248 NA
ATOM     51  C   UNL A   1      42.515  31.487  29.769  1.00  0.00     0.031 C 
ATOM     52  C   UNL A   1      42.541  35.329  27.162  1.00  0.00     0.029 A 
ATOM     53  N   UNL A   1      42.098  36.423  29.068  1.00  0.00    -0.354 N 
ATOM     54  C   UNL A   1      44.301  31.020  28.527  1.00  0.00     0.074 A 
ATOM     55  C   UNL A   1      43.308  30.480  29.404  1.00  0.00     0.031 C 
ATOM     56  C   UNL A   1      42.660  36.652  26.913  1.00  0.00     0.029 A 
ATOM     57  C   UNL A   1      42.679  37.361  28.185  1.00  0.00     0.049 A 
ATOM     58  H   UNL A   1      41.548  36.625  29.858  1.00  0.00     0.167 HD
ATOM     59  C   UNL A   1      44.617  30.651  27.250  1.00  0.00     0.037 A 
ATOM     60  C   UNL A   1      43.726  38.098  28.666  1.00  0.00     0.037 A 
ATOM     61  C   UNL A   1      44.937  31.860  26.481  1.00  0.00     0.049 A 
ATOM     62  C   UNL A   1      45.054  37.448  28.339  1.00  0.00     0.074 A 
ATOM     63  C   UNL A   1      44.256  32.639  25.563  1.00  0.00     0.029 A 
ATOM     64  N   UNL A   1      45.938  32.673  26.970  1.00  0.00    -0.354 N 
ATOM     65  N   UNL A   1      45.174  36.306  27.721  1.00  0.00    -0.248 NA
ATOM     66  C   UNL A   1      46.337  37.997  28.765  1.00  0.00     0.031 C 
ATOM     67  C   UNL A   1      44.895  33.925  25.514  1.00  0.00     0.029 A 
ATOM     68  C   UNL A   1      45.936  33.933  26.423  1.00  0.00     0.049 A 
ATOM     69  H   UNL A   1      46.589  32.378  27.646  1.00  0.00     0.167 HD
ATOM     70  C   UNL A   1      46.489  35.965  27.633  1.00  0.00     0.074 A 
ATOM     71  C   UNL A   1      47.169  37.015  28.380  1.00  0.00     0.031 C 
ATOM     72  C   UNL A   1      46.926  34.865  26.942  1.00  0.00     0.037 A 
BRANCH  59  73
ATOM     73  C   UNL A   1      44.388  29.295  26.628  1.00  0.00     0.064 A 
ATOM     74  C   UNL A   1      43.080  28.903  26.278  1.00  0.00     0.173 A 
ATOM     75  C   UNL A   1      45.398  28.376  26.264  1.00  0.00     0.173 A 
ATOM     76  F   UNL A   1      42.029  29.702  26.503  1.00  0.00    -0.203 F 
ATOM     77  C   UNL A   1      42.797  27.687  25.653  1.00  0.00     0.198 A 
ATOM     78  C   UNL A   1      45.110  27.143  25.665  1.00  0.00     0.198 A 
ATOM     79  F   UNL A   1      46.697  28.656  26.416  1.00  0.00    -0.203 F 
ATOM     80  F   UNL A   1      41.532  27.391  25.330  1.00  0.00    -0.200 F 
ATOM     81  C   UNL A   1      43.810  26.801  25.355  1.00  0.00     0.200 A 
ATOM     82  F   UNL A   1      46.108  26.297  25.368  1.00  0.00    -0.200 F 
ATOM     83  F   UNL A   1      43.536  25.638  24.750  1.00  0.00    -0.200 F 
ENDBRANCH  59  73
BRANCH  60  84
ATOM     84  C   UNL A   1      43.380  38.677  30.001  1.00  0.00     0.064 A 
ATOM     85  C   UNL A   1      44.055  38.157  31.126  1.00  0.00     0.173 A 
ATOM     86  C   UNL A   1      42.819  39.956  30.107  1.00  0.00     0.173 A 
ATOM     87  F   UNL A   1      44.616  36.938  31.072  1.00  0.00    -0.203 F 
ATOM     88  C   UNL A   1      44.304  38.949  32.240  1.00  0.00     0.198 A 
ATOM     89  C   UNL A   1      43.045  40.734  31.237  1.00  0.00     0.198 A 
ATOM     90  F   UNL A   1      42.174  40.508  29.070  1.00  0.00    -0.203 F 
ATOM     91  F   UNL A   1      45.138  38.517  33.196  1.00  0.00    -0.200 F 
ATOM     92  C   UNL A   1      43.806  40.238  32.290  1.00  0.00     0.200 A 
ATOM     93  F   UNL A   1      42.622  42.005  31.252  1.00  0.00    -0.200 F 
ATOM     94  F   UNL A   1      44.135  41.029  33.319  1.00  0.00    -0.200 F 
ENDBRANCH  60  84
BRANCH  72  95
ATOM     95  C   UNL A   1      48.391  34.553  26.768  1.00  0.00     0.064 A 
ATOM     96  C   UNL A   1      49.069  34.862  25.584  1.00  0.00     0.173 A 
ATOM     97  C   UNL A   1      49.164  33.873  27.741  1.00  0.00     0.173 A 
ATOM     98  F   UNL A   1      48.406  35.279  24.494  1.00  0.00    -0.203 F 
ATOM     99  C   UNL A   1      50.448  34.721  25.470  1.00  0.00     0.198 A 
ATOM    100  C   UNL A   1      50.526  33.662  27.597  1.00  0.00     0.198 A 
ATOM    101  F   UNL A   1      48.655  33.381  28.875  1.00  0.00    -0.203 F 
ATOM    102  F   UNL A   1      51.065  35.163  24.368  1.00  0.00    -0.200 F 
ATOM    103  C   UNL A   1      51.179  34.134  26.484  1.00  0.00     0.200 A 
ATOM    104  F   UNL A   1      51.194  33.011  28.559  1.00  0.00    -0.200 F 
ATOM    105  F   UNL A   1      52.505  34.000  26.379  1.00  0.00    -0.200 F 
ENDBRANCH  72  95
ENDBRANCH  46  47
ENDBRANCH  38  41
ENDBRANCH  36  37
ENDBRANCH  35  36
ENDBRANCH  34  35
ENDBRANCH   3  34
TORSDOF 16
ENDMDL
