MODEL 1
REMARK VINA RESULT:     -12.6      0.000      0.000
REMARK SMILES C[NH2+][C@@]1(C(=O)NCCCNC(=O)c2ccc(-c3c4nc(c(-c5c(F)c(F)c(F)c(F)c5F)c5ccc([nH]5)c(-c5c(F)c(F)c(F)c(F)c5F)c5nc(c(-c6c(F)c(F)c(F)c(F)c6F)c6ccc3[nH]6)C=C5)C=C4)cc2)CCC[C@H]([N@H+](C)C2CC[NH+](C)CC2)C1
REMARK SMILES IDX 8 1 7 2 6 3 4 4 5 5 3 7 76 8 89 9 77 10 79 11 78 12 2 13
REMARK SMILES IDX 1 14 80 17 81 18 82 20 83 21 88 22 84 23 87 24 85 25 86 26
REMARK SMILES IDX 9 28 10 29 11 30 12 32 13 33 14 34 75 35 15 36 74 37 16 38
REMARK SMILES IDX 17 39 18 40 68 41 19 42 73 43 67 44 69 45 20 46 72 47 66 48
REMARK SMILES IDX 65 49 21 51 53 52 33 53 52 54 34 55 37 56 51 57 70 58 35 59
REMARK SMILES IDX 36 60 50 62 71 63 38 64 22 65 23 66 31 67 24 68 25 69 29 70
REMARK SMILES IDX 32 71 26 72 27 73 30 74 28 75 54 76 55 77 63 78 56 79 57 80
REMARK SMILES IDX 61 81 64 82 58 83 59 84 62 85 60 86 39 87 40 88 48 89 41 90
REMARK SMILES IDX 42 91 46 92 49 93 43 94 44 95 47 96 45 97
REMARK H PARENT 6 6 2 15 2 16 80 19 85 27 10 31 69 50 37 61
REMARK Flexibility Score: inf
ROOT
ATOM      1  C   UNL A   1      33.656  27.027  25.619  1.00  0.00     0.042 C 
ENDROOT
BRANCH   1   2
ATOM      2  C   UNL A   1      34.279  25.930  24.765  1.00  0.00     0.118 C 
BRANCH   2   3
ATOM      3  N   UNL A   1      34.980  24.895  25.512  1.00  0.00    -0.351 N 
ATOM      4  C   UNL A   1      35.410  23.741  24.861  1.00  0.00     0.281 C 
ATOM      5  O   UNL A   1      35.632  23.744  23.648  1.00  0.00    -0.268 OA
ATOM      6  H   UNL A   1      35.150  25.012  26.475  1.00  0.00     0.163 HD
BRANCH   4   7
ATOM      7  C   UNL A   1      35.671  22.467  25.754  1.00  0.00     0.181 C 
ATOM      8  C   UNL A   1      35.722  21.131  24.945  1.00  0.00     0.079 C 
ATOM      9  C   UNL A   1      34.605  22.343  26.869  1.00  0.00     0.144 C 
ATOM     10  C   UNL A   1      34.423  20.367  24.704  1.00  0.00     0.013 C 
ATOM     11  C   UNL A   1      33.196  21.891  26.362  1.00  0.00     0.190 C 
ATOM     12  C   UNL A   1      33.380  20.486  25.793  1.00  0.00     0.065 C 
BRANCH   7  13
ATOM     13  N   UNL A   1      37.010  22.648  26.424  1.00  0.00    -0.336 N 
ATOM     14  C   UNL A   1      38.130  22.081  25.660  1.00  0.00     0.331 C 
ATOM     15  H   UNL A   1      37.177  23.645  26.549  1.00  0.00     0.346 HD
ATOM     16  H   UNL A   1      36.971  22.147  27.313  1.00  0.00     0.346 HD
ENDBRANCH   7  13
BRANCH  11  17
ATOM     17  N   UNL A   1      32.495  22.998  25.631  1.00  0.00    -0.332 N 
ATOM     18  C   UNL A   1      31.789  23.756  26.711  1.00  0.00     0.333 C 
ATOM     19  H   UNL A   1      33.241  23.449  25.101  1.00  0.00     0.348 HD
BRANCH  17  20
ATOM     20  C   UNL A   1      31.521  22.753  24.509  1.00  0.00     0.195 C 
ATOM     21  C   UNL A   1      31.974  22.362  23.094  1.00  0.00     0.126 C 
ATOM     22  C   UNL A   1      30.578  23.975  24.221  1.00  0.00     0.126 C 
ATOM     23  C   UNL A   1      32.707  23.489  22.372  1.00  0.00     0.268 C 
ATOM     24  C   UNL A   1      31.018  25.006  23.152  1.00  0.00     0.268 C 
ATOM     25  N   UNL A   1      31.803  24.567  22.004  1.00  0.00    -0.337 N 
ATOM     26  C   UNL A   1      32.590  25.703  21.482  1.00  0.00     0.332 C 
ATOM     27  H   UNL A   1      31.162  24.226  21.289  1.00  0.00     0.347 HD
ENDBRANCH  17  20
ENDBRANCH  11  17
ENDBRANCH   4   7
ENDBRANCH   2   3
ENDBRANCH   1   2
BRANCH   1  28
ATOM     28  C   UNL A   1      33.940  28.492  25.243  1.00  0.00     0.118 C 
BRANCH  28  29
ATOM     29  N   UNL A   1      33.102  29.561  25.801  1.00  0.00    -0.352 N 
ATOM     30  C   UNL A   1      33.333  30.494  26.799  1.00  0.00     0.251 C 
ATOM     31  H   UNL A   1      32.210  29.626  25.389  1.00  0.00     0.163 HD
ATOM     32  O   UNL A   1      32.475  31.322  27.105  1.00  0.00    -0.269 OA
BRANCH  30  33
ATOM     33  C   UNL A   1      34.618  30.544  27.514  1.00  0.00     0.039 A 
ATOM     34  C   UNL A   1      35.372  31.725  27.602  1.00  0.00     0.014 A 
ATOM     35  C   UNL A   1      35.104  29.367  28.057  1.00  0.00     0.014 A 
ATOM     36  C   UNL A   1      36.579  31.725  28.315  1.00  0.00     0.010 A 
ATOM     37  C   UNL A   1      36.199  29.403  28.891  1.00  0.00     0.010 A 
ATOM     38  C   UNL A   1      36.977  30.566  28.994  1.00  0.00    -0.014 A 
BRANCH  38  39
ATOM     39  C   UNL A   1      38.236  30.422  29.762  1.00  0.00     0.031 A 
ATOM     40  C   UNL A   1      39.298  29.514  29.192  1.00  0.00     0.074 A 
ATOM     41  C   UNL A   1      38.323  30.895  31.017  1.00  0.00     0.049 A 
ATOM     42  N   UNL A   1      40.268  28.883  29.796  1.00  0.00    -0.248 NA
ATOM     43  C   UNL A   1      39.164  29.179  27.761  1.00  0.00     0.031 C 
ATOM     44  C   UNL A   1      37.324  31.727  31.689  1.00  0.00     0.029 A 
ATOM     45  N   UNL A   1      39.288  30.700  31.971  1.00  0.00    -0.354 N 
ATOM     46  C   UNL A   1      40.795  28.018  28.843  1.00  0.00     0.074 A 
ATOM     47  C   UNL A   1      39.987  28.149  27.652  1.00  0.00     0.031 C 
ATOM     48  C   UNL A   1      37.736  31.984  32.941  1.00  0.00     0.029 A 
ATOM     49  C   UNL A   1      39.000  31.295  33.173  1.00  0.00     0.049 A 
ATOM     50  H   UNL A   1      40.110  30.182  31.808  1.00  0.00     0.167 HD
ATOM     51  C   UNL A   1      41.877  27.212  28.948  1.00  0.00     0.037 A 
ATOM     52  C   UNL A   1      39.685  31.268  34.332  1.00  0.00     0.037 A 
ATOM     53  C   UNL A   1      42.722  27.194  30.111  1.00  0.00     0.049 A 
ATOM     54  C   UNL A   1      40.959  30.466  34.386  1.00  0.00     0.074 A 
ATOM     55  C   UNL A   1      43.912  26.521  30.310  1.00  0.00     0.029 A 
ATOM     56  N   UNL A   1      42.471  27.925  31.266  1.00  0.00    -0.354 N 
ATOM     57  N   UNL A   1      41.485  29.685  33.471  1.00  0.00    -0.248 NA
ATOM     58  C   UNL A   1      41.740  30.548  35.626  1.00  0.00     0.031 C 
ATOM     59  C   UNL A   1      44.373  26.831  31.594  1.00  0.00     0.029 A 
ATOM     60  C   UNL A   1      43.491  27.727  32.179  1.00  0.00     0.049 A 
ATOM     61  H   UNL A   1      41.684  28.497  31.412  1.00  0.00     0.167 HD
ATOM     62  C   UNL A   1      42.672  29.210  34.008  1.00  0.00     0.074 A 
ATOM     63  C   UNL A   1      42.795  29.803  35.325  1.00  0.00     0.031 C 
ATOM     64  C   UNL A   1      43.580  28.358  33.471  1.00  0.00     0.037 A 
BRANCH  51  65
ATOM     65  C   UNL A   1      42.220  26.333  27.776  1.00  0.00     0.064 A 
ATOM     66  C   UNL A   1      41.595  25.092  27.572  1.00  0.00     0.173 A 
ATOM     67  C   UNL A   1      43.181  26.736  26.837  1.00  0.00     0.173 A 
ATOM     68  F   UNL A   1      40.673  24.649  28.441  1.00  0.00    -0.203 F 
ATOM     69  C   UNL A   1      41.953  24.269  26.507  1.00  0.00     0.198 A 
ATOM     70  C   UNL A   1      43.508  25.929  25.748  1.00  0.00     0.198 A 
ATOM     71  F   UNL A   1      43.810  27.914  26.971  1.00  0.00    -0.203 F 
ATOM     72  F   UNL A   1      41.394  23.058  26.382  1.00  0.00    -0.200 F 
ATOM     73  C   UNL A   1      42.905  24.691  25.592  1.00  0.00     0.200 A 
ATOM     74  F   UNL A   1      44.416  26.345  24.855  1.00  0.00    -0.200 F 
ATOM     75  F   UNL A   1      43.245  23.900  24.565  1.00  0.00    -0.200 F 
ENDBRANCH  51  65
BRANCH  52  76
ATOM     76  C   UNL A   1      39.222  32.074  35.492  1.00  0.00     0.064 A 
ATOM     77  C   UNL A   1      39.586  33.423  35.606  1.00  0.00     0.173 A 
ATOM     78  C   UNL A   1      38.395  31.538  36.490  1.00  0.00     0.173 A 
ATOM     79  F   UNL A   1      40.384  33.980  34.683  1.00  0.00    -0.203 F 
ATOM     80  C   UNL A   1      39.163  34.199  36.683  1.00  0.00     0.198 A 
ATOM     81  C   UNL A   1      37.948  32.322  37.553  1.00  0.00     0.198 A 
ATOM     82  F   UNL A   1      38.003  30.257  36.423  1.00  0.00    -0.203 F 
ATOM     83  F   UNL A   1      39.561  35.474  36.785  1.00  0.00    -0.200 F 
ATOM     84  C   UNL A   1      38.338  33.650  37.653  1.00  0.00     0.200 A 
ATOM     85  F   UNL A   1      37.136  31.793  38.478  1.00  0.00    -0.200 F 
ATOM     86  F   UNL A   1      37.924  34.398  38.685  1.00  0.00    -0.200 F 
ENDBRANCH  52  76
BRANCH  64  87
ATOM     87  C   UNL A   1      44.801  28.062  34.288  1.00  0.00     0.064 A 
ATOM     88  C   UNL A   1      44.837  26.989  35.188  1.00  0.00     0.173 A 
ATOM     89  C   UNL A   1      45.964  28.828  34.120  1.00  0.00     0.173 A 
ATOM     90  F   UNL A   1      43.744  26.238  35.389  1.00  0.00    -0.203 F 
ATOM     91  C   UNL A   1      45.991  26.708  35.913  1.00  0.00     0.198 A 
ATOM     92  C   UNL A   1      47.125  28.525  34.824  1.00  0.00     0.198 A 
ATOM     93  F   UNL A   1      45.978  29.858  33.261  1.00  0.00    -0.203 F 
ATOM     94  F   UNL A   1      45.993  25.706  36.803  1.00  0.00    -0.200 F 
ATOM     95  C   UNL A   1      47.135  27.470  35.723  1.00  0.00     0.200 A 
ATOM     96  F   UNL A   1      48.234  29.251  34.628  1.00  0.00    -0.200 F 
ATOM     97  F   UNL A   1      48.249  27.189  36.415  1.00  0.00    -0.200 F 
ENDBRANCH  64  87
ENDBRANCH  38  39
ENDBRANCH  30  33
ENDBRANCH  28  29
ENDBRANCH   1  28
TORSDOF 13
ENDMDL
MODEL 2
REMARK VINA RESULT:     -12.4      3.886      9.240
REMARK SMILES C[NH2+][C@@]1(C(=O)NCCCNC(=O)c2ccc(-c3c4nc(c(-c5c(F)c(F)c(F)c(F)c5F)c5ccc([nH]5)c(-c5c(F)c(F)c(F)c(F)c5F)c5nc(c(-c6c(F)c(F)c(F)c(F)c6F)c6ccc3[nH]6)C=C5)C=C4)cc2)CCC[C@H]([N@H+](C)C2CC[NH+](C)CC2)C1
REMARK SMILES IDX 8 1 7 2 6 3 4 4 5 5 3 7 76 8 89 9 77 10 79 11 78 12 2 13
REMARK SMILES IDX 1 14 80 17 81 18 82 20 83 21 88 22 84 23 87 24 85 25 86 26
REMARK SMILES IDX 9 28 10 29 11 30 12 32 13 33 14 34 75 35 15 36 74 37 16 38
REMARK SMILES IDX 17 39 18 40 68 41 19 42 73 43 67 44 69 45 20 46 72 47 66 48
REMARK SMILES IDX 65 49 21 51 53 52 33 53 52 54 34 55 37 56 51 57 70 58 35 59
REMARK SMILES IDX 36 60 50 62 71 63 38 64 22 65 23 66 31 67 24 68 25 69 29 70
REMARK SMILES IDX 32 71 26 72 27 73 30 74 28 75 54 76 55 77 63 78 56 79 57 80
REMARK SMILES IDX 61 81 64 82 58 83 59 84 62 85 60 86 39 87 40 88 48 89 41 90
REMARK SMILES IDX 42 91 46 92 49 93 43 94 44 95 47 96 45 97
REMARK H PARENT 6 6 2 15 2 16 80 19 85 27 10 31 69 50 37 61
REMARK Flexibility Score: inf
ROOT
ATOM      1  C   UNL A   1      35.001  24.215  25.499  1.00  0.00     0.042 C 
ENDROOT
BRANCH   1   2
ATOM      2  C   UNL A   1      33.934  25.133  26.082  1.00  0.00     0.118 C 
BRANCH   2   3
ATOM      3  N   UNL A   1      34.124  26.549  25.803  1.00  0.00    -0.351 N 
ATOM      4  C   UNL A   1      33.095  27.452  26.065  1.00  0.00     0.281 C 
ATOM      5  O   UNL A   1      32.236  27.202  26.913  1.00  0.00    -0.268 OA
ATOM      6  H   UNL A   1      34.978  26.868  25.430  1.00  0.00     0.163 HD
BRANCH   4   7
ATOM      7  C   UNL A   1      33.129  28.825  25.290  1.00  0.00     0.181 C 
ATOM      8  C   UNL A   1      31.778  29.608  25.336  1.00  0.00     0.079 C 
ATOM      9  C   UNL A   1      33.544  28.619  23.814  1.00  0.00     0.144 C 
ATOM     10  C   UNL A   1      30.730  29.333  24.262  1.00  0.00     0.013 C 
ATOM     11  C   UNL A   1      32.438  27.965  22.922  1.00  0.00     0.190 C 
ATOM     12  C   UNL A   1      31.271  28.951  22.901  1.00  0.00     0.065 C 
BRANCH   7  13
ATOM     13  N   UNL A   1      34.181  29.689  25.941  1.00  0.00    -0.336 N 
ATOM     14  C   UNL A   1      33.719  30.351  27.168  1.00  0.00     0.331 C 
ATOM     15  H   UNL A   1      34.982  29.103  26.173  1.00  0.00     0.346 HD
ATOM     16  H   UNL A   1      34.419  30.425  25.275  1.00  0.00     0.346 HD
ENDBRANCH   7  13
BRANCH  11  17
ATOM     17  N   UNL A   1      32.284  26.503  23.223  1.00  0.00    -0.332 N 
ATOM     18  C   UNL A   1      33.279  25.842  22.320  1.00  0.00     0.333 C 
ATOM     19  H   UNL A   1      32.404  26.450  24.233  1.00  0.00     0.348 HD
BRANCH  17  20
ATOM     20  C   UNL A   1      30.973  25.773  23.099  1.00  0.00     0.195 C 
ATOM     21  C   UNL A   1      29.866  25.881  24.160  1.00  0.00     0.126 C 
ATOM     22  C   UNL A   1      31.134  24.218  22.955  1.00  0.00     0.126 C 
ATOM     23  C   UNL A   1      30.246  25.223  25.483  1.00  0.00     0.268 C 
ATOM     24  C   UNL A   1      31.099  23.355  24.241  1.00  0.00     0.268 C 
ATOM     25  N   UNL A   1      30.279  23.774  25.372  1.00  0.00    -0.337 N 
ATOM     26  C   UNL A   1      30.830  23.204  26.618  1.00  0.00     0.332 C 
ATOM     27  H   UNL A   1      29.329  23.436  25.221  1.00  0.00     0.347 HD
ENDBRANCH  17  20
ENDBRANCH  11  17
ENDBRANCH   4   7
ENDBRANCH   2   3
ENDBRANCH   1   2
BRANCH   1  28
ATOM     28  C   UNL A   1      35.764  23.283  26.457  1.00  0.00     0.118 C 
BRANCH  28  29
ATOM     29  N   UNL A   1      36.571  22.185  25.913  1.00  0.00    -0.352 N 
ATOM     30  C   UNL A   1      37.940  21.975  25.869  1.00  0.00     0.251 C 
ATOM     31  H   UNL A   1      36.041  21.463  25.503  1.00  0.00     0.163 HD
ATOM     32  O   UNL A   1      38.410  20.956  25.362  1.00  0.00    -0.269 OA
BRANCH  30  33
ATOM     33  C   UNL A   1      38.880  22.949  26.444  1.00  0.00     0.039 A 
ATOM     34  C   UNL A   1      39.907  22.562  27.320  1.00  0.00     0.014 A 
ATOM     35  C   UNL A   1      38.692  24.288  26.142  1.00  0.00     0.014 A 
ATOM     36  C   UNL A   1      40.791  23.528  27.822  1.00  0.00     0.010 A 
ATOM     37  C   UNL A   1      39.652  25.207  26.500  1.00  0.00     0.010 A 
ATOM     38  C   UNL A   1      40.684  24.853  27.381  1.00  0.00    -0.014 A 
BRANCH  38  39
ATOM     39  C   UNL A   1      41.534  25.974  27.847  1.00  0.00     0.031 A 
ATOM     40  C   UNL A   1      40.866  27.072  28.637  1.00  0.00     0.074 A 
ATOM     41  C   UNL A   1      42.789  26.112  27.384  1.00  0.00     0.049 A 
ATOM     42  N   UNL A   1      41.225  28.316  28.804  1.00  0.00    -0.248 NA
ATOM     43  C   UNL A   1      39.548  26.745  29.213  1.00  0.00     0.031 C 
ATOM     44  C   UNL A   1      43.507  25.141  26.557  1.00  0.00     0.029 A 
ATOM     45  N   UNL A   1      43.667  27.157  27.507  1.00  0.00    -0.354 N 
ATOM     46  C   UNL A   1      40.141  28.932  29.420  1.00  0.00     0.074 A 
ATOM     47  C   UNL A   1      39.089  27.947  29.523  1.00  0.00     0.031 C 
ATOM     48  C   UNL A   1      44.722  25.629  26.261  1.00  0.00     0.029 A 
ATOM     49  C   UNL A   1      44.848  26.965  26.834  1.00  0.00     0.049 A 
ATOM     50  H   UNL A   1      43.469  27.969  28.029  1.00  0.00     0.167 HD
ATOM     51  C   UNL A   1      40.049  30.200  29.886  1.00  0.00     0.037 A 
ATOM     52  C   UNL A   1      45.901  27.791  26.694  1.00  0.00     0.037 A 
ATOM     53  C   UNL A   1      41.156  31.116  29.866  1.00  0.00     0.049 A 
ATOM     54  C   UNL A   1      45.828  29.153  27.333  1.00  0.00     0.074 A 
ATOM     55  C   UNL A   1      41.245  32.384  30.409  1.00  0.00     0.029 A 
ATOM     56  N   UNL A   1      42.392  30.832  29.297  1.00  0.00    -0.354 N 
ATOM     57  N   UNL A   1      44.822  29.720  27.958  1.00  0.00    -0.248 NA
ATOM     58  C   UNL A   1      47.034  29.985  27.259  1.00  0.00     0.031 C 
ATOM     59  C   UNL A   1      42.529  32.874  30.150  1.00  0.00     0.029 A 
ATOM     60  C   UNL A   1      43.253  31.897  29.483  1.00  0.00     0.049 A 
ATOM     61  H   UNL A   1      42.619  29.996  28.829  1.00  0.00     0.167 HD
ATOM     62  C   UNL A   1      45.282  30.958  28.381  1.00  0.00     0.074 A 
ATOM     63  C   UNL A   1      46.664  31.052  27.952  1.00  0.00     0.031 C 
ATOM     64  C   UNL A   1      44.628  31.935  29.057  1.00  0.00     0.037 A 
BRANCH  51  65
ATOM     65  C   UNL A   1      38.740  30.641  30.481  1.00  0.00     0.064 A 
ATOM     66  C   UNL A   1      38.498  30.584  31.864  1.00  0.00     0.173 A 
ATOM     67  C   UNL A   1      37.712  31.135  29.664  1.00  0.00     0.173 A 
ATOM     68  F   UNL A   1      39.439  30.112  32.696  1.00  0.00    -0.203 F 
ATOM     69  C   UNL A   1      37.266  30.954  32.398  1.00  0.00     0.198 A 
ATOM     70  C   UNL A   1      36.494  31.543  30.206  1.00  0.00     0.198 A 
ATOM     71  F   UNL A   1      37.883  31.221  28.336  1.00  0.00    -0.203 F 
ATOM     72  F   UNL A   1      37.038  30.816  33.711  1.00  0.00    -0.200 F 
ATOM     73  C   UNL A   1      36.267  31.440  31.569  1.00  0.00     0.200 A 
ATOM     74  F   UNL A   1      35.535  32.029  29.405  1.00  0.00    -0.200 F 
ATOM     75  F   UNL A   1      35.084  31.800  32.085  1.00  0.00    -0.200 F 
ENDBRANCH  51  65
BRANCH  52  76
ATOM     76  C   UNL A   1      47.125  27.327  25.989  1.00  0.00     0.064 A 
ATOM     77  C   UNL A   1      47.301  27.601  24.624  1.00  0.00     0.173 A 
ATOM     78  C   UNL A   1      48.149  26.632  26.649  1.00  0.00     0.173 A 
ATOM     79  F   UNL A   1      46.346  28.254  23.945  1.00  0.00    -0.203 F 
ATOM     80  C   UNL A   1      48.440  27.178  23.942  1.00  0.00     0.198 A 
ATOM     81  C   UNL A   1      49.302  26.234  25.972  1.00  0.00     0.198 A 
ATOM     82  F   UNL A   1      48.040  26.357  27.957  1.00  0.00    -0.203 F 
ATOM     83  F   UNL A   1      48.560  27.419  22.629  1.00  0.00    -0.200 F 
ATOM     84  C   UNL A   1      49.443  26.500  24.618  1.00  0.00     0.200 A 
ATOM     85  F   UNL A   1      50.277  25.596  26.632  1.00  0.00    -0.200 F 
ATOM     86  F   UNL A   1      50.542  26.100  23.963  1.00  0.00    -0.200 F 
ENDBRANCH  52  76
BRANCH  64  87
ATOM     87  C   UNL A   1      45.415  33.160  29.412  1.00  0.00     0.064 A 
ATOM     88  C   UNL A   1      46.164  33.233  30.594  1.00  0.00     0.173 A 
ATOM     89  C   UNL A   1      45.464  34.247  28.527  1.00  0.00     0.173 A 
ATOM     90  F   UNL A   1      46.136  32.222  31.475  1.00  0.00    -0.203 F 
ATOM     91  C   UNL A   1      46.915  34.365  30.891  1.00  0.00     0.198 A 
ATOM     92  C   UNL A   1      46.242  35.364  28.812  1.00  0.00     0.198 A 
ATOM     93  F   UNL A   1      44.772  34.216  27.379  1.00  0.00    -0.203 F 
ATOM     94  F   UNL A   1      47.590  34.435  32.047  1.00  0.00    -0.200 F 
ATOM     95  C   UNL A   1      46.962  35.424  29.996  1.00  0.00     0.200 A 
ATOM     96  F   UNL A   1      46.298  36.380  27.940  1.00  0.00    -0.200 F 
ATOM     97  F   UNL A   1      47.696  36.509  30.279  1.00  0.00    -0.200 F 
ENDBRANCH  64  87
ENDBRANCH  38  39
ENDBRANCH  30  33
ENDBRANCH  28  29
ENDBRANCH   1  28
TORSDOF 13
ENDMDL
MODEL 3
REMARK VINA RESULT:     -12.1      0.930      2.727
REMARK SMILES C[NH2+][C@@]1(C(=O)NCCCNC(=O)c2ccc(-c3c4nc(c(-c5c(F)c(F)c(F)c(F)c5F)c5ccc([nH]5)c(-c5c(F)c(F)c(F)c(F)c5F)c5nc(c(-c6c(F)c(F)c(F)c(F)c6F)c6ccc3[nH]6)C=C5)C=C4)cc2)CCC[C@H]([N@H+](C)C2CC[NH+](C)CC2)C1
REMARK SMILES IDX 8 1 7 2 6 3 4 4 5 5 3 7 76 8 89 9 77 10 79 11 78 12 2 13
REMARK SMILES IDX 1 14 80 17 81 18 82 20 83 21 88 22 84 23 87 24 85 25 86 26
REMARK SMILES IDX 9 28 10 29 11 30 12 32 13 33 14 34 75 35 15 36 74 37 16 38
REMARK SMILES IDX 17 39 18 40 68 41 19 42 73 43 67 44 69 45 20 46 72 47 66 48
REMARK SMILES IDX 65 49 21 51 53 52 33 53 52 54 34 55 37 56 51 57 70 58 35 59
REMARK SMILES IDX 36 60 50 62 71 63 38 64 22 65 23 66 31 67 24 68 25 69 29 70
REMARK SMILES IDX 32 71 26 72 27 73 30 74 28 75 54 76 55 77 63 78 56 79 57 80
REMARK SMILES IDX 61 81 64 82 58 83 59 84 62 85 60 86 39 87 40 88 48 89 41 90
REMARK SMILES IDX 42 91 46 92 49 93 43 94 44 95 47 96 45 97
REMARK H PARENT 6 6 2 15 2 16 80 19 85 27 10 31 69 50 37 61
REMARK Flexibility Score: inf
ROOT
ATOM      1  C   UNL A   1      33.772  28.554  23.433  1.00  0.00     0.042 C 
ENDROOT
BRANCH   1   2
ATOM      2  C   UNL A   1      33.507  27.098  23.074  1.00  0.00     0.118 C 
BRANCH   2   3
ATOM      3  N   UNL A   1      32.380  26.491  23.766  1.00  0.00    -0.351 N 
ATOM      4  C   UNL A   1      32.601  25.473  24.692  1.00  0.00     0.281 C 
ATOM      5  O   UNL A   1      33.682  25.374  25.277  1.00  0.00    -0.268 OA
ATOM      6  H   UNL A   1      31.463  26.799  23.581  1.00  0.00     0.163 HD
BRANCH   4   7
ATOM      7  C   UNL A   1      31.390  24.514  25.009  1.00  0.00     0.181 C 
ATOM      8  C   UNL A   1      31.402  23.944  26.464  1.00  0.00     0.079 C 
ATOM      9  C   UNL A   1      31.337  23.336  24.006  1.00  0.00     0.144 C 
ATOM     10  C   UNL A   1      32.156  22.647  26.740  1.00  0.00     0.013 C 
ATOM     11  C   UNL A   1      32.450  22.259  24.222  1.00  0.00     0.190 C 
ATOM     12  C   UNL A   1      32.192  21.653  25.600  1.00  0.00     0.065 C 
BRANCH   7  13
ATOM     13  N   UNL A   1      30.121  25.311  24.840  1.00  0.00    -0.336 N 
ATOM     14  C   UNL A   1      29.456  25.631  26.111  1.00  0.00     0.331 C 
ATOM     15  H   UNL A   1      30.348  26.185  24.367  1.00  0.00     0.346 HD
ATOM     16  H   UNL A   1      29.474  24.735  24.301  1.00  0.00     0.346 HD
ENDBRANCH   7  13
BRANCH  11  17
ATOM     17  N   UNL A   1      33.791  22.758  23.771  1.00  0.00    -0.332 N 
ATOM     18  C   UNL A   1      33.562  23.185  22.355  1.00  0.00     0.333 C 
ATOM     19  H   UNL A   1      34.041  23.452  24.475  1.00  0.00     0.348 HD
BRANCH  17  20
ATOM     20  C   UNL A   1      35.038  21.914  23.816  1.00  0.00     0.195 C 
ATOM     21  C   UNL A   1      35.574  21.303  25.120  1.00  0.00     0.126 C 
ATOM     22  C   UNL A   1      36.308  22.646  23.254  1.00  0.00     0.126 C 
ATOM     23  C   UNL A   1      36.104  22.352  26.093  1.00  0.00     0.268 C 
ATOM     24  C   UNL A   1      37.211  23.417  24.248  1.00  0.00     0.268 C 
ATOM     25  N   UNL A   1      37.346  22.943  25.621  1.00  0.00    -0.337 N 
ATOM     26  C   UNL A   1      37.710  24.073  26.500  1.00  0.00     0.332 C 
ATOM     27  H   UNL A   1      38.075  22.231  25.643  1.00  0.00     0.347 HD
ENDBRANCH  17  20
ENDBRANCH  11  17
ENDBRANCH   4   7
ENDBRANCH   2   3
ENDBRANCH   1   2
BRANCH   1  28
ATOM     28  C   UNL A   1      34.037  28.903  24.909  1.00  0.00     0.118 C 
BRANCH  28  29
ATOM     29  N   UNL A   1      33.128  29.815  25.614  1.00  0.00    -0.352 N 
ATOM     30  C   UNL A   1      33.297  30.604  26.741  1.00  0.00     0.251 C 
ATOM     31  H   UNL A   1      32.232  29.878  25.211  1.00  0.00     0.163 HD
ATOM     32  O   UNL A   1      32.384  31.314  27.162  1.00  0.00    -0.269 OA
BRANCH  30  33
ATOM     33  C   UNL A   1      34.579  30.638  27.462  1.00  0.00     0.039 A 
ATOM     34  C   UNL A   1      35.329  31.820  27.587  1.00  0.00     0.014 A 
ATOM     35  C   UNL A   1      35.068  29.448  27.975  1.00  0.00     0.014 A 
ATOM     36  C   UNL A   1      36.533  31.804  28.305  1.00  0.00     0.010 A 
ATOM     37  C   UNL A   1      36.159  29.466  28.814  1.00  0.00     0.010 A 
ATOM     38  C   UNL A   1      36.932  30.627  28.953  1.00  0.00    -0.014 A 
BRANCH  38  39
ATOM     39  C   UNL A   1      38.189  30.466  29.721  1.00  0.00     0.031 A 
ATOM     40  C   UNL A   1      39.234  29.536  29.158  1.00  0.00     0.074 A 
ATOM     41  C   UNL A   1      38.285  30.947  30.973  1.00  0.00     0.049 A 
ATOM     42  N   UNL A   1      40.193  28.892  29.767  1.00  0.00    -0.248 NA
ATOM     43  C   UNL A   1      39.095  29.194  27.729  1.00  0.00     0.031 C 
ATOM     44  C   UNL A   1      37.300  31.801  31.639  1.00  0.00     0.029 A 
ATOM     45  N   UNL A   1      39.246  30.741  31.928  1.00  0.00    -0.354 N 
ATOM     46  C   UNL A   1      40.705  28.012  28.820  1.00  0.00     0.074 A 
ATOM     47  C   UNL A   1      39.899  28.148  27.628  1.00  0.00     0.031 C 
ATOM     48  C   UNL A   1      37.716  32.059  32.889  1.00  0.00     0.029 A 
ATOM     49  C   UNL A   1      38.968  31.350  33.127  1.00  0.00     0.049 A 
ATOM     50  H   UNL A   1      40.058  30.207  31.769  1.00  0.00     0.167 HD
ATOM     51  C   UNL A   1      41.772  27.186  28.930  1.00  0.00     0.037 A 
ATOM     52  C   UNL A   1      39.653  31.318  34.285  1.00  0.00     0.037 A 
ATOM     53  C   UNL A   1      42.617  27.162  30.093  1.00  0.00     0.049 A 
ATOM     54  C   UNL A   1      40.912  30.495  34.345  1.00  0.00     0.074 A 
ATOM     55  C   UNL A   1      43.795  26.470  30.297  1.00  0.00     0.029 A 
ATOM     56  N   UNL A   1      42.379  27.905  31.243  1.00  0.00    -0.354 N 
ATOM     57  N   UNL A   1      41.424  29.698  33.436  1.00  0.00    -0.248 NA
ATOM     58  C   UNL A   1      41.695  30.571  35.585  1.00  0.00     0.031 C 
ATOM     59  C   UNL A   1      44.261  26.780  31.579  1.00  0.00     0.029 A 
ATOM     60  C   UNL A   1      43.395  27.696  32.158  1.00  0.00     0.049 A 
ATOM     61  H   UNL A   1      41.602  28.492  31.386  1.00  0.00     0.167 HD
ATOM     62  C   UNL A   1      42.603  29.205  33.976  1.00  0.00     0.074 A 
ATOM     63  C   UNL A   1      42.736  29.806  35.290  1.00  0.00     0.031 C 
ATOM     64  C   UNL A   1      43.496  28.334  33.445  1.00  0.00     0.037 A 
BRANCH  51  65
ATOM     65  C   UNL A   1      42.099  26.294  27.765  1.00  0.00     0.064 A 
ATOM     66  C   UNL A   1      41.439  25.071  27.558  1.00  0.00     0.173 A 
ATOM     67  C   UNL A   1      43.081  26.664  26.833  1.00  0.00     0.173 A 
ATOM     68  F   UNL A   1      40.496  24.659  28.420  1.00  0.00    -0.203 F 
ATOM     69  C   UNL A   1      41.782  24.234  26.500  1.00  0.00     0.198 A 
ATOM     70  C   UNL A   1      43.393  25.843  25.750  1.00  0.00     0.198 A 
ATOM     71  F   UNL A   1      43.743  27.823  26.970  1.00  0.00    -0.203 F 
ATOM     72  F   UNL A   1      41.187  23.040  26.373  1.00  0.00    -0.200 F 
ATOM     73  C   UNL A   1      42.754  24.624  25.592  1.00  0.00     0.200 A 
ATOM     74  F   UNL A   1      44.322  26.229  24.864  1.00  0.00    -0.200 F 
ATOM     75  F   UNL A   1      43.080  23.819  24.572  1.00  0.00    -0.200 F 
ENDBRANCH  51  65
BRANCH  52  76
ATOM     76  C   UNL A   1      39.204  32.140  35.440  1.00  0.00     0.064 A 
ATOM     77  C   UNL A   1      38.421  31.568  36.453  1.00  0.00     0.173 A 
ATOM     78  C   UNL A   1      39.559  33.490  35.578  1.00  0.00     0.173 A 
ATOM     79  F   UNL A   1      38.046  30.283  36.362  1.00  0.00    -0.203 F 
ATOM     80  C   UNL A   1      37.990  32.317  37.546  1.00  0.00     0.198 A 
ATOM     81  C   UNL A   1      39.152  34.232  36.687  1.00  0.00     0.198 A 
ATOM     82  F   UNL A   1      40.320  34.084  34.648  1.00  0.00    -0.203 F 
ATOM     83  F   UNL A   1      37.208  31.752  38.476  1.00  0.00    -0.200 F 
ATOM     84  C   UNL A   1      38.361  33.648  37.665  1.00  0.00     0.200 A 
ATOM     85  F   UNL A   1      39.528  35.512  36.809  1.00  0.00    -0.200 F 
ATOM     86  F   UNL A   1      37.953  34.366  38.720  1.00  0.00    -0.200 F 
ENDBRANCH  52  76
BRANCH  64  87
ATOM     87  C   UNL A   1      44.711  28.022  34.264  1.00  0.00     0.064 A 
ATOM     88  C   UNL A   1      44.730  26.952  35.169  1.00  0.00     0.173 A 
ATOM     89  C   UNL A   1      45.886  28.769  34.095  1.00  0.00     0.173 A 
ATOM     90  F   UNL A   1      43.625  26.219  35.372  1.00  0.00    -0.203 F 
ATOM     91  C   UNL A   1      45.878  26.656  35.896  1.00  0.00     0.198 A 
ATOM     92  C   UNL A   1      47.042  28.450  34.800  1.00  0.00     0.198 A 
ATOM     93  F   UNL A   1      45.916  29.796  33.232  1.00  0.00    -0.203 F 
ATOM     94  F   UNL A   1      45.864  25.657  36.789  1.00  0.00    -0.200 F 
ATOM     95  C   UNL A   1      47.035  27.399  35.704  1.00  0.00     0.200 A 
ATOM     96  F   UNL A   1      48.162  29.158  34.603  1.00  0.00    -0.200 F 
ATOM     97  F   UNL A   1      48.143  27.104  36.398  1.00  0.00    -0.200 F 
ENDBRANCH  64  87
ENDBRANCH  38  39
ENDBRANCH  30  33
ENDBRANCH  28  29
ENDBRANCH   1  28
TORSDOF 13
ENDMDL
