MODEL 1
REMARK VINA RESULT:     -14.6      0.000      0.000
REMARK SMILES O=C(NCCCNC(=O)c1ccc(-c2c3nc(c(-c4c(F)c(F)c(F)c(F)c4F)c4ccc([nH]4)c(-c4c(F)c(F)c(F)c(F)c4F)c4nc(c(-c5c(F)c(F)c(F)c(F)c5F)c5ccc2[nH]5)C=C4)C=C3)cc1)C1=Cc2cc(Cl)cc(-c3ccccc3)c2O[C@@H]1C(F)(F)F
REMARK SMILES IDX 5 1 4 2 3 3 1 4 2 5 73 7 74 8 89 9 75 10 88 11 76 12 87 13
REMARK SMILES IDX 77 14 80 15 78 16 79 17 90 18 91 19 92 20 93 21 81 22 82 23
REMARK SMILES IDX 86 24 83 25 85 26 84 27 6 28 7 29 8 30 9 32 10 33 11 34
REMARK SMILES IDX 72 35 12 36 71 37 13 38 14 39 15 40 65 41 16 42 70 43 64 44
REMARK SMILES IDX 66 45 17 46 69 47 63 48 62 49 18 51 50 52 30 53 49 54 31 55
REMARK SMILES IDX 34 56 48 57 67 58 32 59 33 60 47 62 68 63 35 64 19 65 20 66
REMARK SMILES IDX 28 67 21 68 22 69 26 70 29 71 23 72 24 73 27 74 25 75 51 76
REMARK SMILES IDX 52 77 60 78 53 79 54 80 58 81 61 82 55 83 56 84 59 85 57 86
REMARK SMILES IDX 36 87 37 88 45 89 38 90 39 91 43 92 46 93 40 94 41 95 44 96
REMARK SMILES IDX 42 97
REMARK H PARENT 3 6 7 31 66 50 34 61
REMARK Flexibility Score: inf
ROOT
ATOM      1  C   UNL A   1      31.809  28.720  26.675  1.00  0.00     0.042 C 
ENDROOT
BRANCH   1   2
ATOM      2  C   UNL A   1      31.779  27.451  25.823  1.00  0.00     0.118 C 
BRANCH   2   3
ATOM      3  N   UNL A   1      31.329  26.277  26.576  1.00  0.00    -0.352 N 
ATOM      4  O   UNL A   1      31.432  24.155  27.372  1.00  0.00    -0.270 OA
ATOM      5  C   UNL A   1      31.766  24.977  26.530  1.00  0.00     0.251 C 
ATOM      6  H   UNL A   1      30.599  26.447  27.213  1.00  0.00     0.163 HD
BRANCH   5   7
ATOM      7  C   UNL A   1      32.711  24.637  25.459  1.00  0.00     0.067 C 
ATOM      8  C   UNL A   1      34.008  24.869  25.680  1.00  0.00     0.025 C 
ATOM      9  C   UNL A   1      32.225  23.741  24.367  1.00  0.00     0.314 C 
ATOM     10  C   UNL A   1      34.901  23.817  25.185  1.00  0.00     0.019 A 
ATOM     11  O   UNL A   1      33.019  22.532  24.296  1.00  0.00    -0.475 OA
ATOM     12  C   UNL A   1      36.233  23.854  25.600  1.00  0.00     0.032 A 
ATOM     13  C   UNL A   1      34.334  22.615  24.700  1.00  0.00     0.135 A 
ATOM     14  C   UNL A   1      36.965  22.674  25.644  1.00  0.00     0.042 A 
ATOM     15  C   UNL A   1      35.052  21.409  24.798  1.00  0.00     0.026 A 
ATOM     16  Cl  UNL A   1      38.547  22.688  26.319  1.00  0.00    -0.084 Cl
ATOM     17  C   UNL A   1      36.377  21.464  25.275  1.00  0.00     0.033 A 
BRANCH   9  18
ATOM     18  C   UNL A   1      32.151  24.475  23.016  1.00  0.00     0.429 C 
ATOM     19  F   UNL A   1      32.782  23.776  22.042  1.00  0.00    -0.167 F 
ATOM     20  F   UNL A   1      30.869  24.640  22.607  1.00  0.00    -0.167 F 
ATOM     21  F   UNL A   1      32.718  25.703  23.059  1.00  0.00    -0.167 F 
ENDBRANCH   9  18
BRANCH  15  22
ATOM     22  C   UNL A   1      34.413  20.091  24.620  1.00  0.00    -0.015 A 
ATOM     23  C   UNL A   1      35.205  18.929  24.604  1.00  0.00     0.009 A 
ATOM     24  C   UNL A   1      33.036  19.937  24.440  1.00  0.00     0.009 A 
ATOM     25  C   UNL A   1      34.666  17.667  24.363  1.00  0.00     0.001 A 
ATOM     26  C   UNL A   1      32.486  18.669  24.205  1.00  0.00     0.001 A 
ATOM     27  C   UNL A   1      33.302  17.539  24.155  1.00  0.00     0.000 A 
ENDBRANCH  15  22
ENDBRANCH   5   7
ENDBRANCH   2   3
ENDBRANCH   1   2
BRANCH   1  28
ATOM     28  C   UNL A   1      32.676  29.814  26.056  1.00  0.00     0.118 C 
BRANCH  28  29
ATOM     29  N   UNL A   1      32.593  31.110  26.707  1.00  0.00    -0.352 N 
ATOM     30  C   UNL A   1      33.544  31.797  27.433  1.00  0.00     0.251 C 
ATOM     31  H   UNL A   1      31.727  31.568  26.615  1.00  0.00     0.163 HD
ATOM     32  O   UNL A   1      33.256  32.892  27.915  1.00  0.00    -0.269 OA
BRANCH  30  33
ATOM     33  C   UNL A   1      34.867  31.206  27.748  1.00  0.00     0.039 A 
ATOM     34  C   UNL A   1      35.945  32.085  27.924  1.00  0.00     0.014 A 
ATOM     35  C   UNL A   1      35.060  29.844  27.958  1.00  0.00     0.014 A 
ATOM     36  C   UNL A   1      37.149  31.619  28.451  1.00  0.00     0.010 A 
ATOM     37  C   UNL A   1      36.209  29.398  28.595  1.00  0.00     0.010 A 
ATOM     38  C   UNL A   1      37.254  30.287  28.872  1.00  0.00    -0.014 A 
BRANCH  38  39
ATOM     39  C   UNL A   1      38.419  29.817  29.654  1.00  0.00     0.031 A 
ATOM     40  C   UNL A   1      38.635  30.311  31.053  1.00  0.00     0.074 A 
ATOM     41  C   UNL A   1      39.330  29.031  29.047  1.00  0.00     0.049 A 
ATOM     42  N   UNL A   1      39.638  30.091  31.864  1.00  0.00    -0.248 NA
ATOM     43  C   UNL A   1      37.613  31.221  31.597  1.00  0.00     0.031 C 
ATOM     44  C   UNL A   1      39.265  28.582  27.652  1.00  0.00     0.029 A 
ATOM     45  N   UNL A   1      40.492  28.477  29.515  1.00  0.00    -0.354 N 
ATOM     46  C   UNL A   1      39.384  30.858  32.991  1.00  0.00     0.074 A 
ATOM     47  C   UNL A   1      38.168  31.599  32.739  1.00  0.00     0.031 C 
ATOM     48  C   UNL A   1      40.314  27.785  27.394  1.00  0.00     0.029 A 
ATOM     49  C   UNL A   1      41.140  27.693  28.591  1.00  0.00     0.049 A 
ATOM     50  H   UNL A   1      40.831  28.625  30.427  1.00  0.00     0.167 HD
ATOM     51  C   UNL A   1      40.089  30.915  34.146  1.00  0.00     0.037 A 
ATOM     52  C   UNL A   1      42.270  26.973  28.708  1.00  0.00     0.037 A 
ATOM     53  C   UNL A   1      41.267  30.127  34.394  1.00  0.00     0.049 A 
ATOM     54  C   UNL A   1      42.978  26.970  30.033  1.00  0.00     0.074 A 
ATOM     55  C   UNL A   1      42.026  30.039  35.546  1.00  0.00     0.029 A 
ATOM     56  N   UNL A   1      41.848  29.274  33.464  1.00  0.00    -0.354 N 
ATOM     57  N   UNL A   1      42.688  27.639  31.123  1.00  0.00    -0.248 NA
ATOM     58  C   UNL A   1      44.155  26.101  30.153  1.00  0.00     0.031 C 
ATOM     59  C   UNL A   1      43.080  29.151  35.304  1.00  0.00     0.029 A 
ATOM     60  C   UNL A   1      42.956  28.655  34.015  1.00  0.00     0.049 A 
ATOM     61  H   UNL A   1      41.519  29.130  32.547  1.00  0.00     0.167 HD
ATOM     62  C   UNL A   1      43.632  27.261  32.066  1.00  0.00     0.074 A 
ATOM     63  C   UNL A   1      44.489  26.284  31.423  1.00  0.00     0.031 C 
ATOM     64  C   UNL A   1      43.782  27.682  33.345  1.00  0.00     0.037 A 
BRANCH  51  65
ATOM     65  C   UNL A   1      39.591  31.845  35.215  1.00  0.00     0.064 A 
ATOM     66  C   UNL A   1      38.660  31.429  36.180  1.00  0.00     0.173 A 
ATOM     67  C   UNL A   1      40.035  33.175  35.267  1.00  0.00     0.173 A 
ATOM     68  F   UNL A   1      38.189  30.172  36.164  1.00  0.00    -0.203 F 
ATOM     69  C   UNL A   1      38.158  32.318  37.126  1.00  0.00     0.198 A 
ATOM     70  C   UNL A   1      39.557  34.053  36.237  1.00  0.00     0.198 A 
ATOM     71  F   UNL A   1      40.925  33.628  34.372  1.00  0.00    -0.203 F 
ATOM     72  F   UNL A   1      37.218  31.913  37.990  1.00  0.00    -0.200 F 
ATOM     73  C   UNL A   1      38.610  33.628  37.157  1.00  0.00     0.200 A 
ATOM     74  F   UNL A   1      40.000  35.318  36.271  1.00  0.00    -0.200 F 
ATOM     75  F   UNL A   1      38.122  34.485  38.065  1.00  0.00    -0.200 F 
ENDBRANCH  51  65
BRANCH  52  76
ATOM     76  C   UNL A   1      42.749  26.151  27.565  1.00  0.00     0.064 A 
ATOM     77  C   UNL A   1      42.202  24.884  27.315  1.00  0.00     0.173 A 
ATOM     78  C   UNL A   1      43.736  26.619  26.686  1.00  0.00     0.173 A 
ATOM     79  F   UNL A   1      41.263  24.388  28.134  1.00  0.00    -0.203 F 
ATOM     80  C   UNL A   1      42.638  24.109  26.243  1.00  0.00     0.198 A 
ATOM     81  C   UNL A   1      44.154  25.853  25.599  1.00  0.00     0.198 A 
ATOM     82  F   UNL A   1      44.282  27.829  26.873  1.00  0.00    -0.203 F 
ATOM     83  F   UNL A   1      42.124  22.885  26.050  1.00  0.00    -0.200 F 
ATOM     84  C   UNL A   1      43.609  24.596  25.382  1.00  0.00     0.200 A 
ATOM     85  F   UNL A   1      45.080  26.334  24.759  1.00  0.00    -0.200 F 
ATOM     86  F   UNL A   1      44.024  23.854  24.346  1.00  0.00    -0.200 F 
ENDBRANCH  52  76
BRANCH  64  87
ATOM     87  C   UNL A   1      44.899  27.067  34.132  1.00  0.00     0.064 A 
ATOM     88  C   UNL A   1      46.169  27.659  34.187  1.00  0.00     0.173 A 
ATOM     89  C   UNL A   1      44.684  25.890  34.864  1.00  0.00     0.173 A 
ATOM     90  F   UNL A   1      46.423  28.776  33.489  1.00  0.00    -0.203 F 
ATOM     91  C   UNL A   1      47.193  27.078  34.927  1.00  0.00     0.198 A 
ATOM     92  C   UNL A   1      45.703  25.328  35.626  1.00  0.00     0.198 A 
ATOM     93  F   UNL A   1      43.483  25.292  34.846  1.00  0.00    -0.203 F 
ATOM     94  F   UNL A   1      48.413  27.634  34.929  1.00  0.00    -0.200 F 
ATOM     95  C   UNL A   1      46.958  25.919  35.651  1.00  0.00     0.200 A 
ATOM     96  F   UNL A   1      45.472  24.214  36.334  1.00  0.00    -0.200 F 
ATOM     97  F   UNL A   1      47.946  25.364  36.368  1.00  0.00    -0.200 F 
ENDBRANCH  64  87
ENDBRANCH  38  39
ENDBRANCH  30  33
ENDBRANCH  28  29
ENDBRANCH   1  28
TORSDOF 12
ENDMDL
MODEL 2
REMARK VINA RESULT:     -14.5      0.139      1.612
REMARK SMILES O=C(NCCCNC(=O)c1ccc(-c2c3nc(c(-c4c(F)c(F)c(F)c(F)c4F)c4ccc([nH]4)c(-c4c(F)c(F)c(F)c(F)c4F)c4nc(c(-c5c(F)c(F)c(F)c(F)c5F)c5ccc2[nH]5)C=C4)C=C3)cc1)C1=Cc2cc(Cl)cc(-c3ccccc3)c2O[C@@H]1C(F)(F)F
REMARK SMILES IDX 5 1 4 2 3 3 1 4 2 5 73 7 74 8 89 9 75 10 88 11 76 12 87 13
REMARK SMILES IDX 77 14 80 15 78 16 79 17 90 18 91 19 92 20 93 21 81 22 82 23
REMARK SMILES IDX 86 24 83 25 85 26 84 27 6 28 7 29 8 30 9 32 10 33 11 34
REMARK SMILES IDX 72 35 12 36 71 37 13 38 14 39 15 40 65 41 16 42 70 43 64 44
REMARK SMILES IDX 66 45 17 46 69 47 63 48 62 49 18 51 50 52 30 53 49 54 31 55
REMARK SMILES IDX 34 56 48 57 67 58 32 59 33 60 47 62 68 63 35 64 19 65 20 66
REMARK SMILES IDX 28 67 21 68 22 69 26 70 29 71 23 72 24 73 27 74 25 75 51 76
REMARK SMILES IDX 52 77 60 78 53 79 54 80 58 81 61 82 55 83 56 84 59 85 57 86
REMARK SMILES IDX 36 87 37 88 45 89 38 90 39 91 43 92 46 93 40 94 41 95 44 96
REMARK SMILES IDX 42 97
REMARK H PARENT 3 6 7 31 66 50 34 61
REMARK Flexibility Score: inf
ROOT
ATOM      1  C   UNL A   1      31.782  28.599  26.699  1.00  0.00     0.042 C 
ENDROOT
BRANCH   1   2
ATOM      2  C   UNL A   1      31.709  27.347  25.823  1.00  0.00     0.118 C 
BRANCH   2   3
ATOM      3  N   UNL A   1      31.270  26.163  26.567  1.00  0.00    -0.352 N 
ATOM      4  O   UNL A   1      31.405  24.045  27.367  1.00  0.00    -0.270 OA
ATOM      5  C   UNL A   1      31.737  24.874  26.532  1.00  0.00     0.251 C 
ATOM      6  H   UNL A   1      30.523  26.317  27.189  1.00  0.00     0.163 HD
BRANCH   5   7
ATOM      7  C   UNL A   1      32.712  24.555  25.481  1.00  0.00     0.067 C 
ATOM      8  C   UNL A   1      34.002  24.793  25.740  1.00  0.00     0.025 C 
ATOM      9  C   UNL A   1      32.262  23.671  24.365  1.00  0.00     0.314 C 
ATOM     10  C   UNL A   1      34.915  23.754  25.254  1.00  0.00     0.019 A 
ATOM     11  O   UNL A   1      33.066  22.468  24.298  1.00  0.00    -0.475 OA
ATOM     12  C   UNL A   1      36.236  23.795  25.704  1.00  0.00     0.032 A 
ATOM     13  C   UNL A   1      34.369  22.555  24.738  1.00  0.00     0.135 A 
ATOM     14  C   UNL A   1      36.974  22.619  25.751  1.00  0.00     0.042 A 
ATOM     15  C   UNL A   1      35.094  21.353  24.838  1.00  0.00     0.026 A 
ATOM     16  Cl  UNL A   1      38.538  22.635  26.468  1.00  0.00    -0.084 Cl
ATOM     17  C   UNL A   1      36.405  21.410  25.351  1.00  0.00     0.033 A 
BRANCH   9  18
ATOM     18  C   UNL A   1      32.218  24.423  23.023  1.00  0.00     0.429 C 
ATOM     19  F   UNL A   1      32.822  25.632  23.117  1.00  0.00    -0.167 F 
ATOM     20  F   UNL A   1      32.864  23.741  22.046  1.00  0.00    -0.167 F 
ATOM     21  F   UNL A   1      30.954  24.640  22.589  1.00  0.00    -0.167 F 
ENDBRANCH   9  18
BRANCH  15  22
ATOM     22  C   UNL A   1      34.469  20.033  24.625  1.00  0.00    -0.015 A 
ATOM     23  C   UNL A   1      35.268  18.875  24.626  1.00  0.00     0.009 A 
ATOM     24  C   UNL A   1      33.100  19.873  24.396  1.00  0.00     0.009 A 
ATOM     25  C   UNL A   1      34.746  17.613  24.354  1.00  0.00     0.001 A 
ATOM     26  C   UNL A   1      32.566  18.605  24.131  1.00  0.00     0.001 A 
ATOM     27  C   UNL A   1      33.390  17.479  24.098  1.00  0.00     0.000 A 
ENDBRANCH  15  22
ENDBRANCH   5   7
ENDBRANCH   2   3
ENDBRANCH   1   2
BRANCH   1  28
ATOM     28  C   UNL A   1      32.685  29.674  26.100  1.00  0.00     0.118 C 
BRANCH  28  29
ATOM     29  N   UNL A   1      32.584  30.982  26.722  1.00  0.00    -0.352 N 
ATOM     30  C   UNL A   1      33.525  31.697  27.436  1.00  0.00     0.251 C 
ATOM     31  H   UNL A   1      31.713  31.427  26.618  1.00  0.00     0.163 HD
ATOM     32  O   UNL A   1      33.222  32.798  27.894  1.00  0.00    -0.269 OA
BRANCH  30  33
ATOM     33  C   UNL A   1      34.854  31.129  27.767  1.00  0.00     0.039 A 
ATOM     34  C   UNL A   1      35.903  32.028  28.001  1.00  0.00     0.014 A 
ATOM     35  C   UNL A   1      35.077  29.766  27.939  1.00  0.00     0.014 A 
ATOM     36  C   UNL A   1      37.105  31.577  28.544  1.00  0.00     0.010 A 
ATOM     37  C   UNL A   1      36.220  29.328  28.592  1.00  0.00     0.010 A 
ATOM     38  C   UNL A   1      37.234  30.235  28.925  1.00  0.00    -0.014 A 
BRANCH  38  39
ATOM     39  C   UNL A   1      38.389  29.768  29.723  1.00  0.00     0.031 A 
ATOM     40  C   UNL A   1      38.586  30.264  31.125  1.00  0.00     0.074 A 
ATOM     41  C   UNL A   1      39.311  28.985  29.129  1.00  0.00     0.049 A 
ATOM     42  N   UNL A   1      39.578  30.048  31.948  1.00  0.00    -0.248 NA
ATOM     43  C   UNL A   1      37.554  31.171  31.654  1.00  0.00     0.031 C 
ATOM     44  C   UNL A   1      39.266  28.535  27.733  1.00  0.00     0.029 A 
ATOM     45  N   UNL A   1      40.468  28.434  29.613  1.00  0.00    -0.354 N 
ATOM     46  C   UNL A   1      39.307  30.815  33.072  1.00  0.00     0.074 A 
ATOM     47  C   UNL A   1      38.093  31.552  32.803  1.00  0.00     0.031 C 
ATOM     48  C   UNL A   1      40.320  27.740  27.490  1.00  0.00     0.029 A 
ATOM     49  C   UNL A   1      41.131  27.652  28.698  1.00  0.00     0.049 A 
ATOM     50  H   UNL A   1      40.795  28.584  30.529  1.00  0.00     0.167 HD
ATOM     51  C   UNL A   1      39.997  30.875  34.236  1.00  0.00     0.037 A 
ATOM     52  C   UNL A   1      42.261  26.935  28.830  1.00  0.00     0.037 A 
ATOM     53  C   UNL A   1      41.174  30.091  34.500  1.00  0.00     0.049 A 
ATOM     54  C   UNL A   1      42.952  26.935  30.165  1.00  0.00     0.074 A 
ATOM     55  C   UNL A   1      41.918  30.006  35.662  1.00  0.00     0.029 A 
ATOM     56  N   UNL A   1      41.770  29.238  33.578  1.00  0.00    -0.354 N 
ATOM     57  N   UNL A   1      42.646  27.605  31.250  1.00  0.00    -0.248 NA
ATOM     58  C   UNL A   1      44.130  26.070  30.301  1.00  0.00     0.031 C 
ATOM     59  C   UNL A   1      42.978  29.121  35.435  1.00  0.00     0.029 A 
ATOM     60  C   UNL A   1      42.872  28.624  34.145  1.00  0.00     0.049 A 
ATOM     61  H   UNL A   1      41.454  29.093  32.657  1.00  0.00     0.167 HD
ATOM     62  C   UNL A   1      43.578  27.230  32.205  1.00  0.00     0.074 A 
ATOM     63  C   UNL A   1      44.447  26.255  31.575  1.00  0.00     0.031 C 
ATOM     64  C   UNL A   1      43.710  27.653  33.486  1.00  0.00     0.037 A 
BRANCH  51  65
ATOM     65  C   UNL A   1      39.482  31.805  35.297  1.00  0.00     0.064 A 
ATOM     66  C   UNL A   1      39.894  33.146  35.365  1.00  0.00     0.173 A 
ATOM     67  C   UNL A   1      38.580  31.349  36.269  1.00  0.00     0.173 A 
ATOM     68  F   UNL A   1      40.770  33.628  34.470  1.00  0.00    -0.203 F 
ATOM     69  C   UNL A   1      39.459  33.980  36.391  1.00  0.00     0.198 A 
ATOM     70  C   UNL A   1      38.119  32.196  37.275  1.00  0.00     0.198 A 
ATOM     71  F   UNL A   1      38.151  30.078  36.253  1.00  0.00    -0.203 F 
ATOM     72  F   UNL A   1      39.923  35.234  36.474  1.00  0.00    -0.200 F 
ATOM     73  C   UNL A   1      38.569  33.506  37.343  1.00  0.00     0.200 A 
ATOM     74  F   UNL A   1      37.253  31.739  38.190  1.00  0.00    -0.200 F 
ATOM     75  F   UNL A   1      38.156  34.309  38.334  1.00  0.00    -0.200 F 
ENDBRANCH  51  65
BRANCH  52  76
ATOM     76  C   UNL A   1      42.758  26.114  27.695  1.00  0.00     0.064 A 
ATOM     77  C   UNL A   1      42.230  24.838  27.449  1.00  0.00     0.173 A 
ATOM     78  C   UNL A   1      43.743  26.591  26.818  1.00  0.00     0.173 A 
ATOM     79  F   UNL A   1      41.294  24.333  28.266  1.00  0.00    -0.203 F 
ATOM     80  C   UNL A   1      42.683  24.063  26.383  1.00  0.00     0.198 A 
ATOM     81  C   UNL A   1      44.177  25.825  25.737  1.00  0.00     0.198 A 
ATOM     82  F   UNL A   1      44.271  27.810  27.001  1.00  0.00    -0.203 F 
ATOM     83  F   UNL A   1      42.187  22.832  26.194  1.00  0.00    -0.200 F 
ATOM     84  C   UNL A   1      43.651  24.559  25.524  1.00  0.00     0.200 A 
ATOM     85  F   UNL A   1      45.101  26.315  24.899  1.00  0.00    -0.200 F 
ATOM     86  F   UNL A   1      44.081  23.817  24.494  1.00  0.00    -0.200 F 
ENDBRANCH  52  76
BRANCH  64  87
ATOM     87  C   UNL A   1      44.819  27.042  34.289  1.00  0.00     0.064 A 
ATOM     88  C   UNL A   1      44.620  25.877  35.043  1.00  0.00     0.173 A 
ATOM     89  C   UNL A   1      46.100  27.612  34.275  1.00  0.00     0.173 A 
ATOM     90  F   UNL A   1      43.407  25.307  35.098  1.00  0.00    -0.203 F 
ATOM     91  C   UNL A   1      45.661  25.319  35.777  1.00  0.00     0.198 A 
ATOM     92  C   UNL A   1      47.145  27.035  34.988  1.00  0.00     0.198 A 
ATOM     93  F   UNL A   1      46.337  28.724  33.562  1.00  0.00    -0.203 F 
ATOM     94  F   UNL A   1      45.439  24.232  36.530  1.00  0.00    -0.200 F 
ATOM     95  C   UNL A   1      46.923  25.893  35.744  1.00  0.00     0.200 A 
ATOM     96  F   UNL A   1      48.367  27.585  34.946  1.00  0.00    -0.200 F 
ATOM     97  F   UNL A   1      47.926  25.351  36.449  1.00  0.00    -0.200 F 
ENDBRANCH  64  87
ENDBRANCH  38  39
ENDBRANCH  30  33
ENDBRANCH  28  29
ENDBRANCH   1  28
TORSDOF 12
ENDMDL
MODEL 3
REMARK VINA RESULT:     -14.4      0.768      7.388
REMARK SMILES O=C(NCCCNC(=O)c1ccc(-c2c3nc(c(-c4c(F)c(F)c(F)c(F)c4F)c4ccc([nH]4)c(-c4c(F)c(F)c(F)c(F)c4F)c4nc(c(-c5c(F)c(F)c(F)c(F)c5F)c5ccc2[nH]5)C=C4)C=C3)cc1)C1=Cc2cc(Cl)cc(-c3ccccc3)c2O[C@@H]1C(F)(F)F
REMARK SMILES IDX 5 1 4 2 3 3 1 4 2 5 73 7 74 8 89 9 75 10 88 11 76 12 87 13
REMARK SMILES IDX 77 14 80 15 78 16 79 17 90 18 91 19 92 20 93 21 81 22 82 23
REMARK SMILES IDX 86 24 83 25 85 26 84 27 6 28 7 29 8 30 9 32 10 33 11 34
REMARK SMILES IDX 72 35 12 36 71 37 13 38 14 39 15 40 65 41 16 42 70 43 64 44
REMARK SMILES IDX 66 45 17 46 69 47 63 48 62 49 18 51 50 52 30 53 49 54 31 55
REMARK SMILES IDX 34 56 48 57 67 58 32 59 33 60 47 62 68 63 35 64 19 65 20 66
REMARK SMILES IDX 28 67 21 68 22 69 26 70 29 71 23 72 24 73 27 74 25 75 51 76
REMARK SMILES IDX 52 77 60 78 53 79 54 80 58 81 61 82 55 83 56 84 59 85 57 86
REMARK SMILES IDX 36 87 37 88 45 89 38 90 39 91 43 92 46 93 40 94 41 95 44 96
REMARK SMILES IDX 42 97
REMARK H PARENT 3 6 7 31 66 50 34 61
REMARK Flexibility Score: inf
ROOT
ATOM      1  C   UNL A   1      31.586  28.117  26.537  1.00  0.00     0.042 C 
ENDROOT
BRANCH   1   2
ATOM      2  C   UNL A   1      31.798  26.759  25.867  1.00  0.00     0.118 C 
BRANCH   2   3
ATOM      3  N   UNL A   1      31.406  25.639  26.728  1.00  0.00    -0.352 N 
ATOM      4  O   UNL A   1      31.545  23.557  27.619  1.00  0.00    -0.270 OA
ATOM      5  C   UNL A   1      31.801  24.326  26.702  1.00  0.00     0.251 C 
ATOM      6  H   UNL A   1      30.759  25.864  27.434  1.00  0.00     0.163 HD
BRANCH   5   7
ATOM      7  C   UNL A   1      32.608  23.902  25.550  1.00  0.00     0.067 C 
ATOM      8  C   UNL A   1      33.921  24.149  25.589  1.00  0.00     0.025 C 
ATOM      9  C   UNL A   1      31.997  22.925  24.600  1.00  0.00     0.314 C 
ATOM     10  C   UNL A   1      34.753  23.060  25.068  1.00  0.00     0.019 A 
ATOM     11  O   UNL A   1      32.785  21.713  24.523  1.00  0.00    -0.475 OA
ATOM     12  C   UNL A   1      36.127  23.127  25.310  1.00  0.00     0.032 A 
ATOM     13  C   UNL A   1      34.140  21.825  24.752  1.00  0.00     0.135 A 
ATOM     14  C   UNL A   1      36.867  21.953  25.352  1.00  0.00     0.042 A 
ATOM     15  C   UNL A   1      34.875  20.630  24.852  1.00  0.00     0.026 A 
ATOM     16  Cl  UNL A   1      38.522  22.017  25.821  1.00  0.00    -0.084 Cl
ATOM     17  C   UNL A   1      36.249  20.719  25.154  1.00  0.00     0.033 A 
BRANCH   9  18
ATOM     18  C   UNL A   1      31.749  23.553  23.217  1.00  0.00     0.429 C 
ATOM     19  F   UNL A   1      32.470  22.925  22.256  1.00  0.00    -0.167 F 
ATOM     20  F   UNL A   1      30.447  23.457  22.851  1.00  0.00    -0.167 F 
ATOM     21  F   UNL A   1      32.080  24.865  23.173  1.00  0.00    -0.167 F 
ENDBRANCH   9  18
BRANCH  15  22
ATOM     22  C   UNL A   1      34.229  19.302  24.856  1.00  0.00    -0.015 A 
ATOM     23  C   UNL A   1      34.891  18.204  24.278  1.00  0.00     0.009 A 
ATOM     24  C   UNL A   1      32.959  19.082  25.396  1.00  0.00     0.009 A 
ATOM     25  C   UNL A   1      34.298  16.946  24.185  1.00  0.00     0.001 A 
ATOM     26  C   UNL A   1      32.361  17.817  25.314  1.00  0.00     0.001 A 
ATOM     27  C   UNL A   1      33.025  16.755  24.699  1.00  0.00     0.000 A 
ENDBRANCH  15  22
ENDBRANCH   5   7
ENDBRANCH   2   3
ENDBRANCH   1   2
BRANCH   1  28
ATOM     28  C   UNL A   1      32.641  29.139  26.123  1.00  0.00     0.118 C 
BRANCH  28  29
ATOM     29  N   UNL A   1      32.430  30.484  26.627  1.00  0.00    -0.352 N 
ATOM     30  C   UNL A   1      33.311  31.341  27.256  1.00  0.00     0.251 C 
ATOM     31  H   UNL A   1      31.521  30.840  26.501  1.00  0.00     0.163 HD
ATOM     32  O   UNL A   1      32.915  32.448  27.620  1.00  0.00    -0.269 OA
BRANCH  30  33
ATOM     33  C   UNL A   1      34.690  30.926  27.611  1.00  0.00     0.039 A 
ATOM     34  C   UNL A   1      35.629  31.937  27.855  1.00  0.00     0.014 A 
ATOM     35  C   UNL A   1      35.059  29.596  27.794  1.00  0.00     0.014 A 
ATOM     36  C   UNL A   1      36.864  31.623  28.419  1.00  0.00     0.010 A 
ATOM     37  C   UNL A   1      36.234  29.291  28.466  1.00  0.00     0.010 A 
ATOM     38  C   UNL A   1      37.135  30.306  28.809  1.00  0.00    -0.014 A 
BRANCH  38  39
ATOM     39  C   UNL A   1      38.323  29.973  29.627  1.00  0.00     0.031 A 
ATOM     40  C   UNL A   1      39.353  29.017  29.104  1.00  0.00     0.074 A 
ATOM     41  C   UNL A   1      38.398  30.457  30.883  1.00  0.00     0.049 A 
ATOM     42  N   UNL A   1      40.409  28.529  29.702  1.00  0.00    -0.248 NA
ATOM     43  C   UNL A   1      39.139  28.493  27.745  1.00  0.00     0.031 C 
ATOM     44  C   UNL A   1      37.392  31.310  31.523  1.00  0.00     0.029 A 
ATOM     45  N   UNL A   1      39.355  30.297  31.850  1.00  0.00    -0.354 N 
ATOM     46  C   UNL A   1      40.961  27.622  28.808  1.00  0.00     0.074 A 
ATOM     47  C   UNL A   1      40.091  27.578  27.655  1.00  0.00     0.031 C 
ATOM     48  C   UNL A   1      37.807  31.635  32.757  1.00  0.00     0.029 A 
ATOM     49  C   UNL A   1      39.089  30.989  33.008  1.00  0.00     0.049 A 
ATOM     50  H   UNL A   1      40.157  29.739  31.729  1.00  0.00     0.167 HD
ATOM     51  C   UNL A   1      42.108  26.914  28.931  1.00  0.00     0.037 A 
ATOM     52  C   UNL A   1      39.812  31.096  34.137  1.00  0.00     0.037 A 
ATOM     53  C   UNL A   1      42.985  27.016  30.067  1.00  0.00     0.049 A 
ATOM     54  C   UNL A   1      41.132  30.382  34.207  1.00  0.00     0.074 A 
ATOM     55  C   UNL A   1      44.209  26.408  30.275  1.00  0.00     0.029 A 
ATOM     56  N   UNL A   1      42.728  27.797  31.186  1.00  0.00    -0.354 N 
ATOM     57  N   UNL A   1      41.686  29.585  33.324  1.00  0.00    -0.248 NA
ATOM     58  C   UNL A   1      41.936  30.594  35.416  1.00  0.00     0.031 C 
ATOM     59  C   UNL A   1      44.681  26.804  31.533  1.00  0.00     0.029 A 
ATOM     60  C   UNL A   1      43.770  27.688  32.090  1.00  0.00     0.049 A 
ATOM     61  H   UNL A   1      41.923  28.348  31.317  1.00  0.00     0.167 HD
ATOM     62  C   UNL A   1      42.910  29.215  33.859  1.00  0.00     0.074 A 
ATOM     63  C   UNL A   1      43.027  29.896  35.135  1.00  0.00     0.031 C 
ATOM     64  C   UNL A   1      43.853  28.386  33.348  1.00  0.00     0.037 A 
BRANCH  51  65
ATOM     65  C   UNL A   1      42.471  25.988  27.805  1.00  0.00     0.064 A 
ATOM     66  C   UNL A   1      43.379  26.366  26.803  1.00  0.00     0.173 A 
ATOM     67  C   UNL A   1      41.893  24.713  27.715  1.00  0.00     0.173 A 
ATOM     68  F   UNL A   1      43.947  27.582  26.832  1.00  0.00    -0.203 F 
ATOM     69  C   UNL A   1      43.660  25.524  25.731  1.00  0.00     0.198 A 
ATOM     70  C   UNL A   1      42.202  23.858  26.659  1.00  0.00     0.198 A 
ATOM     71  F   UNL A   1      41.020  24.297  28.644  1.00  0.00    -0.203 F 
ATOM     72  F   UNL A   1      44.474  25.938  24.751  1.00  0.00    -0.200 F 
ATOM     73  C   UNL A   1      43.074  24.268  25.661  1.00  0.00     0.200 A 
ATOM     74  F   UNL A   1      41.642  22.642  26.596  1.00  0.00    -0.200 F 
ATOM     75  F   UNL A   1      43.339  23.461  24.625  1.00  0.00    -0.200 F 
ENDBRANCH  51  65
BRANCH  52  76
ATOM     76  C   UNL A   1      39.332  31.960  35.247  1.00  0.00     0.064 A 
ATOM     77  C   UNL A   1      39.630  33.330  35.268  1.00  0.00     0.173 A 
ATOM     78  C   UNL A   1      38.547  31.449  36.291  1.00  0.00     0.173 A 
ATOM     79  F   UNL A   1      40.386  33.865  34.298  1.00  0.00    -0.203 F 
ATOM     80  C   UNL A   1      39.179  34.151  36.300  1.00  0.00     0.198 A 
ATOM     81  C   UNL A   1      38.075  32.275  37.309  1.00  0.00     0.198 A 
ATOM     82  F   UNL A   1      38.223  30.148  36.311  1.00  0.00    -0.203 F 
ATOM     83  F   UNL A   1      39.510  35.450  36.313  1.00  0.00    -0.200 F 
ATOM     84  C   UNL A   1      38.397  33.625  37.316  1.00  0.00     0.200 A 
ATOM     85  F   UNL A   1      37.305  31.766  38.281  1.00  0.00    -0.200 F 
ATOM     86  F   UNL A   1      37.956  34.416  38.305  1.00  0.00    -0.200 F 
ENDBRANCH  52  76
BRANCH  64  87
ATOM     87  C   UNL A   1      45.097  28.195  34.162  1.00  0.00     0.064 A 
ATOM     88  C   UNL A   1      45.201  27.168  35.110  1.00  0.00     0.173 A 
ATOM     89  C   UNL A   1      46.206  29.031  33.965  1.00  0.00     0.173 A 
ATOM     90  F   UNL A   1      44.159  26.356  35.342  1.00  0.00    -0.203 F 
ATOM     91  C   UNL A   1      46.365  27.000  35.853  1.00  0.00     0.198 A 
ATOM     92  C   UNL A   1      47.378  28.843  34.690  1.00  0.00     0.198 A 
ATOM     93  F   UNL A   1      46.154  30.024  33.064  1.00  0.00    -0.203 F 
ATOM     94  F   UNL A   1      46.428  26.042  36.787  1.00  0.00    -0.200 F 
ATOM     95  C   UNL A   1      47.454  27.832  35.637  1.00  0.00     0.200 A 
ATOM     96  F   UNL A   1      48.434  29.640  34.473  1.00  0.00    -0.200 F 
ATOM     97  F   UNL A   1      48.576  27.666  36.351  1.00  0.00    -0.200 F 
ENDBRANCH  64  87
ENDBRANCH  38  39
ENDBRANCH  30  33
ENDBRANCH  28  29
ENDBRANCH   1  28
TORSDOF 12
ENDMDL
