MODEL 1
REMARK VINA RESULT:     -12.5      0.000      0.000
REMARK SMILES C[NH2+][C@]1(C(=O)NCCCNC(=O)c2ccc(-c3c4nc(c(-c5c(F)c(F)c(F)c(F)c5F)c5ccc([nH]5)c(-c5c(F)c(F)c(F)c(F)c5F)c5nc(c(-c6c(F)c(F)c(F)c(F)c6F)c6ccc3[nH]6)C=C5)C=C4)cc2)CCC[C@@H]([N@H+]2CC[C@@H](C)C2)C1
REMARK SMILES IDX 8 1 7 2 6 3 4 4 5 5 3 7 76 8 86 9 77 10 79 11 78 12 2 13
REMARK SMILES IDX 1 14 80 17 81 18 85 19 82 21 83 22 84 23 9 24 10 25 11 26
REMARK SMILES IDX 12 28 13 29 14 30 75 31 15 32 74 33 16 34 17 35 18 36 68 37
REMARK SMILES IDX 19 38 73 39 67 40 69 41 20 42 72 43 66 44 65 45 21 47 53 48
REMARK SMILES IDX 33 49 52 50 34 51 37 52 51 53 70 54 35 55 36 56 50 58 71 59
REMARK SMILES IDX 38 60 22 61 23 62 31 63 24 64 25 65 29 66 32 67 26 68 27 69
REMARK SMILES IDX 30 70 28 71 54 72 55 73 63 74 56 75 57 76 61 77 64 78 58 79
REMARK SMILES IDX 59 80 62 81 60 82 39 83 40 84 48 85 41 86 42 87 46 88 49 89
REMARK SMILES IDX 43 90 44 91 47 92 45 93
REMARK H PARENT 6 6 2 15 2 16 80 20 10 27 69 46 37 57
REMARK Flexibility Score: inf
ROOT
ATOM      1  C   UNL A   1      38.062  19.819  25.003  1.00  0.00     0.042 C 
ENDROOT
BRANCH   1   2
ATOM      2  C   UNL A   1      37.345  20.996  24.373  1.00  0.00     0.118 C 
BRANCH   2   3
ATOM      3  N   UNL A   1      37.394  22.190  25.202  1.00  0.00    -0.351 N 
ATOM      4  C   UNL A   1      36.410  22.927  25.794  1.00  0.00     0.281 C 
ATOM      5  O   UNL A   1      36.786  23.947  26.390  1.00  0.00    -0.268 OA
ATOM      6  H   UNL A   1      38.304  22.528  25.367  1.00  0.00     0.163 HD
BRANCH   4   7
ATOM      7  C   UNL A   1      34.876  22.550  25.709  1.00  0.00     0.181 C 
ATOM      8  C   UNL A   1      34.371  22.965  24.312  1.00  0.00     0.079 C 
ATOM      9  C   UNL A   1      34.742  21.047  26.024  1.00  0.00     0.144 C 
ATOM     10  C   UNL A   1      33.107  22.252  23.845  1.00  0.00     0.013 C 
ATOM     11  C   UNL A   1      33.569  20.272  25.407  1.00  0.00     0.190 C 
ATOM     12  C   UNL A   1      33.217  20.738  23.978  1.00  0.00     0.065 C 
BRANCH   7  13
ATOM     13  N   UNL A   1      34.233  23.277  26.841  1.00  0.00    -0.336 N 
ATOM     14  C   UNL A   1      33.700  22.518  27.949  1.00  0.00     0.331 C 
ATOM     15  H   UNL A   1      34.931  23.914  27.223  1.00  0.00     0.346 HD
ATOM     16  H   UNL A   1      33.409  23.705  26.420  1.00  0.00     0.346 HD
ENDBRANCH   7  13
BRANCH  11  17
ATOM     17  N   UNL A   1      33.770  18.802  25.458  1.00  0.00    -0.332 N 
ATOM     18  C   UNL A   1      32.592  17.982  25.758  1.00  0.00     0.262 C 
ATOM     19  C   UNL A   1      34.456  18.208  24.303  1.00  0.00     0.265 C 
ATOM     20  H   UNL A   1      34.389  18.766  26.267  1.00  0.00     0.348 HD
ATOM     21  C   UNL A   1      32.655  16.752  24.862  1.00  0.00     0.070 C 
ATOM     22  C   UNL A   1      33.511  17.177  23.679  1.00  0.00     0.047 C 
ATOM     23  C   UNL A   1      32.664  17.702  22.519  1.00  0.00     0.014 C 
ENDBRANCH  11  17
ENDBRANCH   4   7
ENDBRANCH   2   3
ENDBRANCH   1   2
BRANCH   1  24
ATOM     24  C   UNL A   1      39.302  20.213  25.787  1.00  0.00     0.118 C 
BRANCH  24  25
ATOM     25  N   UNL A   1      40.281  19.137  25.890  1.00  0.00    -0.352 N 
ATOM     26  C   UNL A   1      41.638  19.187  26.112  1.00  0.00     0.251 C 
ATOM     27  H   UNL A   1      39.912  18.231  25.785  1.00  0.00     0.163 HD
ATOM     28  O   UNL A   1      42.312  18.171  26.009  1.00  0.00    -0.269 OA
BRANCH  26  29
ATOM     29  C   UNL A   1      42.291  20.476  26.436  1.00  0.00     0.039 A 
ATOM     30  C   UNL A   1      42.846  21.234  25.402  1.00  0.00     0.014 A 
ATOM     31  C   UNL A   1      42.341  20.949  27.747  1.00  0.00     0.014 A 
ATOM     32  C   UNL A   1      43.363  22.502  25.673  1.00  0.00     0.010 A 
ATOM     33  C   UNL A   1      42.744  22.255  27.997  1.00  0.00     0.010 A 
ATOM     34  C   UNL A   1      43.266  23.046  26.965  1.00  0.00    -0.014 A 
BRANCH  34  35
ATOM     35  C   UNL A   1      43.708  24.433  27.263  1.00  0.00     0.031 A 
ATOM     36  C   UNL A   1      42.722  25.440  27.790  1.00  0.00     0.074 A 
ATOM     37  C   UNL A   1      44.972  24.809  26.986  1.00  0.00     0.049 A 
ATOM     38  N   UNL A   1      42.886  26.719  28.023  1.00  0.00    -0.248 NA
ATOM     39  C   UNL A   1      41.358  24.956  28.059  1.00  0.00     0.031 C 
ATOM     40  C   UNL A   1      46.010  23.943  26.421  1.00  0.00     0.029 A 
ATOM     41  N   UNL A   1      45.600  26.022  27.130  1.00  0.00    -0.354 N 
ATOM     42  C   UNL A   1      41.648  27.188  28.445  1.00  0.00     0.074 A 
ATOM     43  C   UNL A   1      40.726  26.075  28.375  1.00  0.00     0.031 C 
ATOM     44  C   UNL A   1      47.148  24.642  26.294  1.00  0.00     0.029 A 
ATOM     45  C   UNL A   1      46.913  26.017  26.723  1.00  0.00     0.049 A 
ATOM     46  H   UNL A   1      45.151  26.820  27.491  1.00  0.00     0.167 HD
ATOM     47  C   UNL A   1      41.316  28.427  28.879  1.00  0.00     0.037 A 
ATOM     48  C   UNL A   1      47.820  27.011  26.690  1.00  0.00     0.037 A 
ATOM     49  C   UNL A   1      42.243  29.523  28.975  1.00  0.00     0.049 A 
ATOM     50  C   UNL A   1      47.422  28.381  27.171  1.00  0.00     0.074 A 
ATOM     51  C   UNL A   1      42.021  30.799  29.461  1.00  0.00     0.029 A 
ATOM     52  N   UNL A   1      43.570  29.472  28.574  1.00  0.00    -0.354 N 
ATOM     53  N   UNL A   1      46.268  28.794  27.637  1.00  0.00    -0.248 NA
ATOM     54  C   UNL A   1      48.456  29.425  27.128  1.00  0.00     0.031 C 
ATOM     55  C   UNL A   1      43.198  31.537  29.304  1.00  0.00     0.029 A 
ATOM     56  C   UNL A   1      44.172  30.703  28.780  1.00  0.00     0.049 A 
ATOM     57  H   UNL A   1      44.018  28.679  28.200  1.00  0.00     0.167 HD
ATOM     58  C   UNL A   1      46.446  30.129  27.974  1.00  0.00     0.074 A 
ATOM     59  C   UNL A   1      47.824  30.454  27.672  1.00  0.00     0.031 C 
ATOM     60  C   UNL A   1      45.550  31.006  28.487  1.00  0.00     0.037 A 
BRANCH  47  61
ATOM     61  C   UNL A   1      39.890  28.663  29.291  1.00  0.00     0.064 A 
ATOM     62  C   UNL A   1      39.455  28.436  30.606  1.00  0.00     0.173 A 
ATOM     63  C   UNL A   1      38.957  29.162  28.371  1.00  0.00     0.173 A 
ATOM     64  F   UNL A   1      40.303  27.946  31.523  1.00  0.00    -0.203 F 
ATOM     65  C   UNL A   1      38.133  28.671  30.975  1.00  0.00     0.198 A 
ATOM     66  C   UNL A   1      37.644  29.430  28.752  1.00  0.00     0.198 A 
ATOM     67  F   UNL A   1      39.319  29.403  27.101  1.00  0.00    -0.203 F 
ATOM     68  F   UNL A   1      37.730  28.396  32.223  1.00  0.00    -0.200 F 
ATOM     69  C   UNL A   1      37.231  29.176  30.051  1.00  0.00     0.200 A 
ATOM     70  F   UNL A   1      36.779  29.933  27.861  1.00  0.00    -0.200 F 
ATOM     71  F   UNL A   1      35.963  29.414  30.411  1.00  0.00    -0.200 F 
ENDBRANCH  47  61
BRANCH  48  72
ATOM     72  C   UNL A   1      49.200  26.748  26.203  1.00  0.00     0.064 A 
ATOM     73  C   UNL A   1      49.553  26.990  24.868  1.00  0.00     0.173 A 
ATOM     74  C   UNL A   1      50.192  26.236  27.054  1.00  0.00     0.173 A 
ATOM     75  F   UNL A   1      48.636  27.461  24.009  1.00  0.00    -0.203 F 
ATOM     76  C   UNL A   1      50.832  26.703  24.395  1.00  0.00     0.198 A 
ATOM     77  C   UNL A   1      51.480  25.981  26.589  1.00  0.00     0.198 A 
ATOM     78  F   UNL A   1      49.911  25.994  28.344  1.00  0.00    -0.203 F 
ATOM     79  F   UNL A   1      51.123  26.890  23.101  1.00  0.00    -0.200 F 
ATOM     80  C   UNL A   1      51.796  26.203  25.257  1.00  0.00     0.200 A 
ATOM     81  F   UNL A   1      52.413  25.514  27.430  1.00  0.00    -0.200 F 
ATOM     82  F   UNL A   1      53.027  25.928  24.804  1.00  0.00    -0.200 F 
ENDBRANCH  48  72
BRANCH  60  83
ATOM     83  C   UNL A   1      46.040  32.391  28.802  1.00  0.00     0.064 A 
ATOM     84  C   UNL A   1      46.613  32.709  30.042  1.00  0.00     0.173 A 
ATOM     85  C   UNL A   1      45.971  33.402  27.831  1.00  0.00     0.173 A 
ATOM     86  F   UNL A   1      46.689  31.783  31.009  1.00  0.00    -0.203 F 
ATOM     87  C   UNL A   1      47.075  33.996  30.306  1.00  0.00     0.198 A 
ATOM     88  C   UNL A   1      46.467  34.677  28.088  1.00  0.00     0.198 A 
ATOM     89  F   UNL A   1      45.439  33.149  26.626  1.00  0.00    -0.203 F 
ATOM     90  F   UNL A   1      47.573  34.290  31.516  1.00  0.00    -0.200 F 
ATOM     91  C   UNL A   1      47.010  34.976  29.328  1.00  0.00     0.200 A 
ATOM     92  F   UNL A   1      46.418  35.617  27.134  1.00  0.00    -0.200 F 
ATOM     93  F   UNL A   1      47.465  36.210  29.581  1.00  0.00    -0.200 F 
ENDBRANCH  60  83
ENDBRANCH  34  35
ENDBRANCH  26  29
ENDBRANCH  24  25
ENDBRANCH   1  24
TORSDOF 12
ENDMDL
MODEL 2
REMARK VINA RESULT:     -12.5      6.025     11.334
REMARK SMILES C[NH2+][C@]1(C(=O)NCCCNC(=O)c2ccc(-c3c4nc(c(-c5c(F)c(F)c(F)c(F)c5F)c5ccc([nH]5)c(-c5c(F)c(F)c(F)c(F)c5F)c5nc(c(-c6c(F)c(F)c(F)c(F)c6F)c6ccc3[nH]6)C=C5)C=C4)cc2)CCC[C@@H]([N@H+]2CC[C@@H](C)C2)C1
REMARK SMILES IDX 8 1 7 2 6 3 4 4 5 5 3 7 76 8 86 9 77 10 79 11 78 12 2 13
REMARK SMILES IDX 1 14 80 17 81 18 85 19 82 21 83 22 84 23 9 24 10 25 11 26
REMARK SMILES IDX 12 28 13 29 14 30 75 31 15 32 74 33 16 34 17 35 18 36 68 37
REMARK SMILES IDX 19 38 73 39 67 40 69 41 20 42 72 43 66 44 65 45 21 47 53 48
REMARK SMILES IDX 33 49 52 50 34 51 37 52 51 53 70 54 35 55 36 56 50 58 71 59
REMARK SMILES IDX 38 60 22 61 23 62 31 63 24 64 25 65 29 66 32 67 26 68 27 69
REMARK SMILES IDX 30 70 28 71 54 72 55 73 63 74 56 75 57 76 61 77 64 78 58 79
REMARK SMILES IDX 59 80 62 81 60 82 39 83 40 84 48 85 41 86 42 87 46 88 49 89
REMARK SMILES IDX 43 90 44 91 47 92 45 93
REMARK H PARENT 6 6 2 15 2 16 80 20 10 27 69 46 37 57
REMARK Flexibility Score: inf
ROOT
ATOM      1  C   UNL A   1      31.485  32.169  26.532  1.00  0.00     0.042 C 
ENDROOT
BRANCH   1   2
ATOM      2  C   UNL A   1      31.591  30.659  26.458  1.00  0.00     0.118 C 
BRANCH   2   3
ATOM      3  N   UNL A   1      32.258  30.205  25.248  1.00  0.00    -0.351 N 
ATOM      4  C   UNL A   1      32.883  29.031  24.941  1.00  0.00     0.281 C 
ATOM      5  O   UNL A   1      33.420  28.982  23.826  1.00  0.00    -0.268 OA
ATOM      6  H   UNL A   1      32.260  30.864  24.518  1.00  0.00     0.163 HD
BRANCH   4   7
ATOM      7  C   UNL A   1      32.964  27.806  25.941  1.00  0.00     0.181 C 
ATOM      8  C   UNL A   1      31.543  27.222  26.077  1.00  0.00     0.079 C 
ATOM      9  C   UNL A   1      34.017  26.822  25.397  1.00  0.00     0.144 C 
ATOM     10  C   UNL A   1      31.483  25.778  26.563  1.00  0.00     0.013 C 
ATOM     11  C   UNL A   1      33.866  25.331  25.728  1.00  0.00     0.190 C 
ATOM     12  C   UNL A   1      32.395  24.862  25.758  1.00  0.00     0.065 C 
BRANCH   7  13
ATOM     13  N   UNL A   1      33.524  28.370  27.202  1.00  0.00    -0.336 N 
ATOM     14  C   UNL A   1      34.842  28.964  27.179  1.00  0.00     0.331 C 
ATOM     15  H   UNL A   1      32.878  29.092  27.522  1.00  0.00     0.346 HD
ATOM     16  H   UNL A   1      33.633  27.557  27.807  1.00  0.00     0.346 HD
ENDBRANCH   7  13
BRANCH  11  17
ATOM     17  N   UNL A   1      34.688  24.466  24.845  1.00  0.00    -0.332 N 
ATOM     18  C   UNL A   1      34.865  23.071  25.262  1.00  0.00     0.262 C 
ATOM     19  C   UNL A   1      34.325  24.473  23.422  1.00  0.00     0.265 C 
ATOM     20  H   UNL A   1      35.582  24.942  24.963  1.00  0.00     0.348 HD
ATOM     21  C   UNL A   1      34.772  22.208  24.011  1.00  0.00     0.070 C 
ATOM     22  C   UNL A   1      33.963  23.039  23.025  1.00  0.00     0.047 C 
ATOM     23  C   UNL A   1      32.472  22.711  23.091  1.00  0.00     0.014 C 
ENDBRANCH  11  17
ENDBRANCH   4   7
ENDBRANCH   2   3
ENDBRANCH   1   2
BRANCH   1  24
ATOM     24  C   UNL A   1      32.583  32.814  27.359  1.00  0.00     0.118 C 
BRANCH  24  25
ATOM     25  N   UNL A   1      32.327  34.218  27.659  1.00  0.00    -0.352 N 
ATOM     26  C   UNL A   1      32.920  35.055  28.577  1.00  0.00     0.251 C 
ATOM     27  H   UNL A   1      31.617  34.634  27.118  1.00  0.00     0.163 HD
ATOM     28  O   UNL A   1      32.451  36.167  28.782  1.00  0.00    -0.269 OA
BRANCH  26  29
ATOM     29  C   UNL A   1      34.099  34.597  29.346  1.00  0.00     0.039 A 
ATOM     30  C   UNL A   1      33.916  34.112  30.643  1.00  0.00     0.014 A 
ATOM     31  C   UNL A   1      35.378  34.627  28.790  1.00  0.00     0.014 A 
ATOM     32  C   UNL A   1      34.999  33.572  31.340  1.00  0.00     0.010 A 
ATOM     33  C   UNL A   1      36.428  33.982  29.433  1.00  0.00     0.010 A 
ATOM     34  C   UNL A   1      36.253  33.452  30.718  1.00  0.00    -0.014 A 
BRANCH  34  35
ATOM     35  C   UNL A   1      37.397  32.784  31.392  1.00  0.00     0.031 A 
ATOM     36  C   UNL A   1      38.078  31.613  30.735  1.00  0.00     0.074 A 
ATOM     37  C   UNL A   1      37.773  33.177  32.625  1.00  0.00     0.049 A 
ATOM     38  N   UNL A   1      39.028  30.839  31.198  1.00  0.00    -0.248 NA
ATOM     39  C   UNL A   1      37.606  31.238  29.392  1.00  0.00     0.031 C 
ATOM     40  C   UNL A   1      37.158  34.263  33.393  1.00  0.00     0.029 A 
ATOM     41  N   UNL A   1      38.756  32.701  33.458  1.00  0.00    -0.354 N 
ATOM     42  C   UNL A   1      39.248  29.883  30.214  1.00  0.00     0.074 A 
ATOM     43  C   UNL A   1      38.292  30.131  29.159  1.00  0.00     0.031 C 
ATOM     44  C   UNL A   1      37.795  34.388  34.567  1.00  0.00     0.029 A 
ATOM     45  C   UNL A   1      38.831  33.365  34.659  1.00  0.00     0.049 A 
ATOM     46  H   UNL A   1      39.351  31.955  33.216  1.00  0.00     0.167 HD
ATOM     47  C   UNL A   1      40.183  28.904  30.181  1.00  0.00     0.037 A 
ATOM     48  C   UNL A   1      39.637  33.163  35.718  1.00  0.00     0.037 A 
ATOM     49  C   UNL A   1      41.153  28.679  31.221  1.00  0.00     0.049 A 
ATOM     50  C   UNL A   1      40.662  32.062  35.658  1.00  0.00     0.074 A 
ATOM     51  C   UNL A   1      42.181  27.754  31.255  1.00  0.00     0.029 A 
ATOM     52  N   UNL A   1      41.210  29.386  32.413  1.00  0.00    -0.354 N 
ATOM     53  N   UNL A   1      40.910  31.211  34.692  1.00  0.00    -0.248 NA
ATOM     54  C   UNL A   1      41.526  31.897  36.836  1.00  0.00     0.031 C 
ATOM     55  C   UNL A   1      42.827  27.865  32.490  1.00  0.00     0.029 A 
ATOM     56  C   UNL A   1      42.243  28.901  33.200  1.00  0.00     0.049 A 
ATOM     57  H   UNL A   1      40.608  30.124  32.663  1.00  0.00     0.167 HD
ATOM     58  C   UNL A   1      41.976  30.436  35.129  1.00  0.00     0.074 A 
ATOM     59  C   UNL A   1      42.338  30.927  36.441  1.00  0.00     0.031 C 
ATOM     60  C   UNL A   1      42.599  29.411  34.499  1.00  0.00     0.037 A 
BRANCH  47  61
ATOM     61  C   UNL A   1      40.209  28.003  28.979  1.00  0.00     0.064 A 
ATOM     62  C   UNL A   1      40.931  28.338  27.823  1.00  0.00     0.173 A 
ATOM     63  C   UNL A   1      39.538  26.772  28.997  1.00  0.00     0.173 A 
ATOM     64  F   UNL A   1      41.581  29.509  27.747  1.00  0.00    -0.203 F 
ATOM     65  C   UNL A   1      40.955  27.488  26.721  1.00  0.00     0.198 A 
ATOM     66  C   UNL A   1      39.592  25.908  27.906  1.00  0.00     0.198 A 
ATOM     67  F   UNL A   1      38.835  26.399  30.078  1.00  0.00    -0.203 F 
ATOM     68  F   UNL A   1      41.608  27.853  25.609  1.00  0.00    -0.200 F 
ATOM     69  C   UNL A   1      40.294  26.270  26.766  1.00  0.00     0.200 A 
ATOM     70  F   UNL A   1      38.966  24.725  27.958  1.00  0.00    -0.200 F 
ATOM     71  F   UNL A   1      40.328  25.447  25.709  1.00  0.00    -0.200 F 
ENDBRANCH  47  61
BRANCH  48  72
ATOM     72  C   UNL A   1      39.525  34.033  36.920  1.00  0.00     0.064 A 
ATOM     73  C   UNL A   1      40.198  35.262  36.986  1.00  0.00     0.173 A 
ATOM     74  C   UNL A   1      38.760  33.651  38.032  1.00  0.00     0.173 A 
ATOM     75  F   UNL A   1      40.959  35.664  35.957  1.00  0.00    -0.203 F 
ATOM     76  C   UNL A   1      40.134  36.059  38.127  1.00  0.00     0.198 A 
ATOM     77  C   UNL A   1      38.669  34.465  39.159  1.00  0.00     0.198 A 
ATOM     78  F   UNL A   1      38.089  32.489  38.019  1.00  0.00    -0.203 F 
ATOM     79  F   UNL A   1      40.832  37.200  38.183  1.00  0.00    -0.200 F 
ATOM     80  C   UNL A   1      39.365  35.663  39.210  1.00  0.00     0.200 A 
ATOM     81  F   UNL A   1      37.911  34.085  40.197  1.00  0.00    -0.200 F 
ATOM     82  F   UNL A   1      39.302  36.430  40.307  1.00  0.00    -0.200 F 
ENDBRANCH  48  72
BRANCH  60  83
ATOM     83  C   UNL A   1      43.770  28.779  35.197  1.00  0.00     0.064 A 
ATOM     84  C   UNL A   1      43.616  27.677  36.051  1.00  0.00     0.173 A 
ATOM     85  C   UNL A   1      45.069  29.261  34.974  1.00  0.00     0.173 A 
ATOM     86  F   UNL A   1      42.395  27.188  36.309  1.00  0.00    -0.203 F 
ATOM     87  C   UNL A   1      44.718  27.098  36.675  1.00  0.00     0.198 A 
ATOM     88  C   UNL A   1      46.171  28.657  35.573  1.00  0.00     0.198 A 
ATOM     89  F   UNL A   1      45.273  30.308  34.160  1.00  0.00    -0.203 F 
ATOM     90  F   UNL A   1      44.542  26.078  37.527  1.00  0.00    -0.200 F 
ATOM     91  C   UNL A   1      45.994  27.582  36.430  1.00  0.00     0.200 A 
ATOM     92  F   UNL A   1      47.405  29.115  35.319  1.00  0.00    -0.200 F 
ATOM     93  F   UNL A   1      47.053  27.016  37.023  1.00  0.00    -0.200 F 
ENDBRANCH  60  83
ENDBRANCH  34  35
ENDBRANCH  26  29
ENDBRANCH  24  25
ENDBRANCH   1  24
TORSDOF 12
ENDMDL
MODEL 3
REMARK VINA RESULT:     -12.5      1.812      7.622
REMARK SMILES C[NH2+][C@]1(C(=O)NCCCNC(=O)c2ccc(-c3c4nc(c(-c5c(F)c(F)c(F)c(F)c5F)c5ccc([nH]5)c(-c5c(F)c(F)c(F)c(F)c5F)c5nc(c(-c6c(F)c(F)c(F)c(F)c6F)c6ccc3[nH]6)C=C5)C=C4)cc2)CCC[C@@H]([N@H+]2CC[C@@H](C)C2)C1
REMARK SMILES IDX 8 1 7 2 6 3 4 4 5 5 3 7 76 8 86 9 77 10 79 11 78 12 2 13
REMARK SMILES IDX 1 14 80 17 81 18 85 19 82 21 83 22 84 23 9 24 10 25 11 26
REMARK SMILES IDX 12 28 13 29 14 30 75 31 15 32 74 33 16 34 17 35 18 36 68 37
REMARK SMILES IDX 19 38 73 39 67 40 69 41 20 42 72 43 66 44 65 45 21 47 53 48
REMARK SMILES IDX 33 49 52 50 34 51 37 52 51 53 70 54 35 55 36 56 50 58 71 59
REMARK SMILES IDX 38 60 22 61 23 62 31 63 24 64 25 65 29 66 32 67 26 68 27 69
REMARK SMILES IDX 30 70 28 71 54 72 55 73 63 74 56 75 57 76 61 77 64 78 58 79
REMARK SMILES IDX 59 80 62 81 60 82 39 83 40 84 48 85 41 86 42 87 46 88 49 89
REMARK SMILES IDX 43 90 44 91 47 92 45 93
REMARK H PARENT 6 6 2 15 2 16 80 20 10 27 69 46 37 57
REMARK Flexibility Score: inf
ROOT
ATOM      1  C   UNL A   1      37.346  20.347  24.965  1.00  0.00     0.042 C 
ENDROOT
BRANCH   1   2
ATOM      2  C   UNL A   1      36.108  21.222  24.954  1.00  0.00     0.118 C 
BRANCH   2   3
ATOM      3  N   UNL A   1      35.573  21.449  26.287  1.00  0.00    -0.351 N 
ATOM      4  C   UNL A   1      34.293  21.573  26.743  1.00  0.00     0.281 C 
ATOM      5  O   UNL A   1      34.174  21.834  27.949  1.00  0.00    -0.268 OA
ATOM      6  H   UNL A   1      36.259  21.527  26.988  1.00  0.00     0.163 HD
BRANCH   4   7
ATOM      7  C   UNL A   1      33.023  21.436  25.808  1.00  0.00     0.181 C 
ATOM      8  C   UNL A   1      33.289  22.269  24.537  1.00  0.00     0.079 C 
ATOM      9  C   UNL A   1      32.782  19.935  25.557  1.00  0.00     0.144 C 
ATOM     10  C   UNL A   1      32.454  21.878  23.323  1.00  0.00     0.013 C 
ATOM     11  C   UNL A   1      32.104  19.512  24.247  1.00  0.00     0.190 C 
ATOM     12  C   UNL A   1      32.516  20.382  23.041  1.00  0.00     0.065 C 
BRANCH   7  13
ATOM     13  N   UNL A   1      31.878  21.916  26.634  1.00  0.00    -0.336 N 
ATOM     14  C   UNL A   1      31.394  23.264  26.444  1.00  0.00     0.331 C 
ATOM     15  H   UNL A   1      31.094  21.289  26.453  1.00  0.00     0.346 HD
ATOM     16  H   UNL A   1      32.247  21.921  27.584  1.00  0.00     0.346 HD
ENDBRANCH   7  13
BRANCH  11  17
ATOM     17  N   UNL A   1      32.284  18.067  23.954  1.00  0.00    -0.332 N 
ATOM     18  C   UNL A   1      32.998  17.725  22.720  1.00  0.00     0.262 C 
ATOM     19  C   UNL A   1      32.843  17.257  25.044  1.00  0.00     0.265 C 
ATOM     20  H   UNL A   1      31.303  17.819  23.825  1.00  0.00     0.348 HD
ATOM     21  C   UNL A   1      33.909  16.546  23.035  1.00  0.00     0.070 C 
ATOM     22  C   UNL A   1      34.144  16.626  24.536  1.00  0.00     0.047 C 
ATOM     23  C   UNL A   1      35.412  17.409  24.875  1.00  0.00     0.014 C 
ENDBRANCH  11  17
ENDBRANCH   4   7
ENDBRANCH   2   3
ENDBRANCH   1   2
BRANCH   1  24
ATOM     24  C   UNL A   1      38.600  21.075  25.414  1.00  0.00     0.118 C 
BRANCH  24  25
ATOM     25  N   UNL A   1      39.513  20.231  26.175  1.00  0.00    -0.352 N 
ATOM     26  C   UNL A   1      40.581  20.569  26.974  1.00  0.00     0.251 C 
ATOM     27  H   UNL A   1      39.336  19.264  26.108  1.00  0.00     0.163 HD
ATOM     28  O   UNL A   1      41.322  19.695  27.406  1.00  0.00    -0.269 OA
BRANCH  26  29
ATOM     29  C   UNL A   1      40.859  21.990  27.280  1.00  0.00     0.039 A 
ATOM     30  C   UNL A   1      41.753  22.299  28.309  1.00  0.00     0.014 A 
ATOM     31  C   UNL A   1      40.260  23.015  26.550  1.00  0.00     0.014 A 
ATOM     32  C   UNL A   1      42.114  23.629  28.536  1.00  0.00     0.010 A 
ATOM     33  C   UNL A   1      40.708  24.323  26.696  1.00  0.00     0.010 A 
ATOM     34  C   UNL A   1      41.636  24.647  27.695  1.00  0.00    -0.014 A 
BRANCH  34  35
ATOM     35  C   UNL A   1      42.085  26.056  27.842  1.00  0.00     0.031 A 
ATOM     36  C   UNL A   1      43.420  26.482  27.293  1.00  0.00     0.074 A 
ATOM     37  C   UNL A   1      41.331  26.932  28.535  1.00  0.00     0.049 A 
ATOM     38  N   UNL A   1      44.031  27.635  27.399  1.00  0.00    -0.248 NA
ATOM     39  C   UNL A   1      44.189  25.466  26.555  1.00  0.00     0.031 C 
ATOM     40  C   UNL A   1      40.043  26.630  29.165  1.00  0.00     0.029 A 
ATOM     41  N   UNL A   1      41.543  28.254  28.840  1.00  0.00    -0.354 N 
ATOM     42  C   UNL A   1      45.255  27.475  26.762  1.00  0.00     0.074 A 
ATOM     43  C   UNL A   1      45.330  26.097  26.328  1.00  0.00     0.031 C 
ATOM     44  C   UNL A   1      39.568  27.738  29.752  1.00  0.00     0.029 A 
ATOM     45  C   UNL A   1      40.535  28.818  29.585  1.00  0.00     0.049 A 
ATOM     46  H   UNL A   1      42.342  28.752  28.551  1.00  0.00     0.167 HD
ATOM     47  C   UNL A   1      46.217  28.400  26.533  1.00  0.00     0.037 A 
ATOM     48  C   UNL A   1      40.411  30.061  30.086  1.00  0.00     0.037 A 
ATOM     49  C   UNL A   1      46.125  29.777  26.941  1.00  0.00     0.049 A 
ATOM     50  C   UNL A   1      41.500  31.068  29.823  1.00  0.00     0.074 A 
ATOM     51  C   UNL A   1      47.018  30.807  26.702  1.00  0.00     0.029 A 
ATOM     52  N   UNL A   1      45.079  30.315  27.675  1.00  0.00    -0.354 N 
ATOM     53  N   UNL A   1      42.619  30.924  29.156  1.00  0.00    -0.248 NA
ATOM     54  C   UNL A   1      41.305  32.414  30.380  1.00  0.00     0.031 C 
ATOM     55  C   UNL A   1      46.538  31.956  27.339  1.00  0.00     0.029 A 
ATOM     56  C   UNL A   1      45.316  31.658  27.919  1.00  0.00     0.049 A 
ATOM     57  H   UNL A   1      44.286  29.817  27.977  1.00  0.00     0.167 HD
ATOM     58  C   UNL A   1      43.242  32.164  29.182  1.00  0.00     0.074 A 
ATOM     59  C   UNL A   1      42.370  33.053  29.919  1.00  0.00     0.031 C 
ATOM     60  C   UNL A   1      44.430  32.533  28.642  1.00  0.00     0.037 A 
BRANCH  47  61
ATOM     61  C   UNL A   1      47.453  27.955  25.802  1.00  0.00     0.064 A 
ATOM     62  C   UNL A   1      48.629  27.611  26.485  1.00  0.00     0.173 A 
ATOM     63  C   UNL A   1      47.448  27.832  24.405  1.00  0.00     0.173 A 
ATOM     64  F   UNL A   1      48.693  27.722  27.820  1.00  0.00    -0.203 F 
ATOM     65  C   UNL A   1      49.762  27.189  25.794  1.00  0.00     0.198 A 
ATOM     66  C   UNL A   1      48.571  27.376  23.720  1.00  0.00     0.198 A 
ATOM     67  F   UNL A   1      46.348  28.143  23.701  1.00  0.00    -0.203 F 
ATOM     68  F   UNL A   1      50.890  26.917  26.465  1.00  0.00    -0.200 F 
ATOM     69  C   UNL A   1      49.730  27.064  24.414  1.00  0.00     0.200 A 
ATOM     70  F   UNL A   1      48.532  27.241  22.387  1.00  0.00    -0.200 F 
ATOM     71  F   UNL A   1      50.817  26.646  23.751  1.00  0.00    -0.200 F 
ENDBRANCH  47  61
BRANCH  48  72
ATOM     72  C   UNL A   1      39.203  30.436  30.869  1.00  0.00     0.064 A 
ATOM     73  C   UNL A   1      38.078  30.989  30.240  1.00  0.00     0.173 A 
ATOM     74  C   UNL A   1      39.151  30.265  32.261  1.00  0.00     0.173 A 
ATOM     75  F   UNL A   1      38.086  31.190  28.914  1.00  0.00    -0.203 F 
ATOM     76  C   UNL A   1      36.962  31.383  30.974  1.00  0.00     0.198 A 
ATOM     77  C   UNL A   1      38.021  30.629  32.990  1.00  0.00     0.198 A 
ATOM     78  F   UNL A   1      40.196  29.734  32.913  1.00  0.00    -0.203 F 
ATOM     79  F   UNL A   1      35.925  31.961  30.353  1.00  0.00    -0.200 F 
ATOM     80  C   UNL A   1      36.932  31.198  32.347  1.00  0.00     0.200 A 
ATOM     81  F   UNL A   1      37.990  30.433  34.315  1.00  0.00    -0.200 F 
ATOM     82  F   UNL A   1      35.857  31.576  33.054  1.00  0.00    -0.200 F 
ENDBRANCH  48  72
BRANCH  60  83
ATOM     83  C   UNL A   1      44.837  33.972  28.786  1.00  0.00     0.064 A 
ATOM     84  C   UNL A   1      45.633  34.414  29.853  1.00  0.00     0.173 A 
ATOM     85  C   UNL A   1      44.458  34.913  27.816  1.00  0.00     0.173 A 
ATOM     86  F   UNL A   1      46.010  33.558  30.814  1.00  0.00    -0.203 F 
ATOM     87  C   UNL A   1      46.011  35.750  29.957  1.00  0.00     0.198 A 
ATOM     88  C   UNL A   1      44.868  36.241  27.905  1.00  0.00     0.198 A 
ATOM     89  F   UNL A   1      43.703  34.542  26.770  1.00  0.00    -0.203 F 
ATOM     90  F   UNL A   1      46.729  36.159  31.012  1.00  0.00    -0.200 F 
ATOM     91  C   UNL A   1      45.636  36.660  28.980  1.00  0.00     0.200 A 
ATOM     92  F   UNL A   1      44.518  37.114  26.950  1.00  0.00    -0.200 F 
ATOM     93  F   UNL A   1      46.011  37.942  29.077  1.00  0.00    -0.200 F 
ENDBRANCH  60  83
ENDBRANCH  34  35
ENDBRANCH  26  29
ENDBRANCH  24  25
ENDBRANCH   1  24
TORSDOF 12
ENDMDL
