MODEL 1
REMARK VINA RESULT:     -12.5      0.000      0.000
REMARK SMILES CCC[C@](C)(C(=O)NCCCNC(=O)c1ccc(-c2c3nc(c(-c4c(F)c(F)c(F)c(F)c4F)c4ccc([nH]4)c(-c4c(F)c(F)c(F)c(F)c4F)c4nc(c(-c5c(F)c(F)c(F)c(F)c5F)c5ccc2[nH]5)C=C4)C=C3)cc1)[C@@H]1CCO[C@]2(CCSC2)C1
REMARK SMILES IDX 10 1 9 2 8 3 6 4 7 5 4 7 5 8 3 9 2 10 1 11 78 12 79 13 87 14
REMARK SMILES IDX 80 15 82 16 81 17 83 18 86 19 84 20 85 21 11 22 12 23 13 24
REMARK SMILES IDX 14 26 15 27 16 28 77 29 17 30 76 31 18 32 19 33 20 34 70 35
REMARK SMILES IDX 21 36 75 37 69 38 71 39 22 40 74 41 68 42 67 43 23 45 55 46
REMARK SMILES IDX 35 47 54 48 36 49 39 50 53 51 72 52 37 53 38 54 52 56 73 57
REMARK SMILES IDX 40 58 24 59 25 60 33 61 26 62 27 63 31 64 34 65 28 66 29 67
REMARK SMILES IDX 32 68 30 69 56 70 57 71 65 72 58 73 59 74 63 75 66 76 60 77
REMARK SMILES IDX 61 78 64 79 62 80 41 81 42 82 50 83 43 84 44 85 48 86 51 87
REMARK SMILES IDX 45 88 46 89 49 90 47 91
REMARK H PARENT 8 6 12 25 71 44 39 55
REMARK Flexibility Score: inf
ROOT
ATOM      1  C   UNL A   1      31.596  31.953  26.893  1.00  0.00     0.042 C 
ENDROOT
BRANCH   1   2
ATOM      2  C   UNL A   1      31.984  30.718  26.099  1.00  0.00     0.117 C 
BRANCH   2   3
ATOM      3  N   UNL A   1      31.840  29.501  26.890  1.00  0.00    -0.356 N 
ATOM      4  C   UNL A   1      31.644  28.178  26.660  1.00  0.00     0.226 C 
ATOM      5  O   UNL A   1      31.409  27.540  27.697  1.00  0.00    -0.274 OA
ATOM      6  H   UNL A   1      31.903  29.691  27.854  1.00  0.00     0.163 HD
BRANCH   4   7
ATOM      7  C   UNL A   1      31.537  27.479  25.252  1.00  0.00     0.049 C 
ATOM      8  C   UNL A   1      30.750  26.190  25.661  1.00  0.00     0.022 C 
BRANCH   7   9
ATOM      9  C   UNL A   1      30.625  28.302  24.318  1.00  0.00     0.016 C 
BRANCH   9  10
ATOM     10  C   UNL A   1      29.646  27.754  23.308  1.00  0.00    -0.002 C 
ATOM     11  C   UNL A   1      28.421  28.561  22.950  1.00  0.00     0.004 C 
ENDBRANCH   9  10
ENDBRANCH   7   9
BRANCH   7  12
ATOM     12  C   UNL A   1      33.001  27.043  24.696  1.00  0.00     0.009 C 
ATOM     13  C   UNL A   1      33.509  27.661  23.371  1.00  0.00     0.033 C 
ATOM     14  C   UNL A   1      33.487  25.549  24.713  1.00  0.00     0.041 C 
ATOM     15  C   UNL A   1      33.233  26.783  22.178  1.00  0.00     0.161 C 
ATOM     16  C   UNL A   1      33.573  24.733  23.362  1.00  0.00     0.078 C 
ATOM     17  O   UNL A   1      34.013  25.600  22.303  1.00  0.00    -0.374 OA
ATOM     18  C   UNL A   1      32.365  23.942  22.801  1.00  0.00     0.047 C 
ATOM     19  C   UNL A   1      34.638  23.617  23.502  1.00  0.00     0.105 C 
ATOM     20  C   UNL A   1      32.169  22.617  23.535  1.00  0.00     0.072 C 
ATOM     21  S   UNL A   1      33.790  22.168  24.186  1.00  0.00    -0.159 SA
ENDBRANCH   7  12
ENDBRANCH   4   7
ENDBRANCH   2   3
ENDBRANCH   1   2
BRANCH   1  22
ATOM     22  C   UNL A   1      32.819  32.695  27.395  1.00  0.00     0.118 C 
BRANCH  22  23
ATOM     23  N   UNL A   1      32.534  34.108  27.650  1.00  0.00    -0.352 N 
ATOM     24  C   UNL A   1      33.023  34.945  28.626  1.00  0.00     0.251 C 
ATOM     25  H   UNL A   1      31.896  34.523  27.026  1.00  0.00     0.163 HD
ATOM     26  O   UNL A   1      32.506  36.026  28.839  1.00  0.00    -0.269 OA
BRANCH  24  27
ATOM     27  C   UNL A   1      34.180  34.492  29.424  1.00  0.00     0.039 A 
ATOM     28  C   UNL A   1      33.974  33.914  30.677  1.00  0.00     0.014 A 
ATOM     29  C   UNL A   1      35.462  34.596  28.888  1.00  0.00     0.014 A 
ATOM     30  C   UNL A   1      35.060  33.359  31.355  1.00  0.00     0.010 A 
ATOM     31  C   UNL A   1      36.507  33.924  29.494  1.00  0.00     0.010 A 
ATOM     32  C   UNL A   1      36.325  33.320  30.747  1.00  0.00    -0.014 A 
BRANCH  32  33
ATOM     33  C   UNL A   1      37.505  32.713  31.406  1.00  0.00     0.031 A 
ATOM     34  C   UNL A   1      38.215  31.577  30.719  1.00  0.00     0.074 A 
ATOM     35  C   UNL A   1      37.877  33.112  32.638  1.00  0.00     0.049 A 
ATOM     36  N   UNL A   1      39.152  30.786  31.175  1.00  0.00    -0.248 NA
ATOM     37  C   UNL A   1      37.779  31.257  29.347  1.00  0.00     0.031 C 
ATOM     38  C   UNL A   1      37.235  34.171  33.421  1.00  0.00     0.029 A 
ATOM     39  N   UNL A   1      38.879  32.658  33.457  1.00  0.00    -0.354 N 
ATOM     40  C   UNL A   1      39.395  29.873  30.158  1.00  0.00     0.074 A 
ATOM     41  C   UNL A   1      38.455  30.148  29.097  1.00  0.00     0.031 C 
ATOM     42  C   UNL A   1      37.878  34.303  34.594  1.00  0.00     0.029 A 
ATOM     43  C   UNL A   1      38.941  33.305  34.667  1.00  0.00     0.049 A 
ATOM     44  H   UNL A   1      39.498  31.936  33.201  1.00  0.00     0.167 HD
ATOM     45  C   UNL A   1      40.350  28.917  30.093  1.00  0.00     0.037 A 
ATOM     46  C   UNL A   1      39.757  33.101  35.718  1.00  0.00     0.037 A 
ATOM     47  C   UNL A   1      41.310  28.676  31.135  1.00  0.00     0.049 A 
ATOM     48  C   UNL A   1      40.799  32.015  35.626  1.00  0.00     0.074 A 
ATOM     49  C   UNL A   1      42.336  27.751  31.165  1.00  0.00     0.029 A 
ATOM     50  N   UNL A   1      41.365  29.382  32.327  1.00  0.00    -0.354 N 
ATOM     51  N   UNL A   1      41.051  31.187  34.640  1.00  0.00    -0.248 NA
ATOM     52  C   UNL A   1      41.674  31.837  36.793  1.00  0.00     0.031 C 
ATOM     53  C   UNL A   1      42.995  27.875  32.391  1.00  0.00     0.029 A 
ATOM     54  C   UNL A   1      42.411  28.912  33.102  1.00  0.00     0.049 A 
ATOM     55  H   UNL A   1      40.753  30.109  32.584  1.00  0.00     0.167 HD
ATOM     56  C   UNL A   1      42.140  30.429  35.047  1.00  0.00     0.074 A 
ATOM     57  C   UNL A   1      42.506  30.900  36.366  1.00  0.00     0.031 C 
ATOM     58  C   UNL A   1      42.780  29.430  34.393  1.00  0.00     0.037 A 
BRANCH  45  59
ATOM     59  C   UNL A   1      40.427  28.092  28.843  1.00  0.00     0.064 A 
ATOM     60  C   UNL A   1      41.207  28.498  27.749  1.00  0.00     0.173 A 
ATOM     61  C   UNL A   1      39.753  26.866  28.750  1.00  0.00     0.173 A 
ATOM     62  F   UNL A   1      41.856  29.671  27.780  1.00  0.00    -0.203 F 
ATOM     63  C   UNL A   1      41.292  27.717  26.600  1.00  0.00     0.198 A 
ATOM     64  C   UNL A   1      39.868  26.071  27.612  1.00  0.00     0.198 A 
ATOM     65  F   UNL A   1      38.992  26.432  29.766  1.00  0.00    -0.203 F 
ATOM     66  F   UNL A   1      42.006  28.148  25.550  1.00  0.00    -0.200 F 
ATOM     67  C   UNL A   1      40.632  26.500  26.537  1.00  0.00     0.200 A 
ATOM     68  F   UNL A   1      39.238  24.889  27.557  1.00  0.00    -0.200 F 
ATOM     69  F   UNL A   1      40.727  25.741  25.436  1.00  0.00    -0.200 F 
ENDBRANCH  45  59
BRANCH  46  70
ATOM     70  C   UNL A   1      39.646  33.939  36.943  1.00  0.00     0.064 A 
ATOM     71  C   UNL A   1      38.870  33.519  38.034  1.00  0.00     0.173 A 
ATOM     72  C   UNL A   1      40.261  35.197  37.031  1.00  0.00     0.173 A 
ATOM     73  F   UNL A   1      38.248  32.331  37.995  1.00  0.00    -0.203 F 
ATOM     74  C   UNL A   1      38.675  34.342  39.141  1.00  0.00     0.198 A 
ATOM     75  C   UNL A   1      40.094  36.004  38.155  1.00  0.00     0.198 A 
ATOM     76  F   UNL A   1      41.021  35.645  36.021  1.00  0.00    -0.203 F 
ATOM     77  F   UNL A   1      37.868  33.944  40.134  1.00  0.00    -0.200 F 
ATOM     78  C   UNL A   1      39.288  35.584  39.202  1.00  0.00     0.200 A 
ATOM     79  F   UNL A   1      40.702  37.197  38.216  1.00  0.00    -0.200 F 
ATOM     80  F   UNL A   1      39.090  36.380  40.260  1.00  0.00    -0.200 F 
ENDBRANCH  46  70
BRANCH  58  81
ATOM     81  C   UNL A   1      43.988  28.833  35.052  1.00  0.00     0.064 A 
ATOM     82  C   UNL A   1      45.273  29.357  34.859  1.00  0.00     0.173 A 
ATOM     83  C   UNL A   1      43.841  27.754  35.939  1.00  0.00     0.173 A 
ATOM     84  F   UNL A   1      45.464  30.380  34.012  1.00  0.00    -0.203 F 
ATOM     85  C   UNL A   1      46.372  28.808  35.512  1.00  0.00     0.198 A 
ATOM     86  C   UNL A   1      44.938  27.230  36.616  1.00  0.00     0.198 A 
ATOM     87  F   UNL A   1      42.630  27.223  36.165  1.00  0.00    -0.203 F 
ATOM     88  F   UNL A   1      47.598  29.295  35.278  1.00  0.00    -0.200 F 
ATOM     89  C   UNL A   1      46.203  27.752  36.396  1.00  0.00     0.200 A 
ATOM     90  F   UNL A   1      44.769  26.223  37.482  1.00  0.00    -0.200 F 
ATOM     91  F   UNL A   1      47.262  27.235  37.033  1.00  0.00    -0.200 F 
ENDBRANCH  58  81
ENDBRANCH  32  33
ENDBRANCH  24  27
ENDBRANCH  22  23
ENDBRANCH   1  22
TORSDOF 13
ENDMDL
MODEL 2
REMARK VINA RESULT:     -12.5      5.594     10.756
REMARK SMILES CCC[C@](C)(C(=O)NCCCNC(=O)c1ccc(-c2c3nc(c(-c4c(F)c(F)c(F)c(F)c4F)c4ccc([nH]4)c(-c4c(F)c(F)c(F)c(F)c4F)c4nc(c(-c5c(F)c(F)c(F)c(F)c5F)c5ccc2[nH]5)C=C4)C=C3)cc1)[C@@H]1CCO[C@]2(CCSC2)C1
REMARK SMILES IDX 10 1 9 2 8 3 6 4 7 5 4 7 5 8 3 9 2 10 1 11 78 12 79 13 87 14
REMARK SMILES IDX 80 15 82 16 81 17 83 18 86 19 84 20 85 21 11 22 12 23 13 24
REMARK SMILES IDX 14 26 15 27 16 28 77 29 17 30 76 31 18 32 19 33 20 34 70 35
REMARK SMILES IDX 21 36 75 37 69 38 71 39 22 40 74 41 68 42 67 43 23 45 55 46
REMARK SMILES IDX 35 47 54 48 36 49 39 50 53 51 72 52 37 53 38 54 52 56 73 57
REMARK SMILES IDX 40 58 24 59 25 60 33 61 26 62 27 63 31 64 34 65 28 66 29 67
REMARK SMILES IDX 32 68 30 69 56 70 57 71 65 72 58 73 59 74 63 75 66 76 60 77
REMARK SMILES IDX 61 78 64 79 62 80 41 81 42 82 50 83 43 84 44 85 48 86 51 87
REMARK SMILES IDX 45 88 46 89 49 90 47 91
REMARK H PARENT 8 6 12 25 71 44 39 55
REMARK Flexibility Score: inf
ROOT
ATOM      1  C   UNL A   1      37.996  20.165  24.993  1.00  0.00     0.042 C 
ENDROOT
BRANCH   1   2
ATOM      2  C   UNL A   1      36.808  21.042  25.353  1.00  0.00     0.117 C 
BRANCH   2   3
ATOM      3  N   UNL A   1      36.489  21.982  24.284  1.00  0.00    -0.356 N 
ATOM      4  C   UNL A   1      35.385  22.604  23.798  1.00  0.00     0.226 C 
ATOM      5  O   UNL A   1      35.599  23.199  22.731  1.00  0.00    -0.274 OA
ATOM      6  H   UNL A   1      37.294  22.235  23.777  1.00  0.00     0.163 HD
BRANCH   4   7
ATOM      7  C   UNL A   1      33.921  22.490  24.367  1.00  0.00     0.049 C 
ATOM      8  C   UNL A   1      33.131  23.146  23.187  1.00  0.00     0.022 C 
BRANCH   7   9
ATOM      9  C   UNL A   1      33.494  21.009  24.444  1.00  0.00     0.016 C 
BRANCH   9  10
ATOM     10  C   UNL A   1      32.502  20.312  23.545  1.00  0.00    -0.002 C 
ATOM     11  C   UNL A   1      32.403  18.806  23.576  1.00  0.00     0.004 C 
ENDBRANCH   9  10
ENDBRANCH   7   9
BRANCH   7  12
ATOM     12  C   UNL A   1      33.730  23.407  25.696  1.00  0.00     0.009 C 
ATOM     13  C   UNL A   1      33.068  22.780  26.946  1.00  0.00     0.033 C 
ATOM     14  C   UNL A   1      33.228  24.894  25.616  1.00  0.00     0.041 C 
ATOM     15  C   UNL A   1      31.589  23.063  27.022  1.00  0.00     0.161 C 
ATOM     16  C   UNL A   1      31.763  25.256  26.085  1.00  0.00     0.078 C 
ATOM     17  O   UNL A   1      31.411  24.459  27.228  1.00  0.00    -0.374 OA
ATOM     18  C   UNL A   1      30.552  25.189  25.121  1.00  0.00     0.047 C 
ATOM     19  C   UNL A   1      31.719  26.737  26.537  1.00  0.00     0.105 C 
ATOM     20  C   UNL A   1      30.505  26.400  24.190  1.00  0.00     0.072 C 
ATOM     21  S   UNL A   1      31.365  27.726  25.059  1.00  0.00    -0.159 SA
ENDBRANCH   7  12
ENDBRANCH   4   7
ENDBRANCH   2   3
ENDBRANCH   1   2
BRANCH   1  22
ATOM     22  C   UNL A   1      39.204  20.493  25.848  1.00  0.00     0.118 C 
BRANCH  22  23
ATOM     23  N   UNL A   1      40.142  19.371  25.921  1.00  0.00    -0.352 N 
ATOM     24  C   UNL A   1      41.509  19.372  26.075  1.00  0.00     0.251 C 
ATOM     25  H   UNL A   1      39.730  18.479  25.849  1.00  0.00     0.163 HD
ATOM     26  O   UNL A   1      42.160  18.362  25.880  1.00  0.00    -0.269 OA
BRANCH  24  27
ATOM     27  C   UNL A   1      42.170  20.633  26.463  1.00  0.00     0.039 A 
ATOM     28  C   UNL A   1      42.654  21.495  25.478  1.00  0.00     0.014 A 
ATOM     29  C   UNL A   1      42.251  20.975  27.812  1.00  0.00     0.014 A 
ATOM     30  C   UNL A   1      43.144  22.746  25.852  1.00  0.00     0.010 A 
ATOM     31  C   UNL A   1      42.604  22.264  28.166  1.00  0.00     0.010 A 
ATOM     32  C   UNL A   1      43.079  23.156  27.194  1.00  0.00    -0.014 A 
BRANCH  32  33
ATOM     33  C   UNL A   1      43.553  24.487  27.642  1.00  0.00     0.031 A 
ATOM     34  C   UNL A   1      42.535  25.540  27.987  1.00  0.00     0.074 A 
ATOM     35  C   UNL A   1      44.870  24.773  27.651  1.00  0.00     0.049 A 
ATOM     36  N   UNL A   1      42.708  26.813  28.233  1.00  0.00    -0.248 NA
ATOM     37  C   UNL A   1      41.123  25.114  28.014  1.00  0.00     0.031 C 
ATOM     38  C   UNL A   1      45.947  23.846  27.292  1.00  0.00     0.029 A 
ATOM     39  N   UNL A   1      45.526  25.937  27.960  1.00  0.00    -0.354 N 
ATOM     40  C   UNL A   1      41.434  27.333  28.421  1.00  0.00     0.074 A 
ATOM     41  C   UNL A   1      40.493  26.265  28.177  1.00  0.00     0.031 C 
ATOM     42  C   UNL A   1      47.128  24.470  27.428  1.00  0.00     0.029 A 
ATOM     43  C   UNL A   1      46.892  25.852  27.833  1.00  0.00     0.049 A 
ATOM     44  H   UNL A   1      45.062  26.756  28.248  1.00  0.00     0.167 HD
ATOM     45  C   UNL A   1      41.080  28.579  28.808  1.00  0.00     0.037 A 
ATOM     46  C   UNL A   1      47.838  26.793  28.010  1.00  0.00     0.037 A 
ATOM     47  C   UNL A   1      42.024  29.625  29.090  1.00  0.00     0.049 A 
ATOM     48  C   UNL A   1      47.413  28.180  28.422  1.00  0.00     0.074 A 
ATOM     49  C   UNL A   1      41.777  30.918  29.513  1.00  0.00     0.029 A 
ATOM     50  N   UNL A   1      43.400  29.487  28.990  1.00  0.00    -0.354 N 
ATOM     51  N   UNL A   1      46.207  28.648  28.642  1.00  0.00    -0.248 NA
ATOM     52  C   UNL A   1      48.482  29.170  28.615  1.00  0.00     0.031 C 
ATOM     53  C   UNL A   1      43.005  31.573  29.640  1.00  0.00     0.029 A 
ATOM     54  C   UNL A   1      44.017  30.674  29.345  1.00  0.00     0.049 A 
ATOM     55  H   UNL A   1      43.868  28.667  28.710  1.00  0.00     0.167 HD
ATOM     56  C   UNL A   1      46.377  29.965  29.046  1.00  0.00     0.074 A 
ATOM     57  C   UNL A   1      47.801  30.220  29.049  1.00  0.00     0.031 C 
ATOM     58  C   UNL A   1      45.440  30.885  29.381  1.00  0.00     0.037 A 
BRANCH  45  59
ATOM     59  C   UNL A   1      39.619  28.865  28.986  1.00  0.00     0.064 A 
ATOM     60  C   UNL A   1      38.998  28.736  30.239  1.00  0.00     0.173 A 
ATOM     61  C   UNL A   1      38.839  29.313  27.911  1.00  0.00     0.173 A 
ATOM     62  F   UNL A   1      39.696  28.294  31.296  1.00  0.00    -0.203 F 
ATOM     63  C   UNL A   1      37.647  29.025  30.402  1.00  0.00     0.198 A 
ATOM     64  C   UNL A   1      37.495  29.632  28.085  1.00  0.00     0.198 A 
ATOM     65  F   UNL A   1      39.382  29.451  26.691  1.00  0.00    -0.203 F 
ATOM     66  F   UNL A   1      37.066  28.849  31.597  1.00  0.00    -0.200 F 
ATOM     67  C   UNL A   1      36.899  29.482  29.329  1.00  0.00     0.200 A 
ATOM     68  F   UNL A   1      36.775  30.087  27.049  1.00  0.00    -0.200 F 
ATOM     69  F   UNL A   1      35.601  29.775  29.491  1.00  0.00    -0.200 F 
ENDBRANCH  45  59
BRANCH  46  70
ATOM     70  C   UNL A   1      49.278  26.470  27.820  1.00  0.00     0.064 A 
ATOM     71  C   UNL A   1      50.121  26.263  28.922  1.00  0.00     0.173 A 
ATOM     72  C   UNL A   1      49.856  26.416  26.542  1.00  0.00     0.173 A 
ATOM     73  F   UNL A   1      49.621  26.319  30.166  1.00  0.00    -0.203 F 
ATOM     74  C   UNL A   1      51.490  26.064  28.757  1.00  0.00     0.198 A 
ATOM     75  C   UNL A   1      51.220  26.181  26.378  1.00  0.00     0.198 A 
ATOM     76  F   UNL A   1      49.097  26.597  25.452  1.00  0.00    -0.203 F 
ATOM     77  F   UNL A   1      52.281  25.944  29.833  1.00  0.00    -0.200 F 
ATOM     78  C   UNL A   1      52.039  26.022  27.485  1.00  0.00     0.200 A 
ATOM     79  F   UNL A   1      51.744  26.125  25.146  1.00  0.00    -0.200 F 
ATOM     80  F   UNL A   1      53.357  25.843  27.328  1.00  0.00    -0.200 F 
ENDBRANCH  46  70
BRANCH  58  81
ATOM     81  C   UNL A   1      45.923  32.224  29.856  1.00  0.00     0.064 A 
ATOM     82  C   UNL A   1      46.103  33.300  28.976  1.00  0.00     0.173 A 
ATOM     83  C   UNL A   1      46.149  32.443  31.224  1.00  0.00     0.173 A 
ATOM     84  F   UNL A   1      45.912  33.135  27.659  1.00  0.00    -0.203 F 
ATOM     85  C   UNL A   1      46.516  34.543  29.447  1.00  0.00     0.198 A 
ATOM     86  C   UNL A   1      46.529  33.697  31.694  1.00  0.00     0.198 A 
ATOM     87  F   UNL A   1      45.980  31.448  32.107  1.00  0.00    -0.203 F 
ATOM     88  F   UNL A   1      46.727  35.546  28.584  1.00  0.00    -0.200 F 
ATOM     89  C   UNL A   1      46.719  34.743  30.805  1.00  0.00     0.200 A 
ATOM     90  F   UNL A   1      46.706  33.892  33.007  1.00  0.00    -0.200 F 
ATOM     91  F   UNL A   1      47.103  35.945  31.255  1.00  0.00    -0.200 F 
ENDBRANCH  58  81
ENDBRANCH  32  33
ENDBRANCH  24  27
ENDBRANCH  22  23
ENDBRANCH   1  22
TORSDOF 13
ENDMDL
MODEL 3
REMARK VINA RESULT:     -12.4      0.164      1.979
REMARK SMILES CCC[C@](C)(C(=O)NCCCNC(=O)c1ccc(-c2c3nc(c(-c4c(F)c(F)c(F)c(F)c4F)c4ccc([nH]4)c(-c4c(F)c(F)c(F)c(F)c4F)c4nc(c(-c5c(F)c(F)c(F)c(F)c5F)c5ccc2[nH]5)C=C4)C=C3)cc1)[C@@H]1CCO[C@]2(CCSC2)C1
REMARK SMILES IDX 10 1 9 2 8 3 6 4 7 5 4 7 5 8 3 9 2 10 1 11 78 12 79 13 87 14
REMARK SMILES IDX 80 15 82 16 81 17 83 18 86 19 84 20 85 21 11 22 12 23 13 24
REMARK SMILES IDX 14 26 15 27 16 28 77 29 17 30 76 31 18 32 19 33 20 34 70 35
REMARK SMILES IDX 21 36 75 37 69 38 71 39 22 40 74 41 68 42 67 43 23 45 55 46
REMARK SMILES IDX 35 47 54 48 36 49 39 50 53 51 72 52 37 53 38 54 52 56 73 57
REMARK SMILES IDX 40 58 24 59 25 60 33 61 26 62 27 63 31 64 34 65 28 66 29 67
REMARK SMILES IDX 32 68 30 69 56 70 57 71 65 72 58 73 59 74 63 75 66 76 60 77
REMARK SMILES IDX 61 78 64 79 62 80 41 81 42 82 50 83 43 84 44 85 48 86 51 87
REMARK SMILES IDX 45 88 46 89 49 90 47 91
REMARK H PARENT 8 6 12 25 71 44 39 55
REMARK Flexibility Score: inf
ROOT
ATOM      1  C   UNL A   1      31.623  31.876  26.824  1.00  0.00     0.042 C 
ENDROOT
BRANCH   1   2
ATOM      2  C   UNL A   1      32.057  30.651  26.039  1.00  0.00     0.117 C 
BRANCH   2   3
ATOM      3  N   UNL A   1      31.813  29.420  26.782  1.00  0.00    -0.356 N 
ATOM      4  C   UNL A   1      31.563  28.116  26.500  1.00  0.00     0.226 C 
ATOM      5  O   UNL A   1      31.244  27.460  27.503  1.00  0.00    -0.274 OA
ATOM      6  H   UNL A   1      31.835  29.578  27.753  1.00  0.00     0.163 HD
BRANCH   4   7
ATOM      7  C   UNL A   1      31.493  27.466  25.067  1.00  0.00     0.049 C 
ATOM      8  C   UNL A   1      30.690  26.168  25.409  1.00  0.00     0.022 C 
BRANCH   7   9
ATOM      9  C   UNL A   1      30.612  28.325  24.136  1.00  0.00     0.016 C 
BRANCH   9  10
ATOM     10  C   UNL A   1      29.656  27.816  23.084  1.00  0.00    -0.002 C 
ATOM     11  C   UNL A   1      28.197  28.199  23.161  1.00  0.00     0.004 C 
ENDBRANCH   9  10
ENDBRANCH   7   9
BRANCH   7  12
ATOM     12  C   UNL A   1      32.971  27.041  24.538  1.00  0.00     0.009 C 
ATOM     13  C   UNL A   1      33.474  27.615  23.192  1.00  0.00     0.033 C 
ATOM     14  C   UNL A   1      33.491  25.561  24.622  1.00  0.00     0.041 C 
ATOM     15  C   UNL A   1      33.227  26.680  22.035  1.00  0.00     0.161 C 
ATOM     16  C   UNL A   1      33.606  24.691  23.307  1.00  0.00     0.078 C 
ATOM     17  O   UNL A   1      34.033  25.523  22.215  1.00  0.00    -0.374 OA
ATOM     18  C   UNL A   1      32.420  23.849  22.773  1.00  0.00     0.047 C 
ATOM     19  C   UNL A   1      34.696  23.608  23.501  1.00  0.00     0.105 C 
ATOM     20  C   UNL A   1      32.251  22.551  23.562  1.00  0.00     0.072 C 
ATOM     21  S   UNL A   1      33.877  22.168  24.241  1.00  0.00    -0.159 SA
ENDBRANCH   7  12
ENDBRANCH   4   7
ENDBRANCH   2   3
ENDBRANCH   1   2
BRANCH   1  22
ATOM     22  C   UNL A   1      32.815  32.618  27.396  1.00  0.00     0.118 C 
BRANCH  22  23
ATOM     23  N   UNL A   1      32.523  34.035  27.617  1.00  0.00    -0.352 N 
ATOM     24  C   UNL A   1      33.000  34.895  28.579  1.00  0.00     0.251 C 
ATOM     25  H   UNL A   1      31.888  34.433  26.979  1.00  0.00     0.163 HD
ATOM     26  O   UNL A   1      32.477  35.979  28.763  1.00  0.00    -0.269 OA
BRANCH  24  27
ATOM     27  C   UNL A   1      34.151  34.465  29.396  1.00  0.00     0.039 A 
ATOM     28  C   UNL A   1      33.936  33.901  30.654  1.00  0.00     0.014 A 
ATOM     29  C   UNL A   1      35.439  34.575  28.875  1.00  0.00     0.014 A 
ATOM     30  C   UNL A   1      35.020  33.367  31.353  1.00  0.00     0.010 A 
ATOM     31  C   UNL A   1      36.484  33.922  29.502  1.00  0.00     0.010 A 
ATOM     32  C   UNL A   1      36.292  33.333  30.760  1.00  0.00    -0.014 A 
BRANCH  32  33
ATOM     33  C   UNL A   1      37.471  32.747  31.442  1.00  0.00     0.031 A 
ATOM     34  C   UNL A   1      38.199  31.608  30.779  1.00  0.00     0.074 A 
ATOM     35  C   UNL A   1      37.825  33.168  32.672  1.00  0.00     0.049 A 
ATOM     36  N   UNL A   1      39.138  30.833  31.258  1.00  0.00    -0.248 NA
ATOM     37  C   UNL A   1      37.782  31.263  29.407  1.00  0.00     0.031 C 
ATOM     38  C   UNL A   1      37.165  34.233  33.431  1.00  0.00     0.029 A 
ATOM     39  N   UNL A   1      38.822  32.735  33.508  1.00  0.00    -0.354 N 
ATOM     40  C   UNL A   1      39.401  29.907  30.256  1.00  0.00     0.074 A 
ATOM     41  C   UNL A   1      38.470  30.157  29.181  1.00  0.00     0.031 C 
ATOM     42  C   UNL A   1      37.793  34.387  34.609  1.00  0.00     0.029 A 
ATOM     43  C   UNL A   1      38.864  33.401  34.709  1.00  0.00     0.049 A 
ATOM     44  H   UNL A   1      39.450  32.016  33.269  1.00  0.00     0.167 HD
ATOM     45  C   UNL A   1      40.366  28.960  30.217  1.00  0.00     0.037 A 
ATOM     46  C   UNL A   1      39.670  33.220  35.772  1.00  0.00     0.037 A 
ATOM     47  C   UNL A   1      41.316  28.743  31.273  1.00  0.00     0.049 A 
ATOM     48  C   UNL A   1      40.723  32.143  35.708  1.00  0.00     0.074 A 
ATOM     49  C   UNL A   1      42.350  27.828  31.328  1.00  0.00     0.029 A 
ATOM     50  N   UNL A   1      41.351  29.467  32.455  1.00  0.00    -0.354 N 
ATOM     51  N   UNL A   1      40.994  31.303  34.737  1.00  0.00    -0.248 NA
ATOM     52  C   UNL A   1      41.587  31.991  36.887  1.00  0.00     0.031 C 
ATOM     53  C   UNL A   1      42.994  27.977  32.559  1.00  0.00     0.029 A 
ATOM     54  C   UNL A   1      42.393  29.018  33.248  1.00  0.00     0.049 A 
ATOM     55  H   UNL A   1      40.729  30.192  32.694  1.00  0.00     0.167 HD
ATOM     56  C   UNL A   1      42.086  30.561  35.167  1.00  0.00     0.074 A 
ATOM     57  C   UNL A   1      42.433  31.055  36.483  1.00  0.00     0.031 C 
ATOM     58  C   UNL A   1      42.743  29.560  34.535  1.00  0.00     0.037 A 
BRANCH  45  59
ATOM     59  C   UNL A   1      40.464  28.117  28.980  1.00  0.00     0.064 A 
ATOM     60  C   UNL A   1      39.745  26.917  28.857  1.00  0.00     0.173 A 
ATOM     61  C   UNL A   1      41.245  28.528  27.891  1.00  0.00     0.173 A 
ATOM     62  F   UNL A   1      38.998  26.469  29.877  1.00  0.00    -0.203 F 
ATOM     63  C   UNL A   1      39.823  26.151  27.698  1.00  0.00     0.198 A 
ATOM     64  C   UNL A   1      41.293  27.776  26.720  1.00  0.00     0.198 A 
ATOM     65  F   UNL A   1      41.953  29.667  27.957  1.00  0.00    -0.203 F 
ATOM     66  F   UNL A   1      39.165  24.985  27.623  1.00  0.00    -0.200 F 
ATOM     67  C   UNL A   1      40.588  26.586  26.628  1.00  0.00     0.200 A 
ATOM     68  F   UNL A   1      42.023  28.204  25.681  1.00  0.00    -0.200 F 
ATOM     69  F   UNL A   1      40.649  25.855  25.506  1.00  0.00    -0.200 F 
ENDBRANCH  45  59
BRANCH  46  70
ATOM     70  C   UNL A   1      39.538  34.076  36.982  1.00  0.00     0.064 A 
ATOM     71  C   UNL A   1      40.201  35.309  37.069  1.00  0.00     0.173 A 
ATOM     72  C   UNL A   1      38.796  33.660  38.098  1.00  0.00     0.173 A 
ATOM     73  F   UNL A   1      40.937  35.746  36.035  1.00  0.00    -0.203 F 
ATOM     74  C   UNL A   1      40.168  36.067  38.237  1.00  0.00     0.198 A 
ATOM     75  C   UNL A   1      38.734  34.437  39.253  1.00  0.00     0.198 A 
ATOM     76  F   UNL A   1      38.133  32.494  38.068  1.00  0.00    -0.203 F 
ATOM     77  F   UNL A   1      40.874  37.204  38.314  1.00  0.00    -0.200 F 
ATOM     78  C   UNL A   1      39.433  35.632  39.329  1.00  0.00     0.200 A 
ATOM     79  F   UNL A   1      38.009  34.020  40.300  1.00  0.00    -0.200 F 
ATOM     80  F   UNL A   1      39.412  36.355  40.456  1.00  0.00    -0.200 F 
ENDBRANCH  46  70
BRANCH  58  81
ATOM     81  C   UNL A   1      43.948  28.983  35.216  1.00  0.00     0.064 A 
ATOM     82  C   UNL A   1      43.850  27.909  36.111  1.00  0.00     0.173 A 
ATOM     83  C   UNL A   1      45.227  29.480  34.917  1.00  0.00     0.173 A 
ATOM     84  F   UNL A   1      42.649  27.409  36.437  1.00  0.00    -0.203 F 
ATOM     85  C   UNL A   1      44.988  27.368  36.702  1.00  0.00     0.198 A 
ATOM     86  C   UNL A   1      46.365  28.913  35.485  1.00  0.00     0.198 A 
ATOM     87  F   UNL A   1      45.374  30.500  34.060  1.00  0.00    -0.203 F 
ATOM     88  F   UNL A   1      44.868  26.371  37.590  1.00  0.00    -0.200 F 
ATOM     89  C   UNL A   1      46.244  27.863  36.382  1.00  0.00     0.200 A 
ATOM     90  F   UNL A   1      47.577  29.382  35.159  1.00  0.00    -0.200 F 
ATOM     91  F   UNL A   1      47.338  27.330  36.942  1.00  0.00    -0.200 F 
ENDBRANCH  58  81
ENDBRANCH  32  33
ENDBRANCH  24  27
ENDBRANCH  22  23
ENDBRANCH   1  22
TORSDOF 13
ENDMDL
