MODEL 1
REMARK VINA RESULT:     -10.5      0.000      0.000
REMARK SMILES [NH3+][C@H](C(=O)NCCCNC(=O)c1ccc(-c2c3nc(c(-c4c(F)c(F)c(F)c(F)c4F)c4ccc([nH]4)c(-c4c(F)c(F)c(F)c(F)c4F)c4nc(c(-c5c(F)c(F)c(F)c(F)c5F)c5ccc2[nH]5)C=C4)C=C3)cc1)c1ccc(Cl)c(OC(F)(F)F)c1
REMARK SMILES IDX 6 1 5 2 3 3 4 4 2 6 1 7 75 11 76 12 86 13 77 14 80 15 78 16
REMARK SMILES IDX 79 17 81 18 82 19 83 20 84 21 85 22 7 23 8 24 9 25 10 26
REMARK SMILES IDX 11 28 12 29 13 30 74 31 14 32 73 33 15 34 16 35 17 36 67 37
REMARK SMILES IDX 18 38 72 39 66 40 68 41 19 42 71 43 65 44 64 45 20 47 52 48
REMARK SMILES IDX 32 49 51 50 33 51 36 52 50 53 69 54 34 55 35 56 49 58 70 59
REMARK SMILES IDX 37 60 21 61 22 62 30 63 23 64 24 65 28 66 31 67 25 68 26 69
REMARK SMILES IDX 29 70 27 71 53 72 54 73 62 74 55 75 56 76 60 77 63 78 57 79
REMARK SMILES IDX 58 80 61 81 59 82 38 83 39 84 47 85 40 86 41 87 45 88 48 89
REMARK SMILES IDX 42 90 43 91 46 92 44 93
REMARK H PARENT 5 5 1 8 1 9 1 10 9 27 68 46 36 57
REMARK Flexibility Score: inf
ROOT
ATOM      1  C   UNL A   1      33.636  35.257  29.362  1.00  0.00     0.118 C 
ENDROOT
BRANCH   1   2
ATOM      2  N   UNL A   1      32.657  35.289  30.434  1.00  0.00    -0.351 N 
ATOM      3  C   UNL A   1      32.833  35.368  31.788  1.00  0.00     0.283 C 
ATOM      4  O   UNL A   1      31.829  35.263  32.500  1.00  0.00    -0.268 OA
ATOM      5  H   UNL A   1      31.719  35.245  30.141  1.00  0.00     0.163 HD
BRANCH   3   6
ATOM      6  C   UNL A   1      34.231  35.660  32.403  1.00  0.00     0.302 C 
BRANCH   6   7
ATOM      7  N   UNL A   1      34.028  36.469  33.631  1.00  0.00    -0.343 N 
ATOM      8  H   UNL A   1      33.962  35.849  34.439  1.00  0.00     0.345 HD
ATOM      9  H   UNL A   1      33.167  37.008  33.544  1.00  0.00     0.345 HD
ATOM     10  H   UNL A   1      34.816  37.104  33.753  1.00  0.00     0.345 HD
ENDBRANCH   6   7
BRANCH   6  11
ATOM     11  C   UNL A   1      35.016  34.381  32.681  1.00  0.00     0.023 A 
ATOM     12  C   UNL A   1      35.250  33.411  31.693  1.00  0.00     0.012 A 
ATOM     13  C   UNL A   1      35.538  34.153  33.970  1.00  0.00     0.059 A 
ATOM     14  C   UNL A   1      35.969  32.249  31.985  1.00  0.00     0.025 A 
ATOM     15  C   UNL A   1      36.313  33.020  34.255  1.00  0.00     0.148 A 
ATOM     16  C   UNL A   1      36.501  32.056  33.259  1.00  0.00     0.083 A 
ATOM     17  Cl  UNL A   1      37.402  30.615  33.565  1.00  0.00    -0.080 Cl
BRANCH  15  18
ATOM     18  O   UNL A   1      36.840  32.770  35.495  1.00  0.00    -0.404 OA
BRANCH  18  19
ATOM     19  C   UNL A   1      38.174  33.210  35.688  1.00  0.00     0.573 C 
ATOM     20  F   UNL A   1      38.733  33.647  34.537  1.00  0.00    -0.132 F 
ATOM     21  F   UNL A   1      38.221  34.203  36.604  1.00  0.00    -0.132 F 
ATOM     22  F   UNL A   1      38.919  32.183  36.153  1.00  0.00    -0.132 F 
ENDBRANCH  18  19
ENDBRANCH  15  18
ENDBRANCH   6  11
ENDBRANCH   3   6
ENDBRANCH   1   2
BRANCH   1  23
ATOM     23  C   UNL A   1      33.279  34.206  28.316  1.00  0.00     0.042 C 
BRANCH  23  24
ATOM     24  C   UNL A   1      34.293  33.074  28.195  1.00  0.00     0.118 C 
BRANCH  24  25
ATOM     25  N   UNL A   1      33.693  31.843  27.712  1.00  0.00    -0.352 N 
ATOM     26  C   UNL A   1      34.218  30.584  27.549  1.00  0.00     0.251 C 
ATOM     27  H   UNL A   1      32.745  31.925  27.455  1.00  0.00     0.163 HD
ATOM     28  O   UNL A   1      33.565  29.751  26.924  1.00  0.00    -0.269 OA
BRANCH  26  29
ATOM     29  C   UNL A   1      35.547  30.200  28.090  1.00  0.00     0.039 A 
ATOM     30  C   UNL A   1      36.664  30.320  27.251  1.00  0.00     0.014 A 
ATOM     31  C   UNL A   1      35.711  29.645  29.361  1.00  0.00     0.014 A 
ATOM     32  C   UNL A   1      37.931  29.929  27.697  1.00  0.00     0.010 A 
ATOM     33  C   UNL A   1      36.987  29.328  29.835  1.00  0.00     0.010 A 
ATOM     34  C   UNL A   1      38.111  29.451  29.004  1.00  0.00    -0.014 A 
BRANCH  34  35
ATOM     35  C   UNL A   1      39.454  29.047  29.501  1.00  0.00     0.031 A 
ATOM     36  C   UNL A   1      40.189  29.908  30.495  1.00  0.00     0.074 A 
ATOM     37  C   UNL A   1      40.040  27.930  29.030  1.00  0.00     0.049 A 
ATOM     38  N   UNL A   1      41.397  29.766  30.984  1.00  0.00    -0.248 NA
ATOM     39  C   UNL A   1      39.481  31.099  30.988  1.00  0.00     0.031 C 
ATOM     40  C   UNL A   1      39.458  27.020  28.043  1.00  0.00     0.029 A 
ATOM     41  N   UNL A   1      41.265  27.373  29.312  1.00  0.00    -0.354 N 
ATOM     42  C   UNL A   1      41.600  30.858  31.818  1.00  0.00     0.074 A 
ATOM     43  C   UNL A   1      40.408  31.674  31.742  1.00  0.00     0.031 C 
ATOM     44  C   UNL A   1      40.313  26.010  27.818  1.00  0.00     0.029 A 
ATOM     45  C   UNL A   1      41.519  26.217  28.615  1.00  0.00     0.049 A 
ATOM     46  H   UNL A   1      41.899  27.766  29.953  1.00  0.00     0.167 HD
ATOM     47  C   UNL A   1      42.674  31.146  32.592  1.00  0.00     0.037 A 
ATOM     48  C   UNL A   1      42.603  25.419  28.610  1.00  0.00     0.037 A 
ATOM     49  C   UNL A   1      43.846  30.318  32.705  1.00  0.00     0.049 A 
ATOM     50  C   UNL A   1      43.781  25.759  29.482  1.00  0.00     0.074 A 
ATOM     51  C   UNL A   1      44.957  30.499  33.510  1.00  0.00     0.029 A 
ATOM     52  N   UNL A   1      44.057  29.147  31.994  1.00  0.00    -0.354 N 
ATOM     53  N   UNL A   1      43.940  26.770  30.301  1.00  0.00    -0.248 NA
ATOM     54  C   UNL A   1      44.930  24.843  29.431  1.00  0.00     0.031 C 
ATOM     55  C   UNL A   1      45.856  29.456  33.263  1.00  0.00     0.029 A 
ATOM     56  C   UNL A   1      45.287  28.604  32.331  1.00  0.00     0.049 A 
ATOM     57  H   UNL A   1      43.426  28.759  31.345  1.00  0.00     0.167 HD
ATOM     58  C   UNL A   1      45.191  26.600  30.877  1.00  0.00     0.074 A 
ATOM     59  C   UNL A   1      45.745  25.382  30.326  1.00  0.00     0.031 C 
ATOM     60  C   UNL A   1      45.823  27.385  31.784  1.00  0.00     0.037 A 
BRANCH  47  61
ATOM     61  C   UNL A   1      42.634  32.417  33.390  1.00  0.00     0.064 A 
ATOM     62  C   UNL A   1      43.108  33.628  32.865  1.00  0.00     0.173 A 
ATOM     63  C   UNL A   1      42.073  32.432  34.676  1.00  0.00     0.173 A 
ATOM     64  F   UNL A   1      43.663  33.663  31.644  1.00  0.00    -0.203 F 
ATOM     65  C   UNL A   1      43.044  34.804  33.608  1.00  0.00     0.198 A 
ATOM     66  C   UNL A   1      41.987  33.615  35.405  1.00  0.00     0.198 A 
ATOM     67  F   UNL A   1      41.599  31.301  35.221  1.00  0.00    -0.203 F 
ATOM     68  F   UNL A   1      43.540  35.941  33.103  1.00  0.00    -0.200 F 
ATOM     69  C   UNL A   1      42.478  34.798  34.874  1.00  0.00     0.200 A 
ATOM     70  F   UNL A   1      41.429  33.610  36.625  1.00  0.00    -0.200 F 
ATOM     71  F   UNL A   1      42.410  35.932  35.584  1.00  0.00    -0.200 F 
ENDBRANCH  47  61
BRANCH  48  72
ATOM     72  C   UNL A   1      42.620  24.199  27.763  1.00  0.00     0.064 A 
ATOM     73  C   UNL A   1      42.990  24.271  26.413  1.00  0.00     0.173 A 
ATOM     74  C   UNL A   1      42.265  22.946  28.280  1.00  0.00     0.173 A 
ATOM     75  F   UNL A   1      43.313  25.454  25.870  1.00  0.00    -0.203 F 
ATOM     76  C   UNL A   1      42.990  23.135  25.607  1.00  0.00     0.198 A 
ATOM     77  C   UNL A   1      42.290  21.806  27.478  1.00  0.00     0.198 A 
ATOM     78  F   UNL A   1      41.903  22.827  29.565  1.00  0.00    -0.203 F 
ATOM     79  F   UNL A   1      43.310  23.238  24.310  1.00  0.00    -0.200 F 
ATOM     80  C   UNL A   1      42.646  21.902  26.141  1.00  0.00     0.200 A 
ATOM     81  F   UNL A   1      41.966  20.615  28.000  1.00  0.00    -0.200 F 
ATOM     82  F   UNL A   1      42.651  20.810  25.366  1.00  0.00    -0.200 F 
ENDBRANCH  48  72
BRANCH  60  83
ATOM     83  C   UNL A   1      47.171  26.936  32.263  1.00  0.00     0.064 A 
ATOM     84  C   UNL A   1      48.352  27.373  31.645  1.00  0.00     0.173 A 
ATOM     85  C   UNL A   1      47.284  26.091  33.377  1.00  0.00     0.173 A 
ATOM     86  F   UNL A   1      48.295  28.170  30.568  1.00  0.00    -0.203 F 
ATOM     87  C   UNL A   1      49.597  26.963  32.114  1.00  0.00     0.198 A 
ATOM     88  C   UNL A   1      48.531  25.702  33.857  1.00  0.00     0.198 A 
ATOM     89  F   UNL A   1      46.183  25.650  34.004  1.00  0.00    -0.203 F 
ATOM     90  F   UNL A   1      50.712  27.360  31.486  1.00  0.00    -0.200 F 
ATOM     91  C   UNL A   1      49.686  26.134  33.223  1.00  0.00     0.200 A 
ATOM     92  F   UNL A   1      48.615  24.910  34.934  1.00  0.00    -0.200 F 
ATOM     93  F   UNL A   1      50.886  25.745  33.676  1.00  0.00    -0.200 F 
ENDBRANCH  60  83
ENDBRANCH  34  35
ENDBRANCH  26  29
ENDBRANCH  24  25
ENDBRANCH  23  24
ENDBRANCH   1  23
TORSDOF 14
ENDMDL
MODEL 2
REMARK VINA RESULT:     -10.4      1.374      2.517
REMARK SMILES [NH3+][C@H](C(=O)NCCCNC(=O)c1ccc(-c2c3nc(c(-c4c(F)c(F)c(F)c(F)c4F)c4ccc([nH]4)c(-c4c(F)c(F)c(F)c(F)c4F)c4nc(c(-c5c(F)c(F)c(F)c(F)c5F)c5ccc2[nH]5)C=C4)C=C3)cc1)c1ccc(Cl)c(OC(F)(F)F)c1
REMARK SMILES IDX 6 1 5 2 3 3 4 4 2 6 1 7 75 11 76 12 86 13 77 14 80 15 78 16
REMARK SMILES IDX 79 17 81 18 82 19 83 20 84 21 85 22 7 23 8 24 9 25 10 26
REMARK SMILES IDX 11 28 12 29 13 30 74 31 14 32 73 33 15 34 16 35 17 36 67 37
REMARK SMILES IDX 18 38 72 39 66 40 68 41 19 42 71 43 65 44 64 45 20 47 52 48
REMARK SMILES IDX 32 49 51 50 33 51 36 52 50 53 69 54 34 55 35 56 49 58 70 59
REMARK SMILES IDX 37 60 21 61 22 62 30 63 23 64 24 65 28 66 31 67 25 68 26 69
REMARK SMILES IDX 29 70 27 71 53 72 54 73 62 74 55 75 56 76 60 77 63 78 57 79
REMARK SMILES IDX 58 80 61 81 59 82 38 83 39 84 47 85 40 86 41 87 45 88 48 89
REMARK SMILES IDX 42 90 43 91 46 92 44 93
REMARK H PARENT 5 5 1 8 1 9 1 10 9 27 68 46 36 57
REMARK Flexibility Score: inf
ROOT
ATOM      1  C   UNL A   1      33.993  35.093  29.384  1.00  0.00     0.118 C 
ENDROOT
BRANCH   1   2
ATOM      2  N   UNL A   1      32.905  35.237  30.335  1.00  0.00    -0.351 N 
ATOM      3  C   UNL A   1      32.937  35.433  31.688  1.00  0.00     0.283 C 
ATOM      4  O   UNL A   1      31.859  35.409  32.293  1.00  0.00    -0.268 OA
ATOM      5  H   UNL A   1      32.003  35.185  29.946  1.00  0.00     0.163 HD
BRANCH   3   6
ATOM      6  C   UNL A   1      34.268  35.752  32.426  1.00  0.00     0.302 C 
BRANCH   6   7
ATOM      7  N   UNL A   1      33.927  36.301  33.762  1.00  0.00    -0.343 N 
ATOM      8  H   UNL A   1      33.125  36.927  33.678  1.00  0.00     0.345 HD
ATOM      9  H   UNL A   1      34.724  36.817  34.132  1.00  0.00     0.345 HD
ATOM     10  H   UNL A   1      33.695  35.535  34.394  1.00  0.00     0.345 HD
ENDBRANCH   6   7
BRANCH   6  11
ATOM     11  C   UNL A   1      35.181  34.533  32.520  1.00  0.00     0.023 A 
ATOM     12  C   UNL A   1      34.694  33.248  32.809  1.00  0.00     0.012 A 
ATOM     13  C   UNL A   1      36.565  34.684  32.307  1.00  0.00     0.059 A 
ATOM     14  C   UNL A   1      35.560  32.155  32.892  1.00  0.00     0.025 A 
ATOM     15  C   UNL A   1      37.433  33.584  32.327  1.00  0.00     0.148 A 
ATOM     16  C   UNL A   1      36.923  32.322  32.650  1.00  0.00     0.083 A 
ATOM     17  Cl  UNL A   1      37.951  30.937  32.742  1.00  0.00    -0.080 Cl
BRANCH  15  18
ATOM     18  O   UNL A   1      38.783  33.694  32.119  1.00  0.00    -0.404 OA
BRANCH  18  19
ATOM     19  C   UNL A   1      39.543  34.072  33.255  1.00  0.00     0.573 C 
ATOM     20  F   UNL A   1      40.525  34.945  32.937  1.00  0.00    -0.132 F 
ATOM     21  F   UNL A   1      38.749  34.629  34.197  1.00  0.00    -0.132 F 
ATOM     22  F   UNL A   1      40.116  32.973  33.793  1.00  0.00    -0.132 F 
ENDBRANCH  18  19
ENDBRANCH  15  18
ENDBRANCH   6  11
ENDBRANCH   3   6
ENDBRANCH   1   2
BRANCH   1  23
ATOM     23  C   UNL A   1      33.766  33.900  28.459  1.00  0.00     0.042 C 
BRANCH  23  24
ATOM     24  C   UNL A   1      34.511  32.637  28.876  1.00  0.00     0.118 C 
BRANCH  24  25
ATOM     25  N   UNL A   1      33.934  31.438  28.293  1.00  0.00    -0.352 N 
ATOM     26  C   UNL A   1      34.513  30.254  27.904  1.00  0.00     0.251 C 
ATOM     27  H   UNL A   1      32.961  31.482  28.150  1.00  0.00     0.163 HD
ATOM     28  O   UNL A   1      33.844  29.463  27.241  1.00  0.00    -0.269 OA
BRANCH  26  29
ATOM     29  C   UNL A   1      35.915  29.903  28.246  1.00  0.00     0.039 A 
ATOM     30  C   UNL A   1      36.900  30.079  27.264  1.00  0.00     0.014 A 
ATOM     31  C   UNL A   1      36.270  29.326  29.467  1.00  0.00     0.014 A 
ATOM     32  C   UNL A   1      38.228  29.720  27.520  1.00  0.00     0.010 A 
ATOM     33  C   UNL A   1      37.609  29.041  29.751  1.00  0.00     0.010 A 
ATOM     34  C   UNL A   1      38.602  29.220  28.776  1.00  0.00    -0.014 A 
BRANCH  34  35
ATOM     35  C   UNL A   1      40.013  28.850  29.073  1.00  0.00     0.031 A 
ATOM     36  C   UNL A   1      40.905  29.798  29.831  1.00  0.00     0.074 A 
ATOM     37  C   UNL A   1      40.513  27.683  28.623  1.00  0.00     0.049 A 
ATOM     38  N   UNL A   1      42.180  29.690  30.116  1.00  0.00    -0.248 NA
ATOM     39  C   UNL A   1      40.288  31.041  30.316  1.00  0.00     0.031 C 
ATOM     40  C   UNL A   1      39.773  26.687  27.849  1.00  0.00     0.029 A 
ATOM     41  N   UNL A   1      41.770  27.141  28.744  1.00  0.00    -0.354 N 
ATOM     42  C   UNL A   1      42.520  30.857  30.787  1.00  0.00     0.074 A 
ATOM     43  C   UNL A   1      41.329  31.677  30.836  1.00  0.00     0.031 C 
ATOM     44  C   UNL A   1      40.579  25.647  27.585  1.00  0.00     0.029 A 
ATOM     45  C   UNL A   1      41.904  25.918  28.135  1.00  0.00     0.049 A 
ATOM     46  H   UNL A   1      42.505  27.589  29.223  1.00  0.00     0.167 HD
ATOM     47  C   UNL A   1      43.711  31.207  31.330  1.00  0.00     0.037 A 
ATOM     48  C   UNL A   1      42.975  25.109  28.025  1.00  0.00     0.037 A 
ATOM     49  C   UNL A   1      44.888  30.380  31.323  1.00  0.00     0.049 A 
ATOM     50  C   UNL A   1      44.285  25.519  28.641  1.00  0.00     0.074 A 
ATOM     51  C   UNL A   1      46.121  30.626  31.901  1.00  0.00     0.029 A 
ATOM     52  N   UNL A   1      44.977  29.140  30.708  1.00  0.00    -0.354 N 
ATOM     53  N   UNL A   1      44.579  26.606  29.312  1.00  0.00    -0.248 NA
ATOM     54  C   UNL A   1      45.411  24.588  28.485  1.00  0.00     0.031 C 
ATOM     55  C   UNL A   1      46.967  29.551  31.609  1.00  0.00     0.029 A 
ATOM     56  C   UNL A   1      46.249  28.617  30.881  1.00  0.00     0.049 A 
ATOM     57  H   UNL A   1      44.246  28.697  30.221  1.00  0.00     0.167 HD
ATOM     58  C   UNL A   1      45.912  26.478  29.678  1.00  0.00     0.074 A 
ATOM     59  C   UNL A   1      46.367  25.203  29.166  1.00  0.00     0.031 C 
ATOM     60  C   UNL A   1      46.688  27.342  30.376  1.00  0.00     0.037 A 
BRANCH  47  61
ATOM     61  C   UNL A   1      43.804  32.553  31.989  1.00  0.00     0.064 A 
ATOM     62  C   UNL A   1      43.429  32.741  33.327  1.00  0.00     0.173 A 
ATOM     63  C   UNL A   1      44.318  33.654  31.289  1.00  0.00     0.173 A 
ATOM     64  F   UNL A   1      42.921  31.722  34.037  1.00  0.00    -0.203 F 
ATOM     65  C   UNL A   1      43.541  33.990  33.933  1.00  0.00     0.198 A 
ATOM     66  C   UNL A   1      44.454  34.895  31.906  1.00  0.00     0.198 A 
ATOM     67  F   UNL A   1      44.699  33.525  30.009  1.00  0.00    -0.203 F 
ATOM     68  F   UNL A   1      43.138  34.157  35.200  1.00  0.00    -0.200 F 
ATOM     69  C   UNL A   1      44.060  35.064  33.225  1.00  0.00     0.200 A 
ATOM     70  F   UNL A   1      44.966  35.929  31.224  1.00  0.00    -0.200 F 
ATOM     71  F   UNL A   1      44.174  36.263  33.812  1.00  0.00    -0.200 F 
ENDBRANCH  47  61
BRANCH  48  72
ATOM     72  C   UNL A   1      42.850  23.810  27.316  1.00  0.00     0.064 A 
ATOM     73  C   UNL A   1      42.373  22.673  27.984  1.00  0.00     0.173 A 
ATOM     74  C   UNL A   1      43.204  23.676  25.967  1.00  0.00     0.173 A 
ATOM     75  F   UNL A   1      42.046  22.750  29.283  1.00  0.00    -0.203 F 
ATOM     76  C   UNL A   1      42.270  21.447  27.333  1.00  0.00     0.198 A 
ATOM     77  C   UNL A   1      43.076  22.454  25.310  1.00  0.00     0.198 A 
ATOM     78  F   UNL A   1      43.665  24.734  25.285  1.00  0.00    -0.203 F 
ATOM     79  F   UNL A   1      41.849  20.367  28.005  1.00  0.00    -0.200 F 
ATOM     80  C   UNL A   1      42.616  21.339  25.994  1.00  0.00     0.200 A 
ATOM     81  F   UNL A   1      43.403  22.355  24.013  1.00  0.00    -0.200 F 
ATOM     82  F   UNL A   1      42.513  20.160  25.367  1.00  0.00    -0.200 F 
ENDBRANCH  48  72
BRANCH  60  83
ATOM     83  C   UNL A   1      48.100  26.926  30.658  1.00  0.00     0.064 A 
ATOM     84  C   UNL A   1      48.416  26.084  31.735  1.00  0.00     0.173 A 
ATOM     85  C   UNL A   1      49.144  27.342  29.819  1.00  0.00     0.173 A 
ATOM     86  F   UNL A   1      47.455  25.672  32.573  1.00  0.00    -0.203 F 
ATOM     87  C   UNL A   1      49.731  25.691  31.972  1.00  0.00     0.198 A 
ATOM     88  C   UNL A   1      50.454  26.928  30.045  1.00  0.00     0.198 A 
ATOM     89  F   UNL A   1      48.892  28.144  28.774  1.00  0.00    -0.203 F 
ATOM     90  F   UNL A   1      50.018  24.918  33.029  1.00  0.00    -0.200 F 
ATOM     91  C   UNL A   1      50.747  26.107  31.123  1.00  0.00     0.200 A 
ATOM     92  F   UNL A   1      51.432  27.322  29.219  1.00  0.00    -0.200 F 
ATOM     93  F   UNL A   1      52.011  25.723  31.350  1.00  0.00    -0.200 F 
ENDBRANCH  60  83
ENDBRANCH  34  35
ENDBRANCH  26  29
ENDBRANCH  24  25
ENDBRANCH  23  24
ENDBRANCH   1  23
TORSDOF 14
ENDMDL
MODEL 3
REMARK VINA RESULT:     -10.3      3.870      6.613
REMARK SMILES [NH3+][C@H](C(=O)NCCCNC(=O)c1ccc(-c2c3nc(c(-c4c(F)c(F)c(F)c(F)c4F)c4ccc([nH]4)c(-c4c(F)c(F)c(F)c(F)c4F)c4nc(c(-c5c(F)c(F)c(F)c(F)c5F)c5ccc2[nH]5)C=C4)C=C3)cc1)c1ccc(Cl)c(OC(F)(F)F)c1
REMARK SMILES IDX 6 1 5 2 3 3 4 4 2 6 1 7 75 11 76 12 86 13 77 14 80 15 78 16
REMARK SMILES IDX 79 17 81 18 82 19 83 20 84 21 85 22 7 23 8 24 9 25 10 26
REMARK SMILES IDX 11 28 12 29 13 30 74 31 14 32 73 33 15 34 16 35 17 36 67 37
REMARK SMILES IDX 18 38 72 39 66 40 68 41 19 42 71 43 65 44 64 45 20 47 52 48
REMARK SMILES IDX 32 49 51 50 33 51 36 52 50 53 69 54 34 55 35 56 49 58 70 59
REMARK SMILES IDX 37 60 21 61 22 62 30 63 23 64 24 65 28 66 31 67 25 68 26 69
REMARK SMILES IDX 29 70 27 71 53 72 54 73 62 74 55 75 56 76 60 77 63 78 57 79
REMARK SMILES IDX 58 80 61 81 59 82 38 83 39 84 47 85 40 86 41 87 45 88 48 89
REMARK SMILES IDX 42 90 43 91 46 92 44 93
REMARK H PARENT 5 5 1 8 1 9 1 10 9 27 68 46 36 57
REMARK Flexibility Score: inf
ROOT
ATOM      1  C   UNL A   1      33.967  35.560  28.555  1.00  0.00     0.118 C 
ENDROOT
BRANCH   1   2
ATOM      2  N   UNL A   1      34.034  34.450  29.491  1.00  0.00    -0.351 N 
ATOM      3  C   UNL A   1      34.437  33.158  29.299  1.00  0.00     0.283 C 
ATOM      4  O   UNL A   1      34.290  32.370  30.239  1.00  0.00    -0.268 OA
ATOM      5  H   UNL A   1      33.742  34.661  30.406  1.00  0.00     0.163 HD
BRANCH   3   6
ATOM      6  C   UNL A   1      35.127  32.716  27.977  1.00  0.00     0.302 C 
BRANCH   6   7
ATOM      7  N   UNL A   1      36.592  32.880  28.153  1.00  0.00    -0.343 N 
ATOM      8  H   UNL A   1      37.081  32.402  27.395  1.00  0.00     0.345 HD
ATOM      9  H   UNL A   1      36.875  32.479  29.046  1.00  0.00     0.345 HD
ATOM     10  H   UNL A   1      36.827  33.873  28.136  1.00  0.00     0.345 HD
ENDBRANCH   6   7
BRANCH   6  11
ATOM     11  C   UNL A   1      34.751  31.292  27.579  1.00  0.00     0.023 A 
ATOM     12  C   UNL A   1      35.679  30.238  27.587  1.00  0.00     0.012 A 
ATOM     13  C   UNL A   1      33.427  31.006  27.193  1.00  0.00     0.059 A 
ATOM     14  C   UNL A   1      35.299  28.946  27.212  1.00  0.00     0.025 A 
ATOM     15  C   UNL A   1      33.023  29.702  26.875  1.00  0.00     0.148 A 
ATOM     16  C   UNL A   1      33.977  28.679  26.861  1.00  0.00     0.083 A 
ATOM     17  Cl  UNL A   1      33.552  27.062  26.426  1.00  0.00    -0.080 Cl
BRANCH  15  18
ATOM     18  O   UNL A   1      31.743  29.388  26.500  1.00  0.00    -0.404 OA
BRANCH  18  19
ATOM     19  C   UNL A   1      31.417  29.679  25.151  1.00  0.00     0.573 C 
ATOM     20  F   UNL A   1      30.759  30.854  25.033  1.00  0.00    -0.132 F 
ATOM     21  F   UNL A   1      32.533  29.723  24.389  1.00  0.00    -0.132 F 
ATOM     22  F   UNL A   1      30.621  28.701  24.664  1.00  0.00    -0.132 F 
ENDBRANCH  18  19
ENDBRANCH  15  18
ENDBRANCH   6  11
ENDBRANCH   3   6
ENDBRANCH   1   2
BRANCH   1  23
ATOM     23  C   UNL A   1      32.988  36.628  29.032  1.00  0.00     0.042 C 
BRANCH  23  24
ATOM     24  C   UNL A   1      33.297  37.185  30.417  1.00  0.00     0.118 C 
BRANCH  24  25
ATOM     25  N   UNL A   1      32.346  36.733  31.418  1.00  0.00    -0.352 N 
ATOM     26  C   UNL A   1      32.426  35.729  32.353  1.00  0.00     0.251 C 
ATOM     27  H   UNL A   1      31.497  37.232  31.428  1.00  0.00     0.163 HD
ATOM     28  O   UNL A   1      31.404  35.402  32.953  1.00  0.00    -0.269 OA
BRANCH  26  29
ATOM     29  C   UNL A   1      33.697  35.020  32.652  1.00  0.00     0.039 A 
ATOM     30  C   UNL A   1      33.624  33.733  33.201  1.00  0.00     0.014 A 
ATOM     31  C   UNL A   1      34.948  35.620  32.493  1.00  0.00     0.014 A 
ATOM     32  C   UNL A   1      34.791  33.041  33.544  1.00  0.00     0.010 A 
ATOM     33  C   UNL A   1      36.116  34.900  32.762  1.00  0.00     0.010 A 
ATOM     34  C   UNL A   1      36.052  33.608  33.305  1.00  0.00    -0.014 A 
BRANCH  34  35
ATOM     35  C   UNL A   1      37.304  32.880  33.647  1.00  0.00     0.031 A 
ATOM     36  C   UNL A   1      38.025  33.167  34.939  1.00  0.00     0.074 A 
ATOM     37  C   UNL A   1      37.825  31.990  32.780  1.00  0.00     0.049 A 
ATOM     38  N   UNL A   1      39.166  32.696  35.376  1.00  0.00    -0.248 NA
ATOM     39  C   UNL A   1      37.387  34.128  35.851  1.00  0.00     0.031 C 
ATOM     40  C   UNL A   1      37.252  31.638  31.481  1.00  0.00     0.029 A 
ATOM     41  N   UNL A   1      38.965  31.225  32.858  1.00  0.00    -0.354 N 
ATOM     42  C   UNL A   1      39.394  33.320  36.595  1.00  0.00     0.074 A 
ATOM     43  C   UNL A   1      38.292  34.232  36.814  1.00  0.00     0.031 C 
ATOM     44  C   UNL A   1      38.027  30.713  30.895  1.00  0.00     0.029 A 
ATOM     45  C   UNL A   1      39.173  30.433  31.756  1.00  0.00     0.049 A 
ATOM     46  H   UNL A   1      39.574  31.245  33.631  1.00  0.00     0.167 HD
ATOM     47  C   UNL A   1      40.418  33.138  37.464  1.00  0.00     0.037 A 
ATOM     48  C   UNL A   1      40.176  29.583  31.467  1.00  0.00     0.037 A 
ATOM     49  C   UNL A   1      41.495  32.203  37.274  1.00  0.00     0.049 A 
ATOM     50  C   UNL A   1      41.299  29.395  32.450  1.00  0.00     0.074 A 
ATOM     51  C   UNL A   1      42.543  31.907  38.127  1.00  0.00     0.029 A 
ATOM     52  N   UNL A   1      41.660  31.407  36.150  1.00  0.00    -0.354 N 
ATOM     53  N   UNL A   1      41.477  29.958  33.621  1.00  0.00    -0.248 NA
ATOM     54  C   UNL A   1      42.360  28.450  32.073  1.00  0.00     0.031 C 
ATOM     55  C   UNL A   1      43.361  30.956  37.508  1.00  0.00     0.029 A 
ATOM     56  C   UNL A   1      42.801  30.632  36.283  1.00  0.00     0.049 A 
ATOM     57  H   UNL A   1      41.056  31.395  35.372  1.00  0.00     0.167 HD
ATOM     58  C   UNL A   1      42.652  29.421  34.127  1.00  0.00     0.074 A 
ATOM     59  C   UNL A   1      43.139  28.476  33.144  1.00  0.00     0.031 C 
ATOM     60  C   UNL A   1      43.271  29.687  35.303  1.00  0.00     0.037 A 
BRANCH  47  61
ATOM     61  C   UNL A   1      40.424  33.968  38.715  1.00  0.00     0.064 A 
ATOM     62  C   UNL A   1      39.783  33.535  39.885  1.00  0.00     0.173 A 
ATOM     63  C   UNL A   1      41.115  35.187  38.756  1.00  0.00     0.173 A 
ATOM     64  F   UNL A   1      39.099  32.381  39.893  1.00  0.00    -0.203 F 
ATOM     65  C   UNL A   1      39.815  34.305  41.045  1.00  0.00     0.198 A 
ATOM     66  C   UNL A   1      41.167  35.942  39.924  1.00  0.00     0.198 A 
ATOM     67  F   UNL A   1      41.750  35.643  37.665  1.00  0.00    -0.203 F 
ATOM     68  F   UNL A   1      39.162  33.892  42.140  1.00  0.00    -0.200 F 
ATOM     69  C   UNL A   1      40.513  35.504  41.066  1.00  0.00     0.200 A 
ATOM     70  F   UNL A   1      41.851  37.095  39.947  1.00  0.00    -0.200 F 
ATOM     71  F   UNL A   1      40.548  36.240  42.185  1.00  0.00    -0.200 F 
ENDBRANCH  47  61
BRANCH  48  72
ATOM     72  C   UNL A   1      40.156  28.822  30.192  1.00  0.00     0.064 A 
ATOM     73  C   UNL A   1      40.747  29.348  29.034  1.00  0.00     0.173 A 
ATOM     74  C   UNL A   1      39.548  27.563  30.102  1.00  0.00     0.173 A 
ATOM     75  F   UNL A   1      41.318  30.562  29.068  1.00  0.00    -0.203 F 
ATOM     76  C   UNL A   1      40.716  28.650  27.830  1.00  0.00     0.198 A 
ATOM     77  C   UNL A   1      39.540  26.854  28.902  1.00  0.00     0.198 A 
ATOM     78  F   UNL A   1      38.970  27.018  31.182  1.00  0.00    -0.203 F 
ATOM     79  F   UNL A   1      41.252  29.193  26.730  1.00  0.00    -0.200 F 
ATOM     80  C   UNL A   1      40.118  27.400  27.766  1.00  0.00     0.200 A 
ATOM     81  F   UNL A   1      38.969  25.642  28.847  1.00  0.00    -0.200 F 
ATOM     82  F   UNL A   1      40.092  26.727  26.609  1.00  0.00    -0.200 F 
ENDBRANCH  48  72
BRANCH  60  83
ATOM     83  C   UNL A   1      44.525  28.925  35.610  1.00  0.00     0.064 A 
ATOM     84  C   UNL A   1      45.788  29.414  35.244  1.00  0.00     0.173 A 
ATOM     85  C   UNL A   1      44.465  27.712  36.312  1.00  0.00     0.173 A 
ATOM     86  F   UNL A   1      45.895  30.561  34.560  1.00  0.00    -0.203 F 
ATOM     87  C   UNL A   1      46.945  28.703  35.554  1.00  0.00     0.198 A 
ATOM     88  C   UNL A   1      45.626  27.017  36.640  1.00  0.00     0.198 A 
ATOM     89  F   UNL A   1      43.281  27.206  36.687  1.00  0.00    -0.203 F 
ATOM     90  F   UNL A   1      48.139  29.168  35.161  1.00  0.00    -0.200 F 
ATOM     91  C   UNL A   1      46.864  27.510  36.257  1.00  0.00     0.200 A 
ATOM     92  F   UNL A   1      45.546  25.870  37.328  1.00  0.00    -0.200 F 
ATOM     93  F   UNL A   1      47.979  26.831  36.558  1.00  0.00    -0.200 F 
ENDBRANCH  60  83
ENDBRANCH  34  35
ENDBRANCH  26  29
ENDBRANCH  24  25
ENDBRANCH  23  24
ENDBRANCH   1  23
TORSDOF 14
ENDMDL
