MODEL 1
REMARK VINA RESULT:     -10.6      0.000      0.000
REMARK SMILES CCC[C@@H]([NH2+]Cc1cc(Cl)cs1)C(=O)NCCCNC(=O)c1ccc(-c2c3nc(c(-c4c(F)c(F)c(F)c(F)c4F)c4ccc([nH]4)c(-c4c(F)c(F)c(F)c(F)c4F)c4nc(c(-c5c(F)c(F)c(F)c(F)c5F)c5ccc2[nH]5)C=C4)C=C3)cc1
REMARK SMILES IDX 16 1 15 2 13 3 14 4 4 6 3 7 2 8 1 9 5 10 6 13 7 14 8 15
REMARK SMILES IDX 12 16 9 17 11 18 10 19 17 20 18 21 19 22 20 23 21 25 22 26
REMARK SMILES IDX 23 27 84 28 24 29 83 30 25 31 26 32 27 33 77 34 28 35 82 36
REMARK SMILES IDX 76 37 78 38 29 39 81 40 75 41 74 42 30 44 62 45 42 46 61 47
REMARK SMILES IDX 43 48 46 49 60 50 79 51 44 52 45 53 59 55 80 56 47 57 31 58
REMARK SMILES IDX 32 59 40 60 33 61 34 62 38 63 41 64 35 65 36 66 39 67 37 68
REMARK SMILES IDX 63 69 64 70 72 71 65 72 66 73 70 74 73 75 67 76 68 77 71 78
REMARK SMILES IDX 69 79 48 80 49 81 57 82 50 83 51 84 55 85 58 86 52 87 53 88
REMARK SMILES IDX 56 89 54 90
REMARK H PARENT 15 5 5 11 5 12 19 24 78 43 46 54
REMARK Flexibility Score: inf
ROOT
ATOM      1  C   UNL A   1      36.503  20.267  24.989  1.00  0.00     0.118 C 
ENDROOT
BRANCH   1   2
ATOM      2  N   UNL A   1      35.428  19.302  24.860  1.00  0.00    -0.351 N 
ATOM      3  C   UNL A   1      34.079  19.492  24.792  1.00  0.00     0.278 C 
ATOM      4  O   UNL A   1      33.370  18.489  24.660  1.00  0.00    -0.268 OA
ATOM      5  H   UNL A   1      35.717  18.361  24.814  1.00  0.00     0.163 HD
BRANCH   3   6
ATOM      6  C   UNL A   1      33.448  20.901  24.858  1.00  0.00     0.272 C 
BRANCH   6   7
ATOM      7  C   UNL A   1      32.505  21.126  23.661  1.00  0.00     0.075 C 
BRANCH   7   8
ATOM      8  C   UNL A   1      32.514  22.532  23.053  1.00  0.00     0.003 C 
ATOM      9  C   UNL A   1      31.235  23.317  23.293  1.00  0.00     0.004 C 
ENDBRANCH   7   8
ENDBRANCH   6   7
BRANCH   6  10
ATOM     10  N   UNL A   1      32.783  21.140  26.162  1.00  0.00    -0.332 N 
ATOM     11  H   UNL A   1      32.764  20.261  26.679  1.00  0.00     0.347 HD
ATOM     12  H   UNL A   1      31.847  21.493  25.958  1.00  0.00     0.347 HD
BRANCH  10  13
ATOM     13  C   UNL A   1      33.451  22.153  26.990  1.00  0.00     0.309 C 
BRANCH  13  14
ATOM     14  C   UNL A   1      33.157  23.551  26.540  1.00  0.00     0.060 A 
ATOM     15  C   UNL A   1      31.985  24.268  26.697  1.00  0.00     0.041 A 
ATOM     16  S   UNL A   1      34.358  24.478  25.739  1.00  0.00    -0.141 S 
ATOM     17  C   UNL A   1      32.089  25.589  26.185  1.00  0.00     0.052 A 
ATOM     18  C   UNL A   1      33.326  25.839  25.639  1.00  0.00     0.085 A 
ATOM     19  Cl  UNL A   1      30.809  26.716  26.264  1.00  0.00    -0.083 Cl
ENDBRANCH  13  14
ENDBRANCH  10  13
ENDBRANCH   6  10
ENDBRANCH   3   6
ENDBRANCH   1   2
BRANCH   1  20
ATOM     20  C   UNL A   1      37.870  19.626  24.777  1.00  0.00     0.042 C 
BRANCH  20  21
ATOM     21  C   UNL A   1      38.933  20.083  25.768  1.00  0.00     0.118 C 
BRANCH  21  22
ATOM     22  N   UNL A   1      40.025  19.129  25.898  1.00  0.00    -0.352 N 
ATOM     23  C   UNL A   1      41.360  19.346  26.115  1.00  0.00     0.251 C 
ATOM     24  H   UNL A   1      39.764  18.183  25.817  1.00  0.00     0.163 HD
ATOM     25  O   UNL A   1      42.150  18.406  26.018  1.00  0.00    -0.269 OA
BRANCH  23  26
ATOM     26  C   UNL A   1      41.868  20.693  26.452  1.00  0.00     0.039 A 
ATOM     27  C   UNL A   1      42.033  21.624  25.421  1.00  0.00     0.014 A 
ATOM     28  C   UNL A   1      42.232  21.031  27.758  1.00  0.00     0.014 A 
ATOM     29  C   UNL A   1      42.522  22.902  25.705  1.00  0.00     0.010 A 
ATOM     30  C   UNL A   1      42.651  22.327  28.052  1.00  0.00     0.010 A 
ATOM     31  C   UNL A   1      42.816  23.270  27.026  1.00  0.00    -0.014 A 
BRANCH  31  32
ATOM     32  C   UNL A   1      43.338  24.622  27.349  1.00  0.00     0.031 A 
ATOM     33  C   UNL A   1      42.422  25.659  27.943  1.00  0.00     0.074 A 
ATOM     34  C   UNL A   1      44.615  24.935  27.057  1.00  0.00     0.049 A 
ATOM     35  N   UNL A   1      42.664  26.913  28.226  1.00  0.00    -0.248 NA
ATOM     36  C   UNL A   1      41.042  25.236  28.232  1.00  0.00     0.031 C 
ATOM     37  C   UNL A   1      45.587  24.036  26.433  1.00  0.00     0.029 A 
ATOM     38  N   UNL A   1      45.313  26.104  27.235  1.00  0.00    -0.354 N 
ATOM     39  C   UNL A   1      41.465  27.434  28.693  1.00  0.00     0.074 A 
ATOM     40  C   UNL A   1      40.486  26.372  28.624  1.00  0.00     0.031 C 
ATOM     41  C   UNL A   1      46.756  24.682  26.292  1.00  0.00     0.029 A 
ATOM     42  C   UNL A   1      46.610  26.047  26.788  1.00  0.00     0.049 A 
ATOM     43  H   UNL A   1      44.919  26.909  27.645  1.00  0.00     0.167 HD
ATOM     44  C   UNL A   1      41.209  28.680  29.159  1.00  0.00     0.037 A 
ATOM     45  C   UNL A   1      47.570  26.991  26.777  1.00  0.00     0.037 A 
ATOM     46  C   UNL A   1      42.198  29.718  29.279  1.00  0.00     0.049 A 
ATOM     47  C   UNL A   1      47.270  28.350  27.351  1.00  0.00     0.074 A 
ATOM     48  C   UNL A   1      42.052  30.991  29.804  1.00  0.00     0.029 A 
ATOM     49  N   UNL A   1      43.519  29.599  28.878  1.00  0.00    -0.354 N 
ATOM     50  N   UNL A   1      46.150  28.807  27.856  1.00  0.00    -0.248 NA
ATOM     51  C   UNL A   1      48.374  29.321  27.369  1.00  0.00     0.031 C 
ATOM     52  C   UNL A   1      43.280  31.652  29.693  1.00  0.00     0.029 A 
ATOM     53  C   UNL A   1      44.198  30.778  29.138  1.00  0.00     0.049 A 
ATOM     54  H   UNL A   1      43.915  28.796  28.468  1.00  0.00     0.167 HD
ATOM     55  C   UNL A   1      46.424  30.099  28.282  1.00  0.00     0.074 A 
ATOM     56  C   UNL A   1      47.818  30.351  27.988  1.00  0.00     0.031 C 
ATOM     57  C   UNL A   1      45.593  30.998  28.865  1.00  0.00     0.037 A 
BRANCH  44  58
ATOM     58  C   UNL A   1      39.807  28.993  29.587  1.00  0.00     0.064 A 
ATOM     59  C   UNL A   1      38.852  29.478  28.681  1.00  0.00     0.173 A 
ATOM     60  C   UNL A   1      39.394  28.742  30.905  1.00  0.00     0.173 A 
ATOM     61  F   UNL A   1      39.201  29.745  27.413  1.00  0.00    -0.203 F 
ATOM     62  C   UNL A   1      37.540  29.717  29.082  1.00  0.00     0.198 A 
ATOM     63  C   UNL A   1      38.075  28.957  31.295  1.00  0.00     0.198 A 
ATOM     64  F   UNL A   1      40.266  28.273  31.809  1.00  0.00    -0.203 F 
ATOM     65  F   UNL A   1      36.655  30.213  28.207  1.00  0.00    -0.200 F 
ATOM     66  C   UNL A   1      37.151  29.448  30.385  1.00  0.00     0.200 A 
ATOM     67  F   UNL A   1      37.696  28.685  32.551  1.00  0.00    -0.200 F 
ATOM     68  F   UNL A   1      35.883  29.663  30.765  1.00  0.00    -0.200 F 
ENDBRANCH  44  58
BRANCH  45  69
ATOM     69  C   UNL A   1      48.917  26.682  26.230  1.00  0.00     0.064 A 
ATOM     70  C   UNL A   1      49.907  26.105  27.038  1.00  0.00     0.173 A 
ATOM     71  C   UNL A   1      49.250  26.984  24.903  1.00  0.00     0.173 A 
ATOM     72  F   UNL A   1      49.640  25.818  28.321  1.00  0.00    -0.203 F 
ATOM     73  C   UNL A   1      51.190  25.870  26.547  1.00  0.00     0.198 A 
ATOM     74  C   UNL A   1      50.525  26.723  24.405  1.00  0.00     0.198 A 
ATOM     75  F   UNL A   1      48.337  27.531  24.087  1.00  0.00    -0.203 F 
ATOM     76  F   UNL A   1      52.133  25.371  27.357  1.00  0.00    -0.200 F 
ATOM     77  C   UNL A   1      51.497  26.177  25.230  1.00  0.00     0.200 A 
ATOM     78  F   UNL A   1      50.816  27.009  23.129  1.00  0.00    -0.200 F 
ATOM     79  F   UNL A   1      52.732  25.957  24.761  1.00  0.00    -0.200 F 
ENDBRANCH  45  69
BRANCH  57  80
ATOM     80  C   UNL A   1      46.184  32.313  29.277  1.00  0.00     0.064 A 
ATOM     81  C   UNL A   1      46.766  32.499  30.538  1.00  0.00     0.173 A 
ATOM     82  C   UNL A   1      46.200  33.392  28.378  1.00  0.00     0.173 A 
ATOM     83  F   UNL A   1      46.764  31.502  31.436  1.00  0.00    -0.203 F 
ATOM     84  C   UNL A   1      47.319  33.726  30.896  1.00  0.00     0.198 A 
ATOM     85  C   UNL A   1      46.777  34.607  28.730  1.00  0.00     0.198 A 
ATOM     86  F   UNL A   1      45.662  33.261  27.156  1.00  0.00    -0.203 F 
ATOM     87  F   UNL A   1      47.828  33.896  32.125  1.00  0.00    -0.200 F 
ATOM     88  C   UNL A   1      47.329  34.776  29.991  1.00  0.00     0.200 A 
ATOM     89  F   UNL A   1      46.797  35.618  27.849  1.00  0.00    -0.200 F 
ATOM     90  F   UNL A   1      47.865  35.955  30.337  1.00  0.00    -0.200 F 
ENDBRANCH  57  80
ENDBRANCH  31  32
ENDBRANCH  23  26
ENDBRANCH  21  22
ENDBRANCH  20  21
ENDBRANCH   1  20
TORSDOF 15
ENDMDL
MODEL 2
REMARK VINA RESULT:     -10.5      6.021      9.788
REMARK SMILES CCC[C@@H]([NH2+]Cc1cc(Cl)cs1)C(=O)NCCCNC(=O)c1ccc(-c2c3nc(c(-c4c(F)c(F)c(F)c(F)c4F)c4ccc([nH]4)c(-c4c(F)c(F)c(F)c(F)c4F)c4nc(c(-c5c(F)c(F)c(F)c(F)c5F)c5ccc2[nH]5)C=C4)C=C3)cc1
REMARK SMILES IDX 16 1 15 2 13 3 14 4 4 6 3 7 2 8 1 9 5 10 6 13 7 14 8 15
REMARK SMILES IDX 12 16 9 17 11 18 10 19 17 20 18 21 19 22 20 23 21 25 22 26
REMARK SMILES IDX 23 27 84 28 24 29 83 30 25 31 26 32 27 33 77 34 28 35 82 36
REMARK SMILES IDX 76 37 78 38 29 39 81 40 75 41 74 42 30 44 62 45 42 46 61 47
REMARK SMILES IDX 43 48 46 49 60 50 79 51 44 52 45 53 59 55 80 56 47 57 31 58
REMARK SMILES IDX 32 59 40 60 33 61 34 62 38 63 41 64 35 65 36 66 39 67 37 68
REMARK SMILES IDX 63 69 64 70 72 71 65 72 66 73 70 74 73 75 67 76 68 77 71 78
REMARK SMILES IDX 69 79 48 80 49 81 57 82 50 83 51 84 55 85 58 86 52 87 53 88
REMARK SMILES IDX 56 89 54 90
REMARK H PARENT 15 5 5 11 5 12 19 24 78 43 46 54
REMARK Flexibility Score: inf
ROOT
ATOM      1  C   UNL A   1      31.221  31.044  25.748  1.00  0.00     0.118 C 
ENDROOT
BRANCH   1   2
ATOM      2  N   UNL A   1      30.280  31.025  24.644  1.00  0.00    -0.351 N 
ATOM      3  C   UNL A   1      30.034  30.058  23.714  1.00  0.00     0.278 C 
ATOM      4  O   UNL A   1      29.152  30.284  22.880  1.00  0.00    -0.268 OA
ATOM      5  H   UNL A   1      29.732  31.839  24.551  1.00  0.00     0.163 HD
BRANCH   3   6
ATOM      6  C   UNL A   1      30.807  28.720  23.703  1.00  0.00     0.272 C 
BRANCH   6   7
ATOM      7  C   UNL A   1      29.879  27.566  23.276  1.00  0.00     0.075 C 
BRANCH   7   8
ATOM      8  C   UNL A   1      29.863  26.341  24.197  1.00  0.00     0.003 C 
ATOM      9  C   UNL A   1      30.230  25.041  23.501  1.00  0.00     0.004 C 
ENDBRANCH   7   8
ENDBRANCH   6   7
BRANCH   6  10
ATOM     10  N   UNL A   1      32.032  28.805  22.873  1.00  0.00    -0.332 N 
ATOM     11  H   UNL A   1      32.078  29.737  22.461  1.00  0.00     0.347 HD
ATOM     12  H   UNL A   1      31.966  28.069  22.168  1.00  0.00     0.347 HD
BRANCH  10  13
ATOM     13  C   UNL A   1      33.273  28.568  23.624  1.00  0.00     0.309 C 
BRANCH  13  14
ATOM     14  C   UNL A   1      33.509  27.115  23.902  1.00  0.00     0.060 A 
ATOM     15  C   UNL A   1      33.655  26.085  22.990  1.00  0.00     0.041 A 
ATOM     16  S   UNL A   1      33.654  26.551  25.516  1.00  0.00    -0.141 S 
ATOM     17  C   UNL A   1      33.916  24.840  23.622  1.00  0.00     0.052 A 
ATOM     18  C   UNL A   1      33.946  24.949  24.993  1.00  0.00     0.085 A 
ATOM     19  Cl  UNL A   1      34.171  23.394  22.750  1.00  0.00    -0.083 Cl
ENDBRANCH  13  14
ENDBRANCH  10  13
ENDBRANCH   6  10
ENDBRANCH   3   6
ENDBRANCH   1   2
BRANCH   1  20
ATOM     20  C   UNL A   1      31.183  32.367  26.504  1.00  0.00     0.042 C 
BRANCH  20  21
ATOM     21  C   UNL A   1      32.508  32.756  27.148  1.00  0.00     0.118 C 
BRANCH  21  22
ATOM     22  N   UNL A   1      32.517  34.130  27.625  1.00  0.00    -0.352 N 
ATOM     23  C   UNL A   1      33.283  34.718  28.597  1.00  0.00     0.251 C 
ATOM     24  H   UNL A   1      31.875  34.730  27.182  1.00  0.00     0.163 HD
ATOM     25  O   UNL A   1      33.013  35.860  28.973  1.00  0.00    -0.269 OA
BRANCH  23  26
ATOM     26  C   UNL A   1      34.421  33.999  29.209  1.00  0.00     0.039 A 
ATOM     27  C   UNL A   1      34.154  33.026  30.179  1.00  0.00     0.014 A 
ATOM     28  C   UNL A   1      35.743  34.307  28.879  1.00  0.00     0.014 A 
ATOM     29  C   UNL A   1      35.208  32.337  30.784  1.00  0.00     0.010 A 
ATOM     30  C   UNL A   1      36.789  33.570  29.430  1.00  0.00     0.010 A 
ATOM     31  C   UNL A   1      36.533  32.589  30.400  1.00  0.00    -0.014 A 
BRANCH  31  32
ATOM     32  C   UNL A   1      37.667  31.869  31.033  1.00  0.00     0.031 A 
ATOM     33  C   UNL A   1      38.103  32.231  32.428  1.00  0.00     0.074 A 
ATOM     34  C   UNL A   1      38.338  30.931  30.337  1.00  0.00     0.049 A 
ATOM     35  N   UNL A   1      39.112  31.774  33.125  1.00  0.00    -0.248 NA
ATOM     36  C   UNL A   1      37.317  33.266  33.120  1.00  0.00     0.031 C 
ATOM     37  C   UNL A   1      38.046  30.526  28.961  1.00  0.00     0.029 A 
ATOM     38  N   UNL A   1      39.416  30.156  30.688  1.00  0.00    -0.354 N 
ATOM     39  C   UNL A   1      39.100  32.485  34.318  1.00  0.00     0.074 A 
ATOM     40  C   UNL A   1      38.007  33.429  34.239  1.00  0.00     0.031 C 
ATOM     41  C   UNL A   1      38.914  29.571  28.590  1.00  0.00     0.029 A 
ATOM     42  C   UNL A   1      39.841  29.316  29.689  1.00  0.00     0.049 A 
ATOM     43  H   UNL A   1      39.844  30.200  31.574  1.00  0.00     0.167 HD
ATOM     44  C   UNL A   1      39.914  32.348  35.392  1.00  0.00     0.037 A 
ATOM     45  C   UNL A   1      40.864  28.441  29.663  1.00  0.00     0.037 A 
ATOM     46  C   UNL A   1      40.966  31.371  35.491  1.00  0.00     0.049 A 
ATOM     47  C   UNL A   1      41.718  28.273  30.891  1.00  0.00     0.074 A 
ATOM     48  C   UNL A   1      41.799  31.106  36.564  1.00  0.00     0.029 A 
ATOM     49  N   UNL A   1      41.321  30.490  34.481  1.00  0.00    -0.354 N 
ATOM     50  N   UNL A   1      41.650  28.902  32.039  1.00  0.00    -0.248 NA
ATOM     51  C   UNL A   1      42.781  27.260  30.825  1.00  0.00     0.031 C 
ATOM     52  C   UNL A   1      42.679  30.084  36.193  1.00  0.00     0.029 A 
ATOM     53  C   UNL A   1      42.366  29.685  34.904  1.00  0.00     0.049 A 
ATOM     54  H   UNL A   1      40.894  30.444  33.595  1.00  0.00     0.167 HD
ATOM     55  C   UNL A   1      42.633  28.338  32.841  1.00  0.00     0.074 A 
ATOM     56  C   UNL A   1      43.276  27.308  32.053  1.00  0.00     0.031 C 
ATOM     57  C   UNL A   1      42.973  28.646  34.116  1.00  0.00     0.037 A 
BRANCH  44  58
ATOM     58  C   UNL A   1      39.697  33.266  36.557  1.00  0.00     0.064 A 
ATOM     59  C   UNL A   1      40.330  34.516  36.636  1.00  0.00     0.173 A 
ATOM     60  C   UNL A   1      38.794  32.921  37.575  1.00  0.00     0.173 A 
ATOM     61  F   UNL A   1      41.209  34.887  35.693  1.00  0.00    -0.203 F 
ATOM     62  C   UNL A   1      40.079  35.379  37.699  1.00  0.00     0.198 A 
ATOM     63  C   UNL A   1      38.528  33.797  38.622  1.00  0.00     0.198 A 
ATOM     64  F   UNL A   1      38.160  31.739  37.544  1.00  0.00    -0.203 F 
ATOM     65  F   UNL A   1      40.721  36.553  37.771  1.00  0.00    -0.200 F 
ATOM     66  C   UNL A   1      39.173  35.023  38.686  1.00  0.00     0.200 A 
ATOM     67  F   UNL A   1      37.642  33.458  39.570  1.00  0.00    -0.200 F 
ATOM     68  F   UNL A   1      38.922  35.862  39.701  1.00  0.00    -0.200 F 
ENDBRANCH  44  58
BRANCH  45  69
ATOM     69  C   UNL A   1      41.127  27.634  28.443  1.00  0.00     0.064 A 
ATOM     70  C   UNL A   1      42.030  28.078  27.467  1.00  0.00     0.173 A 
ATOM     71  C   UNL A   1      40.462  26.421  28.215  1.00  0.00     0.173 A 
ATOM     72  F   UNL A   1      42.674  29.243  27.632  1.00  0.00    -0.203 F 
ATOM     73  C   UNL A   1      42.234  27.356  26.293  1.00  0.00     0.198 A 
ATOM     74  C   UNL A   1      40.689  25.685  27.054  1.00  0.00     0.198 A 
ATOM     75  F   UNL A   1      39.594  25.949  29.121  1.00  0.00    -0.203 F 
ATOM     76  F   UNL A   1      43.059  27.832  25.351  1.00  0.00    -0.200 F 
ATOM     77  C   UNL A   1      41.566  26.158  26.089  1.00  0.00     0.200 A 
ATOM     78  F   UNL A   1      40.051  24.522  26.865  1.00  0.00    -0.200 F 
ATOM     79  F   UNL A   1      41.758  25.467  24.957  1.00  0.00    -0.200 F 
ENDBRANCH  45  69
BRANCH  57  80
ATOM     80  C   UNL A   1      44.049  27.823  34.759  1.00  0.00     0.064 A 
ATOM     81  C   UNL A   1      45.393  28.218  34.736  1.00  0.00     0.173 A 
ATOM     82  C   UNL A   1      43.720  26.639  35.438  1.00  0.00     0.173 A 
ATOM     83  F   UNL A   1      45.757  29.335  34.088  1.00  0.00    -0.203 F 
ATOM     84  C   UNL A   1      46.376  27.444  35.348  1.00  0.00     0.198 A 
ATOM     85  C   UNL A   1      44.702  25.883  36.071  1.00  0.00     0.198 A 
ATOM     86  F   UNL A   1      42.447  26.222  35.493  1.00  0.00    -0.203 F 
ATOM     87  F   UNL A   1      47.661  27.816  35.274  1.00  0.00    -0.200 F 
ATOM     88  C   UNL A   1      46.028  26.281  36.019  1.00  0.00     0.200 A 
ATOM     89  F   UNL A   1      44.363  24.765  36.729  1.00  0.00    -0.200 F 
ATOM     90  F   UNL A   1      46.975  25.539  36.610  1.00  0.00    -0.200 F 
ENDBRANCH  57  80
ENDBRANCH  31  32
ENDBRANCH  23  26
ENDBRANCH  21  22
ENDBRANCH  20  21
ENDBRANCH   1  20
TORSDOF 15
ENDMDL
MODEL 3
REMARK VINA RESULT:     -10.5      0.592      1.777
REMARK SMILES CCC[C@@H]([NH2+]Cc1cc(Cl)cs1)C(=O)NCCCNC(=O)c1ccc(-c2c3nc(c(-c4c(F)c(F)c(F)c(F)c4F)c4ccc([nH]4)c(-c4c(F)c(F)c(F)c(F)c4F)c4nc(c(-c5c(F)c(F)c(F)c(F)c5F)c5ccc2[nH]5)C=C4)C=C3)cc1
REMARK SMILES IDX 16 1 15 2 13 3 14 4 4 6 3 7 2 8 1 9 5 10 6 13 7 14 8 15
REMARK SMILES IDX 12 16 9 17 11 18 10 19 17 20 18 21 19 22 20 23 21 25 22 26
REMARK SMILES IDX 23 27 84 28 24 29 83 30 25 31 26 32 27 33 77 34 28 35 82 36
REMARK SMILES IDX 76 37 78 38 29 39 81 40 75 41 74 42 30 44 62 45 42 46 61 47
REMARK SMILES IDX 43 48 46 49 60 50 79 51 44 52 45 53 59 55 80 56 47 57 31 58
REMARK SMILES IDX 32 59 40 60 33 61 34 62 38 63 41 64 35 65 36 66 39 67 37 68
REMARK SMILES IDX 63 69 64 70 72 71 65 72 66 73 70 74 73 75 67 76 68 77 71 78
REMARK SMILES IDX 69 79 48 80 49 81 57 82 50 83 51 84 55 85 58 86 52 87 53 88
REMARK SMILES IDX 56 89 54 90
REMARK H PARENT 15 5 5 11 5 12 19 24 78 43 46 54
REMARK Flexibility Score: inf
ROOT
ATOM      1  C   UNL A   1      36.626  20.316  24.994  1.00  0.00     0.118 C 
ENDROOT
BRANCH   1   2
ATOM      2  N   UNL A   1      35.420  19.511  24.985  1.00  0.00    -0.351 N 
ATOM      3  C   UNL A   1      34.115  19.884  24.853  1.00  0.00     0.278 C 
ATOM      4  O   UNL A   1      33.265  18.988  24.856  1.00  0.00    -0.268 OA
ATOM      5  H   UNL A   1      35.566  18.542  25.091  1.00  0.00     0.163 HD
BRANCH   3   6
ATOM      6  C   UNL A   1      33.700  21.363  24.686  1.00  0.00     0.272 C 
BRANCH   6   7
ATOM      7  C   UNL A   1      32.362  21.466  23.929  1.00  0.00     0.075 C 
BRANCH   7   8
ATOM      8  C   UNL A   1      32.432  22.058  22.517  1.00  0.00     0.003 C 
ATOM      9  C   UNL A   1      33.381  23.237  22.389  1.00  0.00     0.004 C 
ENDBRANCH   7   8
ENDBRANCH   6   7
BRANCH   6  10
ATOM     10  N   UNL A   1      33.676  22.073  25.987  1.00  0.00    -0.332 N 
ATOM     11  H   UNL A   1      34.111  21.474  26.688  1.00  0.00     0.347 HD
ATOM     12  H   UNL A   1      32.698  22.275  26.198  1.00  0.00     0.347 HD
BRANCH  10  13
ATOM     13  C   UNL A   1      34.385  23.361  25.972  1.00  0.00     0.309 C 
BRANCH  13  14
ATOM     14  C   UNL A   1      33.453  24.532  26.031  1.00  0.00     0.060 A 
ATOM     15  C   UNL A   1      33.742  25.863  25.794  1.00  0.00     0.041 A 
ATOM     16  S   UNL A   1      31.796  24.306  26.411  1.00  0.00    -0.141 S 
ATOM     17  C   UNL A   1      32.590  26.689  25.894  1.00  0.00     0.052 A 
ATOM     18  C   UNL A   1      31.463  25.973  26.220  1.00  0.00     0.085 A 
ATOM     19  Cl  UNL A   1      32.634  28.375  25.623  1.00  0.00    -0.083 Cl
ENDBRANCH  13  14
ENDBRANCH  10  13
ENDBRANCH   6  10
ENDBRANCH   3   6
ENDBRANCH   1   2
BRANCH   1  20
ATOM     20  C   UNL A   1      37.884  19.455  24.952  1.00  0.00     0.042 C 
BRANCH  20  21
ATOM     21  C   UNL A   1      39.071  20.049  25.700  1.00  0.00     0.118 C 
BRANCH  21  22
ATOM     22  N   UNL A   1      40.174  19.110  25.835  1.00  0.00    -0.352 N 
ATOM     23  C   UNL A   1      41.504  19.344  26.065  1.00  0.00     0.251 C 
ATOM     24  H   UNL A   1      39.927  18.161  25.749  1.00  0.00     0.163 HD
ATOM     25  O   UNL A   1      42.308  18.414  25.971  1.00  0.00    -0.269 OA
BRANCH  23  26
ATOM     26  C   UNL A   1      41.992  20.696  26.410  1.00  0.00     0.039 A 
ATOM     27  C   UNL A   1      42.181  21.623  25.380  1.00  0.00     0.014 A 
ATOM     28  C   UNL A   1      42.312  21.043  27.726  1.00  0.00     0.014 A 
ATOM     29  C   UNL A   1      42.651  22.906  25.673  1.00  0.00     0.010 A 
ATOM     30  C   UNL A   1      42.712  22.343  28.026  1.00  0.00     0.010 A 
ATOM     31  C   UNL A   1      42.902  23.283  27.001  1.00  0.00    -0.014 A 
BRANCH  31  32
ATOM     32  C   UNL A   1      43.403  24.641  27.333  1.00  0.00     0.031 A 
ATOM     33  C   UNL A   1      42.468  25.663  27.922  1.00  0.00     0.074 A 
ATOM     34  C   UNL A   1      44.679  24.971  27.055  1.00  0.00     0.049 A 
ATOM     35  N   UNL A   1      42.691  26.920  28.211  1.00  0.00    -0.248 NA
ATOM     36  C   UNL A   1      41.091  25.222  28.195  1.00  0.00     0.031 C 
ATOM     37  C   UNL A   1      45.668  24.086  26.438  1.00  0.00     0.029 A 
ATOM     38  N   UNL A   1      45.359  26.148  27.243  1.00  0.00    -0.354 N 
ATOM     39  C   UNL A   1      41.481  27.424  28.668  1.00  0.00     0.074 A 
ATOM     40  C   UNL A   1      40.516  26.350  28.586  1.00  0.00     0.031 C 
ATOM     41  C   UNL A   1      46.830  24.747  26.310  1.00  0.00     0.029 A 
ATOM     42  C   UNL A   1      46.661  26.110  26.809  1.00  0.00     0.049 A 
ATOM     43  H   UNL A   1      44.951  26.947  27.652  1.00  0.00     0.167 HD
ATOM     44  C   UNL A   1      41.204  28.665  29.135  1.00  0.00     0.037 A 
ATOM     45  C   UNL A   1      47.609  27.065  26.810  1.00  0.00     0.037 A 
ATOM     46  C   UNL A   1      42.178  29.715  29.268  1.00  0.00     0.049 A 
ATOM     47  C   UNL A   1      47.286  28.419  27.385  1.00  0.00     0.074 A 
ATOM     48  C   UNL A   1      42.012  30.984  29.796  1.00  0.00     0.029 A 
ATOM     49  N   UNL A   1      43.505  29.614  28.879  1.00  0.00    -0.354 N 
ATOM     50  N   UNL A   1      46.156  28.860  27.880  1.00  0.00    -0.248 NA
ATOM     51  C   UNL A   1      48.378  29.403  27.417  1.00  0.00     0.031 C 
ATOM     52  C   UNL A   1      43.231  31.662  29.699  1.00  0.00     0.029 A 
ATOM     53  C   UNL A   1      44.166  30.801  29.150  1.00  0.00     0.049 A 
ATOM     54  H   UNL A   1      43.915  28.818  28.471  1.00  0.00     0.167 HD
ATOM     55  C   UNL A   1      46.409  30.154  28.314  1.00  0.00     0.074 A 
ATOM     56  C   UNL A   1      47.803  30.425  28.034  1.00  0.00     0.031 C 
ATOM     57  C   UNL A   1      45.561  31.040  28.891  1.00  0.00     0.037 A 
BRANCH  44  58
ATOM     58  C   UNL A   1      39.794  28.958  29.550  1.00  0.00     0.064 A 
ATOM     59  C   UNL A   1      38.840  29.425  28.634  1.00  0.00     0.173 A 
ATOM     60  C   UNL A   1      39.374  28.707  30.866  1.00  0.00     0.173 A 
ATOM     61  F   UNL A   1      39.194  29.691  27.368  1.00  0.00    -0.203 F 
ATOM     62  C   UNL A   1      37.521  29.645  29.024  1.00  0.00     0.198 A 
ATOM     63  C   UNL A   1      38.049  28.904  31.244  1.00  0.00     0.198 A 
ATOM     64  F   UNL A   1      40.246  28.255  31.780  1.00  0.00    -0.203 F 
ATOM     65  F   UNL A   1      36.635  30.124  28.140  1.00  0.00    -0.200 F 
ATOM     66  C   UNL A   1      37.125  29.376  30.325  1.00  0.00     0.200 A 
ATOM     67  F   UNL A   1      37.665  28.631  32.499  1.00  0.00    -0.200 F 
ATOM     68  F   UNL A   1      35.851  29.574  30.694  1.00  0.00    -0.200 F 
ENDBRANCH  44  58
BRANCH  45  69
ATOM     69  C   UNL A   1      48.965  26.776  26.275  1.00  0.00     0.064 A 
ATOM     70  C   UNL A   1      49.294  27.080  24.946  1.00  0.00     0.173 A 
ATOM     71  C   UNL A   1      49.946  26.165  27.068  1.00  0.00     0.173 A 
ATOM     72  F   UNL A   1      48.380  27.646  24.143  1.00  0.00    -0.203 F 
ATOM     73  C   UNL A   1      50.543  26.754  24.421  1.00  0.00     0.198 A 
ATOM     74  C   UNL A   1      51.205  25.865  26.550  1.00  0.00     0.198 A 
ATOM     75  F   UNL A   1      49.684  25.860  28.346  1.00  0.00    -0.203 F 
ATOM     76  F   UNL A   1      50.811  27.004  23.133  1.00  0.00    -0.200 F 
ATOM     77  C   UNL A   1      51.498  26.150  25.224  1.00  0.00     0.200 A 
ATOM     78  F   UNL A   1      52.130  25.293  27.332  1.00  0.00    -0.200 F 
ATOM     79  F   UNL A   1      52.697  25.832  24.718  1.00  0.00    -0.200 F 
ENDBRANCH  45  69
BRANCH  57  80
ATOM     80  C   UNL A   1      46.131  32.361  29.313  1.00  0.00     0.064 A 
ATOM     81  C   UNL A   1      46.122  33.475  28.461  1.00  0.00     0.173 A 
ATOM     82  C   UNL A   1      46.661  32.522  30.603  1.00  0.00     0.173 A 
ATOM     83  F   UNL A   1      45.638  33.367  27.215  1.00  0.00    -0.203 F 
ATOM     84  C   UNL A   1      46.647  34.696  28.876  1.00  0.00     0.198 A 
ATOM     85  C   UNL A   1      47.160  33.751  31.022  1.00  0.00     0.198 A 
ATOM     86  F   UNL A   1      46.686  31.488  31.457  1.00  0.00    -0.203 F 
ATOM     87  F   UNL A   1      46.670  35.734  28.029  1.00  0.00    -0.200 F 
ATOM     88  C   UNL A   1      47.160  34.834  30.157  1.00  0.00     0.200 A 
ATOM     89  F   UNL A   1      47.645  33.887  32.265  1.00  0.00    -0.200 F 
ATOM     90  F   UNL A   1      47.662  36.011  30.555  1.00  0.00    -0.200 F 
ENDBRANCH  57  80
ENDBRANCH  31  32
ENDBRANCH  23  26
ENDBRANCH  21  22
ENDBRANCH  20  21
ENDBRANCH   1  20
TORSDOF 15
ENDMDL
