MODEL 1
REMARK VINA RESULT:     -13.4      0.000      0.000
REMARK SMILES CCN1C(=O)[C@H](CC(=O)Nc2ccc(C(=O)NCCCNC(=O)c3ccc(-c4c5nc(c(-c6c(F)c(F)c(F)c(F)c6F)c6ccc([nH]6)c(-c6c(F)c(F)c(F)c(F)c6F)c6nc(c(-c7c(F)c(F)c(F)c(F)c7F)c7ccc4[nH]7)C=C6)C=C5)cc3)cc2)S/C1=[NH+]\c1ccc(Cl)cc1
REMARK SMILES IDX 18 1 17 2 15 3 16 4 14 6 11 7 12 8 88 9 13 10 87 11 10 12
REMARK SMILES IDX 8 13 9 14 7 16 6 17 3 18 4 19 90 20 5 21 89 22 91 23 2 25
REMARK SMILES IDX 1 26 92 27 93 28 98 29 94 30 97 31 95 32 96 33 19 34 20 35
REMARK SMILES IDX 21 36 22 37 23 39 24 40 25 41 86 42 26 43 85 44 27 45 28 46
REMARK SMILES IDX 29 47 79 48 30 49 84 50 78 51 80 52 31 53 83 54 77 55 76 56
REMARK SMILES IDX 32 58 64 59 44 60 63 61 45 62 48 63 62 64 81 65 46 66 47 67
REMARK SMILES IDX 61 69 82 70 49 71 33 72 34 73 42 74 35 75 36 76 40 77 43 78
REMARK SMILES IDX 37 79 38 80 41 81 39 82 65 83 66 84 74 85 67 86 68 87 72 88
REMARK SMILES IDX 75 89 69 90 70 91 73 92 71 93 50 94 51 95 59 96 52 97 53 98
REMARK SMILES IDX 57 99 60 100 54 101 55 102 58 103 56 104
REMARK H PARENT 17 5 10 15 91 24 21 38 80 57 48 68
REMARK Flexibility Score: inf
ROOT
ATOM      1  C   UNL A   1      31.418  30.815  26.162  1.00  0.00     0.118 C 
ENDROOT
BRANCH   1   2
ATOM      2  N   UNL A   1      30.989  30.570  24.791  1.00  0.00    -0.352 N 
ATOM      3  C   UNL A   1      30.814  29.409  24.070  1.00  0.00     0.251 C 
ATOM      4  O   UNL A   1      30.502  29.496  22.884  1.00  0.00    -0.269 OA
ATOM      5  H   UNL A   1      30.785  31.390  24.284  1.00  0.00     0.163 HD
BRANCH   3   6
ATOM      6  C   UNL A   1      31.063  28.062  24.647  1.00  0.00     0.039 A 
ATOM      7  C   UNL A   1      31.549  25.677  26.085  1.00  0.00     0.041 A 
ATOM      8  C   UNL A   1      32.574  26.609  25.869  1.00  0.00     0.027 A 
ATOM      9  C   UNL A   1      30.336  25.880  25.431  1.00  0.00     0.027 A 
ATOM     10  C   UNL A   1      32.334  27.794  25.163  1.00  0.00     0.016 A 
ATOM     11  C   UNL A   1      30.098  27.058  24.703  1.00  0.00     0.016 A 
BRANCH   7  12
ATOM     12  N   UNL A   1      31.845  24.637  26.985  1.00  0.00    -0.326 N 
ATOM     13  C   UNL A   1      31.602  23.300  27.037  1.00  0.00     0.226 C 
ATOM     14  O   UNL A   1      31.982  22.693  28.044  1.00  0.00    -0.275 OA
ATOM     15  H   UNL A   1      32.351  24.956  27.767  1.00  0.00     0.169 HD
BRANCH  13  16
ATOM     16  C   UNL A   1      30.894  22.536  25.950  1.00  0.00     0.128 C 
BRANCH  16  17
ATOM     17  C   UNL A   1      31.734  22.192  24.725  1.00  0.00     0.183 C 
ATOM     18  N   UNL A   1      32.852  23.619  23.138  1.00  0.00    -0.190 N 
ATOM     19  C   UNL A   1      31.628  23.090  23.509  1.00  0.00     0.324 C 
ATOM     20  C   UNL A   1      33.951  23.240  23.867  1.00  0.00     0.319 C 
ATOM     21  O   UNL A   1      30.585  23.257  22.893  1.00  0.00    -0.245 OA
ATOM     22  S   UNL A   1      33.501  22.140  25.146  1.00  0.00    -0.022 SA
ATOM     23  N   UNL A   1      35.145  23.659  23.599  1.00  0.00    -0.235 N 
ATOM     24  H   UNL A   1      35.274  24.348  22.907  1.00  0.00     0.313 HD
BRANCH  18  25
ATOM     25  C   UNL A   1      32.943  24.385  21.899  1.00  0.00     0.243 C 
ATOM     26  C   UNL A   1      32.759  25.881  22.092  1.00  0.00     0.054 C 
ENDBRANCH  18  25
BRANCH  23  27
ATOM     27  C   UNL A   1      36.262  23.146  24.279  1.00  0.00     0.125 A 
ATOM     28  C   UNL A   1      36.737  21.855  24.026  1.00  0.00     0.053 A 
ATOM     29  C   UNL A   1      36.865  23.901  25.294  1.00  0.00     0.053 A 
ATOM     30  C   UNL A   1      37.815  21.338  24.757  1.00  0.00     0.025 A 
ATOM     31  C   UNL A   1      37.948  23.394  26.018  1.00  0.00     0.025 A 
ATOM     32  C   UNL A   1      38.418  22.113  25.746  1.00  0.00     0.041 A 
ATOM     33  Cl  UNL A   1      39.746  21.484  26.641  1.00  0.00    -0.084 Cl
ENDBRANCH  23  27
ENDBRANCH  16  17
ENDBRANCH  13  16
ENDBRANCH   7  12
ENDBRANCH   3   6
ENDBRANCH   1   2
BRANCH   1  34
ATOM     34  C   UNL A   1      31.353  32.284  26.576  1.00  0.00     0.042 C 
BRANCH  34  35
ATOM     35  C   UNL A   1      32.667  32.900  27.040  1.00  0.00     0.118 C 
BRANCH  35  36
ATOM     36  N   UNL A   1      32.488  34.199  27.672  1.00  0.00    -0.352 N 
ATOM     37  C   UNL A   1      33.095  34.800  28.748  1.00  0.00     0.251 C 
ATOM     38  H   UNL A   1      31.796  34.756  27.247  1.00  0.00     0.163 HD
ATOM     39  O   UNL A   1      32.624  35.861  29.160  1.00  0.00    -0.269 OA
BRANCH  37  40
ATOM     40  C   UNL A   1      34.284  34.231  29.437  1.00  0.00     0.039 A 
ATOM     41  C   UNL A   1      34.074  33.455  30.586  1.00  0.00     0.014 A 
ATOM     42  C   UNL A   1      35.595  34.505  29.045  1.00  0.00     0.014 A 
ATOM     43  C   UNL A   1      35.156  32.924  31.300  1.00  0.00     0.010 A 
ATOM     44  C   UNL A   1      36.673  33.905  29.705  1.00  0.00     0.010 A 
ATOM     45  C   UNL A   1      36.469  33.118  30.848  1.00  0.00    -0.014 A 
BRANCH  45  46
ATOM     46  C   UNL A   1      37.635  32.527  31.564  1.00  0.00     0.031 A 
ATOM     47  C   UNL A   1      38.382  31.358  30.976  1.00  0.00     0.074 A 
ATOM     48  C   UNL A   1      37.984  32.991  32.780  1.00  0.00     0.049 A 
ATOM     49  N   UNL A   1      39.356  30.649  31.490  1.00  0.00    -0.248 NA
ATOM     50  C   UNL A   1      37.956  30.908  29.642  1.00  0.00     0.031 C 
ATOM     51  C   UNL A   1      37.321  34.086  33.488  1.00  0.00     0.029 A 
ATOM     52  N   UNL A   1      38.972  32.587  33.646  1.00  0.00    -0.354 N 
ATOM     53  C   UNL A   1      39.639  29.656  30.559  1.00  0.00     0.074 A 
ATOM     54  C   UNL A   1      38.704  29.827  29.468  1.00  0.00     0.031 C 
ATOM     55  C   UNL A   1      37.923  34.272  34.673  1.00  0.00     0.029 A 
ATOM     56  C   UNL A   1      38.989  33.286  34.828  1.00  0.00     0.049 A 
ATOM     57  H   UNL A   1      39.608  31.864  33.438  1.00  0.00     0.167 HD
ATOM     58  C   UNL A   1      40.601  28.703  30.600  1.00  0.00     0.037 A 
ATOM     59  C   UNL A   1      39.763  33.144  35.921  1.00  0.00     0.037 A 
ATOM     60  C   UNL A   1      41.555  28.555  31.668  1.00  0.00     0.049 A 
ATOM     61  C   UNL A   1      40.833  32.086  35.939  1.00  0.00     0.074 A 
ATOM     62  C   UNL A   1      42.618  27.672  31.760  1.00  0.00     0.029 A 
ATOM     63  N   UNL A   1      41.560  29.306  32.834  1.00  0.00    -0.354 N 
ATOM     64  N   UNL A   1      41.137  31.203  35.020  1.00  0.00    -0.248 NA
ATOM     65  C   UNL A   1      41.673  32.012  37.143  1.00  0.00     0.031 C 
ATOM     66  C   UNL A   1      43.232  27.853  33.004  1.00  0.00     0.029 A 
ATOM     67  C   UNL A   1      42.589  28.887  33.664  1.00  0.00     0.049 A 
ATOM     68  H   UNL A   1      40.926  30.030  33.043  1.00  0.00     0.167 HD
ATOM     69  C   UNL A   1      42.215  30.485  35.521  1.00  0.00     0.074 A 
ATOM     70  C   UNL A   1      42.524  31.047  36.820  1.00  0.00     0.031 C 
ATOM     71  C   UNL A   1      42.888  29.453  34.956  1.00  0.00     0.037 A 
BRANCH  58  72
ATOM     72  C   UNL A   1      40.669  27.732  29.453  1.00  0.00     0.064 A 
ATOM     73  C   UNL A   1      39.802  26.632  29.363  1.00  0.00     0.173 A 
ATOM     74  C   UNL A   1      41.591  27.925  28.413  1.00  0.00     0.173 A 
ATOM     75  F   UNL A   1      38.905  26.397  30.333  1.00  0.00    -0.203 F 
ATOM     76  C   UNL A   1      39.881  25.741  28.295  1.00  0.00     0.198 A 
ATOM     77  C   UNL A   1      41.646  27.050  27.330  1.00  0.00     0.198 A 
ATOM     78  F   UNL A   1      42.436  28.966  28.442  1.00  0.00    -0.203 F 
ATOM     79  F   UNL A   1      39.082  24.667  28.261  1.00  0.00    -0.200 F 
ATOM     80  C   UNL A   1      40.798  25.955  27.277  1.00  0.00     0.200 A 
ATOM     81  F   UNL A   1      42.522  27.267  26.339  1.00  0.00    -0.200 F 
ATOM     82  F   UNL A   1      40.871  25.098  26.248  1.00  0.00    -0.200 F 
ENDBRANCH  58  72
BRANCH  59  83
ATOM     83  C   UNL A   1      39.557  34.039  37.090  1.00  0.00     0.064 A 
ATOM     84  C   UNL A   1      38.782  33.632  38.184  1.00  0.00     0.173 A 
ATOM     85  C   UNL A   1      40.139  35.315  37.141  1.00  0.00     0.173 A 
ATOM     86  F   UNL A   1      38.187  32.430  38.172  1.00  0.00    -0.203 F 
ATOM     87  C   UNL A   1      38.585  34.471  39.279  1.00  0.00     0.198 A 
ATOM     88  C   UNL A   1      39.964  36.141  38.248  1.00  0.00     0.198 A 
ATOM     89  F   UNL A   1      40.894  35.750  36.121  1.00  0.00    -0.203 F 
ATOM     90  F   UNL A   1      37.806  34.073  40.294  1.00  0.00    -0.200 F 
ATOM     91  C   UNL A   1      39.183  35.722  39.314  1.00  0.00     0.200 A 
ATOM     92  F   UNL A   1      40.557  37.342  38.285  1.00  0.00    -0.200 F 
ATOM     93  F   UNL A   1      39.001  36.524  40.372  1.00  0.00    -0.200 F 
ENDBRANCH  59  83
BRANCH  71  94
ATOM     94  C   UNL A   1      44.045  28.879  35.723  1.00  0.00     0.064 A 
ATOM     95  C   UNL A   1      45.354  29.352  35.547  1.00  0.00     0.173 A 
ATOM     96  C   UNL A   1      43.834  27.869  36.675  1.00  0.00     0.173 A 
ATOM     97  F   UNL A   1      45.611  30.305  34.638  1.00  0.00    -0.203 F 
ATOM     98  C   UNL A   1      46.412  28.818  36.279  1.00  0.00     0.198 A 
ATOM     99  C   UNL A   1      44.889  27.359  37.426  1.00  0.00     0.198 A 
ATOM    100  F   UNL A   1      42.600  27.386  36.886  1.00  0.00    -0.203 F 
ATOM    101  F   UNL A   1      47.661  29.252  36.061  1.00  0.00    -0.200 F 
ATOM    102  C   UNL A   1      46.178  27.828  37.223  1.00  0.00     0.200 A 
ATOM    103  F   UNL A   1      44.659  26.414  38.347  1.00  0.00    -0.200 F 
ATOM    104  F   UNL A   1      47.197  27.322  37.931  1.00  0.00    -0.200 F 
ENDBRANCH  71  94
ENDBRANCH  45  46
ENDBRANCH  37  40
ENDBRANCH  35  36
ENDBRANCH  34  35
ENDBRANCH   1  34
TORSDOF 15
ENDMDL
MODEL 2
REMARK VINA RESULT:     -13.1      5.422     11.158
REMARK SMILES CCN1C(=O)[C@H](CC(=O)Nc2ccc(C(=O)NCCCNC(=O)c3ccc(-c4c5nc(c(-c6c(F)c(F)c(F)c(F)c6F)c6ccc([nH]6)c(-c6c(F)c(F)c(F)c(F)c6F)c6nc(c(-c7c(F)c(F)c(F)c(F)c7F)c7ccc4[nH]7)C=C6)C=C5)cc3)cc2)S/C1=[NH+]\c1ccc(Cl)cc1
REMARK SMILES IDX 18 1 17 2 15 3 16 4 14 6 11 7 12 8 88 9 13 10 87 11 10 12
REMARK SMILES IDX 8 13 9 14 7 16 6 17 3 18 4 19 90 20 5 21 89 22 91 23 2 25
REMARK SMILES IDX 1 26 92 27 93 28 98 29 94 30 97 31 95 32 96 33 19 34 20 35
REMARK SMILES IDX 21 36 22 37 23 39 24 40 25 41 86 42 26 43 85 44 27 45 28 46
REMARK SMILES IDX 29 47 79 48 30 49 84 50 78 51 80 52 31 53 83 54 77 55 76 56
REMARK SMILES IDX 32 58 64 59 44 60 63 61 45 62 48 63 62 64 81 65 46 66 47 67
REMARK SMILES IDX 61 69 82 70 49 71 33 72 34 73 42 74 35 75 36 76 40 77 43 78
REMARK SMILES IDX 37 79 38 80 41 81 39 82 65 83 66 84 74 85 67 86 68 87 72 88
REMARK SMILES IDX 75 89 69 90 70 91 73 92 71 93 50 94 51 95 59 96 52 97 53 98
REMARK SMILES IDX 57 99 60 100 54 101 55 102 58 103 56 104
REMARK H PARENT 17 5 10 15 91 24 21 38 80 57 48 68
REMARK Flexibility Score: inf
ROOT
ATOM      1  C   UNL A   1      36.790  20.354  24.626  1.00  0.00     0.118 C 
ENDROOT
BRANCH   1   2
ATOM      2  N   UNL A   1      35.508  19.940  25.181  1.00  0.00    -0.352 N 
ATOM      3  C   UNL A   1      34.264  20.535  25.183  1.00  0.00     0.251 C 
ATOM      4  O   UNL A   1      33.352  19.986  25.796  1.00  0.00    -0.269 OA
ATOM      5  H   UNL A   1      35.534  19.070  25.642  1.00  0.00     0.163 HD
BRANCH   3   6
ATOM      6  C   UNL A   1      34.004  21.850  24.538  1.00  0.00     0.039 A 
ATOM      7  C   UNL A   1      33.883  24.350  23.225  1.00  0.00     0.041 A 
ATOM      8  C   UNL A   1      34.465  24.232  24.496  1.00  0.00     0.027 A 
ATOM      9  C   UNL A   1      33.221  23.240  22.706  1.00  0.00     0.027 A 
ATOM     10  C   UNL A   1      34.532  22.993  25.145  1.00  0.00     0.016 A 
ATOM     11  C   UNL A   1      33.268  22.000  23.365  1.00  0.00     0.016 A 
BRANCH   7  12
ATOM     12  N   UNL A   1      34.064  25.587  22.581  1.00  0.00    -0.326 N 
ATOM     13  C   UNL A   1      33.266  26.453  21.899  1.00  0.00     0.226 C 
ATOM     14  O   UNL A   1      33.801  27.453  21.409  1.00  0.00    -0.275 OA
ATOM     15  H   UNL A   1      34.994  25.902  22.637  1.00  0.00     0.169 HD
BRANCH  13  16
ATOM     16  C   UNL A   1      31.787  26.250  21.705  1.00  0.00     0.128 C 
BRANCH  16  17
ATOM     17  C   UNL A   1      30.904  26.613  22.893  1.00  0.00     0.183 C 
ATOM     18  N   UNL A   1      30.797  25.676  25.111  1.00  0.00    -0.190 N 
ATOM     19  C   UNL A   1      30.418  25.494  23.792  1.00  0.00     0.324 C 
ATOM     20  C   UNL A   1      31.495  26.817  25.416  1.00  0.00     0.319 C 
ATOM     21  O   UNL A   1      29.709  24.580  23.395  1.00  0.00    -0.245 OA
ATOM     22  S   UNL A   1      31.748  27.792  23.989  1.00  0.00    -0.022 SA
ATOM     23  N   UNL A   1      31.884  27.098  26.617  1.00  0.00    -0.235 N 
ATOM     24  H   UNL A   1      31.762  26.435  27.334  1.00  0.00     0.313 HD
BRANCH  18  25
ATOM     25  C   UNL A   1      30.280  24.764  26.126  1.00  0.00     0.243 C 
ATOM     26  C   UNL A   1      31.157  23.542  26.351  1.00  0.00     0.054 C 
ENDBRANCH  18  25
BRANCH  23  27
ATOM     27  C   UNL A   1      32.477  28.336  26.915  1.00  0.00     0.125 A 
ATOM     28  C   UNL A   1      31.712  29.503  27.013  1.00  0.00     0.053 A 
ATOM     29  C   UNL A   1      33.869  28.431  27.032  1.00  0.00     0.053 A 
ATOM     30  C   UNL A   1      32.327  30.739  27.251  1.00  0.00     0.025 A 
ATOM     31  C   UNL A   1      34.487  29.660  27.281  1.00  0.00     0.025 A 
ATOM     32  C   UNL A   1      33.712  30.810  27.389  1.00  0.00     0.041 A 
ATOM     33  Cl  UNL A   1      34.471  32.325  27.688  1.00  0.00    -0.084 Cl
ENDBRANCH  23  27
ENDBRANCH  16  17
ENDBRANCH  13  16
ENDBRANCH   7  12
ENDBRANCH   3   6
ENDBRANCH   1   2
BRANCH   1  34
ATOM     34  C   UNL A   1      37.951  19.435  25.000  1.00  0.00     0.042 C 
BRANCH  34  35
ATOM     35  C   UNL A   1      39.100  20.092  25.753  1.00  0.00     0.118 C 
BRANCH  35  36
ATOM     36  N   UNL A   1      40.251  19.213  25.904  1.00  0.00    -0.352 N 
ATOM     37  C   UNL A   1      41.584  19.458  26.126  1.00  0.00     0.251 C 
ATOM     38  H   UNL A   1      40.031  18.256  25.834  1.00  0.00     0.163 HD
ATOM     39  O   UNL A   1      42.366  18.510  26.053  1.00  0.00    -0.269 OA
BRANCH  37  40
ATOM     40  C   UNL A   1      42.124  20.808  26.442  1.00  0.00     0.039 A 
ATOM     41  C   UNL A   1      42.396  21.678  25.376  1.00  0.00     0.014 A 
ATOM     42  C   UNL A   1      42.453  21.212  27.736  1.00  0.00     0.014 A 
ATOM     43  C   UNL A   1      42.942  22.947  25.609  1.00  0.00     0.010 A 
ATOM     44  C   UNL A   1      42.916  22.510  27.979  1.00  0.00     0.010 A 
ATOM     45  C   UNL A   1      43.180  23.389  26.918  1.00  0.00    -0.014 A 
BRANCH  45  46
ATOM     46  C   UNL A   1      43.718  24.751  27.195  1.00  0.00     0.031 A 
ATOM     47  C   UNL A   1      42.813  25.842  27.708  1.00  0.00     0.074 A 
ATOM     48  C   UNL A   1      45.006  25.035  26.918  1.00  0.00     0.049 A 
ATOM     49  N   UNL A   1      43.073  27.109  27.916  1.00  0.00    -0.248 NA
ATOM     50  C   UNL A   1      41.422  25.462  27.999  1.00  0.00     0.031 C 
ATOM     51  C   UNL A   1      45.981  24.089  26.375  1.00  0.00     0.029 A 
ATOM     52  N   UNL A   1      45.713  26.208  27.037  1.00  0.00    -0.354 N 
ATOM     53  C   UNL A   1      41.877  27.680  28.333  1.00  0.00     0.074 A 
ATOM     54  C   UNL A   1      40.880  26.632  28.306  1.00  0.00     0.031 C 
ATOM     55  C   UNL A   1      47.158  24.713  26.215  1.00  0.00     0.029 A 
ATOM     56  C   UNL A   1      47.014  26.113  26.607  1.00  0.00     0.049 A 
ATOM     57  H   UNL A   1      45.323  27.037  27.397  1.00  0.00     0.167 HD
ATOM     58  C   UNL A   1      41.635  28.956  28.722  1.00  0.00     0.037 A 
ATOM     59  C   UNL A   1      47.980  27.048  26.521  1.00  0.00     0.037 A 
ATOM     60  C   UNL A   1      42.634  29.991  28.784  1.00  0.00     0.049 A 
ATOM     61  C   UNL A   1      47.692  28.455  26.970  1.00  0.00     0.074 A 
ATOM     62  C   UNL A   1      42.503  31.291  29.242  1.00  0.00     0.029 A 
ATOM     63  N   UNL A   1      43.951  29.846  28.371  1.00  0.00    -0.354 N 
ATOM     64  N   UNL A   1      46.576  28.963  27.431  1.00  0.00    -0.248 NA
ATOM     65  C   UNL A   1      48.801  29.416  26.893  1.00  0.00     0.031 C 
ATOM     66  C   UNL A   1      43.725  31.947  29.056  1.00  0.00     0.029 A 
ATOM     67  C   UNL A   1      44.634  31.041  28.537  1.00  0.00     0.049 A 
ATOM     68  H   UNL A   1      44.342  29.017  28.012  1.00  0.00     0.167 HD
ATOM     69  C   UNL A   1      46.852  30.292  27.722  1.00  0.00     0.074 A 
ATOM     70  C   UNL A   1      48.247  30.509  27.400  1.00  0.00     0.031 C 
ATOM     71  C   UNL A   1      46.024  31.247  28.212  1.00  0.00     0.037 A 
BRANCH  58  72
ATOM     72  C   UNL A   1      40.226  29.311  29.107  1.00  0.00     0.064 A 
ATOM     73  C   UNL A   1      39.831  29.425  30.449  1.00  0.00     0.173 A 
ATOM     74  C   UNL A   1      39.264  29.575  28.118  1.00  0.00     0.173 A 
ATOM     75  F   UNL A   1      40.708  29.177  31.434  1.00  0.00    -0.203 F 
ATOM     76  C   UNL A   1      38.519  29.751  30.787  1.00  0.00     0.198 A 
ATOM     77  C   UNL A   1      37.962  29.933  28.460  1.00  0.00     0.198 A 
ATOM     78  F   UNL A   1      39.589  29.492  26.820  1.00  0.00    -0.203 F 
ATOM     79  F   UNL A   1      38.153  29.797  32.075  1.00  0.00    -0.200 F 
ATOM     80  C   UNL A   1      37.589  30.011  29.792  1.00  0.00     0.200 A 
ATOM     81  F   UNL A   1      37.068  30.199  27.497  1.00  0.00    -0.200 F 
ATOM     82  F   UNL A   1      36.328  30.328  30.119  1.00  0.00    -0.200 F 
ENDBRANCH  58  72
BRANCH  59  83
ATOM     83  C   UNL A   1      49.319  26.675  25.995  1.00  0.00     0.064 A 
ATOM     84  C   UNL A   1      50.281  26.080  26.824  1.00  0.00     0.173 A 
ATOM     85  C   UNL A   1      49.661  26.894  24.652  1.00  0.00     0.173 A 
ATOM     86  F   UNL A   1      50.009  25.871  28.120  1.00  0.00    -0.203 F 
ATOM     87  C   UNL A   1      51.537  25.732  26.333  1.00  0.00     0.198 A 
ATOM     88  C   UNL A   1      50.908  26.519  24.156  1.00  0.00     0.198 A 
ATOM     89  F   UNL A   1      48.774  27.455  23.816  1.00  0.00    -0.203 F 
ATOM     90  F   UNL A   1      52.453  25.203  27.157  1.00  0.00    -0.200 F 
ATOM     91  C   UNL A   1      51.847  25.945  24.998  1.00  0.00     0.200 A 
ATOM     92  F   UNL A   1      51.197  26.711  22.862  1.00  0.00    -0.200 F 
ATOM     93  F   UNL A   1      53.053  25.600  24.526  1.00  0.00    -0.200 F 
ENDBRANCH  59  83
BRANCH  71  94
ATOM     94  C   UNL A   1      46.607  32.609  28.459  1.00  0.00     0.064 A 
ATOM     95  C   UNL A   1      47.203  32.945  29.683  1.00  0.00     0.173 A 
ATOM     96  C   UNL A   1      46.606  33.576  27.441  1.00  0.00     0.173 A 
ATOM     97  F   UNL A   1      47.216  32.062  30.693  1.00  0.00    -0.203 F 
ATOM     98  C   UNL A   1      47.753  34.209  29.888  1.00  0.00     0.198 A 
ATOM     99  C   UNL A   1      47.184  34.827  27.640  1.00  0.00     0.198 A 
ATOM    100  F   UNL A   1      46.055  33.303  26.249  1.00  0.00    -0.203 F 
ATOM    101  F   UNL A   1      48.274  34.524  31.082  1.00  0.00    -0.200 F 
ATOM    102  C   UNL A   1      47.750  35.145  28.865  1.00  0.00     0.200 A 
ATOM    103  F   UNL A   1      47.193  35.725  26.645  1.00  0.00    -0.200 F 
ATOM    104  F   UNL A   1      48.287  36.357  29.062  1.00  0.00    -0.200 F 
ENDBRANCH  71  94
ENDBRANCH  45  46
ENDBRANCH  37  40
ENDBRANCH  35  36
ENDBRANCH  34  35
ENDBRANCH   1  34
TORSDOF 15
ENDMDL
MODEL 3
REMARK VINA RESULT:     -13.0      1.986      2.839
REMARK SMILES CCN1C(=O)[C@H](CC(=O)Nc2ccc(C(=O)NCCCNC(=O)c3ccc(-c4c5nc(c(-c6c(F)c(F)c(F)c(F)c6F)c6ccc([nH]6)c(-c6c(F)c(F)c(F)c(F)c6F)c6nc(c(-c7c(F)c(F)c(F)c(F)c7F)c7ccc4[nH]7)C=C6)C=C5)cc3)cc2)S/C1=[NH+]\c1ccc(Cl)cc1
REMARK SMILES IDX 18 1 17 2 15 3 16 4 14 6 11 7 12 8 88 9 13 10 87 11 10 12
REMARK SMILES IDX 8 13 9 14 7 16 6 17 3 18 4 19 90 20 5 21 89 22 91 23 2 25
REMARK SMILES IDX 1 26 92 27 93 28 98 29 94 30 97 31 95 32 96 33 19 34 20 35
REMARK SMILES IDX 21 36 22 37 23 39 24 40 25 41 86 42 26 43 85 44 27 45 28 46
REMARK SMILES IDX 29 47 79 48 30 49 84 50 78 51 80 52 31 53 83 54 77 55 76 56
REMARK SMILES IDX 32 58 64 59 44 60 63 61 45 62 48 63 62 64 81 65 46 66 47 67
REMARK SMILES IDX 61 69 82 70 49 71 33 72 34 73 42 74 35 75 36 76 40 77 43 78
REMARK SMILES IDX 37 79 38 80 41 81 39 82 65 83 66 84 74 85 67 86 68 87 72 88
REMARK SMILES IDX 75 89 69 90 70 91 73 92 71 93 50 94 51 95 59 96 52 97 53 98
REMARK SMILES IDX 57 99 60 100 54 101 55 102 58 103 56 104
REMARK H PARENT 17 5 10 15 91 24 21 38 80 57 48 68
REMARK Flexibility Score: inf
ROOT
ATOM      1  C   UNL A   1      30.959  30.977  25.536  1.00  0.00     0.118 C 
ENDROOT
BRANCH   1   2
ATOM      2  N   UNL A   1      30.233  31.098  24.278  1.00  0.00    -0.352 N 
ATOM      3  C   UNL A   1      29.747  30.158  23.396  1.00  0.00     0.251 C 
ATOM      4  O   UNL A   1      29.221  30.546  22.355  1.00  0.00    -0.269 OA
ATOM      5  H   UNL A   1      30.057  32.029  24.007  1.00  0.00     0.163 HD
BRANCH   3   6
ATOM      6  C   UNL A   1      29.902  28.696  23.617  1.00  0.00     0.039 A 
ATOM      7  C   UNL A   1      30.239  26.003  24.409  1.00  0.00     0.041 A 
ATOM      8  C   UNL A   1      31.331  26.882  24.364  1.00  0.00     0.027 A 
ATOM      9  C   UNL A   1      29.024  26.448  23.896  1.00  0.00     0.027 A 
ATOM     10  C   UNL A   1      31.166  28.218  23.979  1.00  0.00     0.016 A 
ATOM     11  C   UNL A   1      28.859  27.782  23.487  1.00  0.00     0.016 A 
BRANCH   7  12
ATOM     12  N   UNL A   1      30.480  24.757  25.014  1.00  0.00    -0.326 N 
ATOM     13  C   UNL A   1      30.768  23.502  24.573  1.00  0.00     0.226 C 
ATOM     14  O   UNL A   1      30.865  22.610  25.421  1.00  0.00    -0.275 OA
ATOM     15  H   UNL A   1      30.428  24.804  25.996  1.00  0.00     0.169 HD
BRANCH  13  16
ATOM     16  C   UNL A   1      30.959  23.151  23.121  1.00  0.00     0.128 C 
BRANCH  16  17
ATOM     17  C   UNL A   1      32.290  22.500  22.764  1.00  0.00     0.183 C 
ATOM     18  N   UNL A   1      34.350  22.359  24.007  1.00  0.00    -0.190 N 
ATOM     19  C   UNL A   1      33.565  23.182  23.218  1.00  0.00     0.324 C 
ATOM     20  C   UNL A   1      33.904  21.080  24.225  1.00  0.00     0.319 C 
ATOM     21  O   UNL A   1      33.884  24.306  22.858  1.00  0.00    -0.245 OA
ATOM     22  S   UNL A   1      32.379  20.807  23.419  1.00  0.00    -0.022 SA
ATOM     23  N   UNL A   1      34.564  20.221  24.931  1.00  0.00    -0.235 N 
ATOM     24  H   UNL A   1      35.373  20.508  25.413  1.00  0.00     0.313 HD
BRANCH  18  25
ATOM     25  C   UNL A   1      35.679  22.817  24.400  1.00  0.00     0.243 C 
ATOM     26  C   UNL A   1      36.652  22.932  23.238  1.00  0.00     0.054 C 
ENDBRANCH  18  25
BRANCH  23  27
ATOM     27  C   UNL A   1      34.145  18.883  25.021  1.00  0.00     0.125 A 
ATOM     28  C   UNL A   1      34.801  17.867  24.317  1.00  0.00     0.053 A 
ATOM     29  C   UNL A   1      32.997  18.561  25.757  1.00  0.00     0.053 A 
ATOM     30  C   UNL A   1      34.332  16.548  24.370  1.00  0.00     0.025 A 
ATOM     31  C   UNL A   1      32.532  17.245  25.823  1.00  0.00     0.025 A 
ATOM     32  C   UNL A   1      33.203  16.243  25.128  1.00  0.00     0.041 A 
ATOM     33  Cl  UNL A   1      32.628  14.623  25.201  1.00  0.00    -0.084 Cl
ENDBRANCH  23  27
ENDBRANCH  16  17
ENDBRANCH  13  16
ENDBRANCH   7  12
ENDBRANCH   3   6
ENDBRANCH   1   2
BRANCH   1  34
ATOM     34  C   UNL A   1      30.936  32.245  26.387  1.00  0.00     0.042 C 
BRANCH  34  35
ATOM     35  C   UNL A   1      32.260  32.635  27.032  1.00  0.00     0.118 C 
BRANCH  35  36
ATOM     36  N   UNL A   1      32.273  34.012  27.504  1.00  0.00    -0.352 N 
ATOM     37  C   UNL A   1      33.045  34.669  28.432  1.00  0.00     0.251 C 
ATOM     38  H   UNL A   1      31.598  34.586  27.074  1.00  0.00     0.163 HD
ATOM     39  O   UNL A   1      32.723  35.815  28.744  1.00  0.00    -0.269 OA
BRANCH  37  40
ATOM     40  C   UNL A   1      34.240  34.061  29.076  1.00  0.00     0.039 A 
ATOM     41  C   UNL A   1      34.036  33.040  30.016  1.00  0.00     0.014 A 
ATOM     42  C   UNL A   1      35.539  34.517  28.855  1.00  0.00     0.014 A 
ATOM     43  C   UNL A   1      35.120  32.456  30.685  1.00  0.00     0.010 A 
ATOM     44  C   UNL A   1      36.628  33.877  29.457  1.00  0.00     0.010 A 
ATOM     45  C   UNL A   1      36.433  32.848  30.389  1.00  0.00    -0.014 A 
BRANCH  45  46
ATOM     46  C   UNL A   1      37.605  32.211  31.054  1.00  0.00     0.031 A 
ATOM     47  C   UNL A   1      38.402  31.147  30.345  1.00  0.00     0.074 A 
ATOM     48  C   UNL A   1      37.915  32.534  32.325  1.00  0.00     0.049 A 
ATOM     49  N   UNL A   1      39.390  30.412  30.791  1.00  0.00    -0.248 NA
ATOM     50  C   UNL A   1      38.017  30.850  28.957  1.00  0.00     0.031 C 
ATOM     51  C   UNL A   1      37.202  33.513  33.145  1.00  0.00     0.029 A 
ATOM     52  N   UNL A   1      38.900  32.059  33.158  1.00  0.00    -0.354 N 
ATOM     53  C   UNL A   1      39.724  29.550  29.753  1.00  0.00     0.074 A 
ATOM     54  C   UNL A   1      38.804  29.824  28.670  1.00  0.00     0.031 C 
ATOM     55  C   UNL A   1      37.775  33.572  34.358  1.00  0.00     0.029 A 
ATOM     56  C   UNL A   1      38.871  32.609  34.416  1.00  0.00     0.049 A 
ATOM     57  H   UNL A   1      39.564  31.388  32.878  1.00  0.00     0.167 HD
ATOM     58  C   UNL A   1      40.719  28.630  29.699  1.00  0.00     0.037 A 
ATOM     59  C   UNL A   1      39.630  32.358  35.500  1.00  0.00     0.037 A 
ATOM     60  C   UNL A   1      41.657  28.383  30.763  1.00  0.00     0.049 A 
ATOM     61  C   UNL A   1      40.735  31.342  35.413  1.00  0.00     0.074 A 
ATOM     62  C   UNL A   1      42.748  27.531  30.771  1.00  0.00     0.029 A 
ATOM     63  N   UNL A   1      41.614  28.986  32.012  1.00  0.00    -0.354 N 
ATOM     64  N   UNL A   1      41.086  30.587  34.401  1.00  0.00    -0.248 NA
ATOM     65  C   UNL A   1      41.555  31.147  36.618  1.00  0.00     0.031 C 
ATOM     66  C   UNL A   1      43.332  27.577  32.041  1.00  0.00     0.029 A 
ATOM     67  C   UNL A   1      42.642  28.502  32.807  1.00  0.00     0.049 A 
ATOM     68  H   UNL A   1      40.952  29.658  32.292  1.00  0.00     0.167 HD
ATOM     69  C   UNL A   1      42.178  29.848  34.836  1.00  0.00     0.074 A 
ATOM     70  C   UNL A   1      42.444  30.257  36.200  1.00  0.00     0.031 C 
ATOM     71  C   UNL A   1      42.897  28.916  34.164  1.00  0.00     0.037 A 
BRANCH  58  72
ATOM     72  C   UNL A   1      40.840  27.810  28.445  1.00  0.00     0.064 A 
ATOM     73  C   UNL A   1      41.651  28.214  27.373  1.00  0.00     0.173 A 
ATOM     74  C   UNL A   1      40.163  26.586  28.327  1.00  0.00     0.173 A 
ATOM     75  F   UNL A   1      42.316  29.378  27.429  1.00  0.00    -0.203 F 
ATOM     76  C   UNL A   1      41.749  27.443  26.217  1.00  0.00     0.198 A 
ATOM     77  C   UNL A   1      40.289  25.802  27.183  1.00  0.00     0.198 A 
ATOM     78  F   UNL A   1      39.383  26.147  29.326  1.00  0.00    -0.203 F 
ATOM     79  F   UNL A   1      42.484  27.877  25.184  1.00  0.00    -0.200 F 
ATOM     80  C   UNL A   1      41.074  26.235  26.126  1.00  0.00     0.200 A 
ATOM     81  F   UNL A   1      39.648  24.628  27.104  1.00  0.00    -0.200 F 
ATOM     82  F   UNL A   1      41.172  25.493  25.014  1.00  0.00    -0.200 F 
ENDBRANCH  58  72
BRANCH  59  83
ATOM     83  C   UNL A   1      39.371  33.098  36.764  1.00  0.00     0.064 A 
ATOM     84  C   UNL A   1      38.474  32.601  37.721  1.00  0.00     0.173 A 
ATOM     85  C   UNL A   1      40.022  34.308  37.046  1.00  0.00     0.173 A 
ATOM     86  F   UNL A   1      37.811  31.460  37.487  1.00  0.00    -0.203 F 
ATOM     87  C   UNL A   1      38.229  33.294  38.904  1.00  0.00     0.198 A 
ATOM     88  C   UNL A   1      39.797  34.985  38.242  1.00  0.00     0.198 A 
ATOM     89  F   UNL A   1      40.893  34.823  36.166  1.00  0.00    -0.203 F 
ATOM     90  F   UNL A   1      37.336  32.818  39.784  1.00  0.00    -0.200 F 
ATOM     91  C   UNL A   1      38.896  34.481  39.168  1.00  0.00     0.200 A 
ATOM     92  F   UNL A   1      40.456  36.122  38.500  1.00  0.00    -0.200 F 
ATOM     93  F   UNL A   1      38.666  35.141  40.311  1.00  0.00    -0.200 F 
ENDBRANCH  59  83
BRANCH  71  94
ATOM     94  C   UNL A   1      44.059  28.289  34.881  1.00  0.00     0.064 A 
ATOM     95  C   UNL A   1      43.922  27.094  35.603  1.00  0.00     0.173 A 
ATOM     96  C   UNL A   1      45.334  28.872  34.812  1.00  0.00     0.173 A 
ATOM     97  F   UNL A   1      42.722  26.506  35.713  1.00  0.00    -0.203 F 
ATOM     98  C   UNL A   1      45.014  26.519  36.249  1.00  0.00     0.198 A 
ATOM     99  C   UNL A   1      46.430  28.277  35.432  1.00  0.00     0.198 A 
ATOM    100  F   UNL A   1      45.521  30.011  34.129  1.00  0.00    -0.203 F 
ATOM    101  F   UNL A   1      44.850  25.402  36.971  1.00  0.00    -0.200 F 
ATOM    102  C   UNL A   1      46.268  27.106  36.156  1.00  0.00     0.200 A 
ATOM    103  F   UNL A   1      47.642  28.839  35.331  1.00  0.00    -0.200 F 
ATOM    104  F   UNL A   1      47.318  26.546  36.772  1.00  0.00    -0.200 F 
ENDBRANCH  71  94
ENDBRANCH  45  46
ENDBRANCH  37  40
ENDBRANCH  35  36
ENDBRANCH  34  35
ENDBRANCH   1  34
TORSDOF 15
ENDMDL
