MODEL 1
REMARK VINA RESULT:     -11.7      0.000      0.000
REMARK SMILES CN(CCS(C)(=O)=O)S(=O)(=O)c1cc(C(=O)NCCCNC(=O)c2ccc(-c3c4nc(c(-c5c(F)c(F)c(F)c(F)c5F)c5ccc([nH]5)c(-c5c(F)c(F)c(F)c(F)c5F)c5nc(c(-c6c(F)c(F)c(F)c(F)c6F)c6ccc3[nH]6)C=C5)C=C4)cc2)ccc1F
REMARK SMILES IDX 15 1 16 2 17 3 14 5 12 6 13 7 89 8 88 9 90 10 87 11 9 12
REMARK SMILES IDX 10 13 11 14 2 15 1 16 3 17 4 18 5 19 6 20 7 21 8 22 18 23
REMARK SMILES IDX 19 24 20 25 21 26 22 27 23 29 24 30 25 31 86 32 26 33 85 34
REMARK SMILES IDX 27 35 28 36 29 37 79 38 30 39 84 40 78 41 80 42 31 43 83 44
REMARK SMILES IDX 77 45 76 46 32 48 64 49 44 50 63 51 45 52 48 53 62 54 81 55
REMARK SMILES IDX 46 56 47 57 61 59 82 60 49 61 33 62 34 63 42 64 35 65 36 66
REMARK SMILES IDX 40 67 43 68 37 69 38 70 41 71 39 72 65 73 66 74 74 75 67 76
REMARK SMILES IDX 68 77 72 78 75 79 69 80 70 81 73 82 71 83 50 84 51 85 59 86
REMARK SMILES IDX 52 87 53 88 57 89 60 90 54 91 55 92 58 93 56 94
REMARK H PARENT 17 4 21 28 80 47 48 58
REMARK Flexibility Score: inf
ROOT
ATOM      1  C   UNL A   1      31.559  24.814  26.511  1.00  0.00     0.251 C 
ATOM      2  O   UNL A   1      31.086  23.952  27.250  1.00  0.00    -0.269 OA
ATOM      3  N   UNL A   1      31.430  26.123  26.894  1.00  0.00    -0.352 N 
ATOM      4  H   UNL A   1      30.911  26.244  27.723  1.00  0.00     0.163 HD
ENDROOT
BRANCH   1   5
ATOM      5  C   UNL A   1      32.209  24.379  25.243  1.00  0.00     0.041 A 
ATOM      6  C   UNL A   1      34.257  23.666  24.138  1.00  0.00     0.119 A 
ATOM      7  C   UNL A   1      33.611  24.235  25.244  1.00  0.00     0.038 A 
ATOM      8  C   UNL A   1      33.532  23.307  23.010  1.00  0.00     0.143 A 
ATOM      9  C   UNL A   1      32.150  23.456  22.995  1.00  0.00     0.041 A 
ATOM     10  F   UNL A   1      34.117  22.738  21.950  1.00  0.00    -0.206 F 
ATOM     11  C   UNL A   1      31.488  23.956  24.121  1.00  0.00     0.017 A 
BRANCH   6  12
ATOM     12  S   UNL A   1      35.970  23.253  24.191  1.00  0.00     0.245 S 
ATOM     13  O   UNL A   1      36.586  23.929  25.312  1.00  0.00    -0.207 OA
ATOM     14  O   UNL A   1      36.508  23.423  22.860  1.00  0.00    -0.207 OA
BRANCH  12  15
ATOM     15  N   UNL A   1      35.950  21.591  24.567  1.00  0.00    -0.200 NA
ATOM     16  C   UNL A   1      37.262  21.009  24.909  1.00  0.00     0.124 C 
BRANCH  15  17
ATOM     17  C   UNL A   1      34.779  20.987  25.264  1.00  0.00     0.118 C 
BRANCH  17  18
ATOM     18  C   UNL A   1      34.368  19.582  24.865  1.00  0.00     0.153 C 
BRANCH  18  19
ATOM     19  S   UNL A   1      32.612  19.253  24.764  1.00  0.00     0.148 S 
ATOM     20  C   UNL A   1      32.274  18.684  23.113  1.00  0.00     0.158 C 
ATOM     21  O   UNL A   1      32.355  18.127  25.645  1.00  0.00    -0.229 OA
ATOM     22  O   UNL A   1      31.893  20.494  24.945  1.00  0.00    -0.229 OA
ENDBRANCH  18  19
ENDBRANCH  17  18
ENDBRANCH  15  17
ENDBRANCH  12  15
ENDBRANCH   6  12
ENDBRANCH   1   5
BRANCH   3  23
ATOM     23  C   UNL A   1      31.909  27.366  26.318  1.00  0.00     0.118 C 
BRANCH  23  24
ATOM     24  C   UNL A   1      33.285  27.745  26.873  1.00  0.00     0.042 C 
BRANCH  24  25
ATOM     25  C   UNL A   1      34.003  28.827  26.064  1.00  0.00     0.118 C 
BRANCH  25  26
ATOM     26  N   UNL A   1      33.837  30.150  26.652  1.00  0.00    -0.352 N 
ATOM     27  C   UNL A   1      34.539  30.790  27.641  1.00  0.00     0.251 C 
ATOM     28  H   UNL A   1      33.095  30.674  26.273  1.00  0.00     0.163 HD
ATOM     29  O   UNL A   1      34.073  31.813  28.138  1.00  0.00    -0.269 OA
BRANCH  27  30
ATOM     30  C   UNL A   1      35.838  30.275  28.127  1.00  0.00     0.039 A 
ATOM     31  C   UNL A   1      36.948  30.353  27.277  1.00  0.00     0.014 A 
ATOM     32  C   UNL A   1      35.964  29.650  29.370  1.00  0.00     0.014 A 
ATOM     33  C   UNL A   1      38.186  29.857  27.693  1.00  0.00     0.010 A 
ATOM     34  C   UNL A   1      37.213  29.217  29.813  1.00  0.00     0.010 A 
ATOM     35  C   UNL A   1      38.337  29.313  28.979  1.00  0.00    -0.014 A 
BRANCH  35  36
ATOM     36  C   UNL A   1      39.664  28.860  29.471  1.00  0.00     0.031 A 
ATOM     37  C   UNL A   1      40.446  29.696  30.445  1.00  0.00     0.074 A 
ATOM     38  C   UNL A   1      40.197  27.724  28.982  1.00  0.00     0.049 A 
ATOM     39  N   UNL A   1      41.647  29.497  30.927  1.00  0.00    -0.248 NA
ATOM     40  C   UNL A   1      39.804  30.930  30.922  1.00  0.00     0.031 C 
ATOM     41  C   UNL A   1      39.555  26.849  28.001  1.00  0.00     0.029 A 
ATOM     42  N   UNL A   1      41.401  27.115  29.236  1.00  0.00    -0.354 N 
ATOM     43  C   UNL A   1      41.912  30.586  31.747  1.00  0.00     0.074 A 
ATOM     44  C   UNL A   1      40.766  31.466  31.660  1.00  0.00     0.031 C 
ATOM     45  C   UNL A   1      40.361  25.805  27.752  1.00  0.00     0.029 A 
ATOM     46  C   UNL A   1      41.592  25.957  28.523  1.00  0.00     0.049 A 
ATOM     47  H   UNL A   1      42.065  27.474  29.869  1.00  0.00     0.167 HD
ATOM     48  C   UNL A   1      43.002  30.819  32.515  1.00  0.00     0.037 A 
ATOM     49  C   UNL A   1      42.641  25.114  28.485  1.00  0.00     0.037 A 
ATOM     50  C   UNL A   1      44.126  29.924  32.618  1.00  0.00     0.049 A 
ATOM     51  C   UNL A   1      43.842  25.392  29.344  1.00  0.00     0.074 A 
ATOM     52  C   UNL A   1      45.242  30.035  33.429  1.00  0.00     0.029 A 
ATOM     53  N   UNL A   1      44.281  28.758  31.882  1.00  0.00    -0.354 N 
ATOM     54  N   UNL A   1      44.055  26.392  30.163  1.00  0.00    -0.248 NA
ATOM     55  C   UNL A   1      44.947  24.425  29.276  1.00  0.00     0.031 C 
ATOM     56  C   UNL A   1      46.099  28.968  33.142  1.00  0.00     0.029 A 
ATOM     57  C   UNL A   1      45.491  28.158  32.196  1.00  0.00     0.049 A 
ATOM     58  H   UNL A   1      43.629  28.409  31.232  1.00  0.00     0.167 HD
ATOM     59  C   UNL A   1      45.306  26.171  30.722  1.00  0.00     0.074 A 
ATOM     60  C   UNL A   1      45.802  24.933  30.156  1.00  0.00     0.031 C 
ATOM     61  C   UNL A   1      45.980  26.928  31.622  1.00  0.00     0.037 A 
BRANCH  48  62
ATOM     62  C   UNL A   1      43.040  32.093  33.309  1.00  0.00     0.064 A 
ATOM     63  C   UNL A   1      42.492  32.143  34.600  1.00  0.00     0.173 A 
ATOM     64  C   UNL A   1      43.568  33.280  32.777  1.00  0.00     0.173 A 
ATOM     65  F   UNL A   1      41.966  31.041  35.155  1.00  0.00    -0.203 F 
ATOM     66  C   UNL A   1      42.470  33.331  35.326  1.00  0.00     0.198 A 
ATOM     67  C   UNL A   1      43.573  34.459  33.518  1.00  0.00     0.198 A 
ATOM     68  F   UNL A   1      44.109  33.287  31.550  1.00  0.00    -0.203 F 
ATOM     69  F   UNL A   1      41.917  33.360  36.546  1.00  0.00    -0.200 F 
ATOM     70  C   UNL A   1      43.017  34.486  34.788  1.00  0.00     0.200 A 
ATOM     71  F   UNL A   1      44.127  35.567  33.006  1.00  0.00    -0.200 F 
ATOM     72  F   UNL A   1      43.013  35.624  35.496  1.00  0.00    -0.200 F 
ENDBRANCH  48  62
BRANCH  49  73
ATOM     73  C   UNL A   1      42.565  23.909  27.620  1.00  0.00     0.064 A 
ATOM     74  C   UNL A   1      42.230  22.653  28.147  1.00  0.00     0.173 A 
ATOM     75  C   UNL A   1      42.907  23.979  26.263  1.00  0.00     0.173 A 
ATOM     76  F   UNL A   1      41.905  22.533  29.443  1.00  0.00    -0.203 F 
ATOM     77  C   UNL A   1      42.273  21.507  27.356  1.00  0.00     0.198 A 
ATOM     78  C   UNL A   1      42.925  22.836  25.467  1.00  0.00     0.198 A 
ATOM     79  F   UNL A   1      43.218  25.162  25.711  1.00  0.00    -0.203 F 
ATOM     80  F   UNL A   1      41.997  20.313  27.896  1.00  0.00    -0.200 F 
ATOM     81  C   UNL A   1      42.620  21.600  26.017  1.00  0.00     0.200 A 
ATOM     82  F   UNL A   1      43.246  22.931  24.170  1.00  0.00    -0.200 F 
ATOM     83  F   UNL A   1      42.667  20.497  25.257  1.00  0.00    -0.200 F 
ENDBRANCH  49  73
BRANCH  61  84
ATOM     84  C   UNL A   1      47.329  26.447  32.069  1.00  0.00     0.064 A 
ATOM     85  C   UNL A   1      48.489  26.848  31.390  1.00  0.00     0.173 A 
ATOM     86  C   UNL A   1      47.467  25.521  33.114  1.00  0.00     0.173 A 
ATOM     87  F   UNL A   1      48.411  27.727  30.379  1.00  0.00    -0.203 F 
ATOM     88  C   UNL A   1      49.734  26.324  31.724  1.00  0.00     0.198 A 
ATOM     89  C   UNL A   1      48.718  25.020  33.464  1.00  0.00     0.198 A 
ATOM     90  F   UNL A   1      46.389  25.117  33.803  1.00  0.00    -0.203 F 
ATOM     91  F   UNL A   1      50.822  26.691  31.033  1.00  0.00    -0.200 F 
ATOM     92  C   UNL A   1      49.848  25.411  32.762  1.00  0.00     0.200 A 
ATOM     93  F   UNL A   1      48.830  24.157  34.484  1.00  0.00    -0.200 F 
ATOM     94  F   UNL A   1      51.047  24.911  33.087  1.00  0.00    -0.200 F 
ENDBRANCH  61  84
ENDBRANCH  35  36
ENDBRANCH  27  30
ENDBRANCH  25  26
ENDBRANCH  24  25
ENDBRANCH  23  24
ENDBRANCH   3  23
TORSDOF 15
ENDMDL
MODEL 2
REMARK VINA RESULT:     -11.6      3.150      8.364
REMARK SMILES CN(CCS(C)(=O)=O)S(=O)(=O)c1cc(C(=O)NCCCNC(=O)c2ccc(-c3c4nc(c(-c5c(F)c(F)c(F)c(F)c5F)c5ccc([nH]5)c(-c5c(F)c(F)c(F)c(F)c5F)c5nc(c(-c6c(F)c(F)c(F)c(F)c6F)c6ccc3[nH]6)C=C5)C=C4)cc2)ccc1F
REMARK SMILES IDX 15 1 16 2 17 3 14 5 12 6 13 7 89 8 88 9 90 10 87 11 9 12
REMARK SMILES IDX 10 13 11 14 2 15 1 16 3 17 4 18 5 19 6 20 7 21 8 22 18 23
REMARK SMILES IDX 19 24 20 25 21 26 22 27 23 29 24 30 25 31 86 32 26 33 85 34
REMARK SMILES IDX 27 35 28 36 29 37 79 38 30 39 84 40 78 41 80 42 31 43 83 44
REMARK SMILES IDX 77 45 76 46 32 48 64 49 44 50 63 51 45 52 48 53 62 54 81 55
REMARK SMILES IDX 46 56 47 57 61 59 82 60 49 61 33 62 34 63 42 64 35 65 36 66
REMARK SMILES IDX 40 67 43 68 37 69 38 70 41 71 39 72 65 73 66 74 74 75 67 76
REMARK SMILES IDX 68 77 72 78 75 79 69 80 70 81 73 82 71 83 50 84 51 85 59 86
REMARK SMILES IDX 52 87 53 88 57 89 60 90 54 91 55 92 58 93 56 94
REMARK H PARENT 17 4 21 28 80 47 48 58
REMARK Flexibility Score: inf
ROOT
ATOM      1  C   UNL A   1      33.875  28.938  26.994  1.00  0.00     0.251 C 
ATOM      2  O   UNL A   1      34.962  28.959  27.568  1.00  0.00    -0.269 OA
ATOM      3  N   UNL A   1      32.935  29.859  27.378  1.00  0.00    -0.352 N 
ATOM      4  H   UNL A   1      33.220  30.427  28.130  1.00  0.00     0.163 HD
ENDROOT
BRANCH   1   5
ATOM      5  C   UNL A   1      33.645  27.900  25.951  1.00  0.00     0.041 A 
ATOM      6  C   UNL A   1      32.720  25.713  25.415  1.00  0.00     0.119 A 
ATOM      7  C   UNL A   1      33.116  26.662  26.368  1.00  0.00     0.038 A 
ATOM      8  C   UNL A   1      32.910  25.957  24.062  1.00  0.00     0.143 A 
ATOM      9  C   UNL A   1      33.443  27.170  23.641  1.00  0.00     0.041 A 
ATOM     10  F   UNL A   1      32.519  25.083  23.128  1.00  0.00    -0.206 F 
ATOM     11  C   UNL A   1      33.775  28.152  24.581  1.00  0.00     0.017 A 
BRANCH   6  12
ATOM     12  S   UNL A   1      31.841  24.258  25.881  1.00  0.00     0.245 S 
ATOM     13  O   UNL A   1      30.901  23.917  24.836  1.00  0.00    -0.207 OA
ATOM     14  O   UNL A   1      31.380  24.435  27.240  1.00  0.00    -0.207 OA
BRANCH  12  15
ATOM     15  N   UNL A   1      33.054  23.060  25.865  1.00  0.00    -0.200 NA
ATOM     16  C   UNL A   1      33.539  22.639  27.194  1.00  0.00     0.124 C 
BRANCH  15  17
ATOM     17  C   UNL A   1      33.057  22.000  24.816  1.00  0.00     0.118 C 
BRANCH  17  18
ATOM     18  C   UNL A   1      33.795  20.710  25.119  1.00  0.00     0.153 C 
BRANCH  18  19
ATOM     19  S   UNL A   1      33.020  19.191  24.579  1.00  0.00     0.148 S 
ATOM     20  C   UNL A   1      34.319  18.023  24.246  1.00  0.00     0.158 C 
ATOM     21  O   UNL A   1      32.290  18.674  25.724  1.00  0.00    -0.229 OA
ATOM     22  O   UNL A   1      32.332  19.435  23.331  1.00  0.00    -0.229 OA
ENDBRANCH  18  19
ENDBRANCH  17  18
ENDBRANCH  15  17
ENDBRANCH  12  15
ENDBRANCH   6  12
ENDBRANCH   1   5
BRANCH   3  23
ATOM     23  C   UNL A   1      31.602  30.162  26.889  1.00  0.00     0.118 C 
BRANCH  23  24
ATOM     24  C   UNL A   1      31.419  31.664  26.656  1.00  0.00     0.042 C 
BRANCH  24  25
ATOM     25  C   UNL A   1      32.714  32.470  26.772  1.00  0.00     0.118 C 
BRANCH  25  26
ATOM     26  N   UNL A   1      32.487  33.790  27.344  1.00  0.00    -0.352 N 
ATOM     27  C   UNL A   1      33.042  34.406  28.437  1.00  0.00     0.251 C 
ATOM     28  H   UNL A   1      31.822  34.334  26.864  1.00  0.00     0.163 HD
ATOM     29  O   UNL A   1      32.527  35.433  28.870  1.00  0.00    -0.269 OA
BRANCH  27  30
ATOM     30  C   UNL A   1      34.243  33.858  29.108  1.00  0.00     0.039 A 
ATOM     31  C   UNL A   1      34.075  32.834  30.047  1.00  0.00     0.014 A 
ATOM     32  C   UNL A   1      35.516  34.388  28.884  1.00  0.00     0.014 A 
ATOM     33  C   UNL A   1      35.183  32.307  30.716  1.00  0.00     0.010 A 
ATOM     34  C   UNL A   1      36.629  33.817  29.501  1.00  0.00     0.010 A 
ATOM     35  C   UNL A   1      36.475  32.774  30.425  1.00  0.00    -0.014 A 
BRANCH  35  36
ATOM     36  C   UNL A   1      37.672  32.166  31.063  1.00  0.00     0.031 A 
ATOM     37  C   UNL A   1      38.453  31.093  30.359  1.00  0.00     0.074 A 
ATOM     38  C   UNL A   1      38.015  32.537  32.311  1.00  0.00     0.049 A 
ATOM     39  N   UNL A   1      39.478  30.399  30.788  1.00  0.00    -0.248 NA
ATOM     40  C   UNL A   1      38.009  30.731  29.004  1.00  0.00     0.031 C 
ATOM     41  C   UNL A   1      37.311  33.536  33.114  1.00  0.00     0.029 A 
ATOM     42  N   UNL A   1      39.034  32.110  33.127  1.00  0.00    -0.354 N 
ATOM     43  C   UNL A   1      39.789  29.511  29.767  1.00  0.00     0.074 A 
ATOM     44  C   UNL A   1      38.816  29.720  28.716  1.00  0.00     0.031 C 
ATOM     45  C   UNL A   1      37.930  33.663  34.297  1.00  0.00     0.029 A 
ATOM     46  C   UNL A   1      39.049  32.725  34.354  1.00  0.00     0.049 A 
ATOM     47  H   UNL A   1      39.690  31.427  32.858  1.00  0.00     0.167 HD
ATOM     48  C   UNL A   1      40.806  28.618  29.706  1.00  0.00     0.037 A 
ATOM     49  C   UNL A   1      39.865  32.552  35.411  1.00  0.00     0.037 A 
ATOM     50  C   UNL A   1      41.787  28.437  30.744  1.00  0.00     0.049 A 
ATOM     51  C   UNL A   1      40.985  31.555  35.323  1.00  0.00     0.074 A 
ATOM     52  C   UNL A   1      42.900  27.613  30.740  1.00  0.00     0.029 A 
ATOM     53  N   UNL A   1      41.772  29.082  31.972  1.00  0.00    -0.354 N 
ATOM     54  N   UNL A   1      41.308  30.766  34.329  1.00  0.00    -0.248 NA
ATOM     55  C   UNL A   1      41.855  31.426  36.501  1.00  0.00     0.031 C 
ATOM     56  C   UNL A   1      43.524  27.717  31.988  1.00  0.00     0.029 A 
ATOM     57  C   UNL A   1      42.836  28.650  32.747  1.00  0.00     0.049 A 
ATOM     58  H   UNL A   1      41.103  29.749  32.251  1.00  0.00     0.167 HD
ATOM     59  C   UNL A   1      42.426  30.057  34.749  1.00  0.00     0.074 A 
ATOM     60  C   UNL A   1      42.733  30.520  36.087  1.00  0.00     0.031 C 
ATOM     61  C   UNL A   1      43.130  29.111  34.083  1.00  0.00     0.037 A 
BRANCH  48  62
ATOM     62  C   UNL A   1      40.913  27.763  28.475  1.00  0.00     0.064 A 
ATOM     63  C   UNL A   1      41.674  28.191  27.376  1.00  0.00     0.173 A 
ATOM     64  C   UNL A   1      40.222  26.547  28.358  1.00  0.00     0.173 A 
ATOM     65  F   UNL A   1      42.349  29.350  27.430  1.00  0.00    -0.203 F 
ATOM     66  C   UNL A   1      41.737  27.435  26.209  1.00  0.00     0.198 A 
ATOM     67  C   UNL A   1      40.314  25.778  27.201  1.00  0.00     0.198 A 
ATOM     68  F   UNL A   1      39.485  26.089  29.381  1.00  0.00    -0.203 F 
ATOM     69  F   UNL A   1      42.450  27.877  25.163  1.00  0.00    -0.200 F 
ATOM     70  C   UNL A   1      41.064  26.226  26.125  1.00  0.00     0.200 A 
ATOM     71  F   UNL A   1      39.684  24.597  27.132  1.00  0.00    -0.200 F 
ATOM     72  F   UNL A   1      41.142  25.490  25.007  1.00  0.00    -0.200 F 
ENDBRANCH  48  62
BRANCH  49  73
ATOM     73  C   UNL A   1      39.655  33.382  36.626  1.00  0.00     0.064 A 
ATOM     74  C   UNL A   1      38.773  32.980  37.640  1.00  0.00     0.173 A 
ATOM     75  C   UNL A   1      40.273  34.633  36.753  1.00  0.00     0.173 A 
ATOM     76  F   UNL A   1      38.149  31.796  37.557  1.00  0.00    -0.203 F 
ATOM     77  C   UNL A   1      38.491  33.814  38.719  1.00  0.00     0.198 A 
ATOM     78  C   UNL A   1      40.010  35.455  37.846  1.00  0.00     0.198 A 
ATOM     79  F   UNL A   1      41.137  35.051  35.817  1.00  0.00    -0.203 F 
ATOM     80  F   UNL A   1      37.606  33.429  39.648  1.00  0.00    -0.200 F 
ATOM     81  C   UNL A   1      39.110  35.051  38.821  1.00  0.00     0.200 A 
ATOM     82  F   UNL A   1      40.621  36.643  37.950  1.00  0.00    -0.200 F 
ATOM     83  F   UNL A   1      38.835  35.856  39.857  1.00  0.00    -0.200 F 
ENDBRANCH  49  73
BRANCH  61  84
ATOM     84  C   UNL A   1      44.315  28.504  34.775  1.00  0.00     0.064 A 
ATOM     85  C   UNL A   1      44.161  27.372  35.591  1.00  0.00     0.173 A 
ATOM     86  C   UNL A   1      45.586  29.093  34.704  1.00  0.00     0.173 A 
ATOM     87  F   UNL A   1      42.964  26.776  35.699  1.00  0.00    -0.203 F 
ATOM     88  C   UNL A   1      45.228  26.866  36.327  1.00  0.00     0.198 A 
ATOM     89  C   UNL A   1      46.659  28.567  35.419  1.00  0.00     0.198 A 
ATOM     90  F   UNL A   1      45.788  30.168  33.927  1.00  0.00    -0.203 F 
ATOM     91  F   UNL A   1      45.047  25.810  37.130  1.00  0.00    -0.200 F 
ATOM     92  C   UNL A   1      46.477  27.463  36.238  1.00  0.00     0.200 A 
ATOM     93  F   UNL A   1      47.871  29.130  35.314  1.00  0.00    -0.200 F 
ATOM     94  F   UNL A   1      47.506  26.972  36.941  1.00  0.00    -0.200 F 
ENDBRANCH  61  84
ENDBRANCH  35  36
ENDBRANCH  27  30
ENDBRANCH  25  26
ENDBRANCH  24  25
ENDBRANCH  23  24
ENDBRANCH   3  23
TORSDOF 15
ENDMDL
MODEL 3
REMARK VINA RESULT:     -11.5      4.047      9.249
REMARK SMILES CN(CCS(C)(=O)=O)S(=O)(=O)c1cc(C(=O)NCCCNC(=O)c2ccc(-c3c4nc(c(-c5c(F)c(F)c(F)c(F)c5F)c5ccc([nH]5)c(-c5c(F)c(F)c(F)c(F)c5F)c5nc(c(-c6c(F)c(F)c(F)c(F)c6F)c6ccc3[nH]6)C=C5)C=C4)cc2)ccc1F
REMARK SMILES IDX 15 1 16 2 17 3 14 5 12 6 13 7 89 8 88 9 90 10 87 11 9 12
REMARK SMILES IDX 10 13 11 14 2 15 1 16 3 17 4 18 5 19 6 20 7 21 8 22 18 23
REMARK SMILES IDX 19 24 20 25 21 26 22 27 23 29 24 30 25 31 86 32 26 33 85 34
REMARK SMILES IDX 27 35 28 36 29 37 79 38 30 39 84 40 78 41 80 42 31 43 83 44
REMARK SMILES IDX 77 45 76 46 32 48 64 49 44 50 63 51 45 52 48 53 62 54 81 55
REMARK SMILES IDX 46 56 47 57 61 59 82 60 49 61 33 62 34 63 42 64 35 65 36 66
REMARK SMILES IDX 40 67 43 68 37 69 38 70 41 71 39 72 65 73 66 74 74 75 67 76
REMARK SMILES IDX 68 77 72 78 75 79 69 80 70 81 73 82 71 83 50 84 51 85 59 86
REMARK SMILES IDX 52 87 53 88 57 89 60 90 54 91 55 92 58 93 56 94
REMARK H PARENT 17 4 21 28 80 47 48 58
REMARK Flexibility Score: inf
ROOT
ATOM      1  C   UNL A   1      33.707  29.360  26.198  1.00  0.00     0.251 C 
ATOM      2  O   UNL A   1      34.837  29.216  26.661  1.00  0.00    -0.269 OA
ATOM      3  N   UNL A   1      32.884  30.276  26.799  1.00  0.00    -0.352 N 
ATOM      4  H   UNL A   1      33.278  30.700  27.596  1.00  0.00     0.163 HD
ENDROOT
BRANCH   1   5
ATOM      5  C   UNL A   1      33.304  28.512  25.041  1.00  0.00     0.041 A 
ATOM      6  C   UNL A   1      31.691  26.933  24.131  1.00  0.00     0.119 A 
ATOM      7  C   UNL A   1      32.224  27.626  25.226  1.00  0.00     0.038 A 
ATOM      8  C   UNL A   1      32.267  27.058  22.874  1.00  0.00     0.143 A 
ATOM      9  C   UNL A   1      33.341  27.920  22.683  1.00  0.00     0.041 A 
ATOM     10  F   UNL A   1      31.766  26.429  21.805  1.00  0.00    -0.206 F 
ATOM     11  C   UNL A   1      33.834  28.671  23.756  1.00  0.00     0.017 A 
BRANCH   6  12
ATOM     12  S   UNL A   1      30.201  26.002  24.272  1.00  0.00     0.245 S 
ATOM     13  O   UNL A   1      29.852  25.876  25.671  1.00  0.00    -0.207 OA
ATOM     14  O   UNL A   1      30.336  24.820  23.451  1.00  0.00    -0.207 OA
BRANCH  12  15
ATOM     15  N   UNL A   1      29.040  27.032  23.566  1.00  0.00    -0.200 NA
ATOM     16  C   UNL A   1      27.636  26.701  23.876  1.00  0.00     0.124 C 
BRANCH  15  17
ATOM     17  C   UNL A   1      29.330  28.482  23.376  1.00  0.00     0.118 C 
BRANCH  17  18
ATOM     18  C   UNL A   1      28.266  29.332  22.708  1.00  0.00     0.153 C 
BRANCH  18  19
ATOM     19  S   UNL A   1      28.180  31.049  23.200  1.00  0.00     0.148 S 
ATOM     20  C   UNL A   1      28.092  32.023  21.713  1.00  0.00     0.158 C 
ATOM     21  O   UNL A   1      26.905  31.219  23.875  1.00  0.00    -0.229 OA
ATOM     22  O   UNL A   1      29.409  31.405  23.873  1.00  0.00    -0.229 OA
ENDBRANCH  18  19
ENDBRANCH  17  18
ENDBRANCH  15  17
ENDBRANCH  12  15
ENDBRANCH   6  12
ENDBRANCH   1   5
BRANCH   3  23
ATOM     23  C   UNL A   1      31.545  30.744  26.489  1.00  0.00     0.118 C 
BRANCH  23  24
ATOM     24  C   UNL A   1      31.397  32.242  26.770  1.00  0.00     0.042 C 
BRANCH  24  25
ATOM     25  C   UNL A   1      32.724  32.955  27.036  1.00  0.00     0.118 C 
BRANCH  25  26
ATOM     26  N   UNL A   1      32.527  34.269  27.634  1.00  0.00    -0.352 N 
ATOM     27  C   UNL A   1      33.089  34.847  28.744  1.00  0.00     0.251 C 
ATOM     28  H   UNL A   1      31.882  34.840  27.159  1.00  0.00     0.163 HD
ATOM     29  O   UNL A   1      32.597  35.880  29.193  1.00  0.00    -0.269 OA
BRANCH  27  30
ATOM     30  C   UNL A   1      34.268  34.254  29.414  1.00  0.00     0.039 A 
ATOM     31  C   UNL A   1      34.058  33.395  30.499  1.00  0.00     0.014 A 
ATOM     32  C   UNL A   1      35.572  34.589  29.040  1.00  0.00     0.014 A 
ATOM     33  C   UNL A   1      35.147  32.833  31.170  1.00  0.00     0.010 A 
ATOM     34  C   UNL A   1      36.657  33.975  29.666  1.00  0.00     0.010 A 
ATOM     35  C   UNL A   1      36.457  33.094  30.738  1.00  0.00    -0.014 A 
BRANCH  35  36
ATOM     36  C   UNL A   1      37.624  32.437  31.384  1.00  0.00     0.031 A 
ATOM     37  C   UNL A   1      38.360  31.327  30.689  1.00  0.00     0.074 A 
ATOM     38  C   UNL A   1      37.977  32.799  32.632  1.00  0.00     0.049 A 
ATOM     39  N   UNL A   1      39.351  30.591  31.126  1.00  0.00    -0.248 NA
ATOM     40  C   UNL A   1      37.906  30.979  29.334  1.00  0.00     0.031 C 
ATOM     41  C   UNL A   1      37.315  33.833  33.427  1.00  0.00     0.029 A 
ATOM     42  N   UNL A   1      38.972  32.331  33.455  1.00  0.00    -0.354 N 
ATOM     43  C   UNL A   1      39.627  29.685  30.111  1.00  0.00     0.074 A 
ATOM     44  C   UNL A   1      38.669  29.931  29.054  1.00  0.00     0.031 C 
ATOM     45  C   UNL A   1      37.934  33.937  34.613  1.00  0.00     0.029 A 
ATOM     46  C   UNL A   1      39.009  32.952  34.679  1.00  0.00     0.049 A 
ATOM     47  H   UNL A   1      39.599  31.619  33.193  1.00  0.00     0.167 HD
ATOM     48  C   UNL A   1      40.603  28.748  30.059  1.00  0.00     0.037 A 
ATOM     49  C   UNL A   1      39.812  32.747  35.741  1.00  0.00     0.037 A 
ATOM     50  C   UNL A   1      41.571  28.528  31.102  1.00  0.00     0.049 A 
ATOM     51  C   UNL A   1      40.887  31.702  35.663  1.00  0.00     0.074 A 
ATOM     52  C   UNL A   1      42.646  27.656  31.108  1.00  0.00     0.029 A 
ATOM     53  N   UNL A   1      41.579  29.180  32.327  1.00  0.00    -0.354 N 
ATOM     54  N   UNL A   1      41.180  30.894  34.674  1.00  0.00    -0.248 NA
ATOM     55  C   UNL A   1      41.746  31.540  36.845  1.00  0.00     0.031 C 
ATOM     56  C   UNL A   1      43.269  27.738  32.358  1.00  0.00     0.029 A 
ATOM     57  C   UNL A   1      42.620  28.705  33.109  1.00  0.00     0.049 A 
ATOM     58  H   UNL A   1      40.939  29.877  32.600  1.00  0.00     0.167 HD
ATOM     59  C   UNL A   1      42.263  30.139  35.103  1.00  0.00     0.074 A 
ATOM     60  C   UNL A   1      42.585  30.594  36.440  1.00  0.00     0.031 C 
ATOM     61  C   UNL A   1      42.928  29.159  34.444  1.00  0.00     0.037 A 
BRANCH  48  62
ATOM     62  C   UNL A   1      40.678  27.883  28.833  1.00  0.00     0.064 A 
ATOM     63  C   UNL A   1      41.444  28.283  27.726  1.00  0.00     0.173 A 
ATOM     64  C   UNL A   1      39.952  26.686  28.728  1.00  0.00     0.173 A 
ATOM     65  F   UNL A   1      42.151  29.422  27.768  1.00  0.00    -0.203 F 
ATOM     66  C   UNL A   1      41.477  27.518  26.563  1.00  0.00     0.198 A 
ATOM     67  C   UNL A   1      40.015  25.908  27.575  1.00  0.00     0.198 A 
ATOM     68  F   UNL A   1      39.210  26.255  29.759  1.00  0.00    -0.203 F 
ATOM     69  F   UNL A   1      42.195  27.934  25.510  1.00  0.00    -0.200 F 
ATOM     70  C   UNL A   1      40.770  26.328  26.491  1.00  0.00     0.200 A 
ATOM     71  F   UNL A   1      39.351  24.745  27.518  1.00  0.00    -0.200 F 
ATOM     72  F   UNL A   1      40.820  25.583  25.377  1.00  0.00    -0.200 F 
ENDBRANCH  48  62
BRANCH  49  73
ATOM     73  C   UNL A   1      39.634  33.592  36.950  1.00  0.00     0.064 A 
ATOM     74  C   UNL A   1      38.786  33.198  37.996  1.00  0.00     0.173 A 
ATOM     75  C   UNL A   1      40.246  34.849  37.043  1.00  0.00     0.173 A 
ATOM     76  F   UNL A   1      38.169  32.008  37.949  1.00  0.00    -0.203 F 
ATOM     77  C   UNL A   1      38.532  34.044  39.073  1.00  0.00     0.198 A 
ATOM     78  C   UNL A   1      40.011  35.684  38.133  1.00  0.00     0.198 A 
ATOM     79  F   UNL A   1      41.078  35.261  36.075  1.00  0.00    -0.203 F 
ATOM     80  F   UNL A   1      37.678  33.665  40.034  1.00  0.00    -0.200 F 
ATOM     81  C   UNL A   1      39.145  35.286  39.140  1.00  0.00     0.200 A 
ATOM     82  F   UNL A   1      40.617  36.877  38.202  1.00  0.00    -0.200 F 
ATOM     83  F   UNL A   1      38.896  36.103  40.173  1.00  0.00    -0.200 F 
ENDBRANCH  49  73
BRANCH  61  84
ATOM     84  C   UNL A   1      44.082  28.504  35.145  1.00  0.00     0.064 A 
ATOM     85  C   UNL A   1      43.876  27.377  35.955  1.00  0.00     0.173 A 
ATOM     86  C   UNL A   1      45.375  29.043  35.087  1.00  0.00     0.173 A 
ATOM     87  F   UNL A   1      42.656  26.827  36.050  1.00  0.00    -0.203 F 
ATOM     88  C   UNL A   1      44.916  26.827  36.699  1.00  0.00     0.198 A 
ATOM     89  C   UNL A   1      46.420  28.473  35.810  1.00  0.00     0.198 A 
ATOM     90  F   UNL A   1      45.626  30.112  34.316  1.00  0.00    -0.203 F 
ATOM     91  F   UNL A   1      44.686  25.776  37.497  1.00  0.00    -0.200 F 
ATOM     92  C   UNL A   1      46.188  27.375  36.623  1.00  0.00     0.200 A 
ATOM     93  F   UNL A   1      47.655  28.988  35.718  1.00  0.00    -0.200 F 
ATOM     94  F   UNL A   1      47.191  26.841  37.334  1.00  0.00    -0.200 F 
ENDBRANCH  61  84
ENDBRANCH  35  36
ENDBRANCH  27  30
ENDBRANCH  25  26
ENDBRANCH  24  25
ENDBRANCH  23  24
ENDBRANCH   3  23
TORSDOF 15
ENDMDL
