MODEL 1
REMARK VINA RESULT:     -11.5      0.000      0.000
REMARK SMILES CCOC(=O)[C@@H]1CCCCN1C(=O)N[C@](C)(CC)C(=O)NCCCNC(=O)c1ccc(-c2c3nc(c(-c4c(F)c(F)c(F)c(F)c4F)c4ccc([nH]4)c(-c4c(F)c(F)c(F)c(F)c4F)c4nc(c(-c5c(F)c(F)c(F)c(F)c5F)c5ccc2[nH]5)C=C4)C=C3)cc1
REMARK SMILES IDX 19 1 20 2 21 3 15 5 16 6 14 7 12 8 13 9 11 11 6 12 7 13 8 14
REMARK SMILES IDX 10 15 9 16 4 17 5 18 3 19 2 20 1 21 17 22 18 23 22 24 23 25
REMARK SMILES IDX 24 26 25 27 26 28 27 30 28 31 29 32 90 33 30 34 89 35 31 36
REMARK SMILES IDX 32 37 33 38 83 39 34 40 88 41 82 42 84 43 35 44 87 45 81 46
REMARK SMILES IDX 80 47 36 49 68 50 48 51 67 52 49 53 52 54 66 55 85 56 50 57
REMARK SMILES IDX 51 58 65 60 86 61 53 62 37 63 38 64 46 65 39 66 40 67 44 68
REMARK SMILES IDX 47 69 41 70 42 71 45 72 43 73 69 74 70 75 78 76 71 77 72 78
REMARK SMILES IDX 76 79 79 80 73 81 74 82 77 83 75 84 54 85 55 86 63 87 56 88
REMARK SMILES IDX 57 89 61 90 64 91 58 92 59 93 62 94 60 95
REMARK H PARENT 21 4 14 10 25 29 84 48 52 59
REMARK Flexibility Score: inf
ROOT
ATOM      1  C   UNL A   1      33.956  29.144  26.915  1.00  0.00     0.245 C 
ATOM      2  O   UNL A   1      35.038  29.090  27.506  1.00  0.00    -0.272 OA
ATOM      3  N   UNL A   1      33.145  30.202  27.221  1.00  0.00    -0.354 N 
ATOM      4  H   UNL A   1      33.538  30.849  27.851  1.00  0.00     0.163 HD
ENDROOT
BRANCH   1   5
ATOM      5  C   UNL A   1      33.481  28.004  25.969  1.00  0.00     0.117 C 
ATOM      6  C   UNL A   1      34.373  26.751  25.956  1.00  0.00     0.045 C 
BRANCH   5   7
ATOM      7  N   UNL A   1      33.310  28.520  24.590  1.00  0.00    -0.324 N 
ATOM      8  C   UNL A   1      33.034  28.065  23.355  1.00  0.00     0.319 C 
ATOM      9  O   UNL A   1      33.164  28.944  22.498  1.00  0.00    -0.249 OA
ATOM     10  H   UNL A   1      33.434  29.496  24.573  1.00  0.00     0.166 HD
BRANCH   8  11
ATOM     11  N   UNL A   1      32.743  26.768  23.026  1.00  0.00    -0.311 N 
ATOM     12  C   UNL A   1      31.337  26.453  22.626  1.00  0.00     0.196 C 
ATOM     13  C   UNL A   1      30.941  25.023  23.065  1.00  0.00     0.037 C 
ATOM     14  C   UNL A   1      31.921  23.972  22.572  1.00  0.00     0.005 C 
ATOM     15  C   UNL A   1      33.692  25.734  22.615  1.00  0.00     0.122 C 
ATOM     16  C   UNL A   1      33.315  24.326  23.052  1.00  0.00     0.022 C 
BRANCH  12  17
ATOM     17  C   UNL A   1      30.124  27.321  23.022  1.00  0.00     0.328 C 
ATOM     18  O   UNL A   1      29.528  27.156  24.085  1.00  0.00    -0.250 OA
BRANCH  17  19
ATOM     19  O   UNL A   1      29.927  28.374  22.182  1.00  0.00    -0.464 OA
BRANCH  19  20
ATOM     20  C   UNL A   1      28.806  29.207  22.509  1.00  0.00     0.229 C 
ATOM     21  C   UNL A   1      29.255  30.489  23.191  1.00  0.00     0.049 C 
ENDBRANCH  19  20
ENDBRANCH  17  19
ENDBRANCH  12  17
ENDBRANCH   8  11
ENDBRANCH   5   7
BRANCH   5  22
ATOM     22  C   UNL A   1      32.078  27.562  26.522  1.00  0.00     0.035 C 
ATOM     23  C   UNL A   1      31.820  26.054  26.495  1.00  0.00     0.007 C 
ENDBRANCH   5  22
ENDBRANCH   1   5
BRANCH   3  24
ATOM     24  C   UNL A   1      31.799  30.535  26.774  1.00  0.00     0.117 C 
BRANCH  24  25
ATOM     25  C   UNL A   1      31.571  32.037  26.788  1.00  0.00     0.042 C 
BRANCH  25  26
ATOM     26  C   UNL A   1      32.729  32.803  27.401  1.00  0.00     0.118 C 
BRANCH  26  27
ATOM     27  N   UNL A   1      32.415  34.204  27.643  1.00  0.00    -0.352 N 
ATOM     28  C   UNL A   1      32.980  35.050  28.566  1.00  0.00     0.251 C 
ATOM     29  H   UNL A   1      31.710  34.593  27.076  1.00  0.00     0.163 HD
ATOM     30  O   UNL A   1      32.526  36.173  28.757  1.00  0.00    -0.269 OA
BRANCH  28  31
ATOM     31  C   UNL A   1      34.127  34.570  29.359  1.00  0.00     0.039 A 
ATOM     32  C   UNL A   1      33.891  33.997  30.609  1.00  0.00     0.014 A 
ATOM     33  C   UNL A   1      35.421  34.626  28.833  1.00  0.00     0.014 A 
ATOM     34  C   UNL A   1      34.951  33.419  31.309  1.00  0.00     0.010 A 
ATOM     35  C   UNL A   1      36.457  33.975  29.490  1.00  0.00     0.010 A 
ATOM     36  C   UNL A   1      36.233  33.370  30.737  1.00  0.00    -0.014 A 
BRANCH  36  37
ATOM     37  C   UNL A   1      37.362  32.711  31.437  1.00  0.00     0.031 A 
ATOM     38  C   UNL A   1      38.067  31.552  30.788  1.00  0.00     0.074 A 
ATOM     39  C   UNL A   1      37.710  33.114  32.673  1.00  0.00     0.049 A 
ATOM     40  N   UNL A   1      39.023  30.796  31.260  1.00  0.00    -0.248 NA
ATOM     41  C   UNL A   1      37.614  31.175  29.439  1.00  0.00     0.031 C 
ATOM     42  C   UNL A   1      37.068  34.194  33.427  1.00  0.00     0.029 A 
ATOM     43  N   UNL A   1      38.688  32.657  33.521  1.00  0.00    -0.354 N 
ATOM     44  C   UNL A   1      39.275  29.850  30.276  1.00  0.00     0.074 A 
ATOM     45  C   UNL A   1      38.332  30.086  29.206  1.00  0.00     0.031 C 
ATOM     46  C   UNL A   1      37.684  34.331  34.612  1.00  0.00     0.029 A 
ATOM     47  C   UNL A   1      38.738  33.328  34.719  1.00  0.00     0.049 A 
ATOM     48  H   UNL A   1      39.296  31.917  33.293  1.00  0.00     0.167 HD
ATOM     49  C   UNL A   1      40.228  28.888  30.253  1.00  0.00     0.037 A 
ATOM     50  C   UNL A   1      39.543  33.147  35.783  1.00  0.00     0.037 A 
ATOM     51  C   UNL A   1      41.185  28.677  31.306  1.00  0.00     0.049 A 
ATOM     52  C   UNL A   1      40.593  32.069  35.731  1.00  0.00     0.074 A 
ATOM     53  C   UNL A   1      42.225  27.766  31.356  1.00  0.00     0.029 A 
ATOM     54  N   UNL A   1      41.221  29.394  32.492  1.00  0.00    -0.354 N 
ATOM     55  N   UNL A   1      40.865  31.224  34.767  1.00  0.00    -0.248 NA
ATOM     56  C   UNL A   1      41.455  31.926  36.913  1.00  0.00     0.031 C 
ATOM     57  C   UNL A   1      42.865  27.903  32.591  1.00  0.00     0.029 A 
ATOM     58  C   UNL A   1      42.255  28.933  33.290  1.00  0.00     0.049 A 
ATOM     59  H   UNL A   1      40.603  30.121  32.732  1.00  0.00     0.167 HD
ATOM     60  C   UNL A   1      41.943  30.472  35.211  1.00  0.00     0.074 A 
ATOM     61  C   UNL A   1      42.288  30.972  36.525  1.00  0.00     0.031 C 
ATOM     62  C   UNL A   1      42.591  29.455  34.589  1.00  0.00     0.037 A 
BRANCH  49  63
ATOM     63  C   UNL A   1      40.291  28.001  29.044  1.00  0.00     0.064 A 
ATOM     64  C   UNL A   1      39.589  26.788  28.988  1.00  0.00     0.173 A 
ATOM     65  C   UNL A   1      41.026  28.388  27.913  1.00  0.00     0.173 A 
ATOM     66  F   UNL A   1      38.883  26.366  30.048  1.00  0.00    -0.203 F 
ATOM     67  C   UNL A   1      39.639  25.982  27.854  1.00  0.00     0.198 A 
ATOM     68  C   UNL A   1      41.050  27.593  26.770  1.00  0.00     0.198 A 
ATOM     69  F   UNL A   1      41.713  29.539  27.913  1.00  0.00    -0.203 F 
ATOM     70  F   UNL A   1      38.997  24.805  27.841  1.00  0.00    -0.200 F 
ATOM     71  C   UNL A   1      40.362  26.390  26.743  1.00  0.00     0.200 A 
ATOM     72  F   UNL A   1      41.739  27.994  25.692  1.00  0.00    -0.200 F 
ATOM     73  F   UNL A   1      40.401  25.618  25.648  1.00  0.00    -0.200 F 
ENDBRANCH  49  63
BRANCH  50  74
ATOM     74  C   UNL A   1      39.407  34.017  36.982  1.00  0.00     0.064 A 
ATOM     75  C   UNL A   1      40.039  35.267  37.039  1.00  0.00     0.173 A 
ATOM     76  C   UNL A   1      38.667  33.609  38.102  1.00  0.00     0.173 A 
ATOM     77  F   UNL A   1      40.776  35.693  36.002  1.00  0.00    -0.203 F 
ATOM     78  C   UNL A   1      39.960  36.063  38.180  1.00  0.00     0.198 A 
ATOM     79  C   UNL A   1      38.564  34.419  39.230  1.00  0.00     0.198 A 
ATOM     80  F   UNL A   1      38.039  32.424  38.096  1.00  0.00    -0.203 F 
ATOM     81  F   UNL A   1      40.620  37.228  38.228  1.00  0.00    -0.200 F 
ATOM     82  C   UNL A   1      39.219  35.641  39.273  1.00  0.00     0.200 A 
ATOM     83  F   UNL A   1      37.836  34.014  40.279  1.00  0.00    -0.200 F 
ATOM     84  F   UNL A   1      39.146  36.405  40.371  1.00  0.00    -0.200 F 
ENDBRANCH  50  74
BRANCH  62  85
ATOM     85  C   UNL A   1      43.760  28.846  35.304  1.00  0.00     0.064 A 
ATOM     86  C   UNL A   1      43.602  27.768  36.187  1.00  0.00     0.173 A 
ATOM     87  C   UNL A   1      45.060  29.319  35.068  1.00  0.00     0.173 A 
ATOM     88  F   UNL A   1      42.378  27.289  36.456  1.00  0.00    -0.203 F 
ATOM     89  C   UNL A   1      44.701  27.203  36.828  1.00  0.00     0.198 A 
ATOM     90  C   UNL A   1      46.159  28.733  35.687  1.00  0.00     0.198 A 
ATOM     91  F   UNL A   1      45.264  30.343  34.226  1.00  0.00    -0.203 F 
ATOM     92  F   UNL A   1      44.522  26.205  37.704  1.00  0.00    -0.200 F 
ATOM     93  C   UNL A   1      45.978  27.680  36.573  1.00  0.00     0.200 A 
ATOM     94  F   UNL A   1      47.394  29.185  35.428  1.00  0.00    -0.200 F 
ATOM     95  F   UNL A   1      47.035  27.129  37.185  1.00  0.00    -0.200 F 
ENDBRANCH  62  85
ENDBRANCH  36  37
ENDBRANCH  28  31
ENDBRANCH  26  27
ENDBRANCH  25  26
ENDBRANCH  24  25
ENDBRANCH   3  24
TORSDOF 16
ENDMDL
MODEL 2
REMARK VINA RESULT:     -11.4      2.449      4.514
REMARK SMILES CCOC(=O)[C@@H]1CCCCN1C(=O)N[C@](C)(CC)C(=O)NCCCNC(=O)c1ccc(-c2c3nc(c(-c4c(F)c(F)c(F)c(F)c4F)c4ccc([nH]4)c(-c4c(F)c(F)c(F)c(F)c4F)c4nc(c(-c5c(F)c(F)c(F)c(F)c5F)c5ccc2[nH]5)C=C4)C=C3)cc1
REMARK SMILES IDX 19 1 20 2 21 3 15 5 16 6 14 7 12 8 13 9 11 11 6 12 7 13 8 14
REMARK SMILES IDX 10 15 9 16 4 17 5 18 3 19 2 20 1 21 17 22 18 23 22 24 23 25
REMARK SMILES IDX 24 26 25 27 26 28 27 30 28 31 29 32 90 33 30 34 89 35 31 36
REMARK SMILES IDX 32 37 33 38 83 39 34 40 88 41 82 42 84 43 35 44 87 45 81 46
REMARK SMILES IDX 80 47 36 49 68 50 48 51 67 52 49 53 52 54 66 55 85 56 50 57
REMARK SMILES IDX 51 58 65 60 86 61 53 62 37 63 38 64 46 65 39 66 40 67 44 68
REMARK SMILES IDX 47 69 41 70 42 71 45 72 43 73 69 74 70 75 78 76 71 77 72 78
REMARK SMILES IDX 76 79 79 80 73 81 74 82 77 83 75 84 54 85 55 86 63 87 56 88
REMARK SMILES IDX 57 89 61 90 64 91 58 92 59 93 62 94 60 95
REMARK H PARENT 21 4 14 10 25 29 84 48 52 59
REMARK Flexibility Score: inf
ROOT
ATOM      1  C   UNL A   1      32.879  25.917  21.530  1.00  0.00     0.245 C 
ATOM      2  O   UNL A   1      33.118  25.598  20.362  1.00  0.00    -0.272 OA
ATOM      3  N   UNL A   1      32.881  27.256  21.810  1.00  0.00    -0.354 N 
ATOM      4  H   UNL A   1      33.022  27.836  21.028  1.00  0.00     0.163 HD
ENDROOT
BRANCH   1   5
ATOM      5  C   UNL A   1      32.712  24.853  22.652  1.00  0.00     0.117 C 
ATOM      6  C   UNL A   1      31.273  24.660  23.162  1.00  0.00     0.045 C 
BRANCH   5   7
ATOM      7  N   UNL A   1      33.616  25.156  23.786  1.00  0.00    -0.324 N 
ATOM      8  C   UNL A   1      34.156  24.546  24.856  1.00  0.00     0.319 C 
ATOM      9  O   UNL A   1      34.749  25.339  25.593  1.00  0.00    -0.249 OA
ATOM     10  H   UNL A   1      33.914  26.094  23.743  1.00  0.00     0.166 HD
BRANCH   8  11
ATOM     11  N   UNL A   1      34.006  23.225  25.184  1.00  0.00    -0.311 N 
ATOM     12  C   UNL A   1      35.191  22.329  25.017  1.00  0.00     0.196 C 
ATOM     13  C   UNL A   1      34.755  20.898  24.621  1.00  0.00     0.037 C 
ATOM     14  C   UNL A   1      33.733  20.316  25.582  1.00  0.00     0.005 C 
ATOM     15  C   UNL A   1      32.981  22.651  26.056  1.00  0.00     0.122 C 
ATOM     16  C   UNL A   1      32.540  21.247  25.667  1.00  0.00     0.022 C 
BRANCH  12  17
ATOM     17  C   UNL A   1      36.369  22.642  24.071  1.00  0.00     0.328 C 
ATOM     18  O   UNL A   1      36.194  22.900  22.882  1.00  0.00    -0.250 OA
BRANCH  17  19
ATOM     19  O   UNL A   1      37.553  22.789  24.727  1.00  0.00    -0.464 OA
BRANCH  19  20
ATOM     20  C   UNL A   1      37.437  23.117  26.118  1.00  0.00     0.229 C 
ATOM     21  C   UNL A   1      38.448  24.180  26.518  1.00  0.00     0.049 C 
ENDBRANCH  19  20
ENDBRANCH  17  19
ENDBRANCH  12  17
ENDBRANCH   8  11
ENDBRANCH   5   7
BRANCH   5  22
ATOM     22  C   UNL A   1      33.154  23.491  22.003  1.00  0.00     0.035 C 
ATOM     23  C   UNL A   1      32.226  22.309  22.289  1.00  0.00     0.007 C 
ENDBRANCH   5  22
ENDBRANCH   1   5
BRANCH   3  24
ATOM     24  C   UNL A   1      32.709  27.969  23.069  1.00  0.00     0.117 C 
BRANCH  24  25
ATOM     25  C   UNL A   1      34.018  28.578  23.538  1.00  0.00     0.042 C 
BRANCH  25  26
ATOM     26  C   UNL A   1      34.035  28.866  25.029  1.00  0.00     0.118 C 
BRANCH  26  27
ATOM     27  N   UNL A   1      33.164  29.972  25.400  1.00  0.00    -0.352 N 
ATOM     28  C   UNL A   1      33.218  30.748  26.532  1.00  0.00     0.251 C 
ATOM     29  H   UNL A   1      32.447  30.191  24.761  1.00  0.00     0.163 HD
ATOM     30  O   UNL A   1      32.337  31.563  26.785  1.00  0.00    -0.269 OA
BRANCH  28  31
ATOM     31  C   UNL A   1      34.342  30.558  27.468  1.00  0.00     0.039 A 
ATOM     32  C   UNL A   1      34.466  29.339  28.137  1.00  0.00     0.014 A 
ATOM     33  C   UNL A   1      35.304  31.559  27.628  1.00  0.00     0.014 A 
ATOM     34  C   UNL A   1      35.595  29.098  28.919  1.00  0.00     0.010 A 
ATOM     35  C   UNL A   1      36.467  31.286  28.337  1.00  0.00     0.010 A 
ATOM     36  C   UNL A   1      36.621  30.055  28.994  1.00  0.00    -0.014 A 
BRANCH  36  37
ATOM     37  C   UNL A   1      37.855  29.798  29.775  1.00  0.00     0.031 A 
ATOM     38  C   UNL A   1      38.900  28.865  29.230  1.00  0.00     0.074 A 
ATOM     39  C   UNL A   1      38.007  30.355  30.991  1.00  0.00     0.049 A 
ATOM     40  N   UNL A   1      40.010  28.452  29.784  1.00  0.00    -0.248 NA
ATOM     41  C   UNL A   1      38.648  28.296  27.896  1.00  0.00     0.031 C 
ATOM     42  C   UNL A   1      37.039  31.237  31.647  1.00  0.00     0.029 A 
ATOM     43  N   UNL A   1      39.030  30.254  31.900  1.00  0.00    -0.354 N 
ATOM     44  C   UNL A   1      40.578  27.568  28.875  1.00  0.00     0.074 A 
ATOM     45  C   UNL A   1      39.663  27.456  27.761  1.00  0.00     0.031 C 
ATOM     46  C   UNL A   1      37.526  31.615  32.840  1.00  0.00     0.029 A 
ATOM     47  C   UNL A   1      38.821  30.976  33.050  1.00  0.00     0.049 A 
ATOM     48  H   UNL A   1      39.838  29.715  31.743  1.00  0.00     0.167 HD
ATOM     49  C   UNL A   1      41.770  26.931  28.949  1.00  0.00     0.037 A 
ATOM     50  C   UNL A   1      39.587  31.099  34.150  1.00  0.00     0.037 A 
ATOM     51  C   UNL A   1      42.691  27.070  30.045  1.00  0.00     0.049 A 
ATOM     52  C   UNL A   1      40.907  30.378  34.206  1.00  0.00     0.074 A 
ATOM     53  C   UNL A   1      43.948  26.511  30.191  1.00  0.00     0.029 A 
ATOM     54  N   UNL A   1      42.455  27.830  31.180  1.00  0.00    -0.354 N 
ATOM     55  N   UNL A   1      41.463  29.598  33.311  1.00  0.00    -0.248 NA
ATOM     56  C   UNL A   1      41.711  30.561  35.423  1.00  0.00     0.031 C 
ATOM     57  C   UNL A   1      44.456  26.899  31.435  1.00  0.00     0.029 A 
ATOM     58  C   UNL A   1      43.537  27.740  32.041  1.00  0.00     0.049 A 
ATOM     59  H   UNL A   1      41.640  28.355  31.350  1.00  0.00     0.167 HD
ATOM     60  C   UNL A   1      42.690  29.223  33.841  1.00  0.00     0.074 A 
ATOM     61  C   UNL A   1      42.806  29.875  35.129  1.00  0.00     0.031 C 
ATOM     62  C   UNL A   1      43.638  28.410  33.312  1.00  0.00     0.037 A 
BRANCH  49  63
ATOM     63  C   UNL A   1      42.152  26.036  27.807  1.00  0.00     0.064 A 
ATOM     64  C   UNL A   1      41.729  24.700  27.750  1.00  0.00     0.173 A 
ATOM     65  C   UNL A   1      42.912  26.531  26.736  1.00  0.00     0.173 A 
ATOM     66  F   UNL A   1      41.013  24.174  28.755  1.00  0.00    -0.203 F 
ATOM     67  C   UNL A   1      42.073  23.884  26.676  1.00  0.00     0.198 A 
ATOM     68  C   UNL A   1      43.228  25.720  25.649  1.00  0.00     0.198 A 
ATOM     69  F   UNL A   1      43.339  27.802  26.739  1.00  0.00    -0.203 F 
ATOM     70  F   UNL A   1      41.696  22.597  26.665  1.00  0.00    -0.200 F 
ATOM     71  C   UNL A   1      42.815  24.397  25.623  1.00  0.00     0.200 A 
ATOM     72  F   UNL A   1      43.935  26.221  24.626  1.00  0.00    -0.200 F 
ATOM     73  F   UNL A   1      43.136  23.614  24.583  1.00  0.00    -0.200 F 
ENDBRANCH  49  63
BRANCH  50  74
ATOM     74  C   UNL A   1      39.141  31.956  35.282  1.00  0.00     0.064 A 
ATOM     75  C   UNL A   1      38.405  31.416  36.347  1.00  0.00     0.173 A 
ATOM     76  C   UNL A   1      39.419  33.330  35.312  1.00  0.00     0.173 A 
ATOM     77  F   UNL A   1      38.096  30.110  36.353  1.00  0.00    -0.203 F 
ATOM     78  C   UNL A   1      37.939  32.223  37.382  1.00  0.00     0.198 A 
ATOM     79  C   UNL A   1      38.978  34.130  36.364  1.00  0.00     0.198 A 
ATOM     80  F   UNL A   1      40.124  33.895  34.321  1.00  0.00    -0.203 F 
ATOM     81  F   UNL A   1      37.191  31.690  38.358  1.00  0.00    -0.200 F 
ATOM     82  C   UNL A   1      38.230  33.578  37.393  1.00  0.00     0.200 A 
ATOM     83  F   UNL A   1      39.272  35.437  36.378  1.00  0.00    -0.200 F 
ATOM     84  F   UNL A   1      37.779  34.354  38.388  1.00  0.00    -0.200 F 
ENDBRANCH  50  74
BRANCH  62  85
ATOM     85  C   UNL A   1      44.895  28.213  34.105  1.00  0.00     0.064 A 
ATOM     86  C   UNL A   1      45.991  29.078  33.973  1.00  0.00     0.173 A 
ATOM     87  C   UNL A   1      44.988  27.169  35.038  1.00  0.00     0.173 A 
ATOM     88  F   UNL A   1      45.957  30.081  33.084  1.00  0.00    -0.203 F 
ATOM     89  C   UNL A   1      47.144  28.890  34.730  1.00  0.00     0.198 A 
ATOM     90  C   UNL A   1      46.131  27.002  35.815  1.00  0.00     0.198 A 
ATOM     91  F   UNL A   1      43.964  26.319  35.206  1.00  0.00    -0.203 F 
ATOM     92  F   UNL A   1      48.197  29.700  34.554  1.00  0.00    -0.200 F 
ATOM     93  C   UNL A   1      47.211  27.858  35.655  1.00  0.00     0.200 A 
ATOM     94  F   UNL A   1      46.188  26.014  36.718  1.00  0.00    -0.200 F 
ATOM     95  F   UNL A   1      48.319  27.683  36.387  1.00  0.00    -0.200 F 
ENDBRANCH  62  85
ENDBRANCH  36  37
ENDBRANCH  28  31
ENDBRANCH  26  27
ENDBRANCH  25  26
ENDBRANCH  24  25
ENDBRANCH   3  24
TORSDOF 16
ENDMDL
MODEL 3
REMARK VINA RESULT:     -11.3      1.332      2.690
REMARK SMILES CCOC(=O)[C@@H]1CCCCN1C(=O)N[C@](C)(CC)C(=O)NCCCNC(=O)c1ccc(-c2c3nc(c(-c4c(F)c(F)c(F)c(F)c4F)c4ccc([nH]4)c(-c4c(F)c(F)c(F)c(F)c4F)c4nc(c(-c5c(F)c(F)c(F)c(F)c5F)c5ccc2[nH]5)C=C4)C=C3)cc1
REMARK SMILES IDX 19 1 20 2 21 3 15 5 16 6 14 7 12 8 13 9 11 11 6 12 7 13 8 14
REMARK SMILES IDX 10 15 9 16 4 17 5 18 3 19 2 20 1 21 17 22 18 23 22 24 23 25
REMARK SMILES IDX 24 26 25 27 26 28 27 30 28 31 29 32 90 33 30 34 89 35 31 36
REMARK SMILES IDX 32 37 33 38 83 39 34 40 88 41 82 42 84 43 35 44 87 45 81 46
REMARK SMILES IDX 80 47 36 49 68 50 48 51 67 52 49 53 52 54 66 55 85 56 50 57
REMARK SMILES IDX 51 58 65 60 86 61 53 62 37 63 38 64 46 65 39 66 40 67 44 68
REMARK SMILES IDX 47 69 41 70 42 71 45 72 43 73 69 74 70 75 78 76 71 77 72 78
REMARK SMILES IDX 76 79 79 80 73 81 74 82 77 83 75 84 54 85 55 86 63 87 56 88
REMARK SMILES IDX 57 89 61 90 64 91 58 92 59 93 62 94 60 95
REMARK H PARENT 21 4 14 10 25 29 84 48 52 59
REMARK Flexibility Score: inf
ROOT
ATOM      1  C   UNL A   1      33.659  29.032  26.484  1.00  0.00     0.245 C 
ATOM      2  O   UNL A   1      34.813  28.803  26.860  1.00  0.00    -0.272 OA
ATOM      3  N   UNL A   1      33.016  30.075  27.090  1.00  0.00    -0.354 N 
ATOM      4  H   UNL A   1      33.566  30.576  27.734  1.00  0.00     0.163 HD
ENDROOT
BRANCH   1   5
ATOM      5  C   UNL A   1      32.930  28.107  25.469  1.00  0.00     0.117 C 
ATOM      6  C   UNL A   1      31.774  28.765  24.696  1.00  0.00     0.045 C 
BRANCH   5   7
ATOM      7  N   UNL A   1      32.453  26.878  26.145  1.00  0.00    -0.324 N 
ATOM      8  C   UNL A   1      32.176  25.593  25.859  1.00  0.00     0.319 C 
ATOM      9  O   UNL A   1      31.642  25.010  26.807  1.00  0.00    -0.249 OA
ATOM     10  H   UNL A   1      32.289  27.056  27.100  1.00  0.00     0.166 HD
BRANCH   8  11
ATOM     11  N   UNL A   1      32.353  24.989  24.642  1.00  0.00    -0.311 N 
ATOM     12  C   UNL A   1      33.366  23.894  24.552  1.00  0.00     0.196 C 
ATOM     13  C   UNL A   1      34.040  23.872  23.159  1.00  0.00     0.037 C 
ATOM     14  C   UNL A   1      33.029  23.807  22.027  1.00  0.00     0.005 C 
ATOM     15  C   UNL A   1      31.409  24.980  23.524  1.00  0.00     0.122 C 
ATOM     16  C   UNL A   1      32.064  24.969  22.151  1.00  0.00     0.022 C 
BRANCH  12  17
ATOM     17  C   UNL A   1      34.539  23.735  25.542  1.00  0.00     0.328 C 
ATOM     18  O   UNL A   1      35.387  24.613  25.689  1.00  0.00    -0.250 OA
BRANCH  17  19
ATOM     19  O   UNL A   1      34.414  22.640  26.343  1.00  0.00    -0.464 OA
BRANCH  19  20
ATOM     20  C   UNL A   1      35.355  21.590  26.083  1.00  0.00     0.229 C 
ATOM     21  C   UNL A   1      34.832  20.634  25.023  1.00  0.00     0.049 C 
ENDBRANCH  19  20
ENDBRANCH  17  19
ENDBRANCH  12  17
ENDBRANCH   8  11
ENDBRANCH   5   7
BRANCH   5  22
ATOM     22  C   UNL A   1      34.021  27.709  24.409  1.00  0.00     0.035 C 
ATOM     23  C   UNL A   1      33.738  28.183  22.983  1.00  0.00     0.007 C 
ENDBRANCH   5  22
ENDBRANCH   1   5
BRANCH   3  24
ATOM     24  C   UNL A   1      31.654  30.573  26.943  1.00  0.00     0.117 C 
BRANCH  24  25
ATOM     25  C   UNL A   1      31.639  32.073  26.712  1.00  0.00     0.042 C 
BRANCH  25  26
ATOM     26  C   UNL A   1      32.740  32.797  27.465  1.00  0.00     0.118 C 
BRANCH  26  27
ATOM     27  N   UNL A   1      32.430  34.199  27.710  1.00  0.00    -0.352 N 
ATOM     28  C   UNL A   1      33.008  35.046  28.624  1.00  0.00     0.251 C 
ATOM     29  H   UNL A   1      31.718  34.588  27.152  1.00  0.00     0.163 HD
ATOM     30  O   UNL A   1      32.559  36.169  28.819  1.00  0.00    -0.269 OA
BRANCH  28  31
ATOM     31  C   UNL A   1      34.166  34.565  29.402  1.00  0.00     0.039 A 
ATOM     32  C   UNL A   1      33.948  34.005  30.661  1.00  0.00     0.014 A 
ATOM     33  C   UNL A   1      35.451  34.608  28.854  1.00  0.00     0.014 A 
ATOM     34  C   UNL A   1      35.015  33.426  31.348  1.00  0.00     0.010 A 
ATOM     35  C   UNL A   1      36.494  33.956  29.499  1.00  0.00     0.010 A 
ATOM     36  C   UNL A   1      36.287  33.364  30.755  1.00  0.00    -0.014 A 
BRANCH  36  37
ATOM     37  C   UNL A   1      37.423  32.704  31.442  1.00  0.00     0.031 A 
ATOM     38  C   UNL A   1      38.129  31.554  30.779  1.00  0.00     0.074 A 
ATOM     39  C   UNL A   1      37.778  33.098  32.680  1.00  0.00     0.049 A 
ATOM     40  N   UNL A   1      39.092  30.798  31.238  1.00  0.00    -0.248 NA
ATOM     41  C   UNL A   1      37.669  31.186  29.430  1.00  0.00     0.031 C 
ATOM     42  C   UNL A   1      37.137  34.169  33.446  1.00  0.00     0.029 A 
ATOM     43  N   UNL A   1      38.763  32.638  33.517  1.00  0.00    -0.354 N 
ATOM     44  C   UNL A   1      39.341  29.861  30.244  1.00  0.00     0.074 A 
ATOM     45  C   UNL A   1      38.390  30.102  29.183  1.00  0.00     0.031 C 
ATOM     46  C   UNL A   1      37.760  34.298  34.628  1.00  0.00     0.029 A 
ATOM     47  C   UNL A   1      38.819  33.299  34.720  1.00  0.00     0.049 A 
ATOM     48  H   UNL A   1      39.373  31.903  33.278  1.00  0.00     0.167 HD
ATOM     49  C   UNL A   1      40.298  28.904  30.207  1.00  0.00     0.037 A 
ATOM     50  C   UNL A   1      39.631  33.113  35.778  1.00  0.00     0.037 A 
ATOM     51  C   UNL A   1      41.263  28.688  31.251  1.00  0.00     0.049 A 
ATOM     52  C   UNL A   1      40.686  32.040  35.709  1.00  0.00     0.074 A 
ATOM     53  C   UNL A   1      42.307  27.781  31.287  1.00  0.00     0.029 A 
ATOM     54  N   UNL A   1      41.303  29.394  32.444  1.00  0.00    -0.354 N 
ATOM     55  N   UNL A   1      40.955  31.204  34.736  1.00  0.00    -0.248 NA
ATOM     56  C   UNL A   1      41.556  31.890  36.884  1.00  0.00     0.031 C 
ATOM     57  C   UNL A   1      42.955  27.910  32.519  1.00  0.00     0.029 A 
ATOM     58  C   UNL A   1      42.345  28.931  33.231  1.00  0.00     0.049 A 
ATOM     59  H   UNL A   1      40.684  30.117  32.694  1.00  0.00     0.167 HD
ATOM     60  C   UNL A   1      42.039  30.453  35.167  1.00  0.00     0.074 A 
ATOM     61  C   UNL A   1      42.391  30.943  36.483  1.00  0.00     0.031 C 
ATOM     62  C   UNL A   1      42.687  29.445  34.532  1.00  0.00     0.037 A 
BRANCH  49  63
ATOM     63  C   UNL A   1      40.357  28.027  28.990  1.00  0.00     0.064 A 
ATOM     64  C   UNL A   1      39.649  26.818  28.924  1.00  0.00     0.173 A 
ATOM     65  C   UNL A   1      41.093  28.420  27.863  1.00  0.00     0.173 A 
ATOM     66  F   UNL A   1      38.942  26.390  29.981  1.00  0.00    -0.203 F 
ATOM     67  C   UNL A   1      39.696  26.021  27.783  1.00  0.00     0.198 A 
ATOM     68  C   UNL A   1      41.113  27.636  26.712  1.00  0.00     0.198 A 
ATOM     69  F   UNL A   1      41.785  29.569  27.872  1.00  0.00    -0.203 F 
ATOM     70  F   UNL A   1      39.049  24.848  27.759  1.00  0.00    -0.200 F 
ATOM     71  C   UNL A   1      40.420  26.436  26.675  1.00  0.00     0.200 A 
ATOM     72  F   UNL A   1      41.803  28.044  25.638  1.00  0.00    -0.200 F 
ATOM     73  F   UNL A   1      40.455  25.673  25.573  1.00  0.00    -0.200 F 
ENDBRANCH  49  63
BRANCH  50  74
ATOM     74  C   UNL A   1      39.500  33.972  36.985  1.00  0.00     0.064 A 
ATOM     75  C   UNL A   1      38.758  33.544  38.095  1.00  0.00     0.173 A 
ATOM     76  C   UNL A   1      40.090  35.243  37.046  1.00  0.00     0.173 A 
ATOM     77  F   UNL A   1      38.156  32.345  38.076  1.00  0.00    -0.203 F 
ATOM     78  C   UNL A   1      38.586  34.366  39.207  1.00  0.00     0.198 A 
ATOM     79  C   UNL A   1      39.942  36.051  38.170  1.00  0.00     0.198 A 
ATOM     80  F   UNL A   1      40.814  35.697  36.013  1.00  0.00    -0.203 F 
ATOM     81  F   UNL A   1      37.825  33.954  40.230  1.00  0.00    -0.200 F 
ATOM     82  C   UNL A   1      39.182  35.617  39.246  1.00  0.00     0.200 A 
ATOM     83  F   UNL A   1      40.532  37.254  38.211  1.00  0.00    -0.200 F 
ATOM     84  F   UNL A   1      39.015  36.408  40.314  1.00  0.00    -0.200 F 
ENDBRANCH  50  74
BRANCH  62  85
ATOM     85  C   UNL A   1      43.863  28.834  35.234  1.00  0.00     0.064 A 
ATOM     86  C   UNL A   1      43.713  27.761  36.124  1.00  0.00     0.173 A 
ATOM     87  C   UNL A   1      45.162  29.302  34.978  1.00  0.00     0.173 A 
ATOM     88  F   UNL A   1      42.492  27.287  36.412  1.00  0.00    -0.203 F 
ATOM     89  C   UNL A   1      44.819  27.195  36.753  1.00  0.00     0.198 A 
ATOM     90  C   UNL A   1      46.267  28.714  35.586  1.00  0.00     0.198 A 
ATOM     91  F   UNL A   1      45.358  30.321  34.129  1.00  0.00    -0.203 F 
ATOM     92  F   UNL A   1      44.648  26.201  37.636  1.00  0.00    -0.200 F 
ATOM     93  C   UNL A   1      46.095  27.666  36.478  1.00  0.00     0.200 A 
ATOM     94  F   UNL A   1      47.500  29.160  35.308  1.00  0.00    -0.200 F 
ATOM     95  F   UNL A   1      47.157  27.115  37.079  1.00  0.00    -0.200 F 
ENDBRANCH  62  85
ENDBRANCH  36  37
ENDBRANCH  28  31
ENDBRANCH  26  27
ENDBRANCH  25  26
ENDBRANCH  24  25
ENDBRANCH   3  24
TORSDOF 16
ENDMDL
