MODEL 1
REMARK VINA RESULT:     -14.3      0.000      0.000
REMARK SMILES Cc1cc(C(=O)NCCCNC(=O)c2ccc(-c3c4nc(c(-c5c(F)c(F)c(F)c(F)c5F)c5ccc([nH]5)c(-c5c(F)c(F)c(F)c(F)c5F)c5nc(c(-c6c(F)c(F)c(F)c(F)c6F)c6ccc3[nH]6)C=C5)C=C4)cc2)ccc1NC(=O)c1ccc(=O)n(CCOc2ccccc2)n1
REMARK SMILES IDX 5 1 6 2 7 3 4 5 1 6 2 7 3 8 79 9 78 10 77 11 80 12 81 13
REMARK SMILES IDX 82 15 83 16 84 17 98 18 85 19 88 20 86 21 87 22 89 23 90 24
REMARK SMILES IDX 91 25 92 26 93 27 97 28 94 29 96 30 95 31 8 32 9 33 10 34
REMARK SMILES IDX 11 35 12 36 13 38 14 39 15 40 76 41 16 42 75 43 17 44 18 45
REMARK SMILES IDX 19 46 69 47 20 48 74 49 68 50 70 51 21 52 73 53 67 54 66 55
REMARK SMILES IDX 22 57 54 58 34 59 53 60 35 61 38 62 52 63 71 64 36 65 37 66
REMARK SMILES IDX 51 68 72 69 39 70 23 71 24 72 32 73 25 74 26 75 30 76 33 77
REMARK SMILES IDX 27 78 28 79 31 80 29 81 55 82 56 83 64 84 57 85 58 86 62 87
REMARK SMILES IDX 65 88 59 89 60 90 63 91 61 92 40 93 41 94 49 95 42 96 43 97
REMARK SMILES IDX 47 98 50 99 44 100 45 101 48 102 46 103
REMARK H PARENT 7 4 80 14 11 37 70 56 38 67
REMARK Flexibility Score: inf
ROOT
ATOM      1  C   UNL A   1      36.405  22.755  24.110  1.00  0.00     0.251 C 
ATOM      2  O   UNL A   1      36.352  23.708  23.333  1.00  0.00    -0.269 OA
ATOM      3  N   UNL A   1      37.567  22.013  24.167  1.00  0.00    -0.352 N 
ATOM      4  H   UNL A   1      38.236  22.250  23.485  1.00  0.00     0.163 HD
ENDROOT
BRANCH   1   5
ATOM      5  C   UNL A   1      35.236  22.470  24.982  1.00  0.00     0.040 A 
ATOM      6  C   UNL A   1      32.155  20.249  24.847  1.00  0.00     0.046 C 
ATOM      7  C   UNL A   1      33.067  21.354  25.305  1.00  0.00    -0.027 A 
ATOM      8  C   UNL A   1      34.249  21.573  24.553  1.00  0.00     0.019 A 
ATOM      9  C   UNL A   1      32.854  22.119  26.463  1.00  0.00     0.044 A 
ATOM     10  C   UNL A   1      33.951  22.794  26.988  1.00  0.00     0.027 A 
ATOM     11  C   UNL A   1      35.124  22.978  26.263  1.00  0.00     0.016 A 
BRANCH   9  12
ATOM     12  N   UNL A   1      31.573  22.205  27.055  1.00  0.00    -0.320 N 
ATOM     13  C   UNL A   1      30.597  23.197  26.947  1.00  0.00     0.276 C 
ATOM     14  H   UNL A   1      31.333  21.447  27.634  1.00  0.00     0.170 HD
ATOM     15  O   UNL A   1      29.538  23.127  27.524  1.00  0.00    -0.267 OA
BRANCH  13  16
ATOM     16  C   UNL A   1      30.872  24.409  26.070  1.00  0.00     0.149 A 
ATOM     17  C   UNL A   1      30.662  24.186  24.625  1.00  0.00     0.042 A 
ATOM     18  N   UNL A   1      31.209  25.544  26.607  1.00  0.00    -0.164 NA
ATOM     19  C   UNL A   1      30.383  25.283  23.921  1.00  0.00     0.076 A 
ATOM     20  N   UNL A   1      31.128  26.653  25.767  1.00  0.00    -0.226 N 
ATOM     21  C   UNL A   1      30.391  26.601  24.592  1.00  0.00     0.266 A 
ATOM     22  O   UNL A   1      29.788  27.539  24.081  1.00  0.00    -0.268 OA
BRANCH  20  23
ATOM     23  C   UNL A   1      31.602  27.938  26.291  1.00  0.00     0.190 C 
BRANCH  23  24
ATOM     24  C   UNL A   1      33.091  27.895  26.687  1.00  0.00     0.253 C 
BRANCH  24  25
ATOM     25  O   UNL A   1      33.940  28.373  25.622  1.00  0.00    -0.492 OA
BRANCH  25  26
ATOM     26  C   UNL A   1      33.845  27.608  24.495  1.00  0.00     0.119 A 
ATOM     27  C   UNL A   1      34.068  26.235  24.511  1.00  0.00     0.046 A 
ATOM     28  C   UNL A   1      33.581  28.248  23.290  1.00  0.00     0.046 A 
ATOM     29  C   UNL A   1      33.901  25.498  23.335  1.00  0.00     0.004 A 
ATOM     30  C   UNL A   1      33.345  27.513  22.132  1.00  0.00     0.004 A 
ATOM     31  C   UNL A   1      33.497  26.131  22.158  1.00  0.00     0.000 A 
ENDBRANCH  25  26
ENDBRANCH  24  25
ENDBRANCH  23  24
ENDBRANCH  20  23
ENDBRANCH  13  16
ENDBRANCH   9  12
ENDBRANCH   1   5
BRANCH   3  32
ATOM     32  C   UNL A   1      37.979  20.934  25.066  1.00  0.00     0.118 C 
BRANCH  32  33
ATOM     33  C   UNL A   1      38.980  21.422  26.112  1.00  0.00     0.042 C 
BRANCH  33  34
ATOM     34  C   UNL A   1      39.394  22.878  25.981  1.00  0.00     0.118 C 
BRANCH  34  35
ATOM     35  N   UNL A   1      40.820  23.132  26.206  1.00  0.00    -0.352 N 
ATOM     36  C   UNL A   1      41.417  24.341  26.537  1.00  0.00     0.251 C 
ATOM     37  H   UNL A   1      41.421  22.359  26.113  1.00  0.00     0.163 HD
ATOM     38  O   UNL A   1      42.612  24.440  26.773  1.00  0.00    -0.269 OA
BRANCH  36  39
ATOM     39  C   UNL A   1      40.523  25.510  26.683  1.00  0.00     0.039 A 
ATOM     40  C   UNL A   1      40.946  26.719  26.130  1.00  0.00     0.014 A 
ATOM     41  C   UNL A   1      39.538  25.469  27.665  1.00  0.00     0.014 A 
ATOM     42  C   UNL A   1      40.585  27.905  26.765  1.00  0.00     0.010 A 
ATOM     43  C   UNL A   1      39.258  26.636  28.351  1.00  0.00     0.010 A 
ATOM     44  C   UNL A   1      39.852  27.842  27.952  1.00  0.00    -0.014 A 
BRANCH  44  45
ATOM     45  C   UNL A   1      39.811  28.951  28.904  1.00  0.00     0.031 A 
ATOM     46  C   UNL A   1      38.762  29.988  28.825  1.00  0.00     0.074 A 
ATOM     47  C   UNL A   1      40.723  29.042  29.902  1.00  0.00     0.049 A 
ATOM     48  N   UNL A   1      38.925  31.205  29.228  1.00  0.00    -0.248 NA
ATOM     49  C   UNL A   1      37.445  29.734  28.260  1.00  0.00     0.031 C 
ATOM     50  C   UNL A   1      40.689  29.955  31.042  1.00  0.00     0.029 A 
ATOM     51  N   UNL A   1      41.996  28.452  29.973  1.00  0.00    -0.354 N 
ATOM     52  C   UNL A   1      37.692  31.811  29.230  1.00  0.00     0.074 A 
ATOM     53  C   UNL A   1      36.814  30.872  28.566  1.00  0.00     0.031 C 
ATOM     54  C   UNL A   1      41.938  30.131  31.494  1.00  0.00     0.029 A 
ATOM     55  C   UNL A   1      42.828  29.411  30.605  1.00  0.00     0.049 A 
ATOM     56  H   UNL A   1      42.257  27.558  29.651  1.00  0.00     0.167 HD
ATOM     57  C   UNL A   1      37.516  32.988  29.898  1.00  0.00     0.037 A 
ATOM     58  C   UNL A   1      43.921  29.928  29.977  1.00  0.00     0.037 A 
ATOM     59  C   UNL A   1      38.749  33.470  30.520  1.00  0.00     0.049 A 
ATOM     60  C   UNL A   1      43.872  31.422  29.746  1.00  0.00     0.074 A 
ATOM     61  C   UNL A   1      39.250  33.460  31.812  1.00  0.00     0.029 A 
ATOM     62  N   UNL A   1      39.808  33.838  29.710  1.00  0.00    -0.354 N 
ATOM     63  N   UNL A   1      42.903  32.200  30.141  1.00  0.00    -0.248 NA
ATOM     64  C   UNL A   1      44.862  32.134  28.935  1.00  0.00     0.031 C 
ATOM     65  C   UNL A   1      40.614  33.864  31.769  1.00  0.00     0.029 A 
ATOM     66  C   UNL A   1      40.947  34.102  30.450  1.00  0.00     0.049 A 
ATOM     67  H   UNL A   1      39.759  33.904  28.729  1.00  0.00     0.167 HD
ATOM     68  C   UNL A   1      43.079  33.447  29.600  1.00  0.00     0.074 A 
ATOM     69  C   UNL A   1      44.320  33.359  28.856  1.00  0.00     0.031 C 
ATOM     70  C   UNL A   1      42.171  34.453  29.754  1.00  0.00     0.037 A 
BRANCH  57  71
ATOM     71  C   UNL A   1      36.152  33.571  30.187  1.00  0.00     0.064 A 
ATOM     72  C   UNL A   1      35.352  34.110  29.158  1.00  0.00     0.173 A 
ATOM     73  C   UNL A   1      35.596  33.667  31.476  1.00  0.00     0.173 A 
ATOM     74  F   UNL A   1      35.683  33.975  27.867  1.00  0.00    -0.203 F 
ATOM     75  C   UNL A   1      34.174  34.816  29.416  1.00  0.00     0.198 A 
ATOM     76  C   UNL A   1      34.455  34.429  31.744  1.00  0.00     0.198 A 
ATOM     77  F   UNL A   1      36.117  32.986  32.506  1.00  0.00    -0.203 F 
ATOM     78  F   UNL A   1      33.462  35.315  28.395  1.00  0.00    -0.200 F 
ATOM     79  C   UNL A   1      33.753  35.018  30.713  1.00  0.00     0.200 A 
ATOM     80  F   UNL A   1      34.043  34.589  33.009  1.00  0.00    -0.200 F 
ATOM     81  F   UNL A   1      32.660  35.751  30.965  1.00  0.00    -0.200 F 
ENDBRANCH  57  71
BRANCH  58  82
ATOM     82  C   UNL A   1      44.572  28.937  29.083  1.00  0.00     0.064 A 
ATOM     83  C   UNL A   1      45.354  27.929  29.682  1.00  0.00     0.173 A 
ATOM     84  C   UNL A   1      44.119  28.721  27.778  1.00  0.00     0.173 A 
ATOM     85  F   UNL A   1      45.819  28.095  30.931  1.00  0.00    -0.203 F 
ATOM     86  C   UNL A   1      45.530  26.695  29.066  1.00  0.00     0.198 A 
ATOM     87  C   UNL A   1      44.328  27.493  27.151  1.00  0.00     0.198 A 
ATOM     88  F   UNL A   1      43.363  29.639  27.160  1.00  0.00    -0.203 F 
ATOM     89  F   UNL A   1      46.140  25.700  29.727  1.00  0.00    -0.200 F 
ATOM     90  C   UNL A   1      44.988  26.468  27.813  1.00  0.00     0.200 A 
ATOM     91  F   UNL A   1      43.794  27.269  25.943  1.00  0.00    -0.200 F 
ATOM     92  F   UNL A   1      45.057  25.247  27.265  1.00  0.00    -0.200 F 
ENDBRANCH  58  82
BRANCH  70  93
ATOM     93  C   UNL A   1      42.372  35.848  29.228  1.00  0.00     0.064 A 
ATOM     94  C   UNL A   1      41.846  36.271  27.996  1.00  0.00     0.173 A 
ATOM     95  C   UNL A   1      43.196  36.777  29.897  1.00  0.00     0.173 A 
ATOM     96  F   UNL A   1      41.129  35.435  27.231  1.00  0.00    -0.203 F 
ATOM     97  C   UNL A   1      42.063  37.561  27.506  1.00  0.00     0.198 A 
ATOM     98  C   UNL A   1      43.455  38.046  29.381  1.00  0.00     0.198 A 
ATOM     99  F   UNL A   1      43.759  36.492  31.080  1.00  0.00    -0.203 F 
ATOM    100  F   UNL A   1      41.487  37.941  26.358  1.00  0.00    -0.200 F 
ATOM    101  C   UNL A   1      42.872  38.446  28.195  1.00  0.00     0.200 A 
ATOM    102  F   UNL A   1      44.267  38.881  30.045  1.00  0.00    -0.200 F 
ATOM    103  F   UNL A   1      43.092  39.677  27.717  1.00  0.00    -0.200 F 
ENDBRANCH  70  93
ENDBRANCH  44  45
ENDBRANCH  36  39
ENDBRANCH  34  35
ENDBRANCH  33  34
ENDBRANCH  32  33
ENDBRANCH   3  32
TORSDOF 16
ENDMDL
MODEL 2
REMARK VINA RESULT:     -14.2      3.660      9.900
REMARK SMILES Cc1cc(C(=O)NCCCNC(=O)c2ccc(-c3c4nc(c(-c5c(F)c(F)c(F)c(F)c5F)c5ccc([nH]5)c(-c5c(F)c(F)c(F)c(F)c5F)c5nc(c(-c6c(F)c(F)c(F)c(F)c6F)c6ccc3[nH]6)C=C5)C=C4)cc2)ccc1NC(=O)c1ccc(=O)n(CCOc2ccccc2)n1
REMARK SMILES IDX 5 1 6 2 7 3 4 5 1 6 2 7 3 8 79 9 78 10 77 11 80 12 81 13
REMARK SMILES IDX 82 15 83 16 84 17 98 18 85 19 88 20 86 21 87 22 89 23 90 24
REMARK SMILES IDX 91 25 92 26 93 27 97 28 94 29 96 30 95 31 8 32 9 33 10 34
REMARK SMILES IDX 11 35 12 36 13 38 14 39 15 40 76 41 16 42 75 43 17 44 18 45
REMARK SMILES IDX 19 46 69 47 20 48 74 49 68 50 70 51 21 52 73 53 67 54 66 55
REMARK SMILES IDX 22 57 54 58 34 59 53 60 35 61 38 62 52 63 71 64 36 65 37 66
REMARK SMILES IDX 51 68 72 69 39 70 23 71 24 72 32 73 25 74 26 75 30 76 33 77
REMARK SMILES IDX 27 78 28 79 31 80 29 81 55 82 56 83 64 84 57 85 58 86 62 87
REMARK SMILES IDX 65 88 59 89 60 90 63 91 61 92 40 93 41 94 49 95 42 96 43 97
REMARK SMILES IDX 47 98 50 99 44 100 45 101 48 102 46 103
REMARK H PARENT 7 4 80 14 11 37 70 56 38 67
REMARK Flexibility Score: inf
ROOT
ATOM      1  C   UNL A   1      32.134  28.393  26.955  1.00  0.00     0.251 C 
ATOM      2  O   UNL A   1      31.287  27.721  27.541  1.00  0.00    -0.269 OA
ATOM      3  N   UNL A   1      32.928  29.247  27.692  1.00  0.00    -0.352 N 
ATOM      4  H   UNL A   1      32.669  29.327  28.639  1.00  0.00     0.163 HD
ENDROOT
BRANCH   1   5
ATOM      5  C   UNL A   1      32.297  28.225  25.487  1.00  0.00     0.040 A 
ATOM      6  C   UNL A   1      30.042  28.263  22.428  1.00  0.00     0.046 C 
ATOM      7  C   UNL A   1      31.270  28.015  23.261  1.00  0.00    -0.027 A 
ATOM      8  C   UNL A   1      31.174  28.275  24.651  1.00  0.00     0.019 A 
ATOM      9  C   UNL A   1      32.510  27.620  22.733  1.00  0.00     0.044 A 
ATOM     10  C   UNL A   1      33.633  27.832  23.527  1.00  0.00     0.027 A 
ATOM     11  C   UNL A   1      33.537  28.123  24.884  1.00  0.00     0.016 A 
BRANCH   9  12
ATOM     12  N   UNL A   1      32.602  27.020  21.457  1.00  0.00    -0.320 N 
ATOM     13  C   UNL A   1      32.830  25.689  21.103  1.00  0.00     0.276 C 
ATOM     14  H   UNL A   1      32.488  27.638  20.700  1.00  0.00     0.170 HD
ATOM     15  O   UNL A   1      32.884  25.326  19.952  1.00  0.00    -0.267 OA
BRANCH  13  16
ATOM     16  C   UNL A   1      33.015  24.655  22.203  1.00  0.00     0.149 A 
ATOM     17  C   UNL A   1      31.759  24.170  22.811  1.00  0.00     0.042 A 
ATOM     18  N   UNL A   1      34.204  24.226  22.507  1.00  0.00    -0.164 NA
ATOM     19  C   UNL A   1      31.831  22.956  23.359  1.00  0.00     0.076 A 
ATOM     20  N   UNL A   1      34.244  23.071  23.285  1.00  0.00    -0.226 N 
ATOM     21  C   UNL A   1      33.129  22.250  23.396  1.00  0.00     0.266 A 
ATOM     22  O   UNL A   1      33.146  21.032  23.538  1.00  0.00    -0.268 OA
BRANCH  20  23
ATOM     23  C   UNL A   1      35.556  22.608  23.747  1.00  0.00     0.190 C 
BRANCH  23  24
ATOM     24  C   UNL A   1      36.173  23.552  24.798  1.00  0.00     0.253 C 
BRANCH  24  25
ATOM     25  O   UNL A   1      35.820  23.159  26.140  1.00  0.00    -0.492 OA
BRANCH  25  26
ATOM     26  C   UNL A   1      34.509  23.412  26.430  1.00  0.00     0.119 A 
ATOM     27  C   UNL A   1      33.904  24.628  26.126  1.00  0.00     0.046 A 
ATOM     28  C   UNL A   1      33.789  22.436  27.111  1.00  0.00     0.046 A 
ATOM     29  C   UNL A   1      32.545  24.806  26.398  1.00  0.00     0.004 A 
ATOM     30  C   UNL A   1      32.421  22.580  27.320  1.00  0.00     0.004 A 
ATOM     31  C   UNL A   1      31.795  23.766  26.953  1.00  0.00     0.000 A 
ENDBRANCH  25  26
ENDBRANCH  24  25
ENDBRANCH  23  24
ENDBRANCH  20  23
ENDBRANCH  13  16
ENDBRANCH   9  12
ENDBRANCH   1   5
BRANCH   3  32
ATOM     32  C   UNL A   1      34.089  30.053  27.314  1.00  0.00     0.118 C 
BRANCH  32  33
ATOM     33  C   UNL A   1      34.018  31.459  27.906  1.00  0.00     0.042 C 
BRANCH  33  34
ATOM     34  C   UNL A   1      35.357  32.158  28.074  1.00  0.00     0.118 C 
BRANCH  34  35
ATOM     35  N   UNL A   1      35.785  32.334  29.465  1.00  0.00    -0.352 N 
ATOM     36  C   UNL A   1      36.586  31.481  30.212  1.00  0.00     0.251 C 
ATOM     37  H   UNL A   1      35.469  33.147  29.920  1.00  0.00     0.163 HD
ATOM     38  O   UNL A   1      36.948  31.748  31.349  1.00  0.00    -0.269 OA
BRANCH  36  39
ATOM     39  C   UNL A   1      37.070  30.257  29.538  1.00  0.00     0.039 A 
ATOM     40  C   UNL A   1      37.268  29.122  30.326  1.00  0.00     0.014 A 
ATOM     41  C   UNL A   1      37.668  30.384  28.288  1.00  0.00     0.014 A 
ATOM     42  C   UNL A   1      38.293  28.243  29.983  1.00  0.00     0.010 A 
ATOM     43  C   UNL A   1      38.746  29.567  28.001  1.00  0.00     0.010 A 
ATOM     44  C   UNL A   1      39.112  28.550  28.893  1.00  0.00    -0.014 A 
BRANCH  44  45
ATOM     45  C   UNL A   1      40.441  27.964  28.727  1.00  0.00     0.031 A 
ATOM     46  C   UNL A   1      40.611  26.525  28.438  1.00  0.00     0.074 A 
ATOM     47  C   UNL A   1      41.552  28.733  28.809  1.00  0.00     0.049 A 
ATOM     48  N   UNL A   1      41.652  25.842  28.784  1.00  0.00    -0.248 NA
ATOM     49  C   UNL A   1      39.601  25.735  27.750  1.00  0.00     0.031 C 
ATOM     50  C   UNL A   1      42.918  28.345  28.459  1.00  0.00     0.029 A 
ATOM     51  N   UNL A   1      41.701  29.982  29.433  1.00  0.00    -0.354 N 
ATOM     52  C   UNL A   1      41.582  24.626  28.150  1.00  0.00     0.074 A 
ATOM     53  C   UNL A   1      40.259  24.587  27.564  1.00  0.00     0.031 C 
ATOM     54  C   UNL A   1      43.775  29.119  29.137  1.00  0.00     0.029 A 
ATOM     55  C   UNL A   1      42.996  29.969  30.013  1.00  0.00     0.049 A 
ATOM     56  H   UNL A   1      41.044  30.716  29.463  1.00  0.00     0.167 HD
ATOM     57  C   UNL A   1      42.689  23.830  28.084  1.00  0.00     0.037 A 
ATOM     58  C   UNL A   1      43.173  30.111  31.357  1.00  0.00     0.037 A 
ATOM     59  C   UNL A   1      43.842  24.416  28.767  1.00  0.00     0.049 A 
ATOM     60  C   UNL A   1      43.819  28.925  32.039  1.00  0.00     0.074 A 
ATOM     61  C   UNL A   1      44.983  25.078  28.346  1.00  0.00     0.029 A 
ATOM     62  N   UNL A   1      43.787  24.596  30.138  1.00  0.00    -0.354 N 
ATOM     63  N   UNL A   1      44.230  27.851  31.424  1.00  0.00    -0.248 NA
ATOM     64  C   UNL A   1      43.934  28.810  33.495  1.00  0.00     0.031 C 
ATOM     65  C   UNL A   1      45.633  25.627  29.487  1.00  0.00     0.029 A 
ATOM     66  C   UNL A   1      44.876  25.313  30.600  1.00  0.00     0.049 A 
ATOM     67  H   UNL A   1      43.064  24.257  30.713  1.00  0.00     0.167 HD
ATOM     68  C   UNL A   1      44.578  26.906  32.353  1.00  0.00     0.074 A 
ATOM     69  C   UNL A   1      44.379  27.552  33.635  1.00  0.00     0.031 C 
ATOM     70  C   UNL A   1      44.954  25.639  32.012  1.00  0.00     0.037 A 
BRANCH  57  71
ATOM     71  C   UNL A   1      42.778  22.624  27.178  1.00  0.00     0.064 A 
ATOM     72  C   UNL A   1      42.033  21.455  27.437  1.00  0.00     0.173 A 
ATOM     73  C   UNL A   1      43.624  22.546  26.056  1.00  0.00     0.173 A 
ATOM     74  F   UNL A   1      41.089  21.420  28.387  1.00  0.00    -0.203 F 
ATOM     75  C   UNL A   1      42.230  20.267  26.728  1.00  0.00     0.198 A 
ATOM     76  C   UNL A   1      43.873  21.342  25.389  1.00  0.00     0.198 A 
ATOM     77  F   UNL A   1      44.199  23.644  25.545  1.00  0.00    -0.203 F 
ATOM     78  F   UNL A   1      41.498  19.185  27.029  1.00  0.00    -0.200 F 
ATOM     79  C   UNL A   1      43.186  20.198  25.737  1.00  0.00     0.200 A 
ATOM     80  F   UNL A   1      44.785  21.301  24.408  1.00  0.00    -0.200 F 
ATOM     81  F   UNL A   1      43.423  19.042  25.102  1.00  0.00    -0.200 F 
ENDBRANCH  57  71
BRANCH  58  82
ATOM     82  C   UNL A   1      42.158  31.009  31.965  1.00  0.00     0.064 A 
ATOM     83  C   UNL A   1      41.008  30.414  32.521  1.00  0.00     0.173 A 
ATOM     84  C   UNL A   1      42.478  32.309  32.365  1.00  0.00     0.173 A 
ATOM     85  F   UNL A   1      40.655  29.169  32.160  1.00  0.00    -0.203 F 
ATOM     86  C   UNL A   1      40.310  31.029  33.554  1.00  0.00     0.198 A 
ATOM     87  C   UNL A   1      41.754  32.935  33.378  1.00  0.00     0.198 A 
ATOM     88  F   UNL A   1      43.566  32.922  31.878  1.00  0.00    -0.203 F 
ATOM     89  F   UNL A   1      39.319  30.371  34.175  1.00  0.00    -0.200 F 
ATOM     90  C   UNL A   1      40.705  32.277  34.004  1.00  0.00     0.200 A 
ATOM     91  F   UNL A   1      42.142  34.139  33.822  1.00  0.00    -0.200 F 
ATOM     92  F   UNL A   1      40.108  32.823  35.072  1.00  0.00    -0.200 F 
ENDBRANCH  58  82
BRANCH  70  93
ATOM     93  C   UNL A   1      45.404  24.605  33.007  1.00  0.00     0.064 A 
ATOM     94  C   UNL A   1      46.681  24.630  33.593  1.00  0.00     0.173 A 
ATOM     95  C   UNL A   1      44.602  23.489  33.326  1.00  0.00     0.173 A 
ATOM     96  F   UNL A   1      47.561  25.594  33.283  1.00  0.00    -0.203 F 
ATOM     97  C   UNL A   1      47.097  23.649  34.495  1.00  0.00     0.198 A 
ATOM     98  C   UNL A   1      45.040  22.483  34.186  1.00  0.00     0.198 A 
ATOM     99  F   UNL A   1      43.364  23.349  32.830  1.00  0.00    -0.203 F 
ATOM    100  F   UNL A   1      48.299  23.749  35.077  1.00  0.00    -0.200 F 
ATOM    101  C   UNL A   1      46.279  22.572  34.787  1.00  0.00     0.200 A 
ATOM    102  F   UNL A   1      44.248  21.429  34.435  1.00  0.00    -0.200 F 
ATOM    103  F   UNL A   1      46.685  21.624  35.641  1.00  0.00    -0.200 F 
ENDBRANCH  70  93
ENDBRANCH  44  45
ENDBRANCH  36  39
ENDBRANCH  34  35
ENDBRANCH  33  34
ENDBRANCH  32  33
ENDBRANCH   3  32
TORSDOF 16
ENDMDL
MODEL 3
REMARK VINA RESULT:     -14.1      1.395      2.506
REMARK SMILES Cc1cc(C(=O)NCCCNC(=O)c2ccc(-c3c4nc(c(-c5c(F)c(F)c(F)c(F)c5F)c5ccc([nH]5)c(-c5c(F)c(F)c(F)c(F)c5F)c5nc(c(-c6c(F)c(F)c(F)c(F)c6F)c6ccc3[nH]6)C=C5)C=C4)cc2)ccc1NC(=O)c1ccc(=O)n(CCOc2ccccc2)n1
REMARK SMILES IDX 5 1 6 2 7 3 4 5 1 6 2 7 3 8 79 9 78 10 77 11 80 12 81 13
REMARK SMILES IDX 82 15 83 16 84 17 98 18 85 19 88 20 86 21 87 22 89 23 90 24
REMARK SMILES IDX 91 25 92 26 93 27 97 28 94 29 96 30 95 31 8 32 9 33 10 34
REMARK SMILES IDX 11 35 12 36 13 38 14 39 15 40 76 41 16 42 75 43 17 44 18 45
REMARK SMILES IDX 19 46 69 47 20 48 74 49 68 50 70 51 21 52 73 53 67 54 66 55
REMARK SMILES IDX 22 57 54 58 34 59 53 60 35 61 38 62 52 63 71 64 36 65 37 66
REMARK SMILES IDX 51 68 72 69 39 70 23 71 24 72 32 73 25 74 26 75 30 76 33 77
REMARK SMILES IDX 27 78 28 79 31 80 29 81 55 82 56 83 64 84 57 85 58 86 62 87
REMARK SMILES IDX 65 88 59 89 60 90 63 91 61 92 40 93 41 94 49 95 42 96 43 97
REMARK SMILES IDX 47 98 50 99 44 100 45 101 48 102 46 103
REMARK H PARENT 7 4 80 14 11 37 70 56 38 67
REMARK Flexibility Score: inf
ROOT
ATOM      1  C   UNL A   1      35.087  21.426  26.096  1.00  0.00     0.251 C 
ATOM      2  O   UNL A   1      34.353  21.106  27.030  1.00  0.00    -0.269 OA
ATOM      3  N   UNL A   1      36.404  21.015  26.119  1.00  0.00    -0.352 N 
ATOM      4  H   UNL A   1      36.679  20.578  26.957  1.00  0.00     0.163 HD
ENDROOT
BRANCH   1   5
ATOM      5  C   UNL A   1      34.517  22.202  24.964  1.00  0.00     0.040 A 
ATOM      6  C   UNL A   1      31.831  21.684  22.326  1.00  0.00     0.046 C 
ATOM      7  C   UNL A   1      33.020  22.297  23.013  1.00  0.00    -0.027 A 
ATOM      8  C   UNL A   1      33.516  21.635  24.165  1.00  0.00     0.019 A 
ATOM      9  C   UNL A   1      33.608  23.513  22.630  1.00  0.00     0.044 A 
ATOM     10  C   UNL A   1      34.400  24.160  23.573  1.00  0.00     0.027 A 
ATOM     11  C   UNL A   1      34.857  23.520  24.721  1.00  0.00     0.016 A 
BRANCH   9  12
ATOM     12  N   UNL A   1      33.412  24.042  21.334  1.00  0.00    -0.320 N 
ATOM     13  C   UNL A   1      32.884  25.270  20.934  1.00  0.00     0.276 C 
ATOM     14  H   UNL A   1      33.691  23.451  20.598  1.00  0.00     0.170 HD
ATOM     15  O   UNL A   1      32.778  25.582  19.772  1.00  0.00    -0.267 OA
BRANCH  13  16
ATOM     16  C   UNL A   1      32.426  26.257  21.998  1.00  0.00     0.149 A 
ATOM     17  C   UNL A   1      33.284  27.451  22.143  1.00  0.00     0.042 A 
ATOM     18  N   UNL A   1      31.329  26.044  22.662  1.00  0.00    -0.164 NA
ATOM     19  C   UNL A   1      32.674  28.526  22.642  1.00  0.00     0.076 A 
ATOM     20  N   UNL A   1      30.834  27.137  23.370  1.00  0.00    -0.226 N 
ATOM     21  C   UNL A   1      31.264  28.425  23.080  1.00  0.00     0.266 A 
ATOM     22  O   UNL A   1      30.592  29.446  23.179  1.00  0.00    -0.268 OA
BRANCH  20  23
ATOM     23  C   UNL A   1      29.661  26.921  24.222  1.00  0.00     0.190 C 
BRANCH  23  24
ATOM     24  C   UNL A   1      29.903  25.831  25.286  1.00  0.00     0.253 C 
BRANCH  24  25
ATOM     25  O   UNL A   1      30.293  26.400  26.553  1.00  0.00    -0.492 OA
BRANCH  25  26
ATOM     26  C   UNL A   1      31.534  26.968  26.511  1.00  0.00     0.119 A 
ATOM     27  C   UNL A   1      32.659  26.259  26.098  1.00  0.00     0.046 A 
ATOM     28  C   UNL A   1      31.672  28.276  26.961  1.00  0.00     0.046 A 
ATOM     29  C   UNL A   1      33.893  26.912  26.025  1.00  0.00     0.004 A 
ATOM     30  C   UNL A   1      32.881  28.950  26.823  1.00  0.00     0.004 A 
ATOM     31  C   UNL A   1      33.994  28.267  26.344  1.00  0.00     0.000 A 
ENDBRANCH  25  26
ENDBRANCH  24  25
ENDBRANCH  23  24
ENDBRANCH  20  23
ENDBRANCH  13  16
ENDBRANCH   9  12
ENDBRANCH   1   5
BRANCH   3  32
ATOM     32  C   UNL A   1      37.463  21.113  25.114  1.00  0.00     0.118 C 
BRANCH  32  33
ATOM     33  C   UNL A   1      38.834  21.321  25.756  1.00  0.00     0.042 C 
BRANCH  33  34
ATOM     34  C   UNL A   1      39.190  22.765  26.065  1.00  0.00     0.118 C 
BRANCH  34  35
ATOM     35  N   UNL A   1      40.608  22.996  26.358  1.00  0.00    -0.352 N 
ATOM     36  C   UNL A   1      41.208  24.195  26.720  1.00  0.00     0.251 C 
ATOM     37  H   UNL A   1      41.202  22.214  26.290  1.00  0.00     0.163 HD
ATOM     38  O   UNL A   1      42.392  24.275  27.012  1.00  0.00    -0.269 OA
BRANCH  36  39
ATOM     39  C   UNL A   1      40.326  25.377  26.828  1.00  0.00     0.039 A 
ATOM     40  C   UNL A   1      40.779  26.573  26.269  1.00  0.00     0.014 A 
ATOM     41  C   UNL A   1      39.316  25.362  27.785  1.00  0.00     0.014 A 
ATOM     42  C   UNL A   1      40.418  27.772  26.879  1.00  0.00     0.010 A 
ATOM     43  C   UNL A   1      39.035  26.542  28.448  1.00  0.00     0.010 A 
ATOM     44  C   UNL A   1      39.654  27.735  28.049  1.00  0.00    -0.014 A 
BRANCH  44  45
ATOM     45  C   UNL A   1      39.604  28.857  28.984  1.00  0.00     0.031 A 
ATOM     46  C   UNL A   1      38.590  29.922  28.846  1.00  0.00     0.074 A 
ATOM     47  C   UNL A   1      40.473  28.934  30.020  1.00  0.00     0.049 A 
ATOM     48  N   UNL A   1      38.771  31.140  29.241  1.00  0.00    -0.248 NA
ATOM     49  C   UNL A   1      37.293  29.700  28.226  1.00  0.00     0.031 C 
ATOM     50  C   UNL A   1      40.415  29.864  31.147  1.00  0.00     0.029 A 
ATOM     51  N   UNL A   1      41.723  28.309  30.155  1.00  0.00    -0.354 N 
ATOM     52  C   UNL A   1      37.558  31.781  29.181  1.00  0.00     0.074 A 
ATOM     53  C   UNL A   1      36.682  30.859  28.490  1.00  0.00     0.031 C 
ATOM     54  C   UNL A   1      41.648  30.009  31.652  1.00  0.00     0.029 A 
ATOM     55  C   UNL A   1      42.555  29.252  30.813  1.00  0.00     0.049 A 
ATOM     56  H   UNL A   1      41.972  27.404  29.856  1.00  0.00     0.167 HD
ATOM     57  C   UNL A   1      37.387  32.972  29.826  1.00  0.00     0.037 A 
ATOM     58  C   UNL A   1      43.690  29.728  30.227  1.00  0.00     0.037 A 
ATOM     59  C   UNL A   1      38.605  33.425  30.497  1.00  0.00     0.049 A 
ATOM     60  C   UNL A   1      43.695  31.220  29.977  1.00  0.00     0.074 A 
ATOM     61  C   UNL A   1      39.048  33.419  31.810  1.00  0.00     0.029 A 
ATOM     62  N   UNL A   1      39.710  33.752  29.730  1.00  0.00    -0.354 N 
ATOM     63  N   UNL A   1      42.733  32.031  30.318  1.00  0.00    -0.248 NA
ATOM     64  C   UNL A   1      44.741  31.893  29.202  1.00  0.00     0.031 C 
ATOM     65  C   UNL A   1      40.424  33.782  31.823  1.00  0.00     0.029 A 
ATOM     66  C   UNL A   1      40.822  33.993  30.517  1.00  0.00     0.049 A 
ATOM     67  H   UNL A   1      39.705  33.806  28.747  1.00  0.00     0.167 HD
ATOM     68  C   UNL A   1      42.970  33.265  29.772  1.00  0.00     0.074 A 
ATOM     69  C   UNL A   1      44.239  33.131  29.085  1.00  0.00     0.031 C 
ATOM     70  C   UNL A   1      42.085  34.299  29.872  1.00  0.00     0.037 A 
BRANCH  57  71
ATOM     71  C   UNL A   1      36.029  33.598  30.047  1.00  0.00     0.064 A 
ATOM     72  C   UNL A   1      35.281  34.122  28.973  1.00  0.00     0.173 A 
ATOM     73  C   UNL A   1      35.431  33.749  31.311  1.00  0.00     0.173 A 
ATOM     74  F   UNL A   1      35.653  33.937  27.700  1.00  0.00    -0.203 F 
ATOM     75  C   UNL A   1      34.114  34.865  29.165  1.00  0.00     0.198 A 
ATOM     76  C   UNL A   1      34.302  34.549  31.514  1.00  0.00     0.198 A 
ATOM     77  F   UNL A   1      35.898  33.090  32.381  1.00  0.00    -0.203 F 
ATOM     78  F   UNL A   1      33.451  35.348  28.105  1.00  0.00    -0.200 F 
ATOM     79  C   UNL A   1      33.652  35.120  30.440  1.00  0.00     0.200 A 
ATOM     80  F   UNL A   1      33.850  34.761  32.757  1.00  0.00    -0.200 F 
ATOM     81  F   UNL A   1      32.570  35.888  30.629  1.00  0.00    -0.200 F 
ENDBRANCH  57  71
BRANCH  58  82
ATOM     82  C   UNL A   1      44.350  28.707  29.375  1.00  0.00     0.064 A 
ATOM     83  C   UNL A   1      44.148  28.787  27.982  1.00  0.00     0.173 A 
ATOM     84  C   UNL A   1      45.446  27.971  29.833  1.00  0.00     0.173 A 
ATOM     85  F   UNL A   1      43.103  29.476  27.495  1.00  0.00    -0.203 F 
ATOM     86  C   UNL A   1      45.093  28.294  27.090  1.00  0.00     0.198 A 
ATOM     87  C   UNL A   1      46.374  27.449  28.933  1.00  0.00     0.198 A 
ATOM     88  F   UNL A   1      45.696  27.869  31.146  1.00  0.00    -0.203 F 
ATOM     89  F   UNL A   1      44.955  28.526  25.776  1.00  0.00    -0.200 F 
ATOM     90  C   UNL A   1      46.223  27.654  27.569  1.00  0.00     0.200 A 
ATOM     91  F   UNL A   1      47.474  26.839  29.396  1.00  0.00    -0.200 F 
ATOM     92  F   UNL A   1      47.190  27.279  26.720  1.00  0.00    -0.200 F 
ENDBRANCH  58  82
BRANCH  70  93
ATOM     93  C   UNL A   1      42.351  35.680  29.339  1.00  0.00     0.064 A 
ATOM     94  C   UNL A   1      41.829  36.127  28.113  1.00  0.00     0.173 A 
ATOM     95  C   UNL A   1      43.231  36.567  29.994  1.00  0.00     0.173 A 
ATOM     96  F   UNL A   1      41.059  35.327  27.361  1.00  0.00    -0.203 F 
ATOM     97  C   UNL A   1      42.105  37.403  27.617  1.00  0.00     0.198 A 
ATOM     98  C   UNL A   1      43.547  37.820  29.470  1.00  0.00     0.198 A 
ATOM     99  F   UNL A   1      43.795  36.256  31.170  1.00  0.00    -0.203 F 
ATOM    100  F   UNL A   1      41.534  37.809  26.475  1.00  0.00    -0.200 F 
ATOM    101  C   UNL A   1      42.969  38.246  28.291  1.00  0.00     0.200 A 
ATOM    102  F   UNL A   1      44.411  38.614  30.120  1.00  0.00    -0.200 F 
ATOM    103  F   UNL A   1      43.246  39.464  27.806  1.00  0.00    -0.200 F 
ENDBRANCH  70  93
ENDBRANCH  44  45
ENDBRANCH  36  39
ENDBRANCH  34  35
ENDBRANCH  33  34
ENDBRANCH  32  33
ENDBRANCH   3  32
TORSDOF 16
ENDMDL
