MODEL 1
REMARK VINA RESULT:     -14.6      0.000      0.000
REMARK SMILES Cc1cc(C(=O)NCCCNC(=O)c2ccc(-c3c4nc(c(-c5c(F)c(F)c(F)c(F)c5F)c5ccc([nH]5)c(-c5c(F)c(F)c(F)c(F)c5F)c5nc(c(-c6c(F)c(F)c(F)c(F)c6F)c6ccc3[nH]6)C=C5)C=C4)cc2)ccc1NS(=O)(=O)c1ccc2c(c1)CCC2
REMARK SMILES IDX 8 1 7 2 5 3 6 4 4 6 1 7 2 8 3 9 79 10 78 11 77 12 80 13
REMARK SMILES IDX 81 15 82 16 83 17 84 18 85 19 89 20 86 21 88 22 87 23 90 24
REMARK SMILES IDX 92 25 91 26 9 27 10 28 11 29 12 30 13 32 14 33 15 34 76 35
REMARK SMILES IDX 16 36 75 37 17 38 18 39 19 40 69 41 20 42 74 43 68 44 70 45
REMARK SMILES IDX 21 46 73 47 67 48 66 49 22 51 54 52 34 53 53 54 35 55 38 56
REMARK SMILES IDX 52 57 71 58 36 59 37 60 51 62 72 63 39 64 23 65 24 66 32 67
REMARK SMILES IDX 25 68 26 69 30 70 33 71 27 72 28 73 31 74 29 75 55 76 56 77
REMARK SMILES IDX 64 78 57 79 58 80 62 81 65 82 59 83 60 84 63 85 61 86 40 87
REMARK SMILES IDX 41 88 49 89 42 90 43 91 47 92 50 93 44 94 45 95 48 96 46 97
REMARK H PARENT 7 5 80 14 11 31 70 50 38 61
REMARK Flexibility Score: inf
ROOT
ATOM      1  C   UNL A   1      31.701  29.600  25.599  1.00  0.00     0.118 C 
ENDROOT
BRANCH   1   2
ATOM      2  N   UNL A   1      31.129  30.046  24.331  1.00  0.00    -0.352 N 
ATOM      3  C   UNL A   1      30.578  29.344  23.281  1.00  0.00     0.251 C 
ATOM      4  O   UNL A   1      30.299  29.942  22.244  1.00  0.00    -0.269 OA
ATOM      5  H   UNL A   1      31.141  31.023  24.204  1.00  0.00     0.163 HD
BRANCH   3   6
ATOM      6  C   UNL A   1      30.406  27.872  23.343  1.00  0.00     0.040 A 
ATOM      7  C   UNL A   1      32.598  24.826  22.818  1.00  0.00     0.046 C 
ATOM      8  C   UNL A   1      31.474  25.690  23.319  1.00  0.00    -0.026 A 
ATOM      9  C   UNL A   1      31.492  27.058  23.007  1.00  0.00     0.019 A 
ATOM     10  C   UNL A   1      30.395  25.184  24.063  1.00  0.00     0.052 A 
ATOM     11  C   UNL A   1      29.209  25.920  24.104  1.00  0.00     0.028 A 
ATOM     12  C   UNL A   1      29.214  27.269  23.736  1.00  0.00     0.016 A 
BRANCH  10  13
ATOM     13  N   UNL A   1      30.660  24.106  24.958  1.00  0.00    -0.279 N 
ATOM     14  H   UNL A   1      30.518  23.203  24.591  1.00  0.00     0.180 HD
BRANCH  13  15
ATOM     15  S   UNL A   1      31.180  24.169  26.538  1.00  0.00     0.261 S 
ATOM     16  O   UNL A   1      31.334  25.572  26.905  1.00  0.00    -0.201 OA
ATOM     17  O   UNL A   1      30.276  23.305  27.266  1.00  0.00    -0.201 OA
BRANCH  15  18
ATOM     18  C   UNL A   1      32.798  23.428  26.677  1.00  0.00     0.088 A 
ATOM     19  C   UNL A   1      32.993  22.105  27.095  1.00  0.00     0.022 A 
ATOM     20  C   UNL A   1      33.871  24.174  26.161  1.00  0.00     0.026 A 
ATOM     21  C   UNL A   1      34.191  21.452  26.793  1.00  0.00     0.005 A 
ATOM     22  C   UNL A   1      35.070  23.522  25.925  1.00  0.00    -0.043 A 
ATOM     23  C   UNL A   1      35.197  22.154  26.165  1.00  0.00    -0.045 A 
ATOM     24  C   UNL A   1      36.352  24.069  25.383  1.00  0.00     0.036 C 
ATOM     25  C   UNL A   1      36.502  21.630  25.651  1.00  0.00     0.036 C 
ATOM     26  C   UNL A   1      36.957  22.802  24.766  1.00  0.00     0.010 C 
ENDBRANCH  15  18
ENDBRANCH  13  15
ENDBRANCH  10  13
ENDBRANCH   3   6
ENDBRANCH   1   2
BRANCH   1  27
ATOM     27  C   UNL A   1      32.177  30.762  26.466  1.00  0.00     0.042 C 
BRANCH  27  28
ATOM     28  C   UNL A   1      33.209  30.353  27.507  1.00  0.00     0.118 C 
BRANCH  28  29
ATOM     29  N   UNL A   1      33.924  31.461  28.151  1.00  0.00    -0.352 N 
ATOM     30  C   UNL A   1      35.172  31.420  28.761  1.00  0.00     0.251 C 
ATOM     31  H   UNL A   1      33.466  32.333  28.151  1.00  0.00     0.163 HD
ATOM     32  O   UNL A   1      35.701  32.429  29.212  1.00  0.00    -0.269 OA
BRANCH  30  33
ATOM     33  C   UNL A   1      35.898  30.131  28.744  1.00  0.00     0.039 A 
ATOM     34  C   UNL A   1      36.403  29.655  29.955  1.00  0.00     0.014 A 
ATOM     35  C   UNL A   1      36.388  29.662  27.528  1.00  0.00     0.014 A 
ATOM     36  C   UNL A   1      37.599  28.942  29.947  1.00  0.00     0.010 A 
ATOM     37  C   UNL A   1      37.630  29.056  27.526  1.00  0.00     0.010 A 
ATOM     38  C   UNL A   1      38.274  28.772  28.736  1.00  0.00    -0.014 A 
BRANCH  38  39
ATOM     39  C   UNL A   1      39.696  28.438  28.667  1.00  0.00     0.031 A 
ATOM     40  C   UNL A   1      40.136  27.086  28.271  1.00  0.00     0.074 A 
ATOM     41  C   UNL A   1      40.641  29.373  28.922  1.00  0.00     0.049 A 
ATOM     42  N   UNL A   1      41.256  26.558  28.635  1.00  0.00    -0.248 NA
ATOM     43  C   UNL A   1      39.324  26.204  27.444  1.00  0.00     0.031 C 
ATOM     44  C   UNL A   1      42.079  29.260  28.676  1.00  0.00     0.029 A 
ATOM     45  N   UNL A   1      40.513  30.562  29.660  1.00  0.00    -0.354 N 
ATOM     46  C   UNL A   1      41.442  25.415  27.897  1.00  0.00     0.074 A 
ATOM     47  C   UNL A   1      40.184  25.210  27.210  1.00  0.00     0.031 C 
ATOM     48  C   UNL A   1      42.726  30.099  29.497  1.00  0.00     0.029 A 
ATOM     49  C   UNL A   1      41.738  30.706  30.366  1.00  0.00     0.049 A 
ATOM     50  H   UNL A   1      39.738  31.168  29.685  1.00  0.00     0.167 HD
ATOM     51  C   UNL A   1      42.677  24.834  27.849  1.00  0.00     0.037 A 
ATOM     52  C   UNL A   1      41.775  30.730  31.728  1.00  0.00     0.037 A 
ATOM     53  C   UNL A   1      43.649  25.536  28.688  1.00  0.00     0.049 A 
ATOM     54  C   UNL A   1      42.559  29.599  32.356  1.00  0.00     0.074 A 
ATOM     55  C   UNL A   1      44.675  26.433  28.441  1.00  0.00     0.029 A 
ATOM     56  N   UNL A   1      43.460  25.554  30.059  1.00  0.00    -0.354 N 
ATOM     57  N   UNL A   1      43.200  28.683  31.685  1.00  0.00    -0.248 NA
ATOM     58  C   UNL A   1      42.576  29.346  33.798  1.00  0.00     0.031 C 
ATOM     59  C   UNL A   1      45.120  26.966  29.685  1.00  0.00     0.029 A 
ATOM     60  C   UNL A   1      44.355  26.400  30.687  1.00  0.00     0.049 A 
ATOM     61  H   UNL A   1      42.773  25.028  30.529  1.00  0.00     0.167 HD
ATOM     62  C   UNL A   1      43.636  27.712  32.549  1.00  0.00     0.074 A 
ATOM     63  C   UNL A   1      43.221  28.170  33.860  1.00  0.00     0.031 C 
ATOM     64  C   UNL A   1      44.262  26.576  32.126  1.00  0.00     0.037 A 
BRANCH  51  65
ATOM     65  C   UNL A   1      43.053  23.771  26.843  1.00  0.00     0.064 A 
ATOM     66  C   UNL A   1      42.729  22.415  27.058  1.00  0.00     0.173 A 
ATOM     67  C   UNL A   1      43.781  24.021  25.664  1.00  0.00     0.173 A 
ATOM     68  F   UNL A   1      41.929  22.036  28.060  1.00  0.00    -0.203 F 
ATOM     69  C   UNL A   1      43.221  21.389  26.246  1.00  0.00     0.198 A 
ATOM     70  C   UNL A   1      44.328  22.993  24.889  1.00  0.00     0.198 A 
ATOM     71  F   UNL A   1      43.935  25.266  25.194  1.00  0.00    -0.203 F 
ATOM     72  F   UNL A   1      42.885  20.118  26.507  1.00  0.00    -0.200 F 
ATOM     73  C   UNL A   1      44.061  21.674  25.191  1.00  0.00     0.200 A 
ATOM     74  F   UNL A   1      45.118  23.294  23.848  1.00  0.00    -0.200 F 
ATOM     75  F   UNL A   1      44.584  20.688  24.451  1.00  0.00    -0.200 F 
ENDBRANCH  51  65
BRANCH  52  76
ATOM     76  C   UNL A   1      40.564  31.372  32.303  1.00  0.00     0.064 A 
ATOM     77  C   UNL A   1      40.387  32.752  32.069  1.00  0.00     0.173 A 
ATOM     78  C   UNL A   1      39.439  30.621  32.654  1.00  0.00     0.173 A 
ATOM     79  F   UNL A   1      41.440  33.518  31.742  1.00  0.00    -0.203 F 
ATOM     80  C   UNL A   1      39.115  33.311  32.005  1.00  0.00     0.198 A 
ATOM     81  C   UNL A   1      38.170  31.196  32.630  1.00  0.00     0.198 A 
ATOM     82  F   UNL A   1      39.543  29.304  32.883  1.00  0.00    -0.203 F 
ATOM     83  F   UNL A   1      38.962  34.580  31.603  1.00  0.00    -0.200 F 
ATOM     84  C   UNL A   1      38.005  32.522  32.251  1.00  0.00     0.200 A 
ATOM     85  F   UNL A   1      37.092  30.432  32.858  1.00  0.00    -0.200 F 
ATOM     86  F   UNL A   1      36.775  33.022  32.068  1.00  0.00    -0.200 F 
ENDBRANCH  52  76
BRANCH  64  87
ATOM     87  C   UNL A   1      44.813  25.528  33.055  1.00  0.00     0.064 A 
ATOM     88  C   UNL A   1      44.001  24.818  33.956  1.00  0.00     0.173 A 
ATOM     89  C   UNL A   1      46.199  25.276  33.149  1.00  0.00     0.173 A 
ATOM     90  F   UNL A   1      42.683  25.053  34.028  1.00  0.00    -0.203 F 
ATOM     91  C   UNL A   1      44.528  23.863  34.830  1.00  0.00     0.198 A 
ATOM     92  C   UNL A   1      46.729  24.362  34.059  1.00  0.00     0.198 A 
ATOM     93  F   UNL A   1      47.080  25.893  32.349  1.00  0.00    -0.203 F 
ATOM     94  F   UNL A   1      43.706  23.163  35.623  1.00  0.00    -0.200 F 
ATOM     95  C   UNL A   1      45.891  23.640  34.885  1.00  0.00     0.200 A 
ATOM     96  F   UNL A   1      48.055  24.182  34.124  1.00  0.00    -0.200 F 
ATOM     97  F   UNL A   1      46.398  22.735  35.732  1.00  0.00    -0.200 F 
ENDBRANCH  64  87
ENDBRANCH  38  39
ENDBRANCH  30  33
ENDBRANCH  28  29
ENDBRANCH  27  28
ENDBRANCH   1  27
TORSDOF 13
ENDMDL
MODEL 2
REMARK VINA RESULT:     -14.5      0.641      1.689
REMARK SMILES Cc1cc(C(=O)NCCCNC(=O)c2ccc(-c3c4nc(c(-c5c(F)c(F)c(F)c(F)c5F)c5ccc([nH]5)c(-c5c(F)c(F)c(F)c(F)c5F)c5nc(c(-c6c(F)c(F)c(F)c(F)c6F)c6ccc3[nH]6)C=C5)C=C4)cc2)ccc1NS(=O)(=O)c1ccc2c(c1)CCC2
REMARK SMILES IDX 8 1 7 2 5 3 6 4 4 6 1 7 2 8 3 9 79 10 78 11 77 12 80 13
REMARK SMILES IDX 81 15 82 16 83 17 84 18 85 19 89 20 86 21 88 22 87 23 90 24
REMARK SMILES IDX 92 25 91 26 9 27 10 28 11 29 12 30 13 32 14 33 15 34 76 35
REMARK SMILES IDX 16 36 75 37 17 38 18 39 19 40 69 41 20 42 74 43 68 44 70 45
REMARK SMILES IDX 21 46 73 47 67 48 66 49 22 51 54 52 34 53 53 54 35 55 38 56
REMARK SMILES IDX 52 57 71 58 36 59 37 60 51 62 72 63 39 64 23 65 24 66 32 67
REMARK SMILES IDX 25 68 26 69 30 70 33 71 27 72 28 73 31 74 29 75 55 76 56 77
REMARK SMILES IDX 64 78 57 79 58 80 62 81 65 82 59 83 60 84 63 85 61 86 40 87
REMARK SMILES IDX 41 88 49 89 42 90 43 91 47 92 50 93 44 94 45 95 48 96 46 97
REMARK H PARENT 7 5 80 14 11 31 70 50 38 61
REMARK Flexibility Score: inf
ROOT
ATOM      1  C   UNL A   1      31.709  29.626  25.521  1.00  0.00     0.118 C 
ENDROOT
BRANCH   1   2
ATOM      2  N   UNL A   1      31.060  30.069  24.291  1.00  0.00    -0.352 N 
ATOM      3  C   UNL A   1      30.450  29.363  23.275  1.00  0.00     0.251 C 
ATOM      4  O   UNL A   1      30.105  29.959  22.257  1.00  0.00    -0.269 OA
ATOM      5  H   UNL A   1      31.058  31.046  24.163  1.00  0.00     0.163 HD
BRANCH   3   6
ATOM      6  C   UNL A   1      30.291  27.890  23.347  1.00  0.00     0.040 A 
ATOM      7  C   UNL A   1      32.465  24.858  22.686  1.00  0.00     0.046 C 
ATOM      8  C   UNL A   1      31.369  25.715  23.256  1.00  0.00    -0.026 A 
ATOM      9  C   UNL A   1      31.359  27.084  22.944  1.00  0.00     0.019 A 
ATOM     10  C   UNL A   1      30.341  25.203  24.065  1.00  0.00     0.052 A 
ATOM     11  C   UNL A   1      29.155  25.932  24.180  1.00  0.00     0.028 A 
ATOM     12  C   UNL A   1      29.129  27.280  23.812  1.00  0.00     0.016 A 
BRANCH  10  13
ATOM     13  N   UNL A   1      30.667  24.126  24.941  1.00  0.00    -0.279 N 
ATOM     14  H   UNL A   1      30.580  23.223  24.558  1.00  0.00     0.180 HD
BRANCH  13  15
ATOM     15  S   UNL A   1      31.177  24.191  26.524  1.00  0.00     0.261 S 
ATOM     16  O   UNL A   1      31.300  25.595  26.900  1.00  0.00    -0.201 OA
ATOM     17  O   UNL A   1      30.289  23.303  27.243  1.00  0.00    -0.201 OA
BRANCH  15  18
ATOM     18  C   UNL A   1      32.810  23.484  26.667  1.00  0.00     0.088 A 
ATOM     19  C   UNL A   1      33.054  22.260  27.304  1.00  0.00     0.022 A 
ATOM     20  C   UNL A   1      33.830  24.120  25.939  1.00  0.00     0.026 A 
ATOM     21  C   UNL A   1      34.233  21.559  27.032  1.00  0.00     0.005 A 
ATOM     22  C   UNL A   1      35.015  23.432  25.732  1.00  0.00    -0.043 A 
ATOM     23  C   UNL A   1      35.177  22.132  26.207  1.00  0.00    -0.045 A 
ATOM     24  C   UNL A   1      36.243  23.867  24.998  1.00  0.00     0.036 C 
ATOM     25  C   UNL A   1      36.444  21.518  25.695  1.00  0.00     0.036 C 
ATOM     26  C   UNL A   1      36.813  22.507  24.577  1.00  0.00     0.010 C 
ENDBRANCH  15  18
ENDBRANCH  13  15
ENDBRANCH  10  13
ENDBRANCH   3   6
ENDBRANCH   1   2
BRANCH   1  27
ATOM     27  C   UNL A   1      32.109  30.791  26.423  1.00  0.00     0.042 C 
BRANCH  27  28
ATOM     28  C   UNL A   1      33.159  30.419  27.459  1.00  0.00     0.118 C 
BRANCH  28  29
ATOM     29  N   UNL A   1      33.817  31.551  28.120  1.00  0.00    -0.352 N 
ATOM     30  C   UNL A   1      35.065  31.564  28.733  1.00  0.00     0.251 C 
ATOM     31  H   UNL A   1      33.316  32.400  28.132  1.00  0.00     0.163 HD
ATOM     32  O   UNL A   1      35.542  32.590  29.199  1.00  0.00    -0.269 OA
BRANCH  30  33
ATOM     33  C   UNL A   1      35.854  30.312  28.698  1.00  0.00     0.039 A 
ATOM     34  C   UNL A   1      36.256  29.766  29.918  1.00  0.00     0.014 A 
ATOM     35  C   UNL A   1      36.489  29.961  27.511  1.00  0.00     0.014 A 
ATOM     36  C   UNL A   1      37.481  29.108  29.985  1.00  0.00     0.010 A 
ATOM     37  C   UNL A   1      37.754  29.411  27.595  1.00  0.00     0.010 A 
ATOM     38  C   UNL A   1      38.284  29.062  28.844  1.00  0.00    -0.014 A 
BRANCH  38  39
ATOM     39  C   UNL A   1      39.721  28.796  28.901  1.00  0.00     0.031 A 
ATOM     40  C   UNL A   1      40.255  27.459  28.576  1.00  0.00     0.074 A 
ATOM     41  C   UNL A   1      40.597  29.781  29.211  1.00  0.00     0.049 A 
ATOM     42  N   UNL A   1      41.365  26.994  29.045  1.00  0.00    -0.248 NA
ATOM     43  C   UNL A   1      39.558  26.523  27.706  1.00  0.00     0.031 C 
ATOM     44  C   UNL A   1      42.053  29.733  29.088  1.00  0.00     0.029 A 
ATOM     45  N   UNL A   1      40.351  30.977  29.907  1.00  0.00    -0.354 N 
ATOM     46  C   UNL A   1      41.665  25.847  28.353  1.00  0.00     0.074 A 
ATOM     47  C   UNL A   1      40.481  25.566  27.569  1.00  0.00     0.031 C 
ATOM     48  C   UNL A   1      42.589  30.619  29.939  1.00  0.00     0.029 A 
ATOM     49  C   UNL A   1      41.504  31.196  30.708  1.00  0.00     0.049 A 
ATOM     50  H   UNL A   1      39.550  31.545  29.852  1.00  0.00     0.167 HD
ATOM     51  C   UNL A   1      42.925  25.326  28.423  1.00  0.00     0.037 A 
ATOM     52  C   UNL A   1      41.425  31.249  32.068  1.00  0.00     0.037 A 
ATOM     53  C   UNL A   1      43.789  26.091  29.322  1.00  0.00     0.049 A 
ATOM     54  C   UNL A   1      42.206  30.170  32.786  1.00  0.00     0.074 A 
ATOM     55  C   UNL A   1      44.790  27.032  29.139  1.00  0.00     0.029 A 
ATOM     56  N   UNL A   1      43.485  26.128  30.672  1.00  0.00    -0.354 N 
ATOM     57  N   UNL A   1      42.943  29.273  32.193  1.00  0.00    -0.248 NA
ATOM     58  C   UNL A   1      42.112  29.948  34.231  1.00  0.00     0.031 C 
ATOM     59  C   UNL A   1      45.103  27.611  30.402  1.00  0.00     0.029 A 
ATOM     60  C   UNL A   1      44.283  27.029  31.351  1.00  0.00     0.049 A 
ATOM     61  H   UNL A   1      42.786  25.579  31.095  1.00  0.00     0.167 HD
ATOM     62  C   UNL A   1      43.350  28.343  33.114  1.00  0.00     0.074 A 
ATOM     63  C   UNL A   1      42.804  28.807  34.374  1.00  0.00     0.031 C 
ATOM     64  C   UNL A   1      44.061  27.230  32.772  1.00  0.00     0.037 A 
BRANCH  51  65
ATOM     65  C   UNL A   1      43.435  24.262  27.477  1.00  0.00     0.064 A 
ATOM     66  C   UNL A   1      44.227  24.599  26.359  1.00  0.00     0.173 A 
ATOM     67  C   UNL A   1      43.135  22.892  27.592  1.00  0.00     0.173 A 
ATOM     68  F   UNL A   1      44.707  25.836  26.186  1.00  0.00    -0.203 F 
ATOM     69  C   UNL A   1      44.558  23.671  25.368  1.00  0.00     0.198 A 
ATOM     70  C   UNL A   1      43.407  21.977  26.571  1.00  0.00     0.198 A 
ATOM     71  F   UNL A   1      42.622  22.387  28.722  1.00  0.00    -0.203 F 
ATOM     72  F   UNL A   1      45.305  24.054  24.323  1.00  0.00    -0.200 F 
ATOM     73  C   UNL A   1      44.105  22.371  25.448  1.00  0.00     0.200 A 
ATOM     74  F   UNL A   1      42.984  20.709  26.684  1.00  0.00    -0.200 F 
ATOM     75  F   UNL A   1      44.368  21.497  24.468  1.00  0.00    -0.200 F 
ENDBRANCH  51  65
BRANCH  52  76
ATOM     76  C   UNL A   1      40.141  31.843  32.524  1.00  0.00     0.064 A 
ATOM     77  C   UNL A   1      39.919  33.206  32.239  1.00  0.00     0.173 A 
ATOM     78  C   UNL A   1      39.028  31.045  32.801  1.00  0.00     0.173 A 
ATOM     79  F   UNL A   1      40.958  34.016  31.981  1.00  0.00    -0.203 F 
ATOM     80  C   UNL A   1      38.632  33.700  32.057  1.00  0.00     0.198 A 
ATOM     81  C   UNL A   1      37.739  31.556  32.657  1.00  0.00     0.198 A 
ATOM     82  F   UNL A   1      39.175  29.740  33.073  1.00  0.00    -0.203 F 
ATOM     83  F   UNL A   1      38.452  34.951  31.610  1.00  0.00    -0.200 F 
ATOM     84  C   UNL A   1      37.544  32.863  32.231  1.00  0.00     0.200 A 
ATOM     85  F   UNL A   1      36.684  30.745  32.816  1.00  0.00    -0.200 F 
ATOM     86  F   UNL A   1      36.311  33.297  31.935  1.00  0.00    -0.200 F 
ENDBRANCH  52  76
BRANCH  64  87
ATOM     87  C   UNL A   1      44.580  26.229  33.769  1.00  0.00     0.064 A 
ATOM     88  C   UNL A   1      45.954  26.009  33.971  1.00  0.00     0.173 A 
ATOM     89  C   UNL A   1      43.711  25.376  34.484  1.00  0.00     0.173 A 
ATOM     90  F   UNL A   1      46.871  26.689  33.268  1.00  0.00    -0.203 F 
ATOM     91  C   UNL A   1      46.423  25.061  34.885  1.00  0.00     0.198 A 
ATOM     92  C   UNL A   1      44.183  24.395  35.355  1.00  0.00     0.198 A 
ATOM     93  F   UNL A   1      42.380  25.481  34.376  1.00  0.00    -0.203 F 
ATOM     94  F   UNL A   1      47.741  24.934  35.091  1.00  0.00    -0.200 F 
ATOM     95  C   UNL A   1      45.538  24.251  35.571  1.00  0.00     0.200 A 
ATOM     96  F   UNL A   1      43.313  23.594  35.987  1.00  0.00    -0.200 F 
ATOM     97  F   UNL A   1      45.989  23.333  36.436  1.00  0.00    -0.200 F 
ENDBRANCH  64  87
ENDBRANCH  38  39
ENDBRANCH  30  33
ENDBRANCH  28  29
ENDBRANCH  27  28
ENDBRANCH   1  27
TORSDOF 13
ENDMDL
MODEL 3
REMARK VINA RESULT:     -14.5      1.717      2.445
REMARK SMILES Cc1cc(C(=O)NCCCNC(=O)c2ccc(-c3c4nc(c(-c5c(F)c(F)c(F)c(F)c5F)c5ccc([nH]5)c(-c5c(F)c(F)c(F)c(F)c5F)c5nc(c(-c6c(F)c(F)c(F)c(F)c6F)c6ccc3[nH]6)C=C5)C=C4)cc2)ccc1NS(=O)(=O)c1ccc2c(c1)CCC2
REMARK SMILES IDX 8 1 7 2 5 3 6 4 4 6 1 7 2 8 3 9 79 10 78 11 77 12 80 13
REMARK SMILES IDX 81 15 82 16 83 17 84 18 85 19 89 20 86 21 88 22 87 23 90 24
REMARK SMILES IDX 92 25 91 26 9 27 10 28 11 29 12 30 13 32 14 33 15 34 76 35
REMARK SMILES IDX 16 36 75 37 17 38 18 39 19 40 69 41 20 42 74 43 68 44 70 45
REMARK SMILES IDX 21 46 73 47 67 48 66 49 22 51 54 52 34 53 53 54 35 55 38 56
REMARK SMILES IDX 52 57 71 58 36 59 37 60 51 62 72 63 39 64 23 65 24 66 32 67
REMARK SMILES IDX 25 68 26 69 30 70 33 71 27 72 28 73 31 74 29 75 55 76 56 77
REMARK SMILES IDX 64 78 57 79 58 80 62 81 65 82 59 83 60 84 63 85 61 86 40 87
REMARK SMILES IDX 41 88 49 89 42 90 43 91 47 92 50 93 44 94 45 95 48 96 46 97
REMARK H PARENT 7 5 80 14 11 31 70 50 38 61
REMARK Flexibility Score: inf
ROOT
ATOM      1  C   UNL A   1      33.725  29.268  26.482  1.00  0.00     0.118 C 
ENDROOT
BRANCH   1   2
ATOM      2  N   UNL A   1      32.775  28.730  27.453  1.00  0.00    -0.352 N 
ATOM      3  C   UNL A   1      31.608  28.014  27.287  1.00  0.00     0.251 C 
ATOM      4  O   UNL A   1      30.895  27.801  28.265  1.00  0.00    -0.269 OA
ATOM      5  H   UNL A   1      33.010  28.911  28.392  1.00  0.00     0.163 HD
BRANCH   3   6
ATOM      6  C   UNL A   1      31.151  27.584  25.943  1.00  0.00     0.040 A 
ATOM      7  C   UNL A   1      30.849  29.158  22.510  1.00  0.00     0.046 C 
ATOM      8  C   UNL A   1      30.994  28.108  23.577  1.00  0.00    -0.026 A 
ATOM      9  C   UNL A   1      31.141  28.524  24.909  1.00  0.00     0.019 A 
ATOM     10  C   UNL A   1      30.964  26.730  23.302  1.00  0.00     0.052 A 
ATOM     11  C   UNL A   1      30.659  25.849  24.341  1.00  0.00     0.028 A 
ATOM     12  C   UNL A   1      30.746  26.280  25.668  1.00  0.00     0.016 A 
BRANCH  10  13
ATOM     13  N   UNL A   1      31.521  26.294  22.064  1.00  0.00    -0.279 N 
ATOM     14  H   UNL A   1      30.896  26.261  21.303  1.00  0.00     0.180 HD
BRANCH  13  15
ATOM     15  S   UNL A   1      33.085  25.833  21.731  1.00  0.00     0.261 S 
ATOM     16  O   UNL A   1      33.037  24.754  20.751  1.00  0.00    -0.201 OA
ATOM     17  O   UNL A   1      33.789  27.065  21.447  1.00  0.00    -0.201 OA
BRANCH  15  18
ATOM     18  C   UNL A   1      33.844  25.153  23.197  1.00  0.00     0.088 A 
ATOM     19  C   UNL A   1      34.153  25.929  24.321  1.00  0.00     0.022 A 
ATOM     20  C   UNL A   1      33.947  23.752  23.252  1.00  0.00     0.026 A 
ATOM     21  C   UNL A   1      34.343  25.311  25.561  1.00  0.00     0.005 A 
ATOM     22  C   UNL A   1      34.196  23.161  24.480  1.00  0.00    -0.043 A 
ATOM     23  C   UNL A   1      34.311  23.934  25.634  1.00  0.00    -0.045 A 
ATOM     24  C   UNL A   1      34.346  21.711  24.817  1.00  0.00     0.036 C 
ATOM     25  C   UNL A   1      34.374  23.077  26.860  1.00  0.00     0.036 C 
ATOM     26  C   UNL A   1      33.923  21.722  26.291  1.00  0.00     0.010 C 
ENDBRANCH  15  18
ENDBRANCH  13  15
ENDBRANCH  10  13
ENDBRANCH   3   6
ENDBRANCH   1   2
BRANCH   1  27
ATOM     27  C   UNL A   1      34.275  30.630  26.897  1.00  0.00     0.042 C 
BRANCH  27  28
ATOM     28  C   UNL A   1      34.366  30.808  28.405  1.00  0.00     0.118 C 
BRANCH  28  29
ATOM     29  N   UNL A   1      35.391  31.751  28.865  1.00  0.00    -0.352 N 
ATOM     30  C   UNL A   1      36.730  31.484  29.129  1.00  0.00     0.251 C 
ATOM     31  H   UNL A   1      35.096  32.682  29.003  1.00  0.00     0.163 HD
ATOM     32  O   UNL A   1      37.512  32.370  29.449  1.00  0.00    -0.269 OA
BRANCH  30  33
ATOM     33  C   UNL A   1      37.208  30.103  28.895  1.00  0.00     0.039 A 
ATOM     34  C   UNL A   1      37.546  29.337  30.012  1.00  0.00     0.014 A 
ATOM     35  C   UNL A   1      37.674  29.768  27.627  1.00  0.00     0.014 A 
ATOM     36  C   UNL A   1      38.590  28.422  29.903  1.00  0.00     0.010 A 
ATOM     37  C   UNL A   1      38.782  28.947  27.545  1.00  0.00     0.010 A 
ATOM     38  C   UNL A   1      39.292  28.340  28.699  1.00  0.00    -0.014 A 
BRANCH  38  39
ATOM     39  C   UNL A   1      40.631  27.759  28.605  1.00  0.00     0.031 A 
ATOM     40  C   UNL A   1      40.812  26.327  28.299  1.00  0.00     0.074 A 
ATOM     41  C   UNL A   1      41.733  28.531  28.753  1.00  0.00     0.049 A 
ATOM     42  N   UNL A   1      41.843  25.638  28.663  1.00  0.00    -0.248 NA
ATOM     43  C   UNL A   1      39.822  25.545  27.572  1.00  0.00     0.031 C 
ATOM     44  C   UNL A   1      43.116  28.151  28.466  1.00  0.00     0.029 A 
ATOM     45  N   UNL A   1      41.847  29.772  29.402  1.00  0.00    -0.354 N 
ATOM     46  C   UNL A   1      41.794  24.432  28.009  1.00  0.00     0.074 A 
ATOM     47  C   UNL A   1      40.487  24.401  27.385  1.00  0.00     0.031 C 
ATOM     48  C   UNL A   1      43.937  28.920  29.196  1.00  0.00     0.029 A 
ATOM     49  C   UNL A   1      43.111  29.750  30.050  1.00  0.00     0.049 A 
ATOM     50  H   UNL A   1      41.189  30.504  29.407  1.00  0.00     0.167 HD
ATOM     51  C   UNL A   1      42.907  23.642  27.962  1.00  0.00     0.037 A 
ATOM     52  C   UNL A   1      43.217  29.862  31.405  1.00  0.00     0.037 A 
ATOM     53  C   UNL A   1      44.024  24.221  28.709  1.00  0.00     0.049 A 
ATOM     54  C   UNL A   1      43.826  28.657  32.089  1.00  0.00     0.074 A 
ATOM     55  C   UNL A   1      45.176  24.906  28.357  1.00  0.00     0.029 A 
ATOM     56  N   UNL A   1      43.908  24.367  30.080  1.00  0.00    -0.354 N 
ATOM     57  N   UNL A   1      44.267  27.600  31.468  1.00  0.00    -0.248 NA
ATOM     58  C   UNL A   1      43.868  28.507  33.545  1.00  0.00     0.031 C 
ATOM     59  C   UNL A   1      45.765  25.438  29.539  1.00  0.00     0.029 A 
ATOM     60  C   UNL A   1      44.964  25.086  30.609  1.00  0.00     0.049 A 
ATOM     61  H   UNL A   1      43.165  24.003  30.614  1.00  0.00     0.167 HD
ATOM     62  C   UNL A   1      44.572  26.630  32.389  1.00  0.00     0.074 A 
ATOM     63  C   UNL A   1      44.305  27.244  33.674  1.00  0.00     0.031 C 
ATOM     64  C   UNL A   1      44.973  25.375  32.032  1.00  0.00     0.037 A 
BRANCH  51  65
ATOM     65  C   UNL A   1      43.047  22.463  27.028  1.00  0.00     0.064 A 
ATOM     66  C   UNL A   1      42.279  21.293  27.210  1.00  0.00     0.173 A 
ATOM     67  C   UNL A   1      43.959  22.405  25.958  1.00  0.00     0.173 A 
ATOM     68  F   UNL A   1      41.278  21.241  28.096  1.00  0.00    -0.203 F 
ATOM     69  C   UNL A   1      42.513  20.122  26.484  1.00  0.00     0.198 A 
ATOM     70  C   UNL A   1      44.242  21.217  25.276  1.00  0.00     0.198 A 
ATOM     71  F   UNL A   1      44.564  23.510  25.502  1.00  0.00    -0.203 F 
ATOM     72  F   UNL A   1      41.757  19.039  26.709  1.00  0.00    -0.200 F 
ATOM     73  C   UNL A   1      43.529  20.069  25.552  1.00  0.00     0.200 A 
ATOM     74  F   UNL A   1      45.212  21.195  24.351  1.00  0.00    -0.200 F 
ATOM     75  F   UNL A   1      43.795  18.929  24.901  1.00  0.00    -0.200 F 
ENDBRANCH  51  65
BRANCH  52  76
ATOM     76  C   UNL A   1      42.164  30.744  31.971  1.00  0.00     0.064 A 
ATOM     77  C   UNL A   1      42.305  32.133  31.775  1.00  0.00     0.173 A 
ATOM     78  C   UNL A   1      40.890  30.254  32.272  1.00  0.00     0.173 A 
ATOM     79  F   UNL A   1      43.512  32.652  31.497  1.00  0.00    -0.203 F 
ATOM     80  C   UNL A   1      41.192  32.964  31.700  1.00  0.00     0.198 A 
ATOM     81  C   UNL A   1      39.782  31.099  32.236  1.00  0.00     0.198 A 
ATOM     82  F   UNL A   1      40.691  28.942  32.463  1.00  0.00    -0.203 F 
ATOM     83  F   UNL A   1      41.338  34.245  31.334  1.00  0.00    -0.200 F 
ATOM     84  C   UNL A   1      39.928  32.438  31.895  1.00  0.00     0.200 A 
ATOM     85  F   UNL A   1      38.555  30.590  32.416  1.00  0.00    -0.200 F 
ATOM     86  F   UNL A   1      38.846  33.204  31.700  1.00  0.00    -0.200 F 
ENDBRANCH  52  76
BRANCH  64  87
ATOM     87  C   UNL A   1      45.380  24.315  33.019  1.00  0.00     0.064 A 
ATOM     88  C   UNL A   1      44.522  23.270  33.400  1.00  0.00     0.173 A 
ATOM     89  C   UNL A   1      46.615  24.374  33.702  1.00  0.00     0.173 A 
ATOM     90  F   UNL A   1      43.284  23.176  32.894  1.00  0.00    -0.203 F 
ATOM     91  C   UNL A   1      44.904  22.303  34.335  1.00  0.00     0.198 A 
ATOM     92  C   UNL A   1      46.973  23.440  34.673  1.00  0.00     0.198 A 
ATOM     93  F   UNL A   1      47.520  25.325  33.435  1.00  0.00    -0.203 F 
ATOM     94  F   UNL A   1      44.077  21.287  34.615  1.00  0.00    -0.200 F 
ATOM     95  C   UNL A   1      46.126  22.392  34.974  1.00  0.00     0.200 A 
ATOM     96  F   UNL A   1      48.146  23.559  35.309  1.00  0.00    -0.200 F 
ATOM     97  F   UNL A   1      46.487  21.474  35.881  1.00  0.00    -0.200 F 
ENDBRANCH  64  87
ENDBRANCH  38  39
ENDBRANCH  30  33
ENDBRANCH  28  29
ENDBRANCH  27  28
ENDBRANCH   1  27
TORSDOF 13
ENDMDL
