MODEL 1
REMARK VINA RESULT:     -13.3      0.000      0.000
REMARK SMILES C[C@]12CC[C@@H]3[C@@H](CCC4=C/C(=N\OCC(=O)N5CCC[C@@H]5C(=O)NCCCNC(=O)c5ccc(-c6c7nc(c(-c8c(F)c(F)c(F)c(F)c8F)c8ccc([nH]8)c(-c8c(F)c(F)c(F)c(F)c8F)c8nc(c(-c9c(F)c(F)c(F)c(F)c9F)c9ccc6[nH]9)C=C8)C=C7)cc5)CC[C@@]43C)[C@@H]1CC[C@@H]2O
REMARK SMILES IDX 22 1 23 2 24 3 21 5 17 6 18 7 19 8 20 9 15 10 16 11 14 12
REMARK SMILES IDX 13 13 12 14 1 15 2 16 3 17 98 18 101 19 4 20 6 21 99 22
REMARK SMILES IDX 100 23 5 24 7 25 96 26 8 27 9 28 95 29 97 30 10 31 94 32
REMARK SMILES IDX 11 33 102 34 25 36 26 37 27 38 28 39 29 40 30 42 31 43 32 44
REMARK SMILES IDX 93 45 33 46 92 47 34 48 35 49 36 50 86 51 37 52 91 53 85 54
REMARK SMILES IDX 87 55 38 56 90 57 84 58 83 59 39 61 71 62 51 63 70 64 52 65
REMARK SMILES IDX 55 66 69 67 88 68 53 69 54 70 68 72 89 73 56 74 40 75 41 76
REMARK SMILES IDX 49 77 42 78 43 79 47 80 50 81 44 82 45 83 48 84 46 85 72 86
REMARK SMILES IDX 73 87 81 88 74 89 75 90 79 91 82 92 76 93 77 94 80 95 78 96
REMARK SMILES IDX 57 97 58 98 66 99 59 100 60 101 64 102 67 103 61 104 62 105
REMARK SMILES IDX 65 106 63 107
REMARK H PARENT 24 4 102 35 28 41 87 60 55 71
REMARK Flexibility Score: inf
ROOT
ATOM      1  C   UNL A   1      32.569  28.931  26.252  1.00  0.00     0.242 C 
ATOM      2  O   UNL A   1      32.855  27.955  26.950  1.00  0.00    -0.273 OA
ATOM      3  N   UNL A   1      31.999  30.014  26.873  1.00  0.00    -0.354 N 
ATOM      4  H   UNL A   1      31.867  29.883  27.839  1.00  0.00     0.163 HD
ENDROOT
BRANCH   1   5
ATOM      5  C   UNL A   1      32.875  28.974  24.750  1.00  0.00     0.174 C 
ATOM      6  N   UNL A   1      31.868  28.486  23.794  1.00  0.00    -0.328 N 
ATOM      7  C   UNL A   1      32.512  27.695  22.758  1.00  0.00     0.120 C 
ATOM      8  C   UNL A   1      33.651  27.006  23.462  1.00  0.00     0.024 C 
ATOM      9  C   UNL A   1      34.085  28.016  24.523  1.00  0.00     0.037 C 
BRANCH   6  10
ATOM     10  C   UNL A   1      30.578  28.919  23.568  1.00  0.00     0.264 C 
ATOM     11  O   UNL A   1      30.210  30.017  24.011  1.00  0.00    -0.271 OA
BRANCH  10  12
ATOM     12  C   UNL A   1      29.526  28.030  22.883  1.00  0.00     0.363 C 
BRANCH  12  13
ATOM     13  O   UNL A   1      28.967  26.886  23.500  1.00  0.00    -0.385 OA
BRANCH  13  14
ATOM     14  N   UNL A   1      29.550  26.703  24.753  1.00  0.00    -0.091 NA
ATOM     15  C   UNL A   1      36.376  21.471  26.126  1.00  0.00     0.014 C 
ATOM     16  C   UNL A   1      35.544  22.696  25.641  1.00  0.00    -0.003 C 
ATOM     17  C   UNL A   1      34.670  23.091  26.824  1.00  0.00     0.010 C 
ATOM     18  C   UNL A   1      34.716  22.481  24.346  1.00  0.00     0.001 C 
ATOM     19  C   UNL A   1      36.453  23.799  25.063  1.00  0.00     0.120 C 
ATOM     20  C   UNL A   1      33.507  22.096  26.999  1.00  0.00     0.005 C 
ATOM     21  C   UNL A   1      33.531  21.531  24.503  1.00  0.00    -0.003 C 
ATOM     22  C   UNL A   1      35.836  22.203  23.319  1.00  0.00     0.007 C 
ATOM     23  C   UNL A   1      36.998  23.126  23.790  1.00  0.00     0.032 C 
ATOM     24  C   UNL A   1      32.646  21.905  25.730  1.00  0.00     0.002 C 
ATOM     25  C   UNL A   1      32.661  21.388  23.249  1.00  0.00     0.008 C 
ATOM     26  C   UNL A   1      31.551  23.043  25.548  1.00  0.00    -0.008 C 
ATOM     27  C   UNL A   1      31.611  22.477  22.998  1.00  0.00     0.032 C 
ATOM     28  C   UNL A   1      31.270  23.437  24.112  1.00  0.00    -0.062 C 
ATOM     29  C   UNL A   1      31.918  24.374  26.266  1.00  0.00     0.018 C 
ATOM     30  C   UNL A   1      30.227  22.482  26.136  1.00  0.00     0.016 C 
ATOM     31  C   UNL A   1      30.693  24.630  23.835  1.00  0.00     0.027 C 
ATOM     32  C   UNL A   1      30.836  25.433  26.256  1.00  0.00     0.061 C 
ATOM     33  C   UNL A   1      30.293  25.646  24.869  1.00  0.00     0.080 C 
BRANCH  19  34
ATOM     34  O   UNL A   1      37.446  24.271  25.941  1.00  0.00    -0.393 OA
ATOM     35  H   UNL A   1      38.150  23.608  26.018  1.00  0.00     0.210 HD
ENDBRANCH  19  34
ENDBRANCH  13  14
ENDBRANCH  12  13
ENDBRANCH  10  12
ENDBRANCH   6  10
ENDBRANCH   1   5
BRANCH   3  36
ATOM     36  C   UNL A   1      31.547  31.318  26.404  1.00  0.00     0.117 C 
BRANCH  36  37
ATOM     37  C   UNL A   1      31.697  32.556  27.322  1.00  0.00     0.042 C 
BRANCH  37  38
ATOM     38  C   UNL A   1      32.656  33.725  26.993  1.00  0.00     0.118 C 
BRANCH  38  39
ATOM     39  N   UNL A   1      32.742  34.766  28.001  1.00  0.00    -0.352 N 
ATOM     40  C   UNL A   1      33.593  34.918  29.080  1.00  0.00     0.251 C 
ATOM     41  H   UNL A   1      32.080  35.487  27.899  1.00  0.00     0.163 HD
ATOM     42  O   UNL A   1      33.433  35.868  29.826  1.00  0.00    -0.269 OA
BRANCH  40  43
ATOM     43  C   UNL A   1      34.653  33.930  29.402  1.00  0.00     0.039 A 
ATOM     44  C   UNL A   1      35.969  34.294  29.082  1.00  0.00     0.014 A 
ATOM     45  C   UNL A   1      34.404  32.670  29.951  1.00  0.00     0.014 A 
ATOM     46  C   UNL A   1      37.038  33.461  29.419  1.00  0.00     0.010 A 
ATOM     47  C   UNL A   1      35.477  31.841  30.310  1.00  0.00     0.010 A 
ATOM     48  C   UNL A   1      36.802  32.256  30.094  1.00  0.00    -0.014 A 
BRANCH  48  49
ATOM     49  C   UNL A   1      37.936  31.552  30.748  1.00  0.00     0.031 A 
ATOM     50  C   UNL A   1      38.751  30.517  30.036  1.00  0.00     0.074 A 
ATOM     51  C   UNL A   1      38.199  31.861  32.033  1.00  0.00     0.049 A 
ATOM     52  N   UNL A   1      39.777  29.833  30.478  1.00  0.00    -0.248 NA
ATOM     53  C   UNL A   1      38.365  30.204  28.655  1.00  0.00     0.031 C 
ATOM     54  C   UNL A   1      37.452  32.841  32.826  1.00  0.00     0.029 A 
ATOM     55  N   UNL A   1      39.153  31.392  32.902  1.00  0.00    -0.354 N 
ATOM     56  C   UNL A   1      40.169  29.012  29.429  1.00  0.00     0.074 A 
ATOM     57  C   UNL A   1      39.244  29.260  28.340  1.00  0.00     0.031 C 
ATOM     58  C   UNL A   1      37.976  32.904  34.059  1.00  0.00     0.029 A 
ATOM     59  C   UNL A   1      39.074  31.950  34.155  1.00  0.00     0.049 A 
ATOM     60  H   UNL A   1      39.827  30.721  32.651  1.00  0.00     0.167 HD
ATOM     61  C   UNL A   1      41.211  28.145  29.383  1.00  0.00     0.037 A 
ATOM     62  C   UNL A   1      39.799  31.713  35.265  1.00  0.00     0.037 A 
ATOM     63  C   UNL A   1      42.112  27.900  30.484  1.00  0.00     0.049 A 
ATOM     64  C   UNL A   1      40.921  30.715  35.196  1.00  0.00     0.074 A 
ATOM     65  C   UNL A   1      43.220  27.070  30.528  1.00  0.00     0.029 A 
ATOM     66  N   UNL A   1      41.997  28.473  31.744  1.00  0.00    -0.354 N 
ATOM     67  N   UNL A   1      41.327  30.001  34.175  1.00  0.00    -0.248 NA
ATOM     68  C   UNL A   1      41.689  30.495  36.428  1.00  0.00     0.031 C 
ATOM     69  C   UNL A   1      43.739  27.098  31.827  1.00  0.00     0.029 A 
ATOM     70  C   UNL A   1      42.992  27.989  32.581  1.00  0.00     0.049 A 
ATOM     71  H   UNL A   1      41.308  29.127  32.006  1.00  0.00     0.167 HD
ATOM     72  C   UNL A   1      42.411  29.265  34.630  1.00  0.00     0.074 A 
ATOM     73  C   UNL A   1      42.610  29.634  36.018  1.00  0.00     0.031 C 
ATOM     74  C   UNL A   1      43.172  28.366  33.960  1.00  0.00     0.037 A 
BRANCH  61  75
ATOM     75  C   UNL A   1      41.428  27.383  28.106  1.00  0.00     0.064 A 
ATOM     76  C   UNL A   1      42.258  27.875  27.086  1.00  0.00     0.173 A 
ATOM     77  C   UNL A   1      40.838  26.123  27.917  1.00  0.00     0.173 A 
ATOM     78  F   UNL A   1      42.847  29.073  27.217  1.00  0.00    -0.203 F 
ATOM     79  C   UNL A   1      42.464  27.150  25.915  1.00  0.00     0.198 A 
ATOM     80  C   UNL A   1      41.069  25.389  26.754  1.00  0.00     0.198 A 
ATOM     81  F   UNL A   1      40.046  25.597  28.863  1.00  0.00    -0.203 F 
ATOM     82  F   UNL A   1      43.228  27.660  24.939  1.00  0.00    -0.200 F 
ATOM     83  C   UNL A   1      41.874  25.906  25.751  1.00  0.00     0.200 A 
ATOM     84  F   UNL A   1      40.510  24.179  26.606  1.00  0.00    -0.200 F 
ATOM     85  F   UNL A   1      42.078  25.207  24.627  1.00  0.00    -0.200 F 
ENDBRANCH  61  75
BRANCH  62  86
ATOM     86  C   UNL A   1      39.490  32.443  36.522  1.00  0.00     0.064 A 
ATOM     87  C   UNL A   1      40.189  33.604  36.876  1.00  0.00     0.173 A 
ATOM     88  C   UNL A   1      38.478  32.003  37.390  1.00  0.00     0.173 A 
ATOM     89  F   UNL A   1      41.176  34.057  36.088  1.00  0.00    -0.203 F 
ATOM     90  C   UNL A   1      39.900  34.288  38.054  1.00  0.00     0.198 A 
ATOM     91  C   UNL A   1      38.170  32.703  38.553  1.00  0.00     0.198 A 
ATOM     92  F   UNL A   1      37.772  30.900  37.095  1.00  0.00    -0.203 F 
ATOM     93  F   UNL A   1      40.610  35.375  38.387  1.00  0.00    -0.200 F 
ATOM     94  C   UNL A   1      38.887  33.842  38.889  1.00  0.00     0.200 A 
ATOM     95  F   UNL A   1      37.177  32.280  39.346  1.00  0.00    -0.200 F 
ATOM     96  F   UNL A   1      38.603  34.506  40.017  1.00  0.00    -0.200 F 
ENDBRANCH  62  86
BRANCH  74  97
ATOM     97  C   UNL A   1      44.305  27.734  34.717  1.00  0.00     0.064 A 
ATOM     98  C   UNL A   1      45.570  28.338  34.784  1.00  0.00     0.173 A 
ATOM     99  C   UNL A   1      44.113  26.530  35.411  1.00  0.00     0.173 A 
ATOM    100  F   UNL A   1      45.810  29.479  34.120  1.00  0.00    -0.203 F 
ATOM    101  C   UNL A   1      46.607  27.746  35.500  1.00  0.00     0.198 A 
ATOM    102  C   UNL A   1      45.144  25.957  36.151  1.00  0.00     0.198 A 
ATOM    103  F   UNL A   1      42.922  25.915  35.380  1.00  0.00    -0.203 F 
ATOM    104  F   UNL A   1      47.820  28.315  35.511  1.00  0.00    -0.200 F 
ATOM    105  C   UNL A   1      46.391  26.563  36.190  1.00  0.00     0.200 A 
ATOM    106  F   UNL A   1      44.930  24.819  36.825  1.00  0.00    -0.200 F 
ATOM    107  F   UNL A   1      47.388  25.999  36.885  1.00  0.00    -0.200 F 
ENDBRANCH  74  97
ENDBRANCH  48  49
ENDBRANCH  40  43
ENDBRANCH  38  39
ENDBRANCH  37  38
ENDBRANCH  36  37
ENDBRANCH   3  36
TORSDOF 15
ENDMDL
MODEL 2
REMARK VINA RESULT:     -13.3      0.267      6.845
REMARK SMILES C[C@]12CC[C@@H]3[C@@H](CCC4=C/C(=N\OCC(=O)N5CCC[C@@H]5C(=O)NCCCNC(=O)c5ccc(-c6c7nc(c(-c8c(F)c(F)c(F)c(F)c8F)c8ccc([nH]8)c(-c8c(F)c(F)c(F)c(F)c8F)c8nc(c(-c9c(F)c(F)c(F)c(F)c9F)c9ccc6[nH]9)C=C8)C=C7)cc5)CC[C@@]43C)[C@@H]1CC[C@@H]2O
REMARK SMILES IDX 22 1 23 2 24 3 21 5 17 6 18 7 19 8 20 9 15 10 16 11 14 12
REMARK SMILES IDX 13 13 12 14 1 15 2 16 3 17 98 18 101 19 4 20 6 21 99 22
REMARK SMILES IDX 100 23 5 24 7 25 96 26 8 27 9 28 95 29 97 30 10 31 94 32
REMARK SMILES IDX 11 33 102 34 25 36 26 37 27 38 28 39 29 40 30 42 31 43 32 44
REMARK SMILES IDX 93 45 33 46 92 47 34 48 35 49 36 50 86 51 37 52 91 53 85 54
REMARK SMILES IDX 87 55 38 56 90 57 84 58 83 59 39 61 71 62 51 63 70 64 52 65
REMARK SMILES IDX 55 66 69 67 88 68 53 69 54 70 68 72 89 73 56 74 40 75 41 76
REMARK SMILES IDX 49 77 42 78 43 79 47 80 50 81 44 82 45 83 48 84 46 85 72 86
REMARK SMILES IDX 73 87 81 88 74 89 75 90 79 91 82 92 76 93 77 94 80 95 78 96
REMARK SMILES IDX 57 97 58 98 66 99 59 100 60 101 64 102 67 103 61 104 62 105
REMARK SMILES IDX 65 106 63 107
REMARK H PARENT 24 4 102 35 28 41 87 60 55 71
REMARK Flexibility Score: inf
ROOT
ATOM      1  C   UNL A   1      32.629  28.844  26.117  1.00  0.00     0.242 C 
ATOM      2  O   UNL A   1      33.022  27.883  26.784  1.00  0.00    -0.273 OA
ATOM      3  N   UNL A   1      32.012  29.874  26.783  1.00  0.00    -0.354 N 
ATOM      4  H   UNL A   1      31.939  29.721  27.753  1.00  0.00     0.163 HD
ENDROOT
BRANCH   1   5
ATOM      5  C   UNL A   1      32.853  28.929  24.602  1.00  0.00     0.174 C 
ATOM      6  N   UNL A   1      31.785  28.490  23.689  1.00  0.00    -0.328 N 
ATOM      7  C   UNL A   1      32.355  27.720  22.595  1.00  0.00     0.120 C 
ATOM      8  C   UNL A   1      33.515  26.988  23.214  1.00  0.00     0.024 C 
ATOM      9  C   UNL A   1      34.028  27.955  24.280  1.00  0.00     0.037 C 
BRANCH   6  10
ATOM     10  C   UNL A   1      30.494  28.954  23.548  1.00  0.00     0.264 C 
ATOM     11  O   UNL A   1      30.183  30.061  24.013  1.00  0.00    -0.271 OA
BRANCH  10  12
ATOM     12  C   UNL A   1      29.378  28.092  22.934  1.00  0.00     0.363 C 
BRANCH  12  13
ATOM     13  O   UNL A   1      28.953  26.867  23.500  1.00  0.00    -0.385 OA
BRANCH  13  14
ATOM     14  N   UNL A   1      29.548  26.703  24.750  1.00  0.00    -0.091 NA
ATOM     15  C   UNL A   1      36.403  21.510  26.126  1.00  0.00     0.014 C 
ATOM     16  C   UNL A   1      35.563  22.725  25.633  1.00  0.00    -0.003 C 
ATOM     17  C   UNL A   1      34.699  23.134  26.820  1.00  0.00     0.010 C 
ATOM     18  C   UNL A   1      34.723  22.491  24.349  1.00  0.00     0.001 C 
ATOM     19  C   UNL A   1      36.463  23.823  25.032  1.00  0.00     0.120 C 
ATOM     20  C   UNL A   1      33.541  22.137  27.018  1.00  0.00     0.005 C 
ATOM     21  C   UNL A   1      33.542  21.540  24.530  1.00  0.00    -0.003 C 
ATOM     22  C   UNL A   1      35.834  22.203  23.316  1.00  0.00     0.007 C 
ATOM     23  C   UNL A   1      36.998  23.135  23.763  1.00  0.00     0.032 C 
ATOM     24  C   UNL A   1      32.668  21.928  25.760  1.00  0.00     0.002 C 
ATOM     25  C   UNL A   1      32.662  21.377  23.287  1.00  0.00     0.008 C 
ATOM     26  C   UNL A   1      31.568  23.059  25.574  1.00  0.00    -0.008 C 
ATOM     27  C   UNL A   1      31.606  22.460  23.031  1.00  0.00     0.032 C 
ATOM     28  C   UNL A   1      31.272  23.434  24.136  1.00  0.00    -0.062 C 
ATOM     29  C   UNL A   1      31.937  24.401  26.271  1.00  0.00     0.018 C 
ATOM     30  C   UNL A   1      30.251  22.502  26.182  1.00  0.00     0.016 C 
ATOM     31  C   UNL A   1      30.689  24.621  23.848  1.00  0.00     0.027 C 
ATOM     32  C   UNL A   1      30.852  25.456  26.257  1.00  0.00     0.061 C 
ATOM     33  C   UNL A   1      30.296  25.650  24.872  1.00  0.00     0.080 C 
BRANCH  19  34
ATOM     34  O   UNL A   1      37.463  24.310  25.894  1.00  0.00    -0.393 OA
ATOM     35  H   UNL A   1      38.142  24.767  25.375  1.00  0.00     0.210 HD
ENDBRANCH  19  34
ENDBRANCH  13  14
ENDBRANCH  12  13
ENDBRANCH  10  12
ENDBRANCH   6  10
ENDBRANCH   1   5
BRANCH   3  36
ATOM     36  C   UNL A   1      31.441  31.145  26.359  1.00  0.00     0.117 C 
BRANCH  36  37
ATOM     37  C   UNL A   1      31.615  32.399  27.251  1.00  0.00     0.042 C 
BRANCH  37  38
ATOM     38  C   UNL A   1      32.650  33.505  26.939  1.00  0.00     0.118 C 
BRANCH  38  39
ATOM     39  N   UNL A   1      32.724  34.583  27.909  1.00  0.00    -0.352 N 
ATOM     40  C   UNL A   1      33.572  34.783  28.982  1.00  0.00     0.251 C 
ATOM     41  H   UNL A   1      32.054  35.293  27.781  1.00  0.00     0.163 HD
ATOM     42  O   UNL A   1      33.402  35.758  29.693  1.00  0.00    -0.269 OA
BRANCH  40  43
ATOM     43  C   UNL A   1      34.643  33.819  29.341  1.00  0.00     0.039 A 
ATOM     44  C   UNL A   1      35.961  34.214  29.069  1.00  0.00     0.014 A 
ATOM     45  C   UNL A   1      34.403  32.551  29.876  1.00  0.00     0.014 A 
ATOM     46  C   UNL A   1      37.036  33.405  29.443  1.00  0.00     0.010 A 
ATOM     47  C   UNL A   1      35.482  31.746  30.272  1.00  0.00     0.010 A 
ATOM     48  C   UNL A   1      36.803  32.192  30.106  1.00  0.00    -0.014 A 
BRANCH  48  49
ATOM     49  C   UNL A   1      37.928  31.512  30.799  1.00  0.00     0.031 A 
ATOM     50  C   UNL A   1      38.312  31.837  32.209  1.00  0.00     0.074 A 
ATOM     51  C   UNL A   1      38.621  30.591  30.099  1.00  0.00     0.049 A 
ATOM     52  N   UNL A   1      39.262  31.312  32.943  1.00  0.00    -0.248 NA
ATOM     53  C   UNL A   1      37.538  32.888  32.882  1.00  0.00     0.031 C 
ATOM     54  C   UNL A   1      38.341  30.214  28.711  1.00  0.00     0.029 A 
ATOM     55  N   UNL A   1      39.696  29.810  30.443  1.00  0.00    -0.354 N 
ATOM     56  C   UNL A   1      39.198  31.961  34.169  1.00  0.00     0.074 A 
ATOM     57  C   UNL A   1      38.137  32.943  34.065  1.00  0.00     0.031 C 
ATOM     58  C   UNL A   1      39.215  29.273  28.324  1.00  0.00     0.029 A 
ATOM     59  C   UNL A   1      40.135  29.002  29.422  1.00  0.00     0.049 A 
ATOM     60  H   UNL A   1      40.111  29.827  31.335  1.00  0.00     0.167 HD
ATOM     61  C   UNL A   1      39.950  31.742  35.277  1.00  0.00     0.037 A 
ATOM     62  C   UNL A   1      41.172  28.145  29.371  1.00  0.00     0.037 A 
ATOM     63  C   UNL A   1      41.014  30.770  35.356  1.00  0.00     0.049 A 
ATOM     64  C   UNL A   1      42.015  27.954  30.601  1.00  0.00     0.074 A 
ATOM     65  C   UNL A   1      41.811  30.445  36.442  1.00  0.00     0.029 A 
ATOM     66  N   UNL A   1      41.442  29.976  34.300  1.00  0.00    -0.354 N 
ATOM     67  N   UNL A   1      41.896  28.519  31.777  1.00  0.00    -0.248 NA
ATOM     68  C   UNL A   1      43.128  27.003  30.500  1.00  0.00     0.031 C 
ATOM     69  C   UNL A   1      42.754  29.499  36.027  1.00  0.00     0.029 A 
ATOM     70  C   UNL A   1      42.513  29.188  34.698  1.00  0.00     0.049 A 
ATOM     71  H   UNL A   1      41.044  29.974  33.399  1.00  0.00     0.167 HD
ATOM     72  C   UNL A   1      42.900  27.978  32.565  1.00  0.00     0.074 A 
ATOM     73  C   UNL A   1      43.610  27.025  31.735  1.00  0.00     0.031 C 
ATOM     74  C   UNL A   1      43.208  28.247  33.857  1.00  0.00     0.037 A 
BRANCH  61  75
ATOM     75  C   UNL A   1      39.663  32.579  36.492  1.00  0.00     0.064 A 
ATOM     76  C   UNL A   1      38.619  32.261  37.375  1.00  0.00     0.173 A 
ATOM     77  C   UNL A   1      40.468  33.686  36.804  1.00  0.00     0.173 A 
ATOM     78  F   UNL A   1      37.821  31.212  37.125  1.00  0.00    -0.203 F 
ATOM     79  C   UNL A   1      38.374  33.035  38.507  1.00  0.00     0.198 A 
ATOM     80  C   UNL A   1      40.236  34.442  37.952  1.00  0.00     0.198 A 
ATOM     81  F   UNL A   1      41.487  34.030  36.003  1.00  0.00    -0.203 F 
ATOM     82  F   UNL A   1      37.346  32.735  39.313  1.00  0.00    -0.200 F 
ATOM     83  C   UNL A   1      39.185  34.122  38.797  1.00  0.00     0.200 A 
ATOM     84  F   UNL A   1      41.032  35.483  38.239  1.00  0.00    -0.200 F 
ATOM     85  F   UNL A   1      38.952  34.862  39.890  1.00  0.00    -0.200 F 
ENDBRANCH  61  75
BRANCH  62  86
ATOM     86  C   UNL A   1      41.456  27.399  28.117  1.00  0.00     0.064 A 
ATOM     87  C   UNL A   1      42.330  27.914  27.150  1.00  0.00     0.173 A 
ATOM     88  C   UNL A   1      40.870  26.149  27.864  1.00  0.00     0.173 A 
ATOM     89  F   UNL A   1      42.903  29.112  27.337  1.00  0.00    -0.203 F 
ATOM     90  C   UNL A   1      42.595  27.216  25.974  1.00  0.00     0.198 A 
ATOM     91  C   UNL A   1      41.158  25.439  26.701  1.00  0.00     0.198 A 
ATOM     92  F   UNL A   1      40.031  25.606  28.760  1.00  0.00    -0.203 F 
ATOM     93  F   UNL A   1      43.405  27.750  25.049  1.00  0.00    -0.200 F 
ATOM     94  C   UNL A   1      42.015  25.976  25.753  1.00  0.00     0.200 A 
ATOM     95  F   UNL A   1      40.611  24.232  26.502  1.00  0.00    -0.200 F 
ATOM     96  F   UNL A   1      42.279  25.301  24.626  1.00  0.00    -0.200 F 
ENDBRANCH  62  86
BRANCH  74  97
ATOM     97  C   UNL A   1      44.351  27.481  34.459  1.00  0.00     0.064 A 
ATOM     98  C   UNL A   1      45.653  28.004  34.486  1.00  0.00     0.173 A 
ATOM     99  C   UNL A   1      44.134  26.225  35.047  1.00  0.00     0.173 A 
ATOM    100  F   UNL A   1      45.915  29.191  33.920  1.00  0.00    -0.203 F 
ATOM    101  C   UNL A   1      46.699  27.287  35.060  1.00  0.00     0.198 A 
ATOM    102  C   UNL A   1      45.177  25.524  35.646  1.00  0.00     0.198 A 
ATOM    103  F   UNL A   1      42.907  25.682  35.048  1.00  0.00    -0.203 F 
ATOM    104  F   UNL A   1      47.943  27.783  35.033  1.00  0.00    -0.200 F 
ATOM    105  C   UNL A   1      46.459  26.053  35.647  1.00  0.00     0.200 A 
ATOM    106  F   UNL A   1      44.941  24.338  36.222  1.00  0.00    -0.200 F 
ATOM    107  F   UNL A   1      47.466  25.368  36.206  1.00  0.00    -0.200 F 
ENDBRANCH  74  97
ENDBRANCH  48  49
ENDBRANCH  40  43
ENDBRANCH  38  39
ENDBRANCH  37  38
ENDBRANCH  36  37
ENDBRANCH   3  36
TORSDOF 15
ENDMDL
MODEL 3
REMARK VINA RESULT:     -13.1      3.245      7.657
REMARK SMILES C[C@]12CC[C@@H]3[C@@H](CCC4=C/C(=N\OCC(=O)N5CCC[C@@H]5C(=O)NCCCNC(=O)c5ccc(-c6c7nc(c(-c8c(F)c(F)c(F)c(F)c8F)c8ccc([nH]8)c(-c8c(F)c(F)c(F)c(F)c8F)c8nc(c(-c9c(F)c(F)c(F)c(F)c9F)c9ccc6[nH]9)C=C8)C=C7)cc5)CC[C@@]43C)[C@@H]1CC[C@@H]2O
REMARK SMILES IDX 22 1 23 2 24 3 21 5 17 6 18 7 19 8 20 9 15 10 16 11 14 12
REMARK SMILES IDX 13 13 12 14 1 15 2 16 3 17 98 18 101 19 4 20 6 21 99 22
REMARK SMILES IDX 100 23 5 24 7 25 96 26 8 27 9 28 95 29 97 30 10 31 94 32
REMARK SMILES IDX 11 33 102 34 25 36 26 37 27 38 28 39 29 40 30 42 31 43 32 44
REMARK SMILES IDX 93 45 33 46 92 47 34 48 35 49 36 50 86 51 37 52 91 53 85 54
REMARK SMILES IDX 87 55 38 56 90 57 84 58 83 59 39 61 71 62 51 63 70 64 52 65
REMARK SMILES IDX 55 66 69 67 88 68 53 69 54 70 68 72 89 73 56 74 40 75 41 76
REMARK SMILES IDX 49 77 42 78 43 79 47 80 50 81 44 82 45 83 48 84 46 85 72 86
REMARK SMILES IDX 73 87 81 88 74 89 75 90 79 91 82 92 76 93 77 94 80 95 78 96
REMARK SMILES IDX 57 97 58 98 66 99 59 100 60 101 64 102 67 103 61 104 62 105
REMARK SMILES IDX 65 106 63 107
REMARK H PARENT 24 4 102 35 28 41 87 60 55 71
REMARK Flexibility Score: inf
ROOT
ATOM      1  C   UNL A   1      30.747  29.477  23.027  1.00  0.00     0.242 C 
ATOM      2  O   UNL A   1      30.593  29.134  21.852  1.00  0.00    -0.273 OA
ATOM      3  N   UNL A   1      32.000  29.342  23.571  1.00  0.00    -0.354 N 
ATOM      4  H   UNL A   1      32.657  28.963  22.945  1.00  0.00     0.163 HD
ENDROOT
BRANCH   1   5
ATOM      5  C   UNL A   1      29.606  30.082  23.854  1.00  0.00     0.174 C 
ATOM      6  N   UNL A   1      28.222  29.967  23.367  1.00  0.00    -0.328 N 
ATOM      7  C   UNL A   1      27.523  31.227  23.560  1.00  0.00     0.120 C 
ATOM      8  C   UNL A   1      28.580  32.280  23.355  1.00  0.00     0.024 C 
ATOM      9  C   UNL A   1      29.854  31.621  23.881  1.00  0.00     0.037 C 
BRANCH   6  10
ATOM     10  C   UNL A   1      27.466  28.844  23.100  1.00  0.00     0.264 C 
ATOM     11  O   UNL A   1      26.470  28.932  22.368  1.00  0.00    -0.271 OA
BRANCH  10  12
ATOM     12  C   UNL A   1      27.743  27.492  23.780  1.00  0.00     0.363 C 
BRANCH  12  13
ATOM     13  O   UNL A   1      28.956  26.783  23.616  1.00  0.00    -0.385 OA
BRANCH  13  14
ATOM     14  N   UNL A   1      29.548  26.584  24.862  1.00  0.00    -0.091 NA
ATOM     15  C   UNL A   1      36.498  21.480  26.085  1.00  0.00     0.014 C 
ATOM     16  C   UNL A   1      35.637  22.697  25.633  1.00  0.00    -0.003 C 
ATOM     17  C   UNL A   1      34.758  23.043  26.829  1.00  0.00     0.010 C 
ATOM     18  C   UNL A   1      34.808  22.494  24.337  1.00  0.00     0.001 C 
ATOM     19  C   UNL A   1      36.518  23.833  25.078  1.00  0.00     0.120 C 
ATOM     20  C   UNL A   1      33.619  22.017  26.983  1.00  0.00     0.005 C 
ATOM     21  C   UNL A   1      33.646  21.513  24.474  1.00  0.00    -0.003 C 
ATOM     22  C   UNL A   1      35.930  22.266  23.299  1.00  0.00     0.007 C 
ATOM     23  C   UNL A   1      37.073  23.204  23.788  1.00  0.00     0.032 C 
ATOM     24  C   UNL A   1      32.757  21.837  25.713  1.00  0.00     0.002 C 
ATOM     25  C   UNL A   1      32.775  21.380  23.221  1.00  0.00     0.008 C 
ATOM     26  C   UNL A   1      31.636  22.953  25.563  1.00  0.00    -0.008 C 
ATOM     27  C   UNL A   1      31.699  22.450  23.000  1.00  0.00     0.032 C 
ATOM     28  C   UNL A   1      31.340  23.375  24.138  1.00  0.00    -0.062 C 
ATOM     29  C   UNL A   1      31.975  24.275  26.311  1.00  0.00     0.018 C 
ATOM     30  C   UNL A   1      30.327  22.348  26.142  1.00  0.00     0.016 C 
ATOM     31  C   UNL A   1      30.735  24.560  23.891  1.00  0.00     0.027 C 
ATOM     32  C   UNL A   1      30.869  25.308  26.330  1.00  0.00     0.061 C 
ATOM     33  C   UNL A   1      30.316  25.542  24.950  1.00  0.00     0.080 C 
BRANCH  19  34
ATOM     34  O   UNL A   1      37.503  24.307  25.964  1.00  0.00    -0.393 OA
ATOM     35  H   UNL A   1      37.180  24.231  26.875  1.00  0.00     0.210 HD
ENDBRANCH  19  34
ENDBRANCH  13  14
ENDBRANCH  12  13
ENDBRANCH  10  12
ENDBRANCH   6  10
ENDBRANCH   1   5
BRANCH   3  36
ATOM     36  C   UNL A   1      32.563  29.642  24.881  1.00  0.00     0.117 C 
BRANCH  36  37
ATOM     37  C   UNL A   1      32.786  28.498  25.900  1.00  0.00     0.042 C 
BRANCH  37  38
ATOM     38  C   UNL A   1      33.434  28.732  27.286  1.00  0.00     0.118 C 
BRANCH  38  39
ATOM     39  N   UNL A   1      33.588  30.122  27.677  1.00  0.00    -0.352 N 
ATOM     40  C   UNL A   1      34.670  30.802  28.204  1.00  0.00     0.251 C 
ATOM     41  H   UNL A   1      32.784  30.674  27.544  1.00  0.00     0.163 HD
ATOM     42  O   UNL A   1      34.537  31.976  28.503  1.00  0.00    -0.269 OA
BRANCH  40  43
ATOM     43  C   UNL A   1      35.969  30.139  28.483  1.00  0.00     0.039 A 
ATOM     44  C   UNL A   1      36.908  30.135  27.441  1.00  0.00     0.014 A 
ATOM     45  C   UNL A   1      36.273  29.494  29.684  1.00  0.00     0.014 A 
ATOM     46  C   UNL A   1      38.184  29.603  27.638  1.00  0.00     0.010 A 
ATOM     47  C   UNL A   1      37.561  28.977  29.891  1.00  0.00     0.010 A 
ATOM     48  C   UNL A   1      38.539  29.077  28.888  1.00  0.00    -0.014 A 
BRANCH  48  49
ATOM     49  C   UNL A   1      39.972  28.834  29.196  1.00  0.00     0.031 A 
ATOM     50  C   UNL A   1      40.811  29.829  29.937  1.00  0.00     0.074 A 
ATOM     51  C   UNL A   1      40.512  27.678  28.761  1.00  0.00     0.049 A 
ATOM     52  N   UNL A   1      42.070  29.743  30.288  1.00  0.00    -0.248 NA
ATOM     53  C   UNL A   1      40.158  31.084  30.330  1.00  0.00     0.031 C 
ATOM     54  C   UNL A   1      39.787  26.648  28.012  1.00  0.00     0.029 A 
ATOM     55  N   UNL A   1      41.782  27.170  28.875  1.00  0.00    -0.354 N 
ATOM     56  C   UNL A   1      42.363  30.927  30.952  1.00  0.00     0.074 A 
ATOM     57  C   UNL A   1      41.156  31.729  30.922  1.00  0.00     0.031 C 
ATOM     58  C   UNL A   1      40.619  25.632  27.738  1.00  0.00     0.029 A 
ATOM     59  C   UNL A   1      41.942  25.950  28.263  1.00  0.00     0.049 A 
ATOM     60  H   UNL A   1      42.508  27.636  29.349  1.00  0.00     0.167 HD
ATOM     61  C   UNL A   1      43.529  31.295  31.539  1.00  0.00     0.037 A 
ATOM     62  C   UNL A   1      43.035  25.176  28.130  1.00  0.00     0.037 A 
ATOM     63  C   UNL A   1      44.725  30.489  31.544  1.00  0.00     0.049 A 
ATOM     64  C   UNL A   1      44.325  25.631  28.754  1.00  0.00     0.074 A 
ATOM     65  C   UNL A   1      45.946  30.755  32.141  1.00  0.00     0.029 A 
ATOM     66  N   UNL A   1      44.857  29.263  30.904  1.00  0.00    -0.354 N 
ATOM     67  N   UNL A   1      44.567  26.718  29.444  1.00  0.00    -0.248 NA
ATOM     68  C   UNL A   1      45.487  24.750  28.590  1.00  0.00     0.031 C 
ATOM     69  C   UNL A   1      46.830  29.720  31.817  1.00  0.00     0.029 A 
ATOM     70  C   UNL A   1      46.147  28.778  31.064  1.00  0.00     0.049 A 
ATOM     71  H   UNL A   1      44.139  28.805  30.409  1.00  0.00     0.167 HD
ATOM     72  C   UNL A   1      45.901  26.644  29.818  1.00  0.00     0.074 A 
ATOM     73  C   UNL A   1      46.411  25.394  29.291  1.00  0.00     0.031 C 
ATOM     74  C   UNL A   1      46.637  27.531  30.530  1.00  0.00     0.037 A 
BRANCH  61  75
ATOM     75  C   UNL A   1      43.576  32.638  32.213  1.00  0.00     0.064 A 
ATOM     76  C   UNL A   1      43.917  33.804  31.509  1.00  0.00     0.173 A 
ATOM     77  C   UNL A   1      43.230  32.771  33.567  1.00  0.00     0.173 A 
ATOM     78  F   UNL A   1      44.254  33.733  30.212  1.00  0.00    -0.203 F 
ATOM     79  C   UNL A   1      43.940  35.045  32.141  1.00  0.00     0.198 A 
ATOM     80  C   UNL A   1      43.229  34.018  34.189  1.00  0.00     0.198 A 
ATOM     81  F   UNL A   1      42.883  31.693  34.286  1.00  0.00    -0.203 F 
ATOM     82  F   UNL A   1      44.309  36.137  31.458  1.00  0.00    -0.200 F 
ATOM     83  C   UNL A   1      43.592  35.152  33.479  1.00  0.00     0.200 A 
ATOM     84  F   UNL A   1      42.875  34.122  35.478  1.00  0.00    -0.200 F 
ATOM     85  F   UNL A   1      43.608  36.348  34.084  1.00  0.00    -0.200 F 
ENDBRANCH  61  75
BRANCH  62  86
ATOM     86  C   UNL A   1      42.947  23.892  27.386  1.00  0.00     0.064 A 
ATOM     87  C   UNL A   1      43.284  23.817  26.028  1.00  0.00     0.173 A 
ATOM     88  C   UNL A   1      42.538  22.709  28.021  1.00  0.00     0.173 A 
ATOM     89  F   UNL A   1      43.665  24.923  25.371  1.00  0.00    -0.203 F 
ATOM     90  C   UNL A   1      43.201  22.614  25.330  1.00  0.00     0.198 A 
ATOM     91  C   UNL A   1      42.483  21.501  27.330  1.00  0.00     0.198 A 
ATOM     92  F   UNL A   1      42.212  22.723  29.322  1.00  0.00    -0.203 F 
ATOM     93  F   UNL A   1      43.493  22.580  24.023  1.00  0.00    -0.200 F 
ATOM     94  C   UNL A   1      42.808  21.456  25.982  1.00  0.00     0.200 A 
ATOM     95  F   UNL A   1      42.122  20.381  27.969  1.00  0.00    -0.200 F 
ATOM     96  F   UNL A   1      42.738  20.297  25.313  1.00  0.00    -0.200 F 
ENDBRANCH  62  86
BRANCH  74  97
ATOM     97  C   UNL A   1      48.068  27.168  30.801  1.00  0.00     0.064 A 
ATOM     98  C   UNL A   1      49.113  27.646  29.995  1.00  0.00     0.173 A 
ATOM     99  C   UNL A   1      48.402  26.361  31.899  1.00  0.00     0.173 A 
ATOM    100  F   UNL A   1      48.844  28.405  28.921  1.00  0.00    -0.203 F 
ATOM    101  C   UNL A   1      50.436  27.311  30.267  1.00  0.00     0.198 A 
ATOM    102  C   UNL A   1      49.729  26.052  32.185  1.00  0.00     0.198 A 
ATOM    103  F   UNL A   1      47.440  25.880  32.701  1.00  0.00    -0.203 F 
ATOM    104  F   UNL A   1      51.414  27.739  29.456  1.00  0.00    -0.200 F 
ATOM    105  C   UNL A   1      50.744  26.523  31.365  1.00  0.00     0.200 A 
ATOM    106  F   UNL A   1      50.025  25.300  33.253  1.00  0.00    -0.200 F 
ATOM    107  F   UNL A   1      52.019  26.208  31.630  1.00  0.00    -0.200 F 
ENDBRANCH  74  97
ENDBRANCH  48  49
ENDBRANCH  40  43
ENDBRANCH  38  39
ENDBRANCH  37  38
ENDBRANCH  36  37
ENDBRANCH   3  36
TORSDOF 15
ENDMDL
