MODEL 1
REMARK VINA RESULT:     -12.9      0.000      0.000
REMARK SMILES Cc1ccc(NS(=O)(=O)c2cc(C(=O)NCCCNC(=O)c3ccc(-c4c5nc(c(-c6c(F)c(F)c(F)c(F)c6F)c6ccc([nH]6)c(-c6c(F)c(F)c(F)c(F)c6F)c6nc(c(-c7c(F)c(F)c(F)c(F)c7F)c7ccc4[nH]7)C=C6)C=C5)cc3)ccc2Cl)nc1
REMARK SMILES IDX 16 1 15 2 13 3 14 4 12 6 10 7 11 8 87 9 86 10 88 11 85 12
REMARK SMILES IDX 7 13 8 14 9 15 6 16 5 18 1 19 2 20 3 21 90 22 4 23 89 24
REMARK SMILES IDX 17 25 18 26 19 27 20 28 21 30 22 31 23 32 84 33 24 34 83 35
REMARK SMILES IDX 25 36 26 37 27 38 77 39 28 40 82 41 76 42 78 43 29 44 81 45
REMARK SMILES IDX 75 46 74 47 30 49 62 50 42 51 61 52 43 53 46 54 60 55 79 56
REMARK SMILES IDX 44 57 45 58 59 60 80 61 47 62 31 63 32 64 40 65 33 66 34 67
REMARK SMILES IDX 38 68 41 69 35 70 36 71 39 72 37 73 63 74 64 75 72 76 65 77
REMARK SMILES IDX 66 78 70 79 73 80 67 81 68 82 71 83 69 84 48 85 49 86 57 87
REMARK SMILES IDX 50 88 51 89 55 90 58 91 52 92 53 93 56 94 54 95
REMARK H PARENT 15 5 6 17 19 29 78 48 46 59
REMARK Flexibility Score: inf
ROOT
ATOM      1  C   UNL A   1      31.400  30.504  25.688  1.00  0.00     0.118 C 
ENDROOT
BRANCH   1   2
ATOM      2  N   UNL A   1      30.631  30.567  24.459  1.00  0.00    -0.352 N 
ATOM      3  C   UNL A   1      30.272  29.640  23.517  1.00  0.00     0.251 C 
ATOM      4  O   UNL A   1      29.664  30.069  22.534  1.00  0.00    -0.269 OA
ATOM      5  H   UNL A   1      30.295  31.471  24.261  1.00  0.00     0.163 HD
BRANCH   3   6
ATOM      6  C   UNL A   1      30.489  28.168  23.648  1.00  0.00     0.041 A 
ATOM      7  C   UNL A   1      31.534  26.180  22.660  1.00  0.00     0.107 A 
ATOM      8  C   UNL A   1      31.375  27.578  22.734  1.00  0.00     0.037 A 
ATOM      9  C   UNL A   1      30.721  25.360  23.432  1.00  0.00     0.061 A 
ATOM     10  C   UNL A   1      29.952  25.942  24.445  1.00  0.00     0.023 A 
ATOM     11  Cl  UNL A   1      30.529  23.662  23.191  1.00  0.00    -0.083 Cl
ATOM     12  C   UNL A   1      29.880  27.334  24.583  1.00  0.00     0.015 A 
BRANCH   7  13
ATOM     13  S   UNL A   1      32.876  25.594  21.662  1.00  0.00     0.264 S 
ATOM     14  O   UNL A   1      34.025  26.438  21.938  1.00  0.00    -0.201 OA
ATOM     15  O   UNL A   1      32.359  25.500  20.314  1.00  0.00    -0.201 OA
BRANCH  13  16
ATOM     16  N   UNL A   1      33.285  24.041  22.090  1.00  0.00    -0.263 N 
ATOM     17  H   UNL A   1      32.843  23.301  21.615  1.00  0.00     0.182 HD
BRANCH  16  18
ATOM     18  C   UNL A   1      34.223  23.718  23.088  1.00  0.00     0.139 A 
ATOM     19  C   UNL A   1      37.512  23.871  25.729  1.00  0.00     0.046 C 
ATOM     20  C   UNL A   1      36.295  23.701  24.876  1.00  0.00    -0.033 A 
ATOM     21  C   UNL A   1      35.064  24.227  25.263  1.00  0.00     0.009 A 
ATOM     22  C   UNL A   1      36.373  23.121  23.615  1.00  0.00     0.117 A 
ATOM     23  C   UNL A   1      34.003  24.220  24.363  1.00  0.00     0.048 A 
ATOM     24  N   UNL A   1      35.358  23.109  22.718  1.00  0.00    -0.238 NA
ENDBRANCH  16  18
ENDBRANCH  13  16
ENDBRANCH   7  13
ENDBRANCH   3   6
ENDBRANCH   1   2
BRANCH   1  25
ATOM     25  C   UNL A   1      31.262  31.813  26.467  1.00  0.00     0.042 C 
BRANCH  25  26
ATOM     26  C   UNL A   1      32.612  32.334  26.965  1.00  0.00     0.118 C 
BRANCH  26  27
ATOM     27  N   UNL A   1      32.509  33.716  27.408  1.00  0.00    -0.352 N 
ATOM     28  C   UNL A   1      33.157  34.368  28.424  1.00  0.00     0.251 C 
ATOM     29  H   UNL A   1      31.874  34.270  26.898  1.00  0.00     0.163 HD
ATOM     30  O   UNL A   1      32.762  35.478  28.771  1.00  0.00    -0.269 OA
BRANCH  28  31
ATOM     31  C   UNL A   1      34.315  33.757  29.113  1.00  0.00     0.039 A 
ATOM     32  C   UNL A   1      35.598  34.187  28.755  1.00  0.00     0.014 A 
ATOM     33  C   UNL A   1      34.162  32.717  30.035  1.00  0.00     0.014 A 
ATOM     34  C   UNL A   1      36.721  33.595  29.335  1.00  0.00     0.010 A 
ATOM     35  C   UNL A   1      35.283  32.159  30.652  1.00  0.00     0.010 A 
ATOM     36  C   UNL A   1      36.572  32.583  30.296  1.00  0.00    -0.014 A 
BRANCH  36  37
ATOM     37  C   UNL A   1      37.765  31.959  30.919  1.00  0.00     0.031 A 
ATOM     38  C   UNL A   1      38.192  32.349  32.306  1.00  0.00     0.074 A 
ATOM     39  C   UNL A   1      38.477  31.053  30.223  1.00  0.00     0.049 A 
ATOM     40  N   UNL A   1      39.204  31.912  33.013  1.00  0.00    -0.248 NA
ATOM     41  C   UNL A   1      37.391  33.382  32.979  1.00  0.00     0.031 C 
ATOM     42  C   UNL A   1      38.189  30.627  28.853  1.00  0.00     0.029 A 
ATOM     43  N   UNL A   1      39.589  30.330  30.571  1.00  0.00    -0.354 N 
ATOM     44  C   UNL A   1      39.168  32.624  34.205  1.00  0.00     0.074 A 
ATOM     45  C   UNL A   1      38.059  33.549  34.111  1.00  0.00     0.031 C 
ATOM     46  C   UNL A   1      39.087  29.699  28.485  1.00  0.00     0.029 A 
ATOM     47  C   UNL A   1      40.023  29.481  29.585  1.00  0.00     0.049 A 
ATOM     48  H   UNL A   1      40.034  30.412  31.446  1.00  0.00     0.167 HD
ATOM     49  C   UNL A   1      39.975  32.503  35.286  1.00  0.00     0.037 A 
ATOM     50  C   UNL A   1      41.054  28.617  29.572  1.00  0.00     0.037 A 
ATOM     51  C   UNL A   1      41.061  31.563  35.391  1.00  0.00     0.049 A 
ATOM     52  C   UNL A   1      41.911  28.475  30.798  1.00  0.00     0.074 A 
ATOM     53  C   UNL A   1      41.904  31.328  36.464  1.00  0.00     0.029 A 
ATOM     54  N   UNL A   1      41.450  30.695  34.380  1.00  0.00    -0.354 N 
ATOM     55  N   UNL A   1      41.829  29.110  31.942  1.00  0.00    -0.248 NA
ATOM     56  C   UNL A   1      42.995  27.485  30.736  1.00  0.00     0.031 C 
ATOM     57  C   UNL A   1      42.821  30.338  36.094  1.00  0.00     0.029 A 
ATOM     58  C   UNL A   1      42.527  29.932  34.802  1.00  0.00     0.049 A 
ATOM     59  H   UNL A   1      41.025  30.633  33.495  1.00  0.00     0.167 HD
ATOM     60  C   UNL A   1      42.835  28.586  32.741  1.00  0.00     0.074 A 
ATOM     61  C   UNL A   1      43.504  27.566  31.958  1.00  0.00     0.031 C 
ATOM     62  C   UNL A   1      43.176  28.920  34.010  1.00  0.00     0.037 A 
BRANCH  49  63
ATOM     63  C   UNL A   1      39.709  33.410  36.450  1.00  0.00     0.064 A 
ATOM     64  C   UNL A   1      40.331  34.664  36.560  1.00  0.00     0.173 A 
ATOM     65  C   UNL A   1      38.800  33.039  37.451  1.00  0.00     0.173 A 
ATOM     66  F   UNL A   1      41.218  35.059  35.635  1.00  0.00    -0.203 F 
ATOM     67  C   UNL A   1      40.071  35.499  37.642  1.00  0.00     0.198 A 
ATOM     68  C   UNL A   1      38.524  33.888  38.520  1.00  0.00     0.198 A 
ATOM     69  F   UNL A   1      38.174  31.853  37.391  1.00  0.00    -0.203 F 
ATOM     70  F   UNL A   1      40.709  36.673  37.748  1.00  0.00    -0.200 F 
ATOM     71  C   UNL A   1      39.165  35.114  38.619  1.00  0.00     0.200 A 
ATOM     72  F   UNL A   1      37.639  33.519  39.457  1.00  0.00    -0.200 F 
ATOM     73  F   UNL A   1      38.912  35.922  39.657  1.00  0.00    -0.200 F 
ENDBRANCH  49  63
BRANCH  50  74
ATOM     74  C   UNL A   1      41.302  27.783  28.370  1.00  0.00     0.064 A 
ATOM     75  C   UNL A   1      40.697  26.528  28.232  1.00  0.00     0.173 A 
ATOM     76  C   UNL A   1      42.137  28.227  27.334  1.00  0.00     0.173 A 
ATOM     77  F   UNL A   1      39.904  26.056  29.205  1.00  0.00    -0.203 F 
ATOM     78  C   UNL A   1      40.929  25.738  27.108  1.00  0.00     0.198 A 
ATOM     79  C   UNL A   1      42.352  27.446  26.202  1.00  0.00     0.198 A 
ATOM     80  F   UNL A   1      42.734  29.424  27.420  1.00  0.00    -0.203 F 
ATOM     81  F   UNL A   1      40.364  24.526  27.016  1.00  0.00    -0.200 F 
ATOM     82  C   UNL A   1      41.752  26.200  26.092  1.00  0.00     0.200 A 
ATOM     83  F   UNL A   1      43.138  27.900  25.216  1.00  0.00    -0.200 F 
ATOM     84  F   UNL A   1      41.971  25.442  25.009  1.00  0.00    -0.200 F 
ENDBRANCH  50  74
BRANCH  62  85
ATOM     85  C   UNL A   1      44.307  28.159  34.633  1.00  0.00     0.064 A 
ATOM     86  C   UNL A   1      44.088  26.959  35.325  1.00  0.00     0.173 A 
ATOM     87  C   UNL A   1      45.625  28.625  34.521  1.00  0.00     0.173 A 
ATOM     88  F   UNL A   1      42.843  26.482  35.473  1.00  0.00    -0.203 F 
ATOM     89  C   UNL A   1      45.147  26.266  35.905  1.00  0.00     0.198 A 
ATOM     90  C   UNL A   1      46.684  27.918  35.083  1.00  0.00     0.198 A 
ATOM     91  F   UNL A   1      45.885  29.767  33.866  1.00  0.00    -0.203 F 
ATOM     92  F   UNL A   1      44.910  25.146  36.602  1.00  0.00    -0.200 F 
ATOM     93  C   UNL A   1      46.444  26.744  35.780  1.00  0.00     0.200 A 
ATOM     94  F   UNL A   1      47.936  28.377  34.955  1.00  0.00    -0.200 F 
ATOM     95  F   UNL A   1      47.462  26.077  36.342  1.00  0.00    -0.200 F 
ENDBRANCH  62  85
ENDBRANCH  36  37
ENDBRANCH  28  31
ENDBRANCH  26  27
ENDBRANCH  25  26
ENDBRANCH   1  25
TORSDOF 13
ENDMDL
MODEL 2
REMARK VINA RESULT:     -12.9      0.129      1.944
REMARK SMILES Cc1ccc(NS(=O)(=O)c2cc(C(=O)NCCCNC(=O)c3ccc(-c4c5nc(c(-c6c(F)c(F)c(F)c(F)c6F)c6ccc([nH]6)c(-c6c(F)c(F)c(F)c(F)c6F)c6nc(c(-c7c(F)c(F)c(F)c(F)c7F)c7ccc4[nH]7)C=C6)C=C5)cc3)ccc2Cl)nc1
REMARK SMILES IDX 16 1 15 2 13 3 14 4 12 6 10 7 11 8 87 9 86 10 88 11 85 12
REMARK SMILES IDX 7 13 8 14 9 15 6 16 5 18 1 19 2 20 3 21 90 22 4 23 89 24
REMARK SMILES IDX 17 25 18 26 19 27 20 28 21 30 22 31 23 32 84 33 24 34 83 35
REMARK SMILES IDX 25 36 26 37 27 38 77 39 28 40 82 41 76 42 78 43 29 44 81 45
REMARK SMILES IDX 75 46 74 47 30 49 62 50 42 51 61 52 43 53 46 54 60 55 79 56
REMARK SMILES IDX 44 57 45 58 59 60 80 61 47 62 31 63 32 64 40 65 33 66 34 67
REMARK SMILES IDX 38 68 41 69 35 70 36 71 39 72 37 73 63 74 64 75 72 76 65 77
REMARK SMILES IDX 66 78 70 79 73 80 67 81 68 82 71 83 69 84 48 85 49 86 57 87
REMARK SMILES IDX 50 88 51 89 55 90 58 91 52 92 53 93 56 94 54 95
REMARK H PARENT 15 5 6 17 19 29 78 48 46 59
REMARK Flexibility Score: inf
ROOT
ATOM      1  C   UNL A   1      31.402  30.499  25.712  1.00  0.00     0.118 C 
ENDROOT
BRANCH   1   2
ATOM      2  N   UNL A   1      30.640  30.583  24.481  1.00  0.00    -0.352 N 
ATOM      3  C   UNL A   1      30.277  29.670  23.527  1.00  0.00     0.251 C 
ATOM      4  O   UNL A   1      29.677  30.116  22.546  1.00  0.00    -0.269 OA
ATOM      5  H   UNL A   1      30.314  31.492  24.291  1.00  0.00     0.163 HD
BRANCH   3   6
ATOM      6  C   UNL A   1      30.479  28.195  23.643  1.00  0.00     0.041 A 
ATOM      7  C   UNL A   1      31.532  26.211  22.655  1.00  0.00     0.107 A 
ATOM      8  C   UNL A   1      31.383  27.610  22.744  1.00  0.00     0.037 A 
ATOM      9  C   UNL A   1      30.694  25.388  23.395  1.00  0.00     0.061 A 
ATOM     10  C   UNL A   1      29.904  25.963  24.396  1.00  0.00     0.023 A 
ATOM     11  Cl  UNL A   1      30.494  23.695  23.125  1.00  0.00    -0.083 Cl
ATOM     12  C   UNL A   1      29.840  27.353  24.551  1.00  0.00     0.015 A 
BRANCH   7  13
ATOM     13  S   UNL A   1      32.895  25.628  21.684  1.00  0.00     0.264 S 
ATOM     14  O   UNL A   1      34.044  26.458  21.999  1.00  0.00    -0.201 OA
ATOM     15  O   UNL A   1      32.412  25.556  20.322  1.00  0.00    -0.201 OA
BRANCH  13  16
ATOM     16  N   UNL A   1      33.281  24.066  22.100  1.00  0.00    -0.263 N 
ATOM     17  H   UNL A   1      32.842  23.336  21.607  1.00  0.00     0.182 HD
BRANCH  16  18
ATOM     18  C   UNL A   1      34.195  23.722  23.113  1.00  0.00     0.139 A 
ATOM     19  C   UNL A   1      37.303  23.891  25.964  1.00  0.00     0.046 C 
ATOM     20  C   UNL A   1      36.159  23.702  25.020  1.00  0.00    -0.033 A 
ATOM     21  C   UNL A   1      34.859  24.044  25.384  1.00  0.00     0.009 A 
ATOM     22  C   UNL A   1      36.368  23.292  23.707  1.00  0.00     0.117 A 
ATOM     23  C   UNL A   1      33.854  24.038  24.421  1.00  0.00     0.048 A 
ATOM     24  N   UNL A   1      35.409  23.286  22.751  1.00  0.00    -0.238 NA
ENDBRANCH  16  18
ENDBRANCH  13  16
ENDBRANCH   7  13
ENDBRANCH   3   6
ENDBRANCH   1   2
BRANCH   1  25
ATOM     25  C   UNL A   1      31.285  31.807  26.498  1.00  0.00     0.042 C 
BRANCH  25  26
ATOM     26  C   UNL A   1      32.653  32.378  26.876  1.00  0.00     0.118 C 
BRANCH  26  27
ATOM     27  N   UNL A   1      32.535  33.747  27.357  1.00  0.00    -0.352 N 
ATOM     28  C   UNL A   1      33.159  34.372  28.404  1.00  0.00     0.251 C 
ATOM     29  H   UNL A   1      31.907  34.312  26.852  1.00  0.00     0.163 HD
ATOM     30  O   UNL A   1      32.752  35.469  28.776  1.00  0.00    -0.269 OA
BRANCH  28  31
ATOM     31  C   UNL A   1      34.307  33.746  29.098  1.00  0.00     0.039 A 
ATOM     32  C   UNL A   1      35.596  34.166  28.750  1.00  0.00     0.014 A 
ATOM     33  C   UNL A   1      34.139  32.703  30.013  1.00  0.00     0.014 A 
ATOM     34  C   UNL A   1      36.710  33.561  29.334  1.00  0.00     0.010 A 
ATOM     35  C   UNL A   1      35.251  32.131  30.634  1.00  0.00     0.010 A 
ATOM     36  C   UNL A   1      36.545  32.545  30.289  1.00  0.00    -0.014 A 
BRANCH  36  37
ATOM     37  C   UNL A   1      37.728  31.907  30.916  1.00  0.00     0.031 A 
ATOM     38  C   UNL A   1      38.152  32.287  32.307  1.00  0.00     0.074 A 
ATOM     39  C   UNL A   1      38.435  30.997  30.221  1.00  0.00     0.049 A 
ATOM     40  N   UNL A   1      39.155  31.837  33.018  1.00  0.00    -0.248 NA
ATOM     41  C   UNL A   1      37.356  33.325  32.980  1.00  0.00     0.031 C 
ATOM     42  C   UNL A   1      38.151  30.579  28.847  1.00  0.00     0.029 A 
ATOM     43  N   UNL A   1      39.538  30.262  30.572  1.00  0.00    -0.354 N 
ATOM     44  C   UNL A   1      39.119  32.544  34.213  1.00  0.00     0.074 A 
ATOM     45  C   UNL A   1      38.020  33.481  34.117  1.00  0.00     0.031 C 
ATOM     46  C   UNL A   1      39.042  29.644  28.481  1.00  0.00     0.029 A 
ATOM     47  C   UNL A   1      39.969  29.412  29.585  1.00  0.00     0.049 A 
ATOM     48  H   UNL A   1      39.979  30.336  31.450  1.00  0.00     0.167 HD
ATOM     49  C   UNL A   1      39.919  32.411  35.298  1.00  0.00     0.037 A 
ATOM     50  C   UNL A   1      40.993  28.538  29.574  1.00  0.00     0.037 A 
ATOM     51  C   UNL A   1      40.994  31.460  35.405  1.00  0.00     0.049 A 
ATOM     52  C   UNL A   1      41.841  28.382  30.805  1.00  0.00     0.074 A 
ATOM     53  C   UNL A   1      41.829  31.213  36.482  1.00  0.00     0.029 A 
ATOM     54  N   UNL A   1      41.381  30.593  34.393  1.00  0.00    -0.354 N 
ATOM     55  N   UNL A   1      41.759  29.014  31.951  1.00  0.00    -0.248 NA
ATOM     56  C   UNL A   1      42.916  27.383  30.745  1.00  0.00     0.031 C 
ATOM     57  C   UNL A   1      42.738  30.215  36.113  1.00  0.00     0.029 A 
ATOM     58  C   UNL A   1      42.447  29.817  34.818  1.00  0.00     0.049 A 
ATOM     59  H   UNL A   1      40.960  30.538  33.505  1.00  0.00     0.167 HD
ATOM     60  C   UNL A   1      42.755  28.476  32.753  1.00  0.00     0.074 A 
ATOM     61  C   UNL A   1      43.418  27.454  31.970  1.00  0.00     0.031 C 
ATOM     62  C   UNL A   1      43.092  28.802  34.025  1.00  0.00     0.037 A 
BRANCH  49  63
ATOM     63  C   UNL A   1      39.655  33.316  36.464  1.00  0.00     0.064 A 
ATOM     64  C   UNL A   1      38.773  32.949  37.492  1.00  0.00     0.173 A 
ATOM     65  C   UNL A   1      40.313  34.550  36.574  1.00  0.00     0.173 A 
ATOM     66  F   UNL A   1      38.110  31.785  37.428  1.00  0.00    -0.203 F 
ATOM     67  C   UNL A   1      38.541  33.795  38.573  1.00  0.00     0.198 A 
ATOM     68  C   UNL A   1      40.097  35.384  37.668  1.00  0.00     0.198 A 
ATOM     69  F   UNL A   1      41.170  34.947  35.621  1.00  0.00    -0.203 F 
ATOM     70  F   UNL A   1      37.662  33.443  39.521  1.00  0.00    -0.200 F 
ATOM     71  C   UNL A   1      39.206  35.009  38.663  1.00  0.00     0.200 A 
ATOM     72  F   UNL A   1      40.748  36.552  37.759  1.00  0.00    -0.200 F 
ATOM     73  F   UNL A   1      38.985  35.820  39.706  1.00  0.00    -0.200 F 
ENDBRANCH  49  63
BRANCH  50  74
ATOM     74  C   UNL A   1      41.239  27.707  28.370  1.00  0.00     0.064 A 
ATOM     75  C   UNL A   1      42.098  28.152  27.357  1.00  0.00     0.173 A 
ATOM     76  C   UNL A   1      40.634  26.452  28.214  1.00  0.00     0.173 A 
ATOM     77  F   UNL A   1      42.685  29.354  27.456  1.00  0.00    -0.203 F 
ATOM     78  C   UNL A   1      42.330  27.379  26.222  1.00  0.00     0.198 A 
ATOM     79  C   UNL A   1      40.884  25.670  27.089  1.00  0.00     0.198 A 
ATOM     80  F   UNL A   1      39.809  25.982  29.161  1.00  0.00    -0.203 F 
ATOM     81  F   UNL A   1      43.129  27.843  25.250  1.00  0.00    -0.200 F 
ATOM     82  C   UNL A   1      41.727  26.137  26.091  1.00  0.00     0.200 A 
ATOM     83  F   UNL A   1      40.310  24.466  26.971  1.00  0.00    -0.200 F 
ATOM     84  F   UNL A   1      41.956  25.391  25.001  1.00  0.00    -0.200 F 
ENDBRANCH  50  74
BRANCH  62  85
ATOM     85  C   UNL A   1      44.211  28.027  34.652  1.00  0.00     0.064 A 
ATOM     86  C   UNL A   1      45.535  28.486  34.603  1.00  0.00     0.173 A 
ATOM     87  C   UNL A   1      43.955  26.822  35.323  1.00  0.00     0.173 A 
ATOM     88  F   UNL A   1      45.832  29.625  33.958  1.00  0.00    -0.203 F 
ATOM     89  C   UNL A   1      46.567  27.753  35.183  1.00  0.00     0.198 A 
ATOM     90  C   UNL A   1      44.985  26.103  35.921  1.00  0.00     0.198 A 
ATOM     91  F   UNL A   1      42.703  26.344  35.398  1.00  0.00    -0.203 F 
ATOM     92  F   UNL A   1      47.831  28.187  35.085  1.00  0.00    -0.200 F 
ATOM     93  C   UNL A   1      46.291  26.566  35.844  1.00  0.00     0.200 A 
ATOM     94  F   UNL A   1      44.716  24.960  36.565  1.00  0.00    -0.200 F 
ATOM     95  F   UNL A   1      47.286  25.860  36.400  1.00  0.00    -0.200 F 
ENDBRANCH  62  85
ENDBRANCH  36  37
ENDBRANCH  28  31
ENDBRANCH  26  27
ENDBRANCH  25  26
ENDBRANCH   1  25
TORSDOF 13
ENDMDL
MODEL 3
REMARK VINA RESULT:     -12.8      4.769      9.781
REMARK SMILES Cc1ccc(NS(=O)(=O)c2cc(C(=O)NCCCNC(=O)c3ccc(-c4c5nc(c(-c6c(F)c(F)c(F)c(F)c6F)c6ccc([nH]6)c(-c6c(F)c(F)c(F)c(F)c6F)c6nc(c(-c7c(F)c(F)c(F)c(F)c7F)c7ccc4[nH]7)C=C6)C=C5)cc3)ccc2Cl)nc1
REMARK SMILES IDX 16 1 15 2 13 3 14 4 12 6 10 7 11 8 87 9 86 10 88 11 85 12
REMARK SMILES IDX 7 13 8 14 9 15 6 16 5 18 1 19 2 20 3 21 90 22 4 23 89 24
REMARK SMILES IDX 17 25 18 26 19 27 20 28 21 30 22 31 23 32 84 33 24 34 83 35
REMARK SMILES IDX 25 36 26 37 27 38 77 39 28 40 82 41 76 42 78 43 29 44 81 45
REMARK SMILES IDX 75 46 74 47 30 49 62 50 42 51 61 52 43 53 46 54 60 55 79 56
REMARK SMILES IDX 44 57 45 58 59 60 80 61 47 62 31 63 32 64 40 65 33 66 34 67
REMARK SMILES IDX 38 68 41 69 35 70 36 71 39 72 37 73 63 74 64 75 72 76 65 77
REMARK SMILES IDX 66 78 70 79 73 80 67 81 68 82 71 83 69 84 48 85 49 86 57 87
REMARK SMILES IDX 50 88 51 89 55 90 58 91 52 92 53 93 56 94 54 95
REMARK H PARENT 15 5 6 17 19 29 78 48 46 59
REMARK Flexibility Score: inf
ROOT
ATOM      1  C   UNL A   1      35.688  20.433  24.956  1.00  0.00     0.118 C 
ENDROOT
BRANCH   1   2
ATOM      2  N   UNL A   1      34.477  19.645  25.085  1.00  0.00    -0.352 N 
ATOM      3  C   UNL A   1      33.142  19.942  25.022  1.00  0.00     0.251 C 
ATOM      4  O   UNL A   1      32.365  19.015  25.261  1.00  0.00    -0.269 OA
ATOM      5  H   UNL A   1      34.654  18.692  25.255  1.00  0.00     0.163 HD
BRANCH   3   6
ATOM      6  C   UNL A   1      32.585  21.263  24.604  1.00  0.00     0.041 A 
ATOM      7  C   UNL A   1      31.286  23.225  25.302  1.00  0.00     0.107 A 
ATOM      8  C   UNL A   1      31.983  22.039  25.607  1.00  0.00     0.037 A 
ATOM      9  C   UNL A   1      31.096  23.581  23.973  1.00  0.00     0.061 A 
ATOM     10  C   UNL A   1      31.817  22.900  22.988  1.00  0.00     0.023 A 
ATOM     11  Cl  UNL A   1      29.970  24.770  23.428  1.00  0.00    -0.083 Cl
ATOM     12  C   UNL A   1      32.597  21.782  23.312  1.00  0.00     0.015 A 
BRANCH   7  13
ATOM     13  S   UNL A   1      30.820  24.237  26.679  1.00  0.00     0.264 S 
ATOM     14  O   UNL A   1      31.949  24.282  27.591  1.00  0.00    -0.201 OA
ATOM     15  O   UNL A   1      29.545  23.727  27.136  1.00  0.00    -0.201 OA
BRANCH  13  16
ATOM     16  N   UNL A   1      30.521  25.795  26.183  1.00  0.00    -0.263 N 
ATOM     17  H   UNL A   1      29.648  25.988  25.771  1.00  0.00     0.182 HD
BRANCH  16  18
ATOM     18  C   UNL A   1      31.437  26.855  26.313  1.00  0.00     0.139 A 
ATOM     19  C   UNL A   1      34.796  29.167  27.401  1.00  0.00     0.046 C 
ATOM     20  C   UNL A   1      33.574  28.456  26.914  1.00  0.00    -0.033 A 
ATOM     21  C   UNL A   1      33.600  27.692  25.749  1.00  0.00     0.009 A 
ATOM     22  C   UNL A   1      32.405  28.431  27.668  1.00  0.00     0.117 A 
ATOM     23  C   UNL A   1      32.507  26.892  25.431  1.00  0.00     0.048 A 
ATOM     24  N   UNL A   1      31.333  27.654  27.384  1.00  0.00    -0.238 NA
ENDBRANCH  16  18
ENDBRANCH  13  16
ENDBRANCH   7  13
ENDBRANCH   3   6
ENDBRANCH   1   2
BRANCH   1  25
ATOM     25  C   UNL A   1      35.629  21.652  25.878  1.00  0.00     0.042 C 
BRANCH  25  26
ATOM     26  C   UNL A   1      36.981  22.360  25.989  1.00  0.00     0.118 C 
BRANCH  26  27
ATOM     27  N   UNL A   1      38.065  21.399  26.124  1.00  0.00    -0.352 N 
ATOM     28  C   UNL A   1      39.404  21.602  26.333  1.00  0.00     0.251 C 
ATOM     29  H   UNL A   1      37.795  20.455  26.052  1.00  0.00     0.163 HD
ATOM     30  O   UNL A   1      40.182  20.661  26.196  1.00  0.00    -0.269 OA
BRANCH  28  31
ATOM     31  C   UNL A   1      39.929  22.933  26.713  1.00  0.00     0.039 A 
ATOM     32  C   UNL A   1      40.749  23.020  27.844  1.00  0.00     0.014 A 
ATOM     33  C   UNL A   1      39.559  24.095  26.031  1.00  0.00     0.014 A 
ATOM     34  C   UNL A   1      41.216  24.263  28.274  1.00  0.00     0.010 A 
ATOM     35  C   UNL A   1      40.066  25.333  26.432  1.00  0.00     0.010 A 
ATOM     36  C   UNL A   1      40.887  25.428  27.565  1.00  0.00    -0.014 A 
BRANCH  36  37
ATOM     37  C   UNL A   1      41.389  26.749  28.017  1.00  0.00     0.031 A 
ATOM     38  C   UNL A   1      42.845  27.097  27.880  1.00  0.00     0.074 A 
ATOM     39  C   UNL A   1      40.534  27.627  28.572  1.00  0.00     0.049 A 
ATOM     40  N   UNL A   1      43.466  28.199  28.217  1.00  0.00    -0.248 NA
ATOM     41  C   UNL A   1      43.722  26.063  27.311  1.00  0.00     0.031 C 
ATOM     42  C   UNL A   1      39.108  27.387  28.800  1.00  0.00     0.029 A 
ATOM     43  N   UNL A   1      40.739  28.897  29.046  1.00  0.00    -0.354 N 
ATOM     44  C   UNL A   1      44.804  27.987  27.914  1.00  0.00     0.074 A 
ATOM     45  C   UNL A   1      44.913  26.638  27.402  1.00  0.00     0.031 C 
ATOM     46  C   UNL A   1      38.562  28.484  29.348  1.00  0.00     0.029 A 
ATOM     47  C   UNL A   1      39.601  29.494  29.528  1.00  0.00     0.049 A 
ATOM     48  H   UNL A   1      41.619  29.340  29.041  1.00  0.00     0.167 HD
ATOM     49  C   UNL A   1      45.845  28.847  28.033  1.00  0.00     0.037 A 
ATOM     50  C   UNL A   1      39.414  30.721  30.048  1.00  0.00     0.037 A 
ATOM     51  C   UNL A   1      45.733  30.199  28.515  1.00  0.00     0.049 A 
ATOM     52  C   UNL A   1      40.578  31.669  30.134  1.00  0.00     0.074 A 
ATOM     53  C   UNL A   1      46.719  31.164  28.626  1.00  0.00     0.029 A 
ATOM     54  N   UNL A   1      44.555  30.778  28.966  1.00  0.00    -0.354 N 
ATOM     55  N   UNL A   1      41.828  31.477  29.786  1.00  0.00    -0.248 NA
ATOM     56  C   UNL A   1      40.302  33.007  30.672  1.00  0.00     0.031 C 
ATOM     57  C   UNL A   1      46.144  32.319  29.167  1.00  0.00     0.029 A 
ATOM     58  C   UNL A   1      44.793  32.084  29.362  1.00  0.00     0.049 A 
ATOM     59  H   UNL A   1      43.681  30.328  28.999  1.00  0.00     0.167 HD
ATOM     60  C   UNL A   1      42.481  32.673  30.045  1.00  0.00     0.074 A 
ATOM     61  C   UNL A   1      41.487  33.591  30.561  1.00  0.00     0.031 C 
ATOM     62  C   UNL A   1      43.789  32.984  29.871  1.00  0.00     0.037 A 
BRANCH  49  63
ATOM     63  C   UNL A   1      47.201  28.349  27.629  1.00  0.00     0.064 A 
ATOM     64  C   UNL A   1      48.092  27.805  28.566  1.00  0.00     0.173 A 
ATOM     65  C   UNL A   1      47.603  28.386  26.285  1.00  0.00     0.173 A 
ATOM     66  F   UNL A   1      47.759  27.759  29.865  1.00  0.00    -0.203 F 
ATOM     67  C   UNL A   1      49.345  27.341  28.177  1.00  0.00     0.198 A 
ATOM     68  C   UNL A   1      48.848  27.899  25.896  1.00  0.00     0.198 A 
ATOM     69  F   UNL A   1      46.786  28.891  25.348  1.00  0.00    -0.203 F 
ATOM     70  F   UNL A   1      50.197  26.865  29.096  1.00  0.00    -0.200 F 
ATOM     71  C   UNL A   1      49.720  27.383  26.842  1.00  0.00     0.200 A 
ATOM     72  F   UNL A   1      49.205  27.930  24.604  1.00  0.00    -0.200 F 
ATOM     73  F   UNL A   1      50.925  26.932  26.469  1.00  0.00    -0.200 F 
ENDBRANCH  49  63
BRANCH  50  74
ATOM     74  C   UNL A   1      38.059  31.139  30.483  1.00  0.00     0.064 A 
ATOM     75  C   UNL A   1      37.077  31.474  29.542  1.00  0.00     0.173 A 
ATOM     76  C   UNL A   1      37.716  31.202  31.841  1.00  0.00     0.173 A 
ATOM     77  F   UNL A   1      37.366  31.446  28.232  1.00  0.00    -0.203 F 
ATOM     78  C   UNL A   1      35.804  31.872  29.943  1.00  0.00     0.198 A 
ATOM     79  C   UNL A   1      36.436  31.579  32.240  1.00  0.00     0.198 A 
ATOM     80  F   UNL A   1      38.622  30.884  32.777  1.00  0.00    -0.203 F 
ATOM     81  F   UNL A   1      34.893  32.221  29.024  1.00  0.00    -0.200 F 
ATOM     82  C   UNL A   1      35.483  31.920  31.292  1.00  0.00     0.200 A 
ATOM     83  F   UNL A   1      36.126  31.612  33.543  1.00  0.00    -0.200 F 
ATOM     84  F   UNL A   1      34.257  32.297  31.677  1.00  0.00    -0.200 F 
ENDBRANCH  50  74
BRANCH  62  85
ATOM     85  C   UNL A   1      44.210  34.379  30.222  1.00  0.00     0.064 A 
ATOM     86  C   UNL A   1      44.664  34.704  31.508  1.00  0.00     0.173 A 
ATOM     87  C   UNL A   1      44.175  35.396  29.257  1.00  0.00     0.173 A 
ATOM     88  F   UNL A   1      44.699  33.768  32.469  1.00  0.00    -0.203 F 
ATOM     89  C   UNL A   1      45.045  36.006  31.823  1.00  0.00     0.198 A 
ATOM     90  C   UNL A   1      44.578  36.691  29.569  1.00  0.00     0.198 A 
ATOM     91  F   UNL A   1      43.750  35.132  28.012  1.00  0.00    -0.203 F 
ATOM     92  F   UNL A   1      45.432  36.305  33.070  1.00  0.00    -0.200 F 
ATOM     93  C   UNL A   1      45.006  36.996  30.852  1.00  0.00     0.200 A 
ATOM     94  F   UNL A   1      44.546  37.645  28.629  1.00  0.00    -0.200 F 
ATOM     95  F   UNL A   1      45.370  38.250  31.158  1.00  0.00    -0.200 F 
ENDBRANCH  62  85
ENDBRANCH  36  37
ENDBRANCH  28  31
ENDBRANCH  26  27
ENDBRANCH  25  26
ENDBRANCH   1  25
TORSDOF 13
ENDMDL
