MODEL 1
REMARK VINA RESULT:     -11.4      0.000      0.000
REMARK SMILES CCC[C@H](C)NC(=O)C[NH+]1CC(n2cc(C(=O)NCCCNC(=O)c3ccc(-c4c5nc(c(-c6c(F)c(F)c(F)c(F)c6F)c6ccc([nH]6)c(-c6c(F)c(F)c(F)c(F)c6F)c6nc(c(-c7c(F)c(F)c(F)c(F)c7F)c7ccc4[nH]7)C=C6)C=C5)cc3)nn2)C1
REMARK SMILES IDX 16 1 17 2 18 3 15 5 13 6 14 7 89 8 88 9 12 10 10 11 11 12
REMARK SMILES IDX 90 13 9 15 7 16 6 17 8 19 4 20 5 21 3 22 2 23 1 24 19 25
REMARK SMILES IDX 20 26 21 27 22 28 23 29 24 31 25 32 26 33 87 34 27 35 86 36
REMARK SMILES IDX 28 37 29 38 30 39 80 40 31 41 85 42 79 43 81 44 32 45 84 46
REMARK SMILES IDX 78 47 77 48 33 50 65 51 45 52 64 53 46 54 49 55 63 56 82 57
REMARK SMILES IDX 47 58 48 59 62 61 83 62 50 63 34 64 35 65 43 66 36 67 37 68
REMARK SMILES IDX 41 69 44 70 38 71 39 72 42 73 40 74 66 75 67 76 75 77 68 78
REMARK SMILES IDX 69 79 73 80 76 81 70 82 71 83 74 84 72 85 51 86 52 87 60 88
REMARK SMILES IDX 53 89 54 90 58 91 61 92 55 93 56 94 59 95 57 96
REMARK H PARENT 18 4 10 14 6 18 22 30 81 49 49 60
REMARK Flexibility Score: inf
ROOT
ATOM      1  C   UNL A   1      33.109  36.814  30.874  1.00  0.00     0.273 C 
ATOM      2  O   UNL A   1      33.061  37.973  31.287  1.00  0.00    -0.267 OA
ATOM      3  N   UNL A   1      33.012  36.625  29.511  1.00  0.00    -0.351 N 
ATOM      4  H   UNL A   1      32.753  37.424  28.997  1.00  0.00     0.163 HD
ENDROOT
BRANCH   1   5
ATOM      5  C   UNL A   1      33.272  35.674  31.771  1.00  0.00     0.170 A 
ATOM      6  N   UNL A   1      33.988  34.036  33.011  1.00  0.00    -0.237 N 
ATOM      7  C   UNL A   1      34.412  34.991  32.138  1.00  0.00     0.145 A 
ATOM      8  N   UNL A   1      32.661  34.102  33.187  1.00  0.00    -0.066 NA
ATOM      9  N   UNL A   1      32.202  35.070  32.399  1.00  0.00    -0.125 NA
BRANCH   6  10
ATOM     10  C   UNL A   1      34.895  33.161  33.688  1.00  0.00     0.218 C 
ATOM     11  N   UNL A   1      36.975  32.792  33.668  1.00  0.00    -0.323 N 
ATOM     12  C   UNL A   1      36.129  33.813  34.321  1.00  0.00     0.296 C 
ATOM     13  C   UNL A   1      35.892  32.537  32.689  1.00  0.00     0.296 C 
ATOM     14  H   UNL A   1      37.395  32.070  34.252  1.00  0.00     0.348 HD
BRANCH  11  15
ATOM     15  C   UNL A   1      38.156  33.316  32.946  1.00  0.00     0.363 C 
BRANCH  15  16
ATOM     16  C   UNL A   1      39.398  32.433  33.007  1.00  0.00     0.275 C 
ATOM     17  N   UNL A   1      40.478  32.744  32.220  1.00  0.00    -0.349 N 
ATOM     18  H   UNL A   1      41.140  32.023  32.116  1.00  0.00     0.163 HD
ATOM     19  O   UNL A   1      39.448  31.417  33.702  1.00  0.00    -0.268 OA
BRANCH  17  20
ATOM     20  C   UNL A   1      40.793  33.987  31.508  1.00  0.00     0.079 C 
ATOM     21  C   UNL A   1      42.065  34.590  32.112  1.00  0.00     0.031 C 
BRANCH  20  22
ATOM     22  C   UNL A   1      40.980  33.761  30.002  1.00  0.00     0.024 C 
BRANCH  22  23
ATOM     23  C   UNL A   1      40.578  34.953  29.126  1.00  0.00    -0.001 C 
ATOM     24  C   UNL A   1      41.764  35.653  28.471  1.00  0.00     0.004 C 
ENDBRANCH  22  23
ENDBRANCH  20  22
ENDBRANCH  17  20
ENDBRANCH  15  16
ENDBRANCH  11  15
ENDBRANCH   6  10
ENDBRANCH   1   5
BRANCH   3  25
ATOM     25  C   UNL A   1      33.232  35.427  28.716  1.00  0.00     0.118 C 
BRANCH  25  26
ATOM     26  C   UNL A   1      34.669  35.320  28.191  1.00  0.00     0.042 C 
BRANCH  26  27
ATOM     27  C   UNL A   1      35.367  34.064  28.669  1.00  0.00     0.118 C 
BRANCH  27  28
ATOM     28  N   UNL A   1      34.488  32.893  28.655  1.00  0.00    -0.352 N 
ATOM     29  C   UNL A   1      34.815  31.583  28.381  1.00  0.00     0.251 C 
ATOM     30  H   UNL A   1      33.542  33.064  28.869  1.00  0.00     0.163 HD
ATOM     31  O   UNL A   1      33.946  30.770  28.066  1.00  0.00    -0.269 OA
BRANCH  29  32
ATOM     32  C   UNL A   1      36.224  31.172  28.457  1.00  0.00     0.039 A 
ATOM     33  C   UNL A   1      37.108  31.759  29.362  1.00  0.00     0.014 A 
ATOM     34  C   UNL A   1      36.638  30.131  27.632  1.00  0.00     0.014 A 
ATOM     35  C   UNL A   1      38.386  31.222  29.488  1.00  0.00     0.010 A 
ATOM     36  C   UNL A   1      37.808  29.477  27.904  1.00  0.00     0.010 A 
ATOM     37  C   UNL A   1      38.718  30.056  28.776  1.00  0.00    -0.014 A 
BRANCH  37  38
ATOM     38  C   UNL A   1      39.972  29.358  29.025  1.00  0.00     0.031 A 
ATOM     39  C   UNL A   1      40.191  28.996  30.450  1.00  0.00     0.074 A 
ATOM     40  C   UNL A   1      40.779  28.902  28.041  1.00  0.00     0.049 A 
ATOM     41  N   UNL A   1      41.102  29.464  31.236  1.00  0.00    -0.248 NA
ATOM     42  C   UNL A   1      39.203  28.139  31.126  1.00  0.00     0.031 C 
ATOM     43  C   UNL A   1      40.566  28.922  26.590  1.00  0.00     0.029 A 
ATOM     44  N   UNL A   1      41.949  28.218  28.152  1.00  0.00    -0.354 N 
ATOM     45  C   UNL A   1      40.934  28.812  32.451  1.00  0.00     0.074 A 
ATOM     46  C   UNL A   1      39.657  28.150  32.382  1.00  0.00     0.031 C 
ATOM     47  C   UNL A   1      41.428  28.071  25.991  1.00  0.00     0.029 A 
ATOM     48  C   UNL A   1      42.363  27.582  26.985  1.00  0.00     0.049 A 
ATOM     49  H   UNL A   1      42.464  28.176  28.990  1.00  0.00     0.167 HD
ATOM     50  C   UNL A   1      41.984  28.668  33.305  1.00  0.00     0.037 A 
ATOM     51  C   UNL A   1      43.380  26.693  26.865  1.00  0.00     0.037 A 
ATOM     52  C   UNL A   1      43.037  29.605  32.994  1.00  0.00     0.049 A 
ATOM     53  C   UNL A   1      44.276  26.900  28.034  1.00  0.00     0.074 A 
ATOM     54  C   UNL A   1      43.088  30.983  32.877  1.00  0.00     0.029 A 
ATOM     55  N   UNL A   1      44.151  29.144  32.334  1.00  0.00    -0.354 N 
ATOM     56  N   UNL A   1      44.992  27.978  28.209  1.00  0.00    -0.248 NA
ATOM     57  C   UNL A   1      43.987  26.138  29.241  1.00  0.00     0.031 C 
ATOM     58  C   UNL A   1      43.897  31.221  31.727  1.00  0.00     0.029 A 
ATOM     59  C   UNL A   1      44.371  29.990  31.276  1.00  0.00     0.049 A 
ATOM     60  H   UNL A   1      44.689  28.354  32.575  1.00  0.00     0.167 HD
ATOM     61  C   UNL A   1      44.854  28.272  29.557  1.00  0.00     0.074 A 
ATOM     62  C   UNL A   1      44.282  27.066  30.156  1.00  0.00     0.031 C 
ATOM     63  C   UNL A   1      44.923  29.557  30.014  1.00  0.00     0.037 A 
BRANCH  50  64
ATOM     64  C   UNL A   1      42.218  27.440  34.149  1.00  0.00     0.064 A 
ATOM     65  C   UNL A   1      41.893  27.478  35.519  1.00  0.00     0.173 A 
ATOM     66  C   UNL A   1      43.025  26.353  33.745  1.00  0.00     0.173 A 
ATOM     67  F   UNL A   1      41.151  28.479  36.016  1.00  0.00    -0.203 F 
ATOM     68  C   UNL A   1      42.407  26.546  36.425  1.00  0.00     0.198 A 
ATOM     69  C   UNL A   1      43.490  25.395  34.643  1.00  0.00     0.198 A 
ATOM     70  F   UNL A   1      43.494  26.235  32.498  1.00  0.00    -0.203 F 
ATOM     71  F   UNL A   1      42.181  26.700  37.736  1.00  0.00    -0.200 F 
ATOM     72  C   UNL A   1      43.210  25.509  35.986  1.00  0.00     0.200 A 
ATOM     73  F   UNL A   1      44.285  24.411  34.199  1.00  0.00    -0.200 F 
ATOM     74  F   UNL A   1      43.756  24.654  36.859  1.00  0.00    -0.200 F 
ENDBRANCH  50  64
BRANCH  51  75
ATOM     75  C   UNL A   1      43.456  25.490  25.997  1.00  0.00     0.064 A 
ATOM     76  C   UNL A   1      44.613  25.206  25.251  1.00  0.00     0.173 A 
ATOM     77  C   UNL A   1      42.510  24.450  26.093  1.00  0.00     0.173 A 
ATOM     78  F   UNL A   1      45.588  26.121  25.143  1.00  0.00    -0.203 F 
ATOM     79  C   UNL A   1      44.825  23.950  24.668  1.00  0.00     0.198 A 
ATOM     80  C   UNL A   1      42.717  23.201  25.504  1.00  0.00     0.198 A 
ATOM     81  F   UNL A   1      41.406  24.588  26.840  1.00  0.00    -0.203 F 
ATOM     82  F   UNL A   1      45.972  23.697  24.023  1.00  0.00    -0.200 F 
ATOM     83  C   UNL A   1      43.881  22.945  24.804  1.00  0.00     0.200 A 
ATOM     84  F   UNL A   1      41.812  22.227  25.675  1.00  0.00    -0.200 F 
ATOM     85  F   UNL A   1      44.111  21.725  24.302  1.00  0.00    -0.200 F 
ENDBRANCH  51  75
BRANCH  63  86
ATOM     86  C   UNL A   1      45.389  30.634  29.071  1.00  0.00     0.064 A 
ATOM     87  C   UNL A   1      46.738  30.911  28.784  1.00  0.00     0.173 A 
ATOM     88  C   UNL A   1      44.423  31.305  28.307  1.00  0.00     0.173 A 
ATOM     89  F   UNL A   1      47.727  30.242  29.387  1.00  0.00    -0.203 F 
ATOM     90  C   UNL A   1      47.096  31.848  27.814  1.00  0.00     0.198 A 
ATOM     91  C   UNL A   1      44.784  32.209  27.312  1.00  0.00     0.198 A 
ATOM     92  F   UNL A   1      43.120  31.042  28.493  1.00  0.00    -0.203 F 
ATOM     93  F   UNL A   1      48.391  32.102  27.569  1.00  0.00    -0.200 F 
ATOM     94  C   UNL A   1      46.118  32.490  27.073  1.00  0.00     0.200 A 
ATOM     95  F   UNL A   1      43.834  32.787  26.564  1.00  0.00    -0.200 F 
ATOM     96  F   UNL A   1      46.462  33.358  26.112  1.00  0.00    -0.200 F 
ENDBRANCH  63  86
ENDBRANCH  37  38
ENDBRANCH  29  32
ENDBRANCH  27  28
ENDBRANCH  26  27
ENDBRANCH  25  26
ENDBRANCH   3  25
TORSDOF 16
ENDMDL
MODEL 2
REMARK VINA RESULT:     -10.8      4.341      7.294
REMARK SMILES CCC[C@H](C)NC(=O)C[NH+]1CC(n2cc(C(=O)NCCCNC(=O)c3ccc(-c4c5nc(c(-c6c(F)c(F)c(F)c(F)c6F)c6ccc([nH]6)c(-c6c(F)c(F)c(F)c(F)c6F)c6nc(c(-c7c(F)c(F)c(F)c(F)c7F)c7ccc4[nH]7)C=C6)C=C5)cc3)nn2)C1
REMARK SMILES IDX 16 1 17 2 18 3 15 5 13 6 14 7 89 8 88 9 12 10 10 11 11 12
REMARK SMILES IDX 90 13 9 15 7 16 6 17 8 19 4 20 5 21 3 22 2 23 1 24 19 25
REMARK SMILES IDX 20 26 21 27 22 28 23 29 24 31 25 32 26 33 87 34 27 35 86 36
REMARK SMILES IDX 28 37 29 38 30 39 80 40 31 41 85 42 79 43 81 44 32 45 84 46
REMARK SMILES IDX 78 47 77 48 33 50 65 51 45 52 64 53 46 54 49 55 63 56 82 57
REMARK SMILES IDX 47 58 48 59 62 61 83 62 50 63 34 64 35 65 43 66 36 67 37 68
REMARK SMILES IDX 41 69 44 70 38 71 39 72 42 73 40 74 66 75 67 76 75 77 68 78
REMARK SMILES IDX 69 79 73 80 76 81 70 82 71 83 74 84 72 85 51 86 52 87 60 88
REMARK SMILES IDX 53 89 54 90 58 91 61 92 55 93 56 94 59 95 57 96
REMARK H PARENT 18 4 10 14 6 18 22 30 81 49 49 60
REMARK Flexibility Score: inf
ROOT
ATOM      1  C   UNL A   1      31.985  28.152  27.196  1.00  0.00     0.273 C 
ATOM      2  O   UNL A   1      31.053  27.828  27.932  1.00  0.00    -0.267 OA
ATOM      3  N   UNL A   1      32.793  29.188  27.619  1.00  0.00    -0.351 N 
ATOM      4  H   UNL A   1      32.458  29.684  28.401  1.00  0.00     0.163 HD
ENDROOT
BRANCH   1   5
ATOM      5  C   UNL A   1      32.250  27.477  25.929  1.00  0.00     0.170 A 
ATOM      6  N   UNL A   1      32.918  26.177  24.317  1.00  0.00    -0.237 N 
ATOM      7  C   UNL A   1      33.069  26.403  25.652  1.00  0.00     0.145 A 
ATOM      8  N   UNL A   1      32.061  27.054  23.776  1.00  0.00    -0.066 NA
ATOM      9  N   UNL A   1      31.679  27.886  24.741  1.00  0.00    -0.125 NA
BRANCH   6  10
ATOM     10  C   UNL A   1      33.548  25.079  23.650  1.00  0.00     0.218 C 
ATOM     11  N   UNL A   1      34.144  23.116  24.154  1.00  0.00    -0.323 N 
ATOM     12  C   UNL A   1      32.852  23.719  23.766  1.00  0.00     0.296 C 
ATOM     13  C   UNL A   1      34.638  24.456  24.547  1.00  0.00     0.296 C 
ATOM     14  H   UNL A   1      34.615  22.511  23.481  1.00  0.00     0.348 HD
BRANCH  11  15
ATOM     15  C   UNL A   1      34.105  22.252  25.354  1.00  0.00     0.363 C 
BRANCH  15  16
ATOM     16  C   UNL A   1      34.940  20.978  25.265  1.00  0.00     0.275 C 
ATOM     17  N   UNL A   1      34.304  19.763  25.240  1.00  0.00    -0.349 N 
ATOM     18  H   UNL A   1      34.879  18.986  25.425  1.00  0.00     0.163 HD
ATOM     19  O   UNL A   1      36.172  20.999  25.264  1.00  0.00    -0.268 OA
BRANCH  17  20
ATOM     20  C   UNL A   1      32.895  19.447  24.981  1.00  0.00     0.079 C 
ATOM     21  C   UNL A   1      32.540  19.909  23.564  1.00  0.00     0.031 C 
BRANCH  20  22
ATOM     22  C   UNL A   1      32.599  17.949  25.137  1.00  0.00     0.024 C 
BRANCH  22  23
ATOM     23  C   UNL A   1      33.807  17.035  24.900  1.00  0.00    -0.001 C 
ATOM     24  C   UNL A   1      33.960  16.596  23.447  1.00  0.00     0.004 C 
ENDBRANCH  22  23
ENDBRANCH  20  22
ENDBRANCH  17  20
ENDBRANCH  15  16
ENDBRANCH  11  15
ENDBRANCH   6  10
ENDBRANCH   1   5
BRANCH   3  25
ATOM     25  C   UNL A   1      34.061  29.661  27.089  1.00  0.00     0.118 C 
BRANCH  25  26
ATOM     26  C   UNL A   1      34.232  31.179  27.226  1.00  0.00     0.042 C 
BRANCH  26  27
ATOM     27  C   UNL A   1      35.418  31.552  28.091  1.00  0.00     0.118 C 
BRANCH  27  28
ATOM     28  N   UNL A   1      35.019  32.223  29.330  1.00  0.00    -0.352 N 
ATOM     29  C   UNL A   1      35.443  31.964  30.615  1.00  0.00     0.251 C 
ATOM     30  H   UNL A   1      34.366  32.953  29.231  1.00  0.00     0.163 HD
ATOM     31  O   UNL A   1      34.789  32.353  31.583  1.00  0.00    -0.269 OA
BRANCH  29  32
ATOM     32  C   UNL A   1      36.683  31.202  30.814  1.00  0.00     0.039 A 
ATOM     33  C   UNL A   1      36.664  29.833  31.082  1.00  0.00     0.014 A 
ATOM     34  C   UNL A   1      37.889  31.882  30.668  1.00  0.00     0.014 A 
ATOM     35  C   UNL A   1      37.874  29.144  31.110  1.00  0.00     0.010 A 
ATOM     36  C   UNL A   1      39.045  31.175  30.487  1.00  0.00     0.010 A 
ATOM     37  C   UNL A   1      39.061  29.819  30.778  1.00  0.00    -0.014 A 
BRANCH  37  38
ATOM     38  C   UNL A   1      40.313  29.093  30.609  1.00  0.00     0.031 A 
ATOM     39  C   UNL A   1      41.042  28.839  31.879  1.00  0.00     0.074 A 
ATOM     40  C   UNL A   1      40.693  28.526  29.443  1.00  0.00     0.049 A 
ATOM     41  N   UNL A   1      42.183  29.332  32.228  1.00  0.00    -0.248 NA
ATOM     42  C   UNL A   1      40.369  28.081  32.947  1.00  0.00     0.031 C 
ATOM     43  C   UNL A   1      39.957  28.436  28.178  1.00  0.00     0.029 A 
ATOM     44  N   UNL A   1      41.815  27.806  29.175  1.00  0.00    -0.354 N 
ATOM     45  C   UNL A   1      42.473  28.789  33.473  1.00  0.00     0.074 A 
ATOM     46  C   UNL A   1      41.256  28.176  33.941  1.00  0.00     0.031 C 
ATOM     47  C   UNL A   1      40.528  27.505  27.383  1.00  0.00     0.029 A 
ATOM     48  C   UNL A   1      41.761  27.061  28.002  1.00  0.00     0.049 A 
ATOM     49  H   UNL A   1      42.604  27.811  29.765  1.00  0.00     0.167 HD
ATOM     50  C   UNL A   1      43.764  28.672  33.889  1.00  0.00     0.037 A 
ATOM     51  C   UNL A   1      42.655  26.124  27.596  1.00  0.00     0.037 A 
ATOM     52  C   UNL A   1      44.633  29.537  33.128  1.00  0.00     0.049 A 
ATOM     53  C   UNL A   1      43.922  26.388  28.328  1.00  0.00     0.074 A 
ATOM     54  C   UNL A   1      44.648  30.897  32.875  1.00  0.00     0.029 A 
ATOM     55  N   UNL A   1      45.419  28.978  32.148  1.00  0.00    -0.354 N 
ATOM     56  N   UNL A   1      44.660  27.447  28.127  1.00  0.00    -0.248 NA
ATOM     57  C   UNL A   1      44.095  25.739  29.620  1.00  0.00     0.031 C 
ATOM     58  C   UNL A   1      44.974  31.008  31.491  1.00  0.00     0.029 A 
ATOM     59  C   UNL A   1      45.237  29.726  31.011  1.00  0.00     0.049 A 
ATOM     60  H   UNL A   1      46.002  28.189  32.244  1.00  0.00     0.167 HD
ATOM     61  C   UNL A   1      45.034  27.855  29.398  1.00  0.00     0.074 A 
ATOM     62  C   UNL A   1      44.717  26.726  30.273  1.00  0.00     0.031 C 
ATOM     63  C   UNL A   1      45.278  29.169  29.680  1.00  0.00     0.037 A 
BRANCH  50  64
ATOM     64  C   UNL A   1      44.285  27.509  34.694  1.00  0.00     0.064 A 
ATOM     65  C   UNL A   1      44.082  26.199  34.217  1.00  0.00     0.173 A 
ATOM     66  C   UNL A   1      44.691  27.608  36.044  1.00  0.00     0.173 A 
ATOM     67  F   UNL A   1      43.672  25.988  32.957  1.00  0.00    -0.203 F 
ATOM     68  C   UNL A   1      44.194  25.084  35.052  1.00  0.00     0.198 A 
ATOM     69  C   UNL A   1      44.857  26.490  36.857  1.00  0.00     0.198 A 
ATOM     70  F   UNL A   1      44.830  28.785  36.664  1.00  0.00    -0.203 F 
ATOM     71  F   UNL A   1      43.861  23.872  34.591  1.00  0.00    -0.200 F 
ATOM     72  C   UNL A   1      44.576  25.232  36.373  1.00  0.00     0.200 A 
ATOM     73  F   UNL A   1      45.206  26.658  38.141  1.00  0.00    -0.200 F 
ATOM     74  F   UNL A   1      44.622  24.174  37.192  1.00  0.00    -0.200 F 
ENDBRANCH  50  64
BRANCH  51  75
ATOM     75  C   UNL A   1      42.393  24.852  26.874  1.00  0.00     0.064 A 
ATOM     76  C   UNL A   1      43.058  24.551  25.672  1.00  0.00     0.173 A 
ATOM     77  C   UNL A   1      41.702  23.786  27.484  1.00  0.00     0.173 A 
ATOM     78  F   UNL A   1      43.778  25.492  25.045  1.00  0.00    -0.203 F 
ATOM     79  C   UNL A   1      43.058  23.258  25.133  1.00  0.00     0.198 A 
ATOM     80  C   UNL A   1      41.696  22.499  26.942  1.00  0.00     0.198 A 
ATOM     81  F   UNL A   1      41.097  23.944  28.669  1.00  0.00    -0.203 F 
ATOM     82  F   UNL A   1      43.760  22.996  24.022  1.00  0.00    -0.200 F 
ATOM     83  C   UNL A   1      42.386  22.231  25.775  1.00  0.00     0.200 A 
ATOM     84  F   UNL A   1      41.071  21.507  27.593  1.00  0.00    -0.200 F 
ATOM     85  F   UNL A   1      42.438  20.980  25.296  1.00  0.00    -0.200 F 
ENDBRANCH  51  75
BRANCH  63  86
ATOM     86  C   UNL A   1      45.369  30.146  28.537  1.00  0.00     0.064 A 
ATOM     87  C   UNL A   1      44.274  30.844  27.998  1.00  0.00     0.173 A 
ATOM     88  C   UNL A   1      46.644  30.505  28.077  1.00  0.00     0.173 A 
ATOM     89  F   UNL A   1      43.032  30.643  28.452  1.00  0.00    -0.203 F 
ATOM     90  C   UNL A   1      44.447  31.817  27.014  1.00  0.00     0.198 A 
ATOM     91  C   UNL A   1      46.818  31.506  27.126  1.00  0.00     0.198 A 
ATOM     92  F   UNL A   1      47.734  29.916  28.594  1.00  0.00    -0.203 F 
ATOM     93  F   UNL A   1      43.383  32.459  26.508  1.00  0.00    -0.200 F 
ATOM     94  C   UNL A   1      45.720  32.153  26.585  1.00  0.00     0.200 A 
ATOM     95  F   UNL A   1      48.055  31.861  26.754  1.00  0.00    -0.200 F 
ATOM     96  F   UNL A   1      45.890  33.118  25.671  1.00  0.00    -0.200 F 
ENDBRANCH  63  86
ENDBRANCH  37  38
ENDBRANCH  29  32
ENDBRANCH  27  28
ENDBRANCH  26  27
ENDBRANCH  25  26
ENDBRANCH   3  25
TORSDOF 16
ENDMDL
MODEL 3
REMARK VINA RESULT:     -10.8      4.606     11.186
REMARK SMILES CCC[C@H](C)NC(=O)C[NH+]1CC(n2cc(C(=O)NCCCNC(=O)c3ccc(-c4c5nc(c(-c6c(F)c(F)c(F)c(F)c6F)c6ccc([nH]6)c(-c6c(F)c(F)c(F)c(F)c6F)c6nc(c(-c7c(F)c(F)c(F)c(F)c7F)c7ccc4[nH]7)C=C6)C=C5)cc3)nn2)C1
REMARK SMILES IDX 16 1 17 2 18 3 15 5 13 6 14 7 89 8 88 9 12 10 10 11 11 12
REMARK SMILES IDX 90 13 9 15 7 16 6 17 8 19 4 20 5 21 3 22 2 23 1 24 19 25
REMARK SMILES IDX 20 26 21 27 22 28 23 29 24 31 25 32 26 33 87 34 27 35 86 36
REMARK SMILES IDX 28 37 29 38 30 39 80 40 31 41 85 42 79 43 81 44 32 45 84 46
REMARK SMILES IDX 78 47 77 48 33 50 65 51 45 52 64 53 46 54 49 55 63 56 82 57
REMARK SMILES IDX 47 58 48 59 62 61 83 62 50 63 34 64 35 65 43 66 36 67 37 68
REMARK SMILES IDX 41 69 44 70 38 71 39 72 42 73 40 74 66 75 67 76 75 77 68 78
REMARK SMILES IDX 69 79 73 80 76 81 70 82 71 83 74 84 72 85 51 86 52 87 60 88
REMARK SMILES IDX 53 89 54 90 58 91 61 92 55 93 56 94 59 95 57 96
REMARK H PARENT 18 4 10 14 6 18 22 30 81 49 49 60
REMARK Flexibility Score: inf
ROOT
ATOM      1  C   UNL A   1      41.683  20.799  27.058  1.00  0.00     0.273 C 
ATOM      2  O   UNL A   1      41.791  21.549  28.028  1.00  0.00    -0.267 OA
ATOM      3  N   UNL A   1      42.807  20.096  26.676  1.00  0.00    -0.351 N 
ATOM      4  H   UNL A   1      43.642  20.375  27.116  1.00  0.00     0.163 HD
ENDROOT
BRANCH   1   5
ATOM      5  C   UNL A   1      40.426  20.638  26.333  1.00  0.00     0.170 A 
ATOM      6  N   UNL A   1      38.527  20.880  25.300  1.00  0.00    -0.237 N 
ATOM      7  C   UNL A   1      39.479  21.576  25.982  1.00  0.00     0.145 A 
ATOM      8  N   UNL A   1      38.844  19.580  25.225  1.00  0.00    -0.066 NA
ATOM      9  N   UNL A   1      39.981  19.408  25.893  1.00  0.00    -0.125 NA
BRANCH   6  10
ATOM     10  C   UNL A   1      37.401  21.520  24.691  1.00  0.00     0.218 C 
ATOM     11  N   UNL A   1      35.646  22.492  25.351  1.00  0.00    -0.323 N 
ATOM     12  C   UNL A   1      37.052  22.922  25.202  1.00  0.00     0.296 C 
ATOM     13  C   UNL A   1      36.092  21.080  25.378  1.00  0.00     0.296 C 
ATOM     14  H   UNL A   1      34.959  22.859  24.692  1.00  0.00     0.348 HD
BRANCH  11  15
ATOM     15  C   UNL A   1      35.018  22.819  26.650  1.00  0.00     0.363 C 
BRANCH  15  16
ATOM     16  C   UNL A   1      33.565  23.278  26.571  1.00  0.00     0.275 C 
ATOM     17  N   UNL A   1      33.287  24.540  26.112  1.00  0.00    -0.349 N 
ATOM     18  H   UNL A   1      32.379  24.865  26.308  1.00  0.00     0.163 HD
ATOM     19  O   UNL A   1      32.631  22.570  26.953  1.00  0.00    -0.268 OA
BRANCH  17  20
ATOM     20  C   UNL A   1      34.140  25.479  25.376  1.00  0.00     0.079 C 
ATOM     21  C   UNL A   1      33.858  25.328  23.877  1.00  0.00     0.031 C 
BRANCH  20  22
ATOM     22  C   UNL A   1      33.911  26.933  25.811  1.00  0.00     0.024 C 
BRANCH  22  23
ATOM     23  C   UNL A   1      33.141  27.786  24.796  1.00  0.00    -0.001 C 
ATOM     24  C   UNL A   1      31.719  28.118  25.236  1.00  0.00     0.004 C 
ENDBRANCH  22  23
ENDBRANCH  20  22
ENDBRANCH  17  20
ENDBRANCH  15  16
ENDBRANCH  11  15
ENDBRANCH   6  10
ENDBRANCH   1   5
BRANCH   3  25
ATOM     25  C   UNL A   1      42.949  19.007  25.723  1.00  0.00     0.118 C 
BRANCH  25  26
ATOM     26  C   UNL A   1      44.410  18.741  25.340  1.00  0.00     0.042 C 
BRANCH  26  27
ATOM     27  C   UNL A   1      45.233  20.012  25.283  1.00  0.00     0.118 C 
BRANCH  27  28
ATOM     28  N   UNL A   1      45.135  20.686  23.987  1.00  0.00    -0.352 N 
ATOM     29  C   UNL A   1      44.561  21.906  23.702  1.00  0.00     0.251 C 
ATOM     30  H   UNL A   1      45.530  20.208  23.223  1.00  0.00     0.163 HD
ATOM     31  O   UNL A   1      44.240  22.196  22.549  1.00  0.00    -0.269 OA
BRANCH  29  32
ATOM     32  C   UNL A   1      44.323  22.854  24.799  1.00  0.00     0.039 A 
ATOM     33  C   UNL A   1      45.365  23.313  25.606  1.00  0.00     0.014 A 
ATOM     34  C   UNL A   1      43.027  23.329  24.973  1.00  0.00     0.014 A 
ATOM     35  C   UNL A   1      45.097  24.321  26.528  1.00  0.00     0.010 A 
ATOM     36  C   UNL A   1      42.813  24.453  25.721  1.00  0.00     0.010 A 
ATOM     37  C   UNL A   1      43.821  24.911  26.555  1.00  0.00    -0.014 A 
BRANCH  37  38
ATOM     38  C   UNL A   1      43.560  26.092  27.368  1.00  0.00     0.031 A 
ATOM     39  C   UNL A   1      44.506  27.213  27.130  1.00  0.00     0.074 A 
ATOM     40  C   UNL A   1      42.452  26.243  28.126  1.00  0.00     0.049 A 
ATOM     41  N   UNL A   1      45.370  27.687  27.964  1.00  0.00    -0.248 NA
ATOM     42  C   UNL A   1      44.621  27.772  25.772  1.00  0.00     0.031 C 
ATOM     43  C   UNL A   1      41.287  25.360  28.244  1.00  0.00     0.029 A 
ATOM     44  N   UNL A   1      42.089  27.304  28.897  1.00  0.00    -0.354 N 
ATOM     45  C   UNL A   1      45.999  28.739  27.311  1.00  0.00     0.074 A 
ATOM     46  C   UNL A   1      45.631  28.632  25.923  1.00  0.00     0.031 C 
ATOM     47  C   UNL A   1      40.265  26.028  28.822  1.00  0.00     0.029 A 
ATOM     48  C   UNL A   1      40.749  27.318  29.270  1.00  0.00     0.049 A 
ATOM     49  H   UNL A   1      42.724  28.005  29.169  1.00  0.00     0.167 HD
ATOM     50  C   UNL A   1      46.561  29.754  28.024  1.00  0.00     0.037 A 
ATOM     51  C   UNL A   1      40.088  28.338  29.874  1.00  0.00     0.037 A 
ATOM     52  C   UNL A   1      46.788  29.360  29.394  1.00  0.00     0.049 A 
ATOM     53  C   UNL A   1      41.116  29.201  30.515  1.00  0.00     0.074 A 
ATOM     54  C   UNL A   1      47.478  28.319  29.989  1.00  0.00     0.029 A 
ATOM     55  N   UNL A   1      45.925  29.822  30.360  1.00  0.00    -0.354 N 
ATOM     56  N   UNL A   1      41.838  28.820  31.534  1.00  0.00    -0.248 NA
ATOM     57  C   UNL A   1      41.681  30.275  29.713  1.00  0.00     0.031 C 
ATOM     58  C   UNL A   1      46.631  27.878  31.049  1.00  0.00     0.029 A 
ATOM     59  C   UNL A   1      45.532  28.734  31.101  1.00  0.00     0.049 A 
ATOM     60  H   UNL A   1      45.641  30.756  30.494  1.00  0.00     0.167 HD
ATOM     61  C   UNL A   1      43.117  29.269  31.241  1.00  0.00     0.074 A 
ATOM     62  C   UNL A   1      42.946  30.220  30.142  1.00  0.00     0.031 C 
ATOM     63  C   UNL A   1      44.223  28.611  31.697  1.00  0.00     0.037 A 
BRANCH  50  64
ATOM     64  C   UNL A   1      46.536  31.198  27.592  1.00  0.00     0.064 A 
ATOM     65  C   UNL A   1      45.304  31.791  27.254  1.00  0.00     0.173 A 
ATOM     66  C   UNL A   1      47.686  31.920  27.201  1.00  0.00     0.173 A 
ATOM     67  F   UNL A   1      44.147  31.180  27.556  1.00  0.00    -0.203 F 
ATOM     68  C   UNL A   1      45.232  32.971  26.509  1.00  0.00     0.198 A 
ATOM     69  C   UNL A   1      47.610  33.125  26.507  1.00  0.00     0.198 A 
ATOM     70  F   UNL A   1      48.923  31.439  27.367  1.00  0.00    -0.203 F 
ATOM     71  F   UNL A   1      44.043  33.425  26.095  1.00  0.00    -0.200 F 
ATOM     72  C   UNL A   1      46.387  33.633  26.131  1.00  0.00     0.200 A 
ATOM     73  F   UNL A   1      48.741  33.738  26.131  1.00  0.00    -0.200 F 
ATOM     74  F   UNL A   1      46.324  34.728  25.362  1.00  0.00    -0.200 F 
ENDBRANCH  50  64
BRANCH  51  75
ATOM     75  C   UNL A   1      38.685  28.778  29.665  1.00  0.00     0.064 A 
ATOM     76  C   UNL A   1      37.850  29.082  30.755  1.00  0.00     0.173 A 
ATOM     77  C   UNL A   1      38.218  29.180  28.398  1.00  0.00     0.173 A 
ATOM     78  F   UNL A   1      38.233  28.776  32.003  1.00  0.00    -0.203 F 
ATOM     79  C   UNL A   1      36.642  29.772  30.590  1.00  0.00     0.198 A 
ATOM     80  C   UNL A   1      37.010  29.861  28.233  1.00  0.00     0.198 A 
ATOM     81  F   UNL A   1      38.967  29.008  27.300  1.00  0.00    -0.203 F 
ATOM     82  F   UNL A   1      35.909  30.101  31.662  1.00  0.00    -0.200 F 
ATOM     83  C   UNL A   1      36.229  30.170  29.330  1.00  0.00     0.200 A 
ATOM     84  F   UNL A   1      36.641  30.272  27.011  1.00  0.00    -0.200 F 
ATOM     85  F   UNL A   1      35.107  30.887  29.177  1.00  0.00    -0.200 F 
ENDBRANCH  51  75
BRANCH  63  86
ATOM     86  C   UNL A   1      44.043  27.524  32.724  1.00  0.00     0.064 A 
ATOM     87  C   UNL A   1      43.954  26.153  32.424  1.00  0.00     0.173 A 
ATOM     88  C   UNL A   1      44.125  27.877  34.078  1.00  0.00     0.173 A 
ATOM     89  F   UNL A   1      43.978  25.717  31.159  1.00  0.00    -0.203 F 
ATOM     90  C   UNL A   1      43.900  25.191  33.433  1.00  0.00     0.198 A 
ATOM     91  C   UNL A   1      44.114  26.913  35.082  1.00  0.00     0.198 A 
ATOM     92  F   UNL A   1      44.270  29.165  34.428  1.00  0.00    -0.203 F 
ATOM     93  F   UNL A   1      43.803  23.891  33.118  1.00  0.00    -0.200 F 
ATOM     94  C   UNL A   1      43.989  25.572  34.761  1.00  0.00     0.200 A 
ATOM     95  F   UNL A   1      44.252  27.286  36.362  1.00  0.00    -0.200 F 
ATOM     96  F   UNL A   1      43.981  24.647  35.729  1.00  0.00    -0.200 F 
ENDBRANCH  63  86
ENDBRANCH  37  38
ENDBRANCH  29  32
ENDBRANCH  27  28
ENDBRANCH  26  27
ENDBRANCH  25  26
ENDBRANCH   3  25
TORSDOF 16
ENDMDL
