MODEL 1
REMARK VINA RESULT:     -12.1      0.000      0.000
REMARK SMILES CC1C[NH+]([C@@H](C(=O)NCCCNC(=O)c2ccc(-c3c4nc(c(-c5c(F)c(F)c(F)c(F)c5F)c5ccc([nH]5)c(-c5c(F)c(F)c(F)c(F)c5F)c5nc(c(-c6c(F)c(F)c(F)c(F)c6F)c6ccc3[nH]6)C=C5)C=C4)cc2)C2CCCCC2)C1
REMARK SMILES IDX 10 1 9 2 8 3 6 4 7 5 5 7 4 8 1 9 2 10 3 11 84 12 78 14 79 15
REMARK SMILES IDX 83 16 80 17 82 18 81 19 11 20 12 21 13 22 14 24 15 25 16 26
REMARK SMILES IDX 77 27 17 28 76 29 18 30 19 31 20 32 70 33 21 34 75 35 69 36
REMARK SMILES IDX 71 37 22 38 74 39 68 40 67 41 23 43 55 44 35 45 54 46 36 47
REMARK SMILES IDX 39 48 53 49 72 50 37 51 38 52 52 54 73 55 40 56 24 57 25 58
REMARK SMILES IDX 33 59 26 60 27 61 31 62 34 63 28 64 29 65 32 66 30 67 56 68
REMARK SMILES IDX 57 69 65 70 58 71 59 72 63 73 66 74 60 75 61 76 64 77 62 78
REMARK SMILES IDX 41 79 42 80 50 81 43 82 44 83 48 84 51 85 45 86 46 87 49 88
REMARK SMILES IDX 47 89
REMARK H PARENT 8 6 4 13 12 23 71 42 39 53
REMARK Flexibility Score: inf
ROOT
ATOM      1  C   UNL A   1      33.539  28.889  24.306  1.00  0.00     0.042 C 
ENDROOT
BRANCH   1   2
ATOM      2  C   UNL A   1      33.834  27.467  23.808  1.00  0.00     0.118 C 
BRANCH   2   3
ATOM      3  N   UNL A   1      33.045  27.065  22.655  1.00  0.00    -0.351 N 
ATOM      4  C   UNL A   1      31.703  27.007  22.401  1.00  0.00     0.278 C 
ATOM      5  O   UNL A   1      31.407  26.666  21.251  1.00  0.00    -0.268 OA
ATOM      6  H   UNL A   1      33.595  26.771  21.892  1.00  0.00     0.163 HD
BRANCH   4   7
ATOM      7  C   UNL A   1      30.627  27.337  23.472  1.00  0.00     0.277 C 
BRANCH   7   8
ATOM      8  N   UNL A   1      29.795  26.196  23.951  1.00  0.00    -0.324 N 
ATOM      9  C   UNL A   1      30.671  23.507  25.902  1.00  0.00     0.020 C 
ATOM     10  C   UNL A   1      30.867  24.800  25.140  1.00  0.00     0.096 C 
ATOM     11  C   UNL A   1      30.348  24.850  23.690  1.00  0.00     0.271 C 
ATOM     12  C   UNL A   1      29.864  25.953  25.396  1.00  0.00     0.271 C 
ATOM     13  H   UNL A   1      28.917  26.476  23.514  1.00  0.00     0.348 HD
ENDBRANCH   7   8
BRANCH   7  14
ATOM     14  C   UNL A   1      29.673  28.491  22.979  1.00  0.00     0.057 C 
ATOM     15  C   UNL A   1      28.163  28.203  23.164  1.00  0.00     0.010 C 
ATOM     16  C   UNL A   1      30.039  29.828  23.670  1.00  0.00     0.010 C 
ATOM     17  C   UNL A   1      27.276  29.370  22.744  1.00  0.00     0.001 C 
ATOM     18  C   UNL A   1      29.117  30.981  23.274  1.00  0.00     0.001 C 
ATOM     19  C   UNL A   1      27.650  30.637  23.499  1.00  0.00     0.000 C 
ENDBRANCH   7  14
ENDBRANCH   4   7
ENDBRANCH   2   3
ENDBRANCH   1   2
BRANCH   1  20
ATOM     20  C   UNL A   1      32.966  29.010  25.718  1.00  0.00     0.118 C 
BRANCH  20  21
ATOM     21  N   UNL A   1      32.621  30.375  26.065  1.00  0.00    -0.352 N 
ATOM     22  C   UNL A   1      33.204  31.241  26.958  1.00  0.00     0.251 C 
ATOM     23  H   UNL A   1      31.842  30.740  25.583  1.00  0.00     0.163 HD
ATOM     24  O   UNL A   1      32.620  32.288  27.230  1.00  0.00    -0.269 OA
BRANCH  22  25
ATOM     25  C   UNL A   1      34.506  30.951  27.618  1.00  0.00     0.039 A 
ATOM     26  C   UNL A   1      34.737  29.645  28.066  1.00  0.00     0.014 A 
ATOM     27  C   UNL A   1      35.455  31.941  27.894  1.00  0.00     0.014 A 
ATOM     28  C   UNL A   1      35.911  29.328  28.759  1.00  0.00     0.010 A 
ATOM     29  C   UNL A   1      36.657  31.611  28.538  1.00  0.00     0.010 A 
ATOM     30  C   UNL A   1      36.893  30.305  28.992  1.00  0.00    -0.014 A 
BRANCH  30  31
ATOM     31  C   UNL A   1      38.139  29.953  29.729  1.00  0.00     0.031 A 
ATOM     32  C   UNL A   1      38.389  30.473  31.119  1.00  0.00     0.074 A 
ATOM     33  C   UNL A   1      39.054  29.149  29.150  1.00  0.00     0.049 A 
ATOM     34  N   UNL A   1      39.394  30.231  31.927  1.00  0.00    -0.248 NA
ATOM     35  C   UNL A   1      37.390  31.400  31.672  1.00  0.00     0.031 C 
ATOM     36  C   UNL A   1      38.967  28.613  27.791  1.00  0.00     0.029 A 
ATOM     37  N   UNL A   1      40.234  28.639  29.635  1.00  0.00    -0.354 N 
ATOM     38  C   UNL A   1      39.148  30.971  33.077  1.00  0.00     0.074 A 
ATOM     39  C   UNL A   1      37.925  31.710  32.845  1.00  0.00     0.031 C 
ATOM     40  C   UNL A   1      40.035  27.832  27.559  1.00  0.00     0.029 A 
ATOM     41  C   UNL A   1      40.887  27.822  28.746  1.00  0.00     0.049 A 
ATOM     42  H   UNL A   1      40.580  28.842  30.534  1.00  0.00     0.167 HD
ATOM     43  C   UNL A   1      39.859  31.014  34.230  1.00  0.00     0.037 A 
ATOM     44  C   UNL A   1      42.038  27.132  28.873  1.00  0.00     0.037 A 
ATOM     45  C   UNL A   1      41.067  30.270  34.479  1.00  0.00     0.049 A 
ATOM     46  C   UNL A   1      42.788  27.169  30.175  1.00  0.00     0.074 A 
ATOM     47  C   UNL A   1      41.840  30.233  35.628  1.00  0.00     0.029 A 
ATOM     48  N   UNL A   1      41.677  29.427  33.563  1.00  0.00    -0.354 N 
ATOM     49  N   UNL A   1      42.511  27.828  31.273  1.00  0.00    -0.248 NA
ATOM     50  C   UNL A   1      44.006  26.348  30.262  1.00  0.00     0.031 C 
ATOM     51  C   UNL A   1      42.930  29.386  35.400  1.00  0.00     0.029 A 
ATOM     52  C   UNL A   1      42.817  28.869  34.120  1.00  0.00     0.049 A 
ATOM     53  H   UNL A   1      41.348  29.250  32.652  1.00  0.00     0.167 HD
ATOM     54  C   UNL A   1      43.504  27.492  32.182  1.00  0.00     0.074 A 
ATOM     55  C   UNL A   1      44.378  26.548  31.517  1.00  0.00     0.031 C 
ATOM     56  C   UNL A   1      43.679  27.930  33.452  1.00  0.00     0.037 A 
BRANCH  43  57
ATOM     57  C   UNL A   1      39.336  31.887  35.333  1.00  0.00     0.064 A 
ATOM     58  C   UNL A   1      38.521  31.365  36.349  1.00  0.00     0.173 A 
ATOM     59  C   UNL A   1      39.697  33.240  35.409  1.00  0.00     0.173 A 
ATOM     60  F   UNL A   1      38.141  30.079  36.315  1.00  0.00    -0.203 F 
ATOM     61  C   UNL A   1      38.071  32.171  37.390  1.00  0.00     0.198 A 
ATOM     62  C   UNL A   1      39.264  34.038  36.465  1.00  0.00     0.198 A 
ATOM     63  F   UNL A   1      40.482  33.785  34.468  1.00  0.00    -0.203 F 
ATOM     64  F   UNL A   1      37.265  31.659  38.332  1.00  0.00    -0.200 F 
ATOM     65  C   UNL A   1      38.449  33.504  37.453  1.00  0.00     0.200 A 
ATOM     66  F   UNL A   1      39.639  35.323  36.532  1.00  0.00    -0.200 F 
ATOM     67  F   UNL A   1      38.022  34.276  38.461  1.00  0.00    -0.200 F 
ENDBRANCH  43  57
BRANCH  44  68
ATOM     68  C   UNL A   1      42.538  26.312  27.739  1.00  0.00     0.064 A 
ATOM     69  C   UNL A   1      42.072  25.006  27.533  1.00  0.00     0.173 A 
ATOM     70  C   UNL A   1      43.502  26.811  26.852  1.00  0.00     0.173 A 
ATOM     71  F   UNL A   1      41.167  24.480  28.371  1.00  0.00    -0.203 F 
ATOM     72  C   UNL A   1      42.569  24.221  26.495  1.00  0.00     0.198 A 
ATOM     73  C   UNL A   1      43.980  26.034  25.800  1.00  0.00     0.198 A 
ATOM     74  F   UNL A   1      43.976  28.056  27.008  1.00  0.00    -0.203 F 
ATOM     75  F   UNL A   1      42.142  22.960  26.348  1.00  0.00    -0.200 F 
ATOM     76  C   UNL A   1      43.520  24.737  25.627  1.00  0.00     0.200 A 
ATOM     77  F   UNL A   1      44.891  26.540  24.957  1.00  0.00    -0.200 F 
ATOM     78  F   UNL A   1      43.998  23.982  24.630  1.00  0.00    -0.200 F 
ENDBRANCH  44  68
BRANCH  56  79
ATOM     79  C   UNL A   1      44.853  27.382  34.208  1.00  0.00     0.064 A 
ATOM     80  C   UNL A   1      46.100  28.024  34.189  1.00  0.00     0.173 A 
ATOM     81  C   UNL A   1      44.727  26.210  34.967  1.00  0.00     0.173 A 
ATOM     82  F   UNL A   1      46.274  29.140  33.465  1.00  0.00    -0.203 F 
ATOM     83  C   UNL A   1      47.188  27.494  34.880  1.00  0.00     0.198 A 
ATOM     84  C   UNL A   1      45.810  25.696  35.676  1.00  0.00     0.198 A 
ATOM     85  F   UNL A   1      43.555  25.561  35.021  1.00  0.00    -0.203 F 
ATOM     86  F   UNL A   1      48.383  28.097  34.807  1.00  0.00    -0.200 F 
ATOM     87  C   UNL A   1      47.041  26.334  35.625  1.00  0.00     0.200 A 
ATOM     88  F   UNL A   1      45.666  24.578  36.401  1.00  0.00    -0.200 F 
ATOM     89  F   UNL A   1      48.089  25.823  36.285  1.00  0.00    -0.200 F 
ENDBRANCH  56  79
ENDBRANCH  30  31
ENDBRANCH  22  25
ENDBRANCH  20  21
ENDBRANCH   1  20
TORSDOF 12
ENDMDL
MODEL 2
REMARK VINA RESULT:     -11.9      0.410      2.047
REMARK SMILES CC1C[NH+]([C@@H](C(=O)NCCCNC(=O)c2ccc(-c3c4nc(c(-c5c(F)c(F)c(F)c(F)c5F)c5ccc([nH]5)c(-c5c(F)c(F)c(F)c(F)c5F)c5nc(c(-c6c(F)c(F)c(F)c(F)c6F)c6ccc3[nH]6)C=C5)C=C4)cc2)C2CCCCC2)C1
REMARK SMILES IDX 10 1 9 2 8 3 6 4 7 5 5 7 4 8 1 9 2 10 3 11 84 12 78 14 79 15
REMARK SMILES IDX 83 16 80 17 82 18 81 19 11 20 12 21 13 22 14 24 15 25 16 26
REMARK SMILES IDX 77 27 17 28 76 29 18 30 19 31 20 32 70 33 21 34 75 35 69 36
REMARK SMILES IDX 71 37 22 38 74 39 68 40 67 41 23 43 55 44 35 45 54 46 36 47
REMARK SMILES IDX 39 48 53 49 72 50 37 51 38 52 52 54 73 55 40 56 24 57 25 58
REMARK SMILES IDX 33 59 26 60 27 61 31 62 34 63 28 64 29 65 32 66 30 67 56 68
REMARK SMILES IDX 57 69 65 70 58 71 59 72 63 73 66 74 60 75 61 76 64 77 62 78
REMARK SMILES IDX 41 79 42 80 50 81 43 82 44 83 48 84 51 85 45 86 46 87 49 88
REMARK SMILES IDX 47 89
REMARK H PARENT 8 6 4 13 12 23 71 42 39 53
REMARK Flexibility Score: inf
ROOT
ATOM      1  C   UNL A   1      33.649  28.942  25.300  1.00  0.00     0.042 C 
ENDROOT
BRANCH   1   2
ATOM      2  C   UNL A   1      33.719  27.441  24.983  1.00  0.00     0.118 C 
BRANCH   2   3
ATOM      3  N   UNL A   1      33.231  27.089  23.660  1.00  0.00    -0.351 N 
ATOM      4  C   UNL A   1      31.985  26.988  23.109  1.00  0.00     0.278 C 
ATOM      5  O   UNL A   1      31.971  26.719  21.903  1.00  0.00    -0.268 OA
ATOM      6  H   UNL A   1      33.953  26.878  23.024  1.00  0.00     0.163 HD
BRANCH   4   7
ATOM      7  C   UNL A   1      30.681  27.187  23.930  1.00  0.00     0.277 C 
BRANCH   7   8
ATOM      8  N   UNL A   1      29.936  25.951  24.304  1.00  0.00    -0.324 N 
ATOM      9  C   UNL A   1      30.918  23.308  26.268  1.00  0.00     0.020 C 
ATOM     10  C   UNL A   1      31.042  24.638  25.556  1.00  0.00     0.096 C 
ATOM     11  C   UNL A   1      30.651  24.679  24.066  1.00  0.00     0.271 C 
ATOM     12  C   UNL A   1      29.902  25.670  25.744  1.00  0.00     0.271 C 
ATOM     13  H   UNL A   1      29.076  26.151  23.794  1.00  0.00     0.348 HD
ENDBRANCH   7   8
BRANCH   7  14
ATOM     14  C   UNL A   1      29.694  28.172  23.193  1.00  0.00     0.057 C 
ATOM     15  C   UNL A   1      28.196  27.932  23.500  1.00  0.00     0.010 C 
ATOM     16  C   UNL A   1      30.063  29.643  23.506  1.00  0.00     0.010 C 
ATOM     17  C   UNL A   1      27.278  28.948  22.828  1.00  0.00     0.001 C 
ATOM     18  C   UNL A   1      29.112  30.651  22.862  1.00  0.00     0.001 C 
ATOM     19  C   UNL A   1      27.659  30.368  23.221  1.00  0.00     0.000 C 
ENDBRANCH   7  14
ENDBRANCH   4   7
ENDBRANCH   2   3
ENDBRANCH   1   2
BRANCH   1  20
ATOM     20  C   UNL A   1      32.704  29.355  26.429  1.00  0.00     0.118 C 
BRANCH  20  21
ATOM     21  N   UNL A   1      32.577  30.795  26.551  1.00  0.00    -0.352 N 
ATOM     22  C   UNL A   1      33.338  31.699  27.250  1.00  0.00     0.251 C 
ATOM     23  H   UNL A   1      31.822  31.186  26.052  1.00  0.00     0.163 HD
ATOM     24  O   UNL A   1      32.925  32.852  27.365  1.00  0.00    -0.269 OA
BRANCH  22  25
ATOM     25  C   UNL A   1      34.633  31.333  27.884  1.00  0.00     0.039 A 
ATOM     26  C   UNL A   1      34.738  30.068  28.476  1.00  0.00     0.014 A 
ATOM     27  C   UNL A   1      35.703  32.227  28.001  1.00  0.00     0.014 A 
ATOM     28  C   UNL A   1      35.905  29.694  29.152  1.00  0.00     0.010 A 
ATOM     29  C   UNL A   1      36.893  31.831  28.628  1.00  0.00     0.010 A 
ATOM     30  C   UNL A   1      37.003  30.566  29.225  1.00  0.00    -0.014 A 
BRANCH  30  31
ATOM     31  C   UNL A   1      38.240  30.154  29.946  1.00  0.00     0.031 A 
ATOM     32  C   UNL A   1      38.527  30.651  31.338  1.00  0.00     0.074 A 
ATOM     33  C   UNL A   1      39.113  29.316  29.351  1.00  0.00     0.049 A 
ATOM     34  N   UNL A   1      39.529  30.359  32.133  1.00  0.00    -0.248 NA
ATOM     35  C   UNL A   1      37.576  31.617  31.908  1.00  0.00     0.031 C 
ATOM     36  C   UNL A   1      38.989  28.795  27.990  1.00  0.00     0.029 A 
ATOM     37  N   UNL A   1      40.274  28.751  29.820  1.00  0.00    -0.354 N 
ATOM     38  C   UNL A   1      39.327  31.100  33.291  1.00  0.00     0.074 A 
ATOM     39  C   UNL A   1      38.136  31.894  33.078  1.00  0.00     0.031 C 
ATOM     40  C   UNL A   1      40.018  27.970  27.741  1.00  0.00     0.029 A 
ATOM     41  C   UNL A   1      40.882  27.912  28.918  1.00  0.00     0.049 A 
ATOM     42  H   UNL A   1      40.638  28.930  30.717  1.00  0.00     0.167 HD
ATOM     43  C   UNL A   1      40.052  31.102  34.437  1.00  0.00     0.037 A 
ATOM     44  C   UNL A   1      42.002  27.171  29.027  1.00  0.00     0.037 A 
ATOM     45  C   UNL A   1      41.228  30.304  34.667  1.00  0.00     0.049 A 
ATOM     46  C   UNL A   1      42.766  27.165  30.322  1.00  0.00     0.074 A 
ATOM     47  C   UNL A   1      42.010  30.224  35.807  1.00  0.00     0.029 A 
ATOM     48  N   UNL A   1      41.791  29.442  33.738  1.00  0.00    -0.354 N 
ATOM     49  N   UNL A   1      42.530  27.827  31.427  1.00  0.00    -0.248 NA
ATOM     50  C   UNL A   1      43.947  26.291  30.390  1.00  0.00     0.031 C 
ATOM     51  C   UNL A   1      43.060  29.331  35.561  1.00  0.00     0.029 A 
ATOM     52  C   UNL A   1      42.911  28.831  34.279  1.00  0.00     0.049 A 
ATOM     53  H   UNL A   1      41.445  29.287  32.829  1.00  0.00     0.167 HD
ATOM     54  C   UNL A   1      43.516  27.440  32.323  1.00  0.00     0.074 A 
ATOM     55  C   UNL A   1      44.341  26.464  31.642  1.00  0.00     0.031 C 
ATOM     56  C   UNL A   1      43.724  27.860  33.594  1.00  0.00     0.037 A 
BRANCH  43  57
ATOM     57  C   UNL A   1      39.579  31.989  35.552  1.00  0.00     0.064 A 
ATOM     58  C   UNL A   1      40.037  33.309  35.674  1.00  0.00     0.173 A 
ATOM     59  C   UNL A   1      38.621  31.537  36.471  1.00  0.00     0.173 A 
ATOM     60  F   UNL A   1      40.960  33.785  34.825  1.00  0.00    -0.203 F 
ATOM     61  C   UNL A   1      39.567  34.139  36.688  1.00  0.00     0.198 A 
ATOM     62  C   UNL A   1      38.135  32.377  37.469  1.00  0.00     0.198 A 
ATOM     63  F   UNL A   1      38.145  30.285  36.392  1.00  0.00    -0.203 F 
ATOM     64  F   UNL A   1      40.043  35.386  36.807  1.00  0.00    -0.200 F 
ATOM     65  C   UNL A   1      38.611  33.675  37.579  1.00  0.00     0.200 A 
ATOM     66  F   UNL A   1      37.203  31.932  38.324  1.00  0.00    -0.200 F 
ATOM     67  F   UNL A   1      38.152  34.478  38.549  1.00  0.00    -0.200 F 
ENDBRANCH  43  57
BRANCH  44  68
ATOM     68  C   UNL A   1      42.454  26.340  27.882  1.00  0.00     0.064 A 
ATOM     69  C   UNL A   1      43.409  26.819  26.975  1.00  0.00     0.173 A 
ATOM     70  C   UNL A   1      41.927  25.060  27.663  1.00  0.00     0.173 A 
ATOM     71  F   UNL A   1      43.924  28.048  27.133  1.00  0.00    -0.203 F 
ATOM     72  C   UNL A   1      43.804  26.058  25.878  1.00  0.00     0.198 A 
ATOM     73  C   UNL A   1      42.341  24.289  26.578  1.00  0.00     0.198 A 
ATOM     74  F   UNL A   1      41.012  24.557  28.505  1.00  0.00    -0.203 F 
ATOM     75  F   UNL A   1      44.685  26.558  25.000  1.00  0.00    -0.200 F 
ATOM     76  C   UNL A   1      43.272  24.792  25.683  1.00  0.00     0.200 A 
ATOM     77  F   UNL A   1      41.833  23.062  26.399  1.00  0.00    -0.200 F 
ATOM     78  F   UNL A   1      43.652  24.060  24.627  1.00  0.00    -0.200 F 
ENDBRANCH  44  68
BRANCH  56  79
ATOM     79  C   UNL A   1      44.880  27.255  34.334  1.00  0.00     0.064 A 
ATOM     80  C   UNL A   1      44.734  26.079  35.084  1.00  0.00     0.173 A 
ATOM     81  C   UNL A   1      46.149  27.851  34.284  1.00  0.00     0.173 A 
ATOM     82  F   UNL A   1      43.536  25.480  35.174  1.00  0.00    -0.203 F 
ATOM     83  C   UNL A   1      45.810  25.537  35.783  1.00  0.00     0.198 A 
ATOM     84  C   UNL A   1      47.228  27.293  34.965  1.00  0.00     0.198 A 
ATOM     85  F   UNL A   1      46.341  28.974  33.578  1.00  0.00    -0.203 F 
ATOM     86  F   UNL A   1      45.635  24.441  36.534  1.00  0.00    -0.200 F 
ATOM     87  C   UNL A   1      47.056  26.142  35.719  1.00  0.00     0.200 A 
ATOM     88  F   UNL A   1      48.434  27.875  34.897  1.00  0.00    -0.200 F 
ATOM     89  F   UNL A   1      48.090  25.623  36.396  1.00  0.00    -0.200 F 
ENDBRANCH  56  79
ENDBRANCH  30  31
ENDBRANCH  22  25
ENDBRANCH  20  21
ENDBRANCH   1  20
TORSDOF 12
ENDMDL
MODEL 3
REMARK VINA RESULT:     -11.9      1.250      2.151
REMARK SMILES CC1C[NH+]([C@@H](C(=O)NCCCNC(=O)c2ccc(-c3c4nc(c(-c5c(F)c(F)c(F)c(F)c5F)c5ccc([nH]5)c(-c5c(F)c(F)c(F)c(F)c5F)c5nc(c(-c6c(F)c(F)c(F)c(F)c6F)c6ccc3[nH]6)C=C5)C=C4)cc2)C2CCCCC2)C1
REMARK SMILES IDX 10 1 9 2 8 3 6 4 7 5 5 7 4 8 1 9 2 10 3 11 84 12 78 14 79 15
REMARK SMILES IDX 83 16 80 17 82 18 81 19 11 20 12 21 13 22 14 24 15 25 16 26
REMARK SMILES IDX 77 27 17 28 76 29 18 30 19 31 20 32 70 33 21 34 75 35 69 36
REMARK SMILES IDX 71 37 22 38 74 39 68 40 67 41 23 43 55 44 35 45 54 46 36 47
REMARK SMILES IDX 39 48 53 49 72 50 37 51 38 52 52 54 73 55 40 56 24 57 25 58
REMARK SMILES IDX 33 59 26 60 27 61 31 62 34 63 28 64 29 65 32 66 30 67 56 68
REMARK SMILES IDX 57 69 65 70 58 71 59 72 63 73 66 74 60 75 61 76 64 77 62 78
REMARK SMILES IDX 41 79 42 80 50 81 43 82 44 83 48 84 51 85 45 86 46 87 49 88
REMARK SMILES IDX 47 89
REMARK H PARENT 8 6 4 13 12 23 71 42 39 53
REMARK Flexibility Score: inf
ROOT
ATOM      1  C   UNL A   1      31.941  28.057  26.306  1.00  0.00     0.042 C 
ENDROOT
BRANCH   1   2
ATOM      2  C   UNL A   1      32.438  26.607  26.386  1.00  0.00     0.118 C 
BRANCH   2   3
ATOM      3  N   UNL A   1      31.446  25.664  26.878  1.00  0.00    -0.351 N 
ATOM      4  C   UNL A   1      30.819  24.580  26.331  1.00  0.00     0.278 C 
ATOM      5  O   UNL A   1      30.066  23.974  27.100  1.00  0.00    -0.268 OA
ATOM      6  H   UNL A   1      31.165  25.846  27.805  1.00  0.00     0.163 HD
BRANCH   4   7
ATOM      7  C   UNL A   1      31.028  24.141  24.855  1.00  0.00     0.277 C 
BRANCH   7   8
ATOM      8  N   UNL A   1      32.429  23.835  24.446  1.00  0.00    -0.324 N 
ATOM      9  C   UNL A   1      34.170  20.878  24.623  1.00  0.00     0.020 C 
ATOM     10  C   UNL A   1      32.993  21.816  24.789  1.00  0.00     0.096 C 
ATOM     11  C   UNL A   1      33.262  23.171  25.471  1.00  0.00     0.271 C 
ATOM     12  C   UNL A   1      32.567  22.667  23.567  1.00  0.00     0.271 C 
ATOM     13  H   UNL A   1      32.680  24.766  24.114  1.00  0.00     0.348 HD
ENDBRANCH   7   8
BRANCH   7  14
ATOM     14  C   UNL A   1      30.428  25.205  23.859  1.00  0.00     0.057 C 
ATOM     15  C   UNL A   1      29.345  26.125  24.473  1.00  0.00     0.010 C 
ATOM     16  C   UNL A   1      31.558  26.067  23.243  1.00  0.00     0.010 C 
ATOM     17  C   UNL A   1      28.842  27.188  23.501  1.00  0.00     0.001 C 
ATOM     18  C   UNL A   1      31.040  27.156  22.304  1.00  0.00     0.001 C 
ATOM     19  C   UNL A   1      29.993  28.034  22.977  1.00  0.00     0.000 C 
ENDBRANCH   7  14
ENDBRANCH   4   7
ENDBRANCH   2   3
ENDBRANCH   1   2
BRANCH   1  20
ATOM     20  C   UNL A   1      32.911  29.077  25.711  1.00  0.00     0.118 C 
BRANCH  20  21
ATOM     21  N   UNL A   1      32.577  30.442  26.070  1.00  0.00    -0.352 N 
ATOM     22  C   UNL A   1      33.166  31.295  26.971  1.00  0.00     0.251 C 
ATOM     23  H   UNL A   1      31.803  30.817  25.590  1.00  0.00     0.163 HD
ATOM     24  O   UNL A   1      32.590  32.344  27.251  1.00  0.00    -0.269 OA
BRANCH  22  25
ATOM     25  C   UNL A   1      34.465  30.988  27.630  1.00  0.00     0.039 A 
ATOM     26  C   UNL A   1      34.651  29.699  28.143  1.00  0.00     0.014 A 
ATOM     27  C   UNL A   1      35.455  31.953  27.844  1.00  0.00     0.014 A 
ATOM     28  C   UNL A   1      35.821  29.372  28.838  1.00  0.00     0.010 A 
ATOM     29  C   UNL A   1      36.652  31.610  28.490  1.00  0.00     0.010 A 
ATOM     30  C   UNL A   1      36.842  30.321  29.009  1.00  0.00    -0.014 A 
BRANCH  30  31
ATOM     31  C   UNL A   1      38.083  29.959  29.749  1.00  0.00     0.031 A 
ATOM     32  C   UNL A   1      38.335  30.477  31.140  1.00  0.00     0.074 A 
ATOM     33  C   UNL A   1      38.993  29.147  29.173  1.00  0.00     0.049 A 
ATOM     34  N   UNL A   1      39.336  30.227  31.951  1.00  0.00    -0.248 NA
ATOM     35  C   UNL A   1      37.342  31.413  31.690  1.00  0.00     0.031 C 
ATOM     36  C   UNL A   1      38.906  28.611  27.815  1.00  0.00     0.029 A 
ATOM     37  N   UNL A   1      40.168  28.627  29.661  1.00  0.00    -0.354 N 
ATOM     38  C   UNL A   1      39.092  30.970  33.099  1.00  0.00     0.074 A 
ATOM     39  C   UNL A   1      37.877  31.719  32.864  1.00  0.00     0.031 C 
ATOM     40  C   UNL A   1      39.967  27.821  27.586  1.00  0.00     0.029 A 
ATOM     41  C   UNL A   1      40.817  27.804  28.774  1.00  0.00     0.049 A 
ATOM     42  H   UNL A   1      40.513  28.828  30.562  1.00  0.00     0.167 HD
ATOM     43  C   UNL A   1      39.801  31.008  34.255  1.00  0.00     0.037 A 
ATOM     44  C   UNL A   1      41.961  27.104  28.905  1.00  0.00     0.037 A 
ATOM     45  C   UNL A   1      41.002  30.254  34.507  1.00  0.00     0.049 A 
ATOM     46  C   UNL A   1      42.708  27.136  30.209  1.00  0.00     0.074 A 
ATOM     47  C   UNL A   1      41.772  30.211  35.658  1.00  0.00     0.029 A 
ATOM     48  N   UNL A   1      41.607  29.405  33.592  1.00  0.00    -0.354 N 
ATOM     49  N   UNL A   1      42.433  27.798  31.306  1.00  0.00    -0.248 NA
ATOM     50  C   UNL A   1      43.918  26.305  30.300  1.00  0.00     0.031 C 
ATOM     51  C   UNL A   1      42.856  29.354  35.433  1.00  0.00     0.029 A 
ATOM     52  C   UNL A   1      42.742  28.838  34.153  1.00  0.00     0.049 A 
ATOM     53  H   UNL A   1      41.280  29.230  32.681  1.00  0.00     0.167 HD
ATOM     54  C   UNL A   1      43.421  27.454  32.217  1.00  0.00     0.074 A 
ATOM     55  C   UNL A   1      44.289  26.502  31.555  1.00  0.00     0.031 C 
ATOM     56  C   UNL A   1      43.597  27.891  33.487  1.00  0.00     0.037 A 
BRANCH  43  57
ATOM     57  C   UNL A   1      39.283  31.886  35.356  1.00  0.00     0.064 A 
ATOM     58  C   UNL A   1      38.479  31.367  36.381  1.00  0.00     0.173 A 
ATOM     59  C   UNL A   1      39.638  33.241  35.420  1.00  0.00     0.173 A 
ATOM     60  F   UNL A   1      38.104  30.078  36.359  1.00  0.00    -0.203 F 
ATOM     61  C   UNL A   1      38.032  32.178  37.421  1.00  0.00     0.198 A 
ATOM     62  C   UNL A   1      39.210  34.043  36.475  1.00  0.00     0.198 A 
ATOM     63  F   UNL A   1      40.413  33.783  34.469  1.00  0.00    -0.203 F 
ATOM     64  F   UNL A   1      37.236  31.668  38.372  1.00  0.00    -0.200 F 
ATOM     65  C   UNL A   1      38.405  33.513  37.471  1.00  0.00     0.200 A 
ATOM     66  F   UNL A   1      39.580  35.331  36.529  1.00  0.00    -0.200 F 
ATOM     67  F   UNL A   1      37.982  34.290  38.478  1.00  0.00    -0.200 F 
ENDBRANCH  43  57
BRANCH  44  68
ATOM     68  C   UNL A   1      42.457  26.280  27.773  1.00  0.00     0.064 A 
ATOM     69  C   UNL A   1      43.417  26.781  26.883  1.00  0.00     0.173 A 
ATOM     70  C   UNL A   1      41.968  24.986  27.549  1.00  0.00     0.173 A 
ATOM     71  F   UNL A   1      43.896  28.023  27.045  1.00  0.00    -0.203 F 
ATOM     72  C   UNL A   1      43.853  26.025  25.797  1.00  0.00     0.198 A 
ATOM     73  C   UNL A   1      42.424  24.222  26.477  1.00  0.00     0.198 A 
ATOM     74  F   UNL A   1      41.050  24.462  28.375  1.00  0.00    -0.203 F 
ATOM     75  F   UNL A   1      44.738  26.544  24.934  1.00  0.00    -0.200 F 
ATOM     76  C   UNL A   1      43.359  24.745  25.597  1.00  0.00     0.200 A 
ATOM     77  F   UNL A   1      41.952  22.981  26.294  1.00  0.00    -0.200 F 
ATOM     78  F   UNL A   1      43.779  24.019  24.553  1.00  0.00    -0.200 F 
ENDBRANCH  44  68
BRANCH  56  79
ATOM     79  C   UNL A   1      44.764  27.334  34.247  1.00  0.00     0.064 A 
ATOM     80  C   UNL A   1      46.015  27.968  34.236  1.00  0.00     0.173 A 
ATOM     81  C   UNL A   1      44.628  26.159  35.001  1.00  0.00     0.173 A 
ATOM     82  F   UNL A   1      46.199  29.086  33.517  1.00  0.00    -0.203 F 
ATOM     83  C   UNL A   1      47.097  27.430  34.929  1.00  0.00     0.198 A 
ATOM     84  C   UNL A   1      45.706  25.637  35.712  1.00  0.00     0.198 A 
ATOM     85  F   UNL A   1      43.452  25.517  35.047  1.00  0.00    -0.203 F 
ATOM     86  F   UNL A   1      48.295  28.026  34.864  1.00  0.00    -0.200 F 
ATOM     87  C   UNL A   1      46.940  26.268  35.670  1.00  0.00     0.200 A 
ATOM     88  F   UNL A   1      45.551  24.517  36.433  1.00  0.00    -0.200 F 
ATOM     89  F   UNL A   1      47.983  25.748  36.333  1.00  0.00    -0.200 F 
ENDBRANCH  56  79
ENDBRANCH  30  31
ENDBRANCH  22  25
ENDBRANCH  20  21
ENDBRANCH   1  20
TORSDOF 12
ENDMDL
