MODEL 1
REMARK VINA RESULT:     -14.4      0.000      0.000
REMARK SMILES Cc1cccc(C[NH2+]Cc2c(C(=O)NCCCNC(=O)c3ccc(-c4c5nc(c(-c6c(F)c(F)c(F)c(F)c6F)c6ccc([nH]6)c(-c6c(F)c(F)c(F)c(F)c6F)c6nc(c(-c7c(F)c(F)c(F)c(F)c7F)c7ccc4[nH]7)C=C6)C=C5)cc3)c(C)n(Cc3cccc(F)c3)c2C)c1
REMARK SMILES IDX 15 1 14 2 12 3 13 4 11 6 10 7 95 8 84 9 86 10 96 11 85 12
REMARK SMILES IDX 9 13 8 14 7 17 6 18 1 19 2 20 3 21 97 22 4 23 5 24 87 25
REMARK SMILES IDX 88 26 89 27 94 28 90 29 92 30 91 31 93 32 16 33 17 34 18 35
REMARK SMILES IDX 19 36 20 38 21 39 22 40 83 41 23 42 82 43 24 44 25 45 26 46
REMARK SMILES IDX 76 47 27 48 81 49 75 50 77 51 28 52 80 53 74 54 73 55 29 57
REMARK SMILES IDX 61 58 41 59 60 60 42 61 45 62 59 63 78 64 43 65 44 66 58 68
REMARK SMILES IDX 79 69 46 70 30 71 31 72 39 73 32 74 33 75 37 76 40 77 34 78
REMARK SMILES IDX 35 79 38 80 36 81 62 82 63 83 71 84 64 85 65 86 69 87 72 88
REMARK SMILES IDX 66 89 67 90 70 91 68 92 47 93 48 94 56 95 49 96 50 97 54 98
REMARK SMILES IDX 57 99 51 100 52 101 55 102 53 103
REMARK H PARENT 14 5 8 15 8 16 18 37 77 56 45 67
REMARK Flexibility Score: inf
ROOT
ATOM      1  C   UNL A   1      31.829  30.026  25.813  1.00  0.00     0.118 C 
ENDROOT
BRANCH   1   2
ATOM      2  N   UNL A   1      32.729  29.868  24.688  1.00  0.00    -0.352 N 
ATOM      3  C   UNL A   1      33.210  28.814  23.955  1.00  0.00     0.253 C 
ATOM      4  O   UNL A   1      34.020  29.168  23.088  1.00  0.00    -0.269 OA
ATOM      5  H   UNL A   1      33.082  30.731  24.372  1.00  0.00     0.163 HD
BRANCH   3   6
ATOM      6  C   UNL A   1      32.810  27.387  24.077  1.00  0.00     0.069 A 
ATOM      7  C   UNL A   1      31.894  26.517  23.337  1.00  0.00     0.040 A 
ATOM      8  C   UNL A   1      31.845  25.299  24.020  1.00  0.00     0.025 A 
ATOM      9  C   UNL A   1      33.233  26.634  25.187  1.00  0.00     0.028 A 
ATOM     10  N   UNL A   1      32.733  25.357  25.080  1.00  0.00    -0.343 N 
ATOM     11  C   UNL A   1      30.995  24.092  23.789  1.00  0.00     0.065 C 
ATOM     12  C   UNL A   1      34.078  27.104  26.336  1.00  0.00     0.065 C 
BRANCH   7  13
ATOM     13  C   UNL A   1      31.125  26.941  22.119  1.00  0.00     0.300 C 
BRANCH  13  14
ATOM     14  N   UNL A   1      30.593  28.286  22.035  1.00  0.00    -0.339 N 
ATOM     15  H   UNL A   1      31.299  28.927  22.397  1.00  0.00     0.346 HD
ATOM     16  H   UNL A   1      30.368  28.441  21.053  1.00  0.00     0.346 HD
BRANCH  14  17
ATOM     17  C   UNL A   1      29.363  28.509  22.774  1.00  0.00     0.297 C 
BRANCH  17  18
ATOM     18  C   UNL A   1      28.952  29.959  22.648  1.00  0.00     0.006 A 
ATOM     19  C   UNL A   1      27.796  32.328  19.894  1.00  0.00     0.044 C 
ATOM     20  C   UNL A   1      28.235  31.817  21.235  1.00  0.00    -0.051 A 
ATOM     21  C   UNL A   1      28.425  32.694  22.305  1.00  0.00     0.003 A 
ATOM     22  C   UNL A   1      28.459  30.451  21.430  1.00  0.00     0.013 A 
ATOM     23  C   UNL A   1      28.871  32.214  23.538  1.00  0.00     0.001 A 
ATOM     24  C   UNL A   1      29.149  30.856  23.704  1.00  0.00     0.009 A 
ENDBRANCH  17  18
ENDBRANCH  14  17
ENDBRANCH  13  14
ENDBRANCH   7  13
BRANCH  10  25
ATOM     25  C   UNL A   1      33.010  24.235  25.992  1.00  0.00     0.157 C 
BRANCH  25  26
ATOM     26  C   UNL A   1      34.129  23.325  25.526  1.00  0.00    -0.025 A 
ATOM     27  C   UNL A   1      34.070  21.955  25.843  1.00  0.00     0.006 A 
ATOM     28  C   UNL A   1      35.203  23.790  24.753  1.00  0.00     0.044 A 
ATOM     29  C   UNL A   1      35.020  21.065  25.340  1.00  0.00     0.003 A 
ATOM     30  C   UNL A   1      36.137  22.892  24.248  1.00  0.00     0.123 A 
ATOM     31  C   UNL A   1      36.049  21.534  24.527  1.00  0.00     0.039 A 
ATOM     32  F   UNL A   1      37.122  23.342  23.460  1.00  0.00    -0.207 F 
ENDBRANCH  25  26
ENDBRANCH  10  25
ENDBRANCH   3   6
ENDBRANCH   1   2
BRANCH   1  33
ATOM     33  C   UNL A   1      32.460  30.933  26.869  1.00  0.00     0.042 C 
BRANCH  33  34
ATOM     34  C   UNL A   1      33.692  30.389  27.566  1.00  0.00     0.118 C 
BRANCH  34  35
ATOM     35  N   UNL A   1      34.360  31.392  28.398  1.00  0.00    -0.352 N 
ATOM     36  C   UNL A   1      35.565  31.305  29.070  1.00  0.00     0.251 C 
ATOM     37  H   UNL A   1      33.884  32.248  28.491  1.00  0.00     0.163 HD
ATOM     38  O   UNL A   1      36.005  32.248  29.704  1.00  0.00    -0.269 OA
BRANCH  36  39
ATOM     39  C   UNL A   1      36.374  30.082  28.883  1.00  0.00     0.039 A 
ATOM     40  C   UNL A   1      36.648  29.308  30.014  1.00  0.00     0.014 A 
ATOM     41  C   UNL A   1      37.082  29.899  27.700  1.00  0.00     0.014 A 
ATOM     42  C   UNL A   1      37.808  28.543  30.039  1.00  0.00     0.010 A 
ATOM     43  C   UNL A   1      38.297  29.253  27.771  1.00  0.00     0.010 A 
ATOM     44  C   UNL A   1      38.690  28.631  28.963  1.00  0.00    -0.014 A 
BRANCH  44  45
ATOM     45  C   UNL A   1      40.086  28.216  29.041  1.00  0.00     0.031 A 
ATOM     46  C   UNL A   1      40.496  26.881  28.558  1.00  0.00     0.074 A 
ATOM     47  C   UNL A   1      41.023  29.110  29.437  1.00  0.00     0.049 A 
ATOM     48  N   UNL A   1      41.601  26.298  28.881  1.00  0.00    -0.248 NA
ATOM     49  C   UNL A   1      39.657  26.066  27.690  1.00  0.00     0.031 C 
ATOM     50  C   UNL A   1      42.469  29.009  29.259  1.00  0.00     0.029 A 
ATOM     51  N   UNL A   1      40.851  30.235  30.264  1.00  0.00    -0.354 N 
ATOM     52  C   UNL A   1      41.751  25.195  28.072  1.00  0.00     0.074 A 
ATOM     53  C   UNL A   1      40.487  25.063  27.387  1.00  0.00     0.031 C 
ATOM     54  C   UNL A   1      43.074  29.806  30.153  1.00  0.00     0.029 A 
ATOM     55  C   UNL A   1      42.039  30.324  31.029  1.00  0.00     0.049 A 
ATOM     56  H   UNL A   1      40.071  30.834  30.302  1.00  0.00     0.167 HD
ATOM     57  C   UNL A   1      42.977  24.599  27.983  1.00  0.00     0.037 A 
ATOM     58  C   UNL A   1      42.034  30.189  32.387  1.00  0.00     0.037 A 
ATOM     59  C   UNL A   1      43.925  25.209  28.913  1.00  0.00     0.049 A 
ATOM     60  C   UNL A   1      42.908  29.070  32.897  1.00  0.00     0.074 A 
ATOM     61  C   UNL A   1      44.919  26.161  28.753  1.00  0.00     0.029 A 
ATOM     62  N   UNL A   1      43.721  25.082  30.284  1.00  0.00    -0.354 N 
ATOM     63  N   UNL A   1      43.299  28.064  32.166  1.00  0.00    -0.248 NA
ATOM     64  C   UNL A   1      43.375  28.974  34.278  1.00  0.00     0.031 C 
ATOM     65  C   UNL A   1      45.291  26.632  30.036  1.00  0.00     0.029 A 
ATOM     66  C   UNL A   1      44.531  25.959  30.977  1.00  0.00     0.049 A 
ATOM     67  H   UNL A   1      43.085  24.456  30.701  1.00  0.00     0.167 HD
ATOM     68  C   UNL A   1      44.020  27.191  32.939  1.00  0.00     0.074 A 
ATOM     69  C   UNL A   1      44.058  27.816  34.247  1.00  0.00     0.031 C 
ATOM     70  C   UNL A   1      44.506  26.020  32.430  1.00  0.00     0.037 A 
BRANCH  57  71
ATOM     71  C   UNL A   1      43.393  23.676  26.855  1.00  0.00     0.064 A 
ATOM     72  C   UNL A   1      42.984  22.323  26.837  1.00  0.00     0.173 A 
ATOM     73  C   UNL A   1      44.248  24.039  25.797  1.00  0.00     0.173 A 
ATOM     74  F   UNL A   1      42.073  21.853  27.697  1.00  0.00    -0.203 F 
ATOM     75  C   UNL A   1      43.496  21.393  25.928  1.00  0.00     0.198 A 
ATOM     76  C   UNL A   1      44.805  23.098  24.924  1.00  0.00     0.198 A 
ATOM     77  F   UNL A   1      44.521  25.320  25.531  1.00  0.00    -0.203 F 
ATOM     78  F   UNL A   1      43.076  20.120  25.972  1.00  0.00    -0.200 F 
ATOM     79  C   UNL A   1      44.441  21.770  24.998  1.00  0.00     0.200 A 
ATOM     80  F   UNL A   1      45.699  23.493  24.005  1.00  0.00    -0.200 F 
ATOM     81  F   UNL A   1      44.970  20.870  24.160  1.00  0.00    -0.200 F 
ENDBRANCH  57  71
BRANCH  58  82
ATOM     82  C   UNL A   1      40.763  30.627  33.018  1.00  0.00     0.064 A 
ATOM     83  C   UNL A   1      40.516  32.008  33.131  1.00  0.00     0.173 A 
ATOM     84  C   UNL A   1      39.671  29.760  33.140  1.00  0.00     0.173 A 
ATOM     85  F   UNL A   1      41.529  32.882  33.019  1.00  0.00    -0.203 F 
ATOM     86  C   UNL A   1      39.218  32.503  33.239  1.00  0.00     0.198 A 
ATOM     87  C   UNL A   1      38.374  30.260  33.260  1.00  0.00     0.198 A 
ATOM     88  F   UNL A   1      39.841  28.435  33.018  1.00  0.00    -0.203 F 
ATOM     89  F   UNL A   1      39.006  33.828  33.228  1.00  0.00    -0.200 F 
ATOM     90  C   UNL A   1      38.146  31.630  33.273  1.00  0.00     0.200 A 
ATOM     91  F   UNL A   1      37.332  29.417  33.258  1.00  0.00    -0.200 F 
ATOM     92  F   UNL A   1      36.892  32.104  33.272  1.00  0.00    -0.200 F 
ENDBRANCH  58  82
BRANCH  70  93
ATOM     93  C   UNL A   1      45.086  24.868  33.218  1.00  0.00     0.064 A 
ATOM     94  C   UNL A   1      44.390  23.683  33.510  1.00  0.00     0.173 A 
ATOM     95  C   UNL A   1      46.455  24.870  33.587  1.00  0.00     0.173 A 
ATOM     96  F   UNL A   1      43.126  23.498  33.109  1.00  0.00    -0.203 F 
ATOM     97  C   UNL A   1      44.996  22.612  34.175  1.00  0.00     0.198 A 
ATOM     98  C   UNL A   1      47.071  23.776  34.195  1.00  0.00     0.198 A 
ATOM     99  F   UNL A   1      47.248  25.923  33.339  1.00  0.00    -0.203 F 
ATOM    100  F   UNL A   1      44.273  21.521  34.466  1.00  0.00    -0.200 F 
ATOM    101  C   UNL A   1      46.337  22.653  34.505  1.00  0.00     0.200 A 
ATOM    102  F   UNL A   1      48.385  23.813  34.456  1.00  0.00    -0.200 F 
ATOM    103  F   UNL A   1      46.922  21.604  35.098  1.00  0.00    -0.200 F 
ENDBRANCH  70  93
ENDBRANCH  44  45
ENDBRANCH  36  39
ENDBRANCH  34  35
ENDBRANCH  33  34
ENDBRANCH   1  33
TORSDOF 16
ENDMDL
MODEL 2
REMARK VINA RESULT:     -14.2      1.780      4.661
REMARK SMILES Cc1cccc(C[NH2+]Cc2c(C(=O)NCCCNC(=O)c3ccc(-c4c5nc(c(-c6c(F)c(F)c(F)c(F)c6F)c6ccc([nH]6)c(-c6c(F)c(F)c(F)c(F)c6F)c6nc(c(-c7c(F)c(F)c(F)c(F)c7F)c7ccc4[nH]7)C=C6)C=C5)cc3)c(C)n(Cc3cccc(F)c3)c2C)c1
REMARK SMILES IDX 15 1 14 2 12 3 13 4 11 6 10 7 95 8 84 9 86 10 96 11 85 12
REMARK SMILES IDX 9 13 8 14 7 17 6 18 1 19 2 20 3 21 97 22 4 23 5 24 87 25
REMARK SMILES IDX 88 26 89 27 94 28 90 29 92 30 91 31 93 32 16 33 17 34 18 35
REMARK SMILES IDX 19 36 20 38 21 39 22 40 83 41 23 42 82 43 24 44 25 45 26 46
REMARK SMILES IDX 76 47 27 48 81 49 75 50 77 51 28 52 80 53 74 54 73 55 29 57
REMARK SMILES IDX 61 58 41 59 60 60 42 61 45 62 59 63 78 64 43 65 44 66 58 68
REMARK SMILES IDX 79 69 46 70 30 71 31 72 39 73 32 74 33 75 37 76 40 77 34 78
REMARK SMILES IDX 35 79 38 80 36 81 62 82 63 83 71 84 64 85 65 86 69 87 72 88
REMARK SMILES IDX 66 89 67 90 70 91 68 92 47 93 48 94 56 95 49 96 50 97 54 98
REMARK SMILES IDX 57 99 51 100 52 101 55 102 53 103
REMARK H PARENT 14 5 8 15 8 16 18 37 77 56 45 67
REMARK Flexibility Score: inf
ROOT
ATOM      1  C   UNL A   1      32.952  28.540  27.664  1.00  0.00     0.118 C 
ENDROOT
BRANCH   1   2
ATOM      2  N   UNL A   1      33.634  27.887  26.565  1.00  0.00    -0.352 N 
ATOM      3  C   UNL A   1      33.265  27.352  25.357  1.00  0.00     0.253 C 
ATOM      4  O   UNL A   1      34.217  26.842  24.753  1.00  0.00    -0.269 OA
ATOM      5  H   UNL A   1      34.603  27.806  26.725  1.00  0.00     0.163 HD
BRANCH   3   6
ATOM      6  C   UNL A   1      31.913  27.396  24.740  1.00  0.00     0.069 A 
ATOM      7  C   UNL A   1      30.645  26.714  25.009  1.00  0.00     0.040 A 
ATOM      8  C   UNL A   1      29.761  27.078  23.990  1.00  0.00     0.025 A 
ATOM      9  C   UNL A   1      31.713  28.110  23.546  1.00  0.00     0.028 A 
ATOM     10  N   UNL A   1      30.394  27.997  23.170  1.00  0.00    -0.343 N 
ATOM     11  C   UNL A   1      28.378  26.600  23.692  1.00  0.00     0.065 C 
ATOM     12  C   UNL A   1      32.739  28.875  22.760  1.00  0.00     0.065 C 
BRANCH   7  13
ATOM     13  C   UNL A   1      30.426  25.757  26.144  1.00  0.00     0.300 C 
BRANCH  13  14
ATOM     14  N   UNL A   1      30.356  24.333  25.883  1.00  0.00    -0.339 N 
ATOM     15  H   UNL A   1      29.457  23.994  26.225  1.00  0.00     0.346 HD
ATOM     16  H   UNL A   1      30.476  24.223  24.876  1.00  0.00     0.346 HD
BRANCH  14  17
ATOM     17  C   UNL A   1      31.402  23.541  26.505  1.00  0.00     0.297 C 
BRANCH  17  18
ATOM     18  C   UNL A   1      32.584  23.437  25.566  1.00  0.00     0.006 A 
ATOM     19  C   UNL A   1      36.367  23.871  25.746  1.00  0.00     0.044 C 
ATOM     20  C   UNL A   1      34.989  23.643  25.197  1.00  0.00    -0.051 A 
ATOM     21  C   UNL A   1      34.781  23.507  23.823  1.00  0.00     0.003 A 
ATOM     22  C   UNL A   1      33.891  23.564  26.059  1.00  0.00     0.013 A 
ATOM     23  C   UNL A   1      33.491  23.335  23.319  1.00  0.00     0.001 A 
ATOM     24  C   UNL A   1      32.396  23.316  24.184  1.00  0.00     0.009 A 
ENDBRANCH  17  18
ENDBRANCH  14  17
ENDBRANCH  13  14
ENDBRANCH   7  13
BRANCH  10  25
ATOM     25  C   UNL A   1      29.755  28.662  22.023  1.00  0.00     0.157 C 
BRANCH  25  26
ATOM     26  C   UNL A   1      29.226  30.049  22.333  1.00  0.00    -0.025 A 
ATOM     27  C   UNL A   1      29.410  30.574  23.626  1.00  0.00     0.006 A 
ATOM     28  C   UNL A   1      28.596  30.846  21.367  1.00  0.00     0.044 A 
ATOM     29  C   UNL A   1      29.038  31.888  23.921  1.00  0.00     0.003 A 
ATOM     30  C   UNL A   1      28.241  32.156  21.670  1.00  0.00     0.123 A 
ATOM     31  C   UNL A   1      28.465  32.685  22.934  1.00  0.00     0.039 A 
ATOM     32  F   UNL A   1      27.696  32.926  20.718  1.00  0.00    -0.207 F 
ENDBRANCH  25  26
ENDBRANCH  10  25
ENDBRANCH   3   6
ENDBRANCH   1   2
BRANCH   1  33
ATOM     33  C   UNL A   1      32.624  29.987  27.296  1.00  0.00     0.042 C 
BRANCH  33  34
ATOM     34  C   UNL A   1      33.804  30.870  26.943  1.00  0.00     0.118 C 
BRANCH  34  35
ATOM     35  N   UNL A   1      34.239  31.706  28.064  1.00  0.00    -0.352 N 
ATOM     36  C   UNL A   1      35.232  31.468  28.997  1.00  0.00     0.251 C 
ATOM     37  H   UNL A   1      33.757  32.557  28.168  1.00  0.00     0.163 HD
ATOM     38  O   UNL A   1      35.497  32.284  29.861  1.00  0.00    -0.269 OA
BRANCH  36  39
ATOM     39  C   UNL A   1      36.060  30.254  28.830  1.00  0.00     0.039 A 
ATOM     40  C   UNL A   1      36.419  29.552  29.984  1.00  0.00     0.014 A 
ATOM     41  C   UNL A   1      36.701  30.019  27.619  1.00  0.00     0.014 A 
ATOM     42  C   UNL A   1      37.597  28.816  29.981  1.00  0.00     0.010 A 
ATOM     43  C   UNL A   1      37.933  29.405  27.652  1.00  0.00     0.010 A 
ATOM     44  C   UNL A   1      38.412  28.861  28.851  1.00  0.00    -0.014 A 
BRANCH  44  45
ATOM     45  C   UNL A   1      39.820  28.482  28.868  1.00  0.00     0.031 A 
ATOM     46  C   UNL A   1      40.229  27.110  28.500  1.00  0.00     0.074 A 
ATOM     47  C   UNL A   1      40.760  29.430  29.095  1.00  0.00     0.049 A 
ATOM     48  N   UNL A   1      41.369  26.585  28.800  1.00  0.00    -0.248 NA
ATOM     49  C   UNL A   1      39.350  26.191  27.790  1.00  0.00     0.031 C 
ATOM     50  C   UNL A   1      42.192  29.336  28.820  1.00  0.00     0.029 A 
ATOM     51  N   UNL A   1      40.620  30.635  29.808  1.00  0.00    -0.354 N 
ATOM     52  C   UNL A   1      41.488  25.404  28.105  1.00  0.00     0.074 A 
ATOM     53  C   UNL A   1      40.181  25.177  27.534  1.00  0.00     0.031 C 
ATOM     54  C   UNL A   1      42.839  30.237  29.576  1.00  0.00     0.029 A 
ATOM     55  C   UNL A   1      41.857  30.827  30.467  1.00  0.00     0.049 A 
ATOM     56  H   UNL A   1      39.829  31.221  29.840  1.00  0.00     0.167 HD
ATOM     57  C   UNL A   1      42.719  24.824  27.988  1.00  0.00     0.037 A 
ATOM     58  C   UNL A   1      41.955  30.841  31.828  1.00  0.00     0.037 A 
ATOM     59  C   UNL A   1      43.716  25.548  28.774  1.00  0.00     0.049 A 
ATOM     60  C   UNL A   1      42.892  29.799  32.388  1.00  0.00     0.074 A 
ATOM     61  C   UNL A   1      44.671  26.495  28.439  1.00  0.00     0.029 A 
ATOM     62  N   UNL A   1      43.615  25.566  30.161  1.00  0.00    -0.354 N 
ATOM     63  N   UNL A   1      43.254  28.727  31.741  1.00  0.00    -0.248 NA
ATOM     64  C   UNL A   1      43.461  29.861  33.732  1.00  0.00     0.031 C 
ATOM     65  C   UNL A   1      45.123  27.108  29.632  1.00  0.00     0.029 A 
ATOM     66  C   UNL A   1      44.451  26.527  30.694  1.00  0.00     0.049 A 
ATOM     67  H   UNL A   1      43.028  24.978  30.689  1.00  0.00     0.167 HD
ATOM     68  C   UNL A   1      44.053  27.956  32.546  1.00  0.00     0.074 A 
ATOM     69  C   UNL A   1      44.170  28.720  33.773  1.00  0.00     0.031 C 
ATOM     70  C   UNL A   1      44.531  26.745  32.130  1.00  0.00     0.037 A 
BRANCH  57  71
ATOM     71  C   UNL A   1      43.076  23.792  26.936  1.00  0.00     0.064 A 
ATOM     72  C   UNL A   1      42.745  22.429  27.116  1.00  0.00     0.173 A 
ATOM     73  C   UNL A   1      43.802  24.063  25.761  1.00  0.00     0.173 A 
ATOM     74  F   UNL A   1      41.950  22.025  28.114  1.00  0.00    -0.203 F 
ATOM     75  C   UNL A   1      43.218  21.420  26.273  1.00  0.00     0.198 A 
ATOM     76  C   UNL A   1      44.324  23.050  24.949  1.00  0.00     0.198 A 
ATOM     77  F   UNL A   1      43.973  25.314  25.323  1.00  0.00    -0.203 F 
ATOM     78  F   UNL A   1      42.878  20.144  26.506  1.00  0.00    -0.200 F 
ATOM     79  C   UNL A   1      44.045  21.726  25.213  1.00  0.00     0.200 A 
ATOM     80  F   UNL A   1      45.100  23.372  23.904  1.00  0.00    -0.200 F 
ATOM     81  F   UNL A   1      44.541  20.756  24.434  1.00  0.00    -0.200 F 
ENDBRANCH  57  71
BRANCH  58  82
ATOM     82  C   UNL A   1      40.722  31.321  32.503  1.00  0.00     0.064 A 
ATOM     83  C   UNL A   1      40.461  32.704  32.509  1.00  0.00     0.173 A 
ATOM     84  C   UNL A   1      39.655  30.459  32.775  1.00  0.00     0.173 A 
ATOM     85  F   UNL A   1      41.451  33.574  32.250  1.00  0.00    -0.203 F 
ATOM     86  C   UNL A   1      39.166  33.195  32.660  1.00  0.00     0.198 A 
ATOM     87  C   UNL A   1      38.360  30.955  32.938  1.00  0.00     0.198 A 
ATOM     88  F   UNL A   1      39.836  29.130  32.761  1.00  0.00    -0.203 F 
ATOM     89  F   UNL A   1      38.933  34.511  32.545  1.00  0.00    -0.200 F 
ATOM     90  C   UNL A   1      38.113  32.318  32.844  1.00  0.00     0.200 A 
ATOM     91  F   UNL A   1      37.334  30.106  33.083  1.00  0.00    -0.200 F 
ATOM     92  F   UNL A   1      36.855  32.778  32.886  1.00  0.00    -0.200 F 
ENDBRANCH  58  82
BRANCH  70  93
ATOM     93  C   UNL A   1      45.196  25.696  32.991  1.00  0.00     0.064 A 
ATOM     94  C   UNL A   1      46.574  25.420  32.974  1.00  0.00     0.173 A 
ATOM     95  C   UNL A   1      44.457  25.020  33.995  1.00  0.00     0.173 A 
ATOM     96  F   UNL A   1      47.408  26.079  32.160  1.00  0.00    -0.203 F 
ATOM     97  C   UNL A   1      47.155  24.495  33.846  1.00  0.00     0.198 A 
ATOM     98  C   UNL A   1      45.051  24.143  34.902  1.00  0.00     0.198 A 
ATOM     99  F   UNL A   1      43.138  25.213  34.147  1.00  0.00    -0.203 F 
ATOM    100  F   UNL A   1      48.468  24.239  33.759  1.00  0.00    -0.200 F 
ATOM    101  C   UNL A   1      46.398  23.867  34.818  1.00  0.00     0.200 A 
ATOM    102  F   UNL A   1      44.311  23.588  35.873  1.00  0.00    -0.200 F 
ATOM    103  F   UNL A   1      46.971  23.019  35.682  1.00  0.00    -0.200 F 
ENDBRANCH  70  93
ENDBRANCH  44  45
ENDBRANCH  36  39
ENDBRANCH  34  35
ENDBRANCH  33  34
ENDBRANCH   1  33
TORSDOF 16
ENDMDL
MODEL 3
REMARK VINA RESULT:     -13.8      1.824      5.067
REMARK SMILES Cc1cccc(C[NH2+]Cc2c(C(=O)NCCCNC(=O)c3ccc(-c4c5nc(c(-c6c(F)c(F)c(F)c(F)c6F)c6ccc([nH]6)c(-c6c(F)c(F)c(F)c(F)c6F)c6nc(c(-c7c(F)c(F)c(F)c(F)c7F)c7ccc4[nH]7)C=C6)C=C5)cc3)c(C)n(Cc3cccc(F)c3)c2C)c1
REMARK SMILES IDX 15 1 14 2 12 3 13 4 11 6 10 7 95 8 84 9 86 10 96 11 85 12
REMARK SMILES IDX 9 13 8 14 7 17 6 18 1 19 2 20 3 21 97 22 4 23 5 24 87 25
REMARK SMILES IDX 88 26 89 27 94 28 90 29 92 30 91 31 93 32 16 33 17 34 18 35
REMARK SMILES IDX 19 36 20 38 21 39 22 40 83 41 23 42 82 43 24 44 25 45 26 46
REMARK SMILES IDX 76 47 27 48 81 49 75 50 77 51 28 52 80 53 74 54 73 55 29 57
REMARK SMILES IDX 61 58 41 59 60 60 42 61 45 62 59 63 78 64 43 65 44 66 58 68
REMARK SMILES IDX 79 69 46 70 30 71 31 72 39 73 32 74 33 75 37 76 40 77 34 78
REMARK SMILES IDX 35 79 38 80 36 81 62 82 63 83 71 84 64 85 65 86 69 87 72 88
REMARK SMILES IDX 66 89 67 90 70 91 68 92 47 93 48 94 56 95 49 96 50 97 54 98
REMARK SMILES IDX 57 99 51 100 52 101 55 102 53 103
REMARK H PARENT 14 5 8 15 8 16 18 37 77 56 45 67
REMARK Flexibility Score: inf
ROOT
ATOM      1  C   UNL A   1      34.329  29.390  27.440  1.00  0.00     0.118 C 
ENDROOT
BRANCH   1   2
ATOM      2  N   UNL A   1      33.169  28.636  27.870  1.00  0.00    -0.352 N 
ATOM      3  C   UNL A   1      32.180  27.917  27.251  1.00  0.00     0.253 C 
ATOM      4  O   UNL A   1      31.345  27.472  28.050  1.00  0.00    -0.269 OA
ATOM      5  H   UNL A   1      33.066  28.642  28.850  1.00  0.00     0.163 HD
BRANCH   3   6
ATOM      6  C   UNL A   1      32.080  27.602  25.801  1.00  0.00     0.069 A 
ATOM      7  C   UNL A   1      32.373  26.418  24.991  1.00  0.00     0.040 A 
ATOM      8  C   UNL A   1      32.202  26.785  23.654  1.00  0.00     0.025 A 
ATOM      9  C   UNL A   1      31.777  28.623  24.884  1.00  0.00     0.028 A 
ATOM     10  N   UNL A   1      31.749  28.093  23.614  1.00  0.00    -0.343 N 
ATOM     11  C   UNL A   1      32.472  26.023  22.398  1.00  0.00     0.065 C 
ATOM     12  C   UNL A   1      31.532  30.074  25.185  1.00  0.00     0.065 C 
BRANCH   7  13
ATOM     13  C   UNL A   1      32.838  25.105  25.551  1.00  0.00     0.300 C 
BRANCH  13  14
ATOM     14  N   UNL A   1      34.234  24.732  25.448  1.00  0.00    -0.339 N 
ATOM     15  H   UNL A   1      34.737  25.506  25.014  1.00  0.00     0.346 HD
ATOM     16  H   UNL A   1      34.544  24.528  26.398  1.00  0.00     0.346 HD
BRANCH  14  17
ATOM     17  C   UNL A   1      34.495  23.533  24.670  1.00  0.00     0.297 C 
BRANCH  17  18
ATOM     18  C   UNL A   1      35.887  23.026  24.974  1.00  0.00     0.006 A 
ATOM     19  C   UNL A   1      37.779  19.721  24.799  1.00  0.00     0.044 C 
ATOM     20  C   UNL A   1      37.461  21.161  25.075  1.00  0.00    -0.051 A 
ATOM     21  C   UNL A   1      38.370  21.976  25.755  1.00  0.00     0.003 A 
ATOM     22  C   UNL A   1      36.245  21.708  24.654  1.00  0.00     0.013 A 
ATOM     23  C   UNL A   1      38.048  23.304  26.041  1.00  0.00     0.001 A 
ATOM     24  C   UNL A   1      36.807  23.821  25.668  1.00  0.00     0.009 A 
ENDBRANCH  17  18
ENDBRANCH  14  17
ENDBRANCH  13  14
ENDBRANCH   7  13
BRANCH  10  25
ATOM     25  C   UNL A   1      31.390  28.809  22.380  1.00  0.00     0.157 C 
BRANCH  25  26
ATOM     26  C   UNL A   1      29.943  29.257  22.328  1.00  0.00    -0.025 A 
ATOM     27  C   UNL A   1      28.976  28.523  23.041  1.00  0.00     0.006 A 
ATOM     28  C   UNL A   1      29.535  30.402  21.627  1.00  0.00     0.044 A 
ATOM     29  C   UNL A   1      27.654  28.965  23.110  1.00  0.00     0.003 A 
ATOM     30  C   UNL A   1      28.218  30.838  21.713  1.00  0.00     0.123 A 
ATOM     31  C   UNL A   1      27.277  30.135  22.455  1.00  0.00     0.039 A 
ATOM     32  F   UNL A   1      27.857  31.967  21.090  1.00  0.00    -0.207 F 
ENDBRANCH  25  26
ENDBRANCH  10  25
ENDBRANCH   3   6
ENDBRANCH   1   2
BRANCH   1  33
ATOM     33  C   UNL A   1      34.086  30.887  27.630  1.00  0.00     0.042 C 
BRANCH  33  34
ATOM     34  C   UNL A   1      35.318  31.741  27.854  1.00  0.00     0.118 C 
BRANCH  34  35
ATOM     35  N   UNL A   1      35.562  32.021  29.271  1.00  0.00    -0.352 N 
ATOM     36  C   UNL A   1      36.317  31.308  30.184  1.00  0.00     0.251 C 
ATOM     37  H   UNL A   1      35.127  32.830  29.622  1.00  0.00     0.163 HD
ATOM     38  O   UNL A   1      36.447  31.691  31.333  1.00  0.00    -0.269 OA
BRANCH  36  39
ATOM     39  C   UNL A   1      37.078  30.140  29.689  1.00  0.00     0.039 A 
ATOM     40  C   UNL A   1      37.239  29.058  30.559  1.00  0.00     0.014 A 
ATOM     41  C   UNL A   1      37.852  30.260  28.541  1.00  0.00     0.014 A 
ATOM     42  C   UNL A   1      38.357  28.245  30.417  1.00  0.00     0.010 A 
ATOM     43  C   UNL A   1      39.027  29.544  28.480  1.00  0.00     0.010 A 
ATOM     44  C   UNL A   1      39.312  28.581  29.457  1.00  0.00    -0.014 A 
BRANCH  44  45
ATOM     45  C   UNL A   1      40.678  28.072  29.480  1.00  0.00     0.031 A 
ATOM     46  C   UNL A   1      40.989  26.743  28.914  1.00  0.00     0.074 A 
ATOM     47  C   UNL A   1      41.679  28.879  29.903  1.00  0.00     0.049 A 
ATOM     48  N   UNL A   1      42.059  26.071  29.179  1.00  0.00    -0.248 NA
ATOM     49  C   UNL A   1      40.081  26.035  28.022  1.00  0.00     0.031 C 
ATOM     50  C   UNL A   1      43.112  28.694  29.686  1.00  0.00     0.029 A 
ATOM     51  N   UNL A   1      41.600  29.964  30.795  1.00  0.00    -0.354 N 
ATOM     52  C   UNL A   1      42.119  25.009  28.307  1.00  0.00     0.074 A 
ATOM     53  C   UNL A   1      40.836  24.999  27.645  1.00  0.00     0.031 C 
ATOM     54  C   UNL A   1      43.786  29.398  30.608  1.00  0.00     0.029 A 
ATOM     55  C   UNL A   1      42.805  29.932  31.536  1.00  0.00     0.049 A 
ATOM     56  H   UNL A   1      40.862  30.610  30.884  1.00  0.00     0.167 HD
ATOM     57  C   UNL A   1      43.301  24.340  28.156  1.00  0.00     0.037 A 
ATOM     58  C   UNL A   1      42.818  29.721  32.884  1.00  0.00     0.037 A 
ATOM     59  C   UNL A   1      44.306  24.833  29.097  1.00  0.00     0.049 A 
ATOM     60  C   UNL A   1      43.625  28.519  33.311  1.00  0.00     0.074 A 
ATOM     61  C   UNL A   1      45.357  25.726  28.967  1.00  0.00     0.029 A 
ATOM     62  N   UNL A   1      44.120  24.642  30.462  1.00  0.00    -0.354 N 
ATOM     63  N   UNL A   1      43.934  27.534  32.516  1.00  0.00    -0.248 NA
ATOM     64  C   UNL A   1      44.112  28.315  34.673  1.00  0.00     0.031 C 
ATOM     65  C   UNL A   1      45.784  26.097  30.264  1.00  0.00     0.029 A 
ATOM     66  C   UNL A   1      45.000  25.423  31.184  1.00  0.00     0.049 A 
ATOM     67  H   UNL A   1      43.452  24.036  30.859  1.00  0.00     0.167 HD
ATOM     68  C   UNL A   1      44.611  26.572  33.223  1.00  0.00     0.074 A 
ATOM     69  C   UNL A   1      44.716  27.119  34.562  1.00  0.00     0.031 C 
ATOM     70  C   UNL A   1      45.008  25.403  32.639  1.00  0.00     0.037 A 
BRANCH  57  71
ATOM     71  C   UNL A   1      43.632  23.458  26.969  1.00  0.00     0.064 A 
ATOM     72  C   UNL A   1      43.143  22.134  26.891  1.00  0.00     0.173 A 
ATOM     73  C   UNL A   1      44.480  23.827  25.908  1.00  0.00     0.173 A 
ATOM     74  F   UNL A   1      42.228  21.671  27.751  1.00  0.00    -0.203 F 
ATOM     75  C   UNL A   1      43.576  21.226  25.920  1.00  0.00     0.198 A 
ATOM     76  C   UNL A   1      44.958  22.905  24.971  1.00  0.00     0.198 A 
ATOM     77  F   UNL A   1      44.822  25.103  25.703  1.00  0.00    -0.203 F 
ATOM     78  F   UNL A   1      43.082  19.979  25.909  1.00  0.00    -0.200 F 
ATOM     79  C   UNL A   1      44.517  21.598  24.985  1.00  0.00     0.200 A 
ATOM     80  F   UNL A   1      45.850  23.297  24.049  1.00  0.00    -0.200 F 
ATOM     81  F   UNL A   1      44.971  20.716  24.086  1.00  0.00    -0.200 F 
ENDBRANCH  57  71
BRANCH  58  82
ATOM     82  C   UNL A   1      41.591  30.204  33.568  1.00  0.00     0.064 A 
ATOM     83  C   UNL A   1      41.495  31.574  33.875  1.00  0.00     0.173 A 
ATOM     84  C   UNL A   1      40.409  29.455  33.563  1.00  0.00     0.173 A 
ATOM     85  F   UNL A   1      42.600  32.337  33.890  1.00  0.00    -0.203 F 
ATOM     86  C   UNL A   1      40.258  32.191  34.049  1.00  0.00     0.198 A 
ATOM     87  C   UNL A   1      39.172  30.075  33.749  1.00  0.00     0.198 A 
ATOM     88  F   UNL A   1      40.434  28.150  33.254  1.00  0.00    -0.203 F 
ATOM     89  F   UNL A   1      40.193  33.519  34.225  1.00  0.00    -0.200 F 
ATOM     90  C   UNL A   1      39.096  31.446  33.956  1.00  0.00     0.200 A 
ATOM     91  F   UNL A   1      38.044  29.362  33.625  1.00  0.00    -0.200 F 
ATOM     92  F   UNL A   1      37.902  32.052  34.019  1.00  0.00    -0.200 F 
ENDBRANCH  58  82
BRANCH  70  93
ATOM     93  C   UNL A   1      45.525  24.173  33.348  1.00  0.00     0.064 A 
ATOM     94  C   UNL A   1      46.814  24.062  33.895  1.00  0.00     0.173 A 
ATOM     95  C   UNL A   1      44.653  23.091  33.632  1.00  0.00     0.173 A 
ATOM     96  F   UNL A   1      47.698  25.064  33.809  1.00  0.00    -0.203 F 
ATOM     97  C   UNL A   1      47.220  22.933  34.613  1.00  0.00     0.198 A 
ATOM     98  C   UNL A   1      45.044  21.993  34.399  1.00  0.00     0.198 A 
ATOM     99  F   UNL A   1      43.384  23.078  33.200  1.00  0.00    -0.203 F 
ATOM    100  F   UNL A   1      48.476  22.861  35.077  1.00  0.00    -0.200 F 
ATOM    101  C   UNL A   1      46.334  21.906  34.876  1.00  0.00     0.200 A 
ATOM    102  F   UNL A   1      44.153  21.035  34.691  1.00  0.00    -0.200 F 
ATOM    103  F   UNL A   1      46.715  20.849  35.605  1.00  0.00    -0.200 F 
ENDBRANCH  70  93
ENDBRANCH  44  45
ENDBRANCH  36  39
ENDBRANCH  34  35
ENDBRANCH  33  34
ENDBRANCH   1  33
TORSDOF 16
ENDMDL
