MODEL 1
REMARK VINA RESULT:     -12.0      0.000      0.000
REMARK SMILES COc1ccc(CSc2ncccc2C(=O)NCCCNC(=O)c2ccc(-c3c4nc(c(-c5c(F)c(F)c(F)c(F)c5F)c5ccc([nH]5)c(-c5c(F)c(F)c(F)c(F)c5F)c5nc(c(-c6c(F)c(F)c(F)c(F)c6F)c6ccc3[nH]6)C=C5)C=C4)cc2)cc1
REMARK SMILES IDX 18 1 17 2 15 3 16 4 14 6 9 7 10 8 11 9 13 10 12 11 8 12 7 13
REMARK SMILES IDX 6 14 3 15 4 16 88 17 5 18 87 19 2 20 1 21 19 22 20 23 21 24
REMARK SMILES IDX 22 25 23 27 24 28 25 29 86 30 26 31 85 32 27 33 28 34 29 35
REMARK SMILES IDX 79 36 30 37 84 38 78 39 80 40 31 41 83 42 77 43 76 44 32 46
REMARK SMILES IDX 64 47 44 48 63 49 45 50 48 51 62 52 81 53 46 54 47 55 61 57
REMARK SMILES IDX 82 58 49 59 33 60 34 61 42 62 35 63 36 64 40 65 43 66 37 67
REMARK SMILES IDX 38 68 41 69 39 70 65 71 66 72 74 73 67 74 68 75 72 76 75 77
REMARK SMILES IDX 69 78 70 79 73 80 71 81 50 82 51 83 59 84 52 85 53 86 57 87
REMARK SMILES IDX 60 88 54 89 55 90 58 91 56 92
REMARK H PARENT 17 5 21 26 80 45 48 56
REMARK Flexibility Score: inf
ROOT
ATOM      1  C   UNL A   1      36.418  20.674  24.738  1.00  0.00     0.118 C 
ENDROOT
BRANCH   1   2
ATOM      2  N   UNL A   1      35.554  20.697  25.907  1.00  0.00    -0.352 N 
ATOM      3  C   UNL A   1      34.727  21.643  26.465  1.00  0.00     0.254 C 
ATOM      4  O   UNL A   1      34.350  21.409  27.612  1.00  0.00    -0.269 OA
ATOM      5  H   UNL A   1      35.564  19.850  26.408  1.00  0.00     0.163 HD
BRANCH   3   6
ATOM      6  C   UNL A   1      34.285  22.868  25.742  1.00  0.00     0.072 A 
ATOM      7  C   UNL A   1      33.072  22.918  25.031  1.00  0.00     0.109 A 
ATOM      8  N   UNL A   1      32.726  23.993  24.271  1.00  0.00    -0.249 NA
ATOM      9  C   UNL A   1      33.515  25.084  24.298  1.00  0.00     0.112 A 
ATOM     10  C   UNL A   1      35.051  24.042  25.778  1.00  0.00     0.018 A 
ATOM     11  C   UNL A   1      34.670  25.162  25.044  1.00  0.00     0.021 A 
BRANCH   7  12
ATOM     12  S   UNL A   1      31.860  21.599  25.035  1.00  0.00    -0.101 SA
BRANCH  12  13
ATOM     13  C   UNL A   1      32.414  20.537  23.667  1.00  0.00     0.112 C 
BRANCH  13  14
ATOM     14  C   UNL A   1      32.778  19.104  23.992  1.00  0.00    -0.037 A 
ATOM     15  C   UNL A   1      33.296  16.416  24.668  1.00  0.00     0.118 A 
ATOM     16  C   UNL A   1      33.474  16.863  23.357  1.00  0.00     0.047 A 
ATOM     17  C   UNL A   1      32.894  17.316  25.650  1.00  0.00     0.047 A 
ATOM     18  C   UNL A   1      33.203  18.194  23.014  1.00  0.00     0.008 A 
ATOM     19  C   UNL A   1      32.630  18.645  25.311  1.00  0.00     0.008 A 
BRANCH  15  20
ATOM     20  O   UNL A   1      33.583  15.097  24.900  1.00  0.00    -0.497 OA
ATOM     21  C   UNL A   1      32.604  14.409  25.674  1.00  0.00     0.278 C 
ENDBRANCH  15  20
ENDBRANCH  13  14
ENDBRANCH  12  13
ENDBRANCH   7  12
ENDBRANCH   3   6
ENDBRANCH   1   2
BRANCH   1  22
ATOM     22  C   UNL A   1      37.561  19.675  24.945  1.00  0.00     0.042 C 
BRANCH  22  23
ATOM     23  C   UNL A   1      38.747  20.248  25.726  1.00  0.00     0.118 C 
BRANCH  23  24
ATOM     24  N   UNL A   1      39.827  19.284  25.868  1.00  0.00    -0.352 N 
ATOM     25  C   UNL A   1      41.168  19.485  26.074  1.00  0.00     0.251 C 
ATOM     26  H   UNL A   1      39.552  18.341  25.806  1.00  0.00     0.163 HD
ATOM     27  O   UNL A   1      41.945  18.544  25.949  1.00  0.00    -0.269 OA
BRANCH  25  28
ATOM     28  C   UNL A   1      41.693  20.821  26.439  1.00  0.00     0.039 A 
ATOM     29  C   UNL A   1      41.880  21.765  25.423  1.00  0.00     0.014 A 
ATOM     30  C   UNL A   1      42.069  21.125  27.750  1.00  0.00     0.014 A 
ATOM     31  C   UNL A   1      42.406  23.023  25.727  1.00  0.00     0.010 A 
ATOM     32  C   UNL A   1      42.539  22.402  28.061  1.00  0.00     0.010 A 
ATOM     33  C   UNL A   1      42.721  23.359  27.052  1.00  0.00    -0.014 A 
BRANCH  33  34
ATOM     34  C   UNL A   1      43.259  24.701  27.394  1.00  0.00     0.031 A 
ATOM     35  C   UNL A   1      42.361  25.746  28.000  1.00  0.00     0.074 A 
ATOM     36  C   UNL A   1      44.542  24.998  27.110  1.00  0.00     0.049 A 
ATOM     37  N   UNL A   1      42.625  26.992  28.303  1.00  0.00    -0.248 NA
ATOM     38  C   UNL A   1      40.975  25.342  28.281  1.00  0.00     0.031 C 
ATOM     39  C   UNL A   1      45.500  24.086  26.487  1.00  0.00     0.029 A 
ATOM     40  N   UNL A   1      45.256  26.155  27.298  1.00  0.00    -0.354 N 
ATOM     41  C   UNL A   1      41.438  27.525  28.787  1.00  0.00     0.074 A 
ATOM     42  C   UNL A   1      40.440  26.480  28.700  1.00  0.00     0.031 C 
ATOM     43  C   UNL A   1      46.681  24.712  26.357  1.00  0.00     0.029 A 
ATOM     44  C   UNL A   1      46.554  26.077  26.857  1.00  0.00     0.049 A 
ATOM     45  H   UNL A   1      44.874  26.964  27.710  1.00  0.00     0.167 HD
ATOM     46  C   UNL A   1      41.205  28.766  29.278  1.00  0.00     0.037 A 
ATOM     47  C   UNL A   1      47.530  27.005  26.851  1.00  0.00     0.037 A 
ATOM     48  C   UNL A   1      42.207  29.794  29.393  1.00  0.00     0.049 A 
ATOM     49  C   UNL A   1      47.249  28.371  27.417  1.00  0.00     0.074 A 
ATOM     50  C   UNL A   1      42.085  31.064  29.928  1.00  0.00     0.029 A 
ATOM     51  N   UNL A   1      43.521  29.665  28.967  1.00  0.00    -0.354 N 
ATOM     52  N   UNL A   1      46.138  28.843  27.928  1.00  0.00    -0.248 NA
ATOM     53  C   UNL A   1      48.364  29.330  27.416  1.00  0.00     0.031 C 
ATOM     54  C   UNL A   1      43.314  31.717  29.793  1.00  0.00     0.029 A 
ATOM     55  C   UNL A   1      44.216  30.839  29.216  1.00  0.00     0.049 A 
ATOM     56  H   UNL A   1      43.904  28.860  28.550  1.00  0.00     0.167 HD
ATOM     57  C   UNL A   1      46.426  30.139  28.334  1.00  0.00     0.074 A 
ATOM     58  C   UNL A   1      47.820  30.375  28.023  1.00  0.00     0.031 C 
ATOM     59  C   UNL A   1      45.607  31.052  28.913  1.00  0.00     0.037 A 
BRANCH  46  60
ATOM     60  C   UNL A   1      39.811  29.085  29.734  1.00  0.00     0.064 A 
ATOM     61  C   UNL A   1      38.825  29.519  28.834  1.00  0.00     0.173 A 
ATOM     62  C   UNL A   1      39.444  28.914  31.077  1.00  0.00     0.173 A 
ATOM     63  F   UNL A   1      39.128  29.708  27.540  1.00  0.00    -0.203 F 
ATOM     64  C   UNL A   1      37.531  29.796  29.267  1.00  0.00     0.198 A 
ATOM     65  C   UNL A   1      38.141  29.164  31.501  1.00  0.00     0.198 A 
ATOM     66  F   UNL A   1      40.345  28.493  31.977  1.00  0.00    -0.203 F 
ATOM     67  F   UNL A   1      36.619  30.252  28.399  1.00  0.00    -0.200 F 
ATOM     68  C   UNL A   1      37.188  29.611  30.598  1.00  0.00     0.200 A 
ATOM     69  F   UNL A   1      37.807  28.972  32.785  1.00  0.00    -0.200 F 
ATOM     70  F   UNL A   1      35.940  29.870  31.012  1.00  0.00    -0.200 F 
ENDBRANCH  46  60
BRANCH  47  71
ATOM     71  C   UNL A   1      48.873  26.666  26.316  1.00  0.00     0.064 A 
ATOM     72  C   UNL A   1      49.210  26.956  24.986  1.00  0.00     0.173 A 
ATOM     73  C   UNL A   1      49.843  26.046  27.115  1.00  0.00     0.173 A 
ATOM     74  F   UNL A   1      48.309  27.530  24.177  1.00  0.00    -0.203 F 
ATOM     75  C   UNL A   1      50.461  26.617  24.471  1.00  0.00     0.198 A 
ATOM     76  C   UNL A   1      51.102  25.733  26.607  1.00  0.00     0.198 A 
ATOM     77  F   UNL A   1      49.571  25.754  28.396  1.00  0.00    -0.203 F 
ATOM     78  F   UNL A   1      50.742  26.864  23.185  1.00  0.00    -0.200 F 
ATOM     79  C   UNL A   1      51.406  26.012  25.283  1.00  0.00     0.200 A 
ATOM     80  F   UNL A   1      52.019  25.160  27.399  1.00  0.00    -0.200 F 
ATOM     81  F   UNL A   1      52.609  25.689  24.788  1.00  0.00    -0.200 F 
ENDBRANCH  47  71
BRANCH  59  82
ATOM     82  C   UNL A   1      46.210  32.373  29.287  1.00  0.00     0.064 A 
ATOM     83  C   UNL A   1      46.189  33.467  28.410  1.00  0.00     0.173 A 
ATOM     84  C   UNL A   1      46.784  32.557  30.555  1.00  0.00     0.173 A 
ATOM     85  F   UNL A   1      45.665  33.337  27.182  1.00  0.00    -0.203 F 
ATOM     86  C   UNL A   1      46.745  34.690  28.778  1.00  0.00     0.198 A 
ATOM     87  C   UNL A   1      47.313  33.788  30.930  1.00  0.00     0.198 A 
ATOM     88  F   UNL A   1      46.823  31.543  31.432  1.00  0.00    -0.203 F 
ATOM     89  F   UNL A   1      46.756  35.708  27.907  1.00  0.00    -0.200 F 
ATOM     90  C   UNL A   1      47.300  34.851  30.039  1.00  0.00     0.200 A 
ATOM     91  F   UNL A   1      47.839  33.945  32.152  1.00  0.00    -0.200 F 
ATOM     92  F   UNL A   1      47.830  36.029  30.393  1.00  0.00    -0.200 F 
ENDBRANCH  59  82
ENDBRANCH  33  34
ENDBRANCH  25  28
ENDBRANCH  23  24
ENDBRANCH  22  23
ENDBRANCH   1  22
TORSDOF 14
ENDMDL
MODEL 2
REMARK VINA RESULT:     -12.0      0.089      1.684
REMARK SMILES COc1ccc(CSc2ncccc2C(=O)NCCCNC(=O)c2ccc(-c3c4nc(c(-c5c(F)c(F)c(F)c(F)c5F)c5ccc([nH]5)c(-c5c(F)c(F)c(F)c(F)c5F)c5nc(c(-c6c(F)c(F)c(F)c(F)c6F)c6ccc3[nH]6)C=C5)C=C4)cc2)cc1
REMARK SMILES IDX 18 1 17 2 15 3 16 4 14 6 9 7 10 8 11 9 13 10 12 11 8 12 7 13
REMARK SMILES IDX 6 14 3 15 4 16 88 17 5 18 87 19 2 20 1 21 19 22 20 23 21 24
REMARK SMILES IDX 22 25 23 27 24 28 25 29 86 30 26 31 85 32 27 33 28 34 29 35
REMARK SMILES IDX 79 36 30 37 84 38 78 39 80 40 31 41 83 42 77 43 76 44 32 46
REMARK SMILES IDX 64 47 44 48 63 49 45 50 48 51 62 52 81 53 46 54 47 55 61 57
REMARK SMILES IDX 82 58 49 59 33 60 34 61 42 62 35 63 36 64 40 65 43 66 37 67
REMARK SMILES IDX 38 68 41 69 39 70 65 71 66 72 74 73 67 74 68 75 72 76 75 77
REMARK SMILES IDX 69 78 70 79 73 80 71 81 50 82 51 83 59 84 52 85 53 86 57 87
REMARK SMILES IDX 60 88 54 89 55 90 58 91 56 92
REMARK H PARENT 17 5 21 26 80 45 48 56
REMARK Flexibility Score: inf
ROOT
ATOM      1  C   UNL A   1      36.360  20.641  24.753  1.00  0.00     0.118 C 
ENDROOT
BRANCH   1   2
ATOM      2  N   UNL A   1      35.521  20.724  25.937  1.00  0.00    -0.352 N 
ATOM      3  C   UNL A   1      34.731  21.709  26.482  1.00  0.00     0.254 C 
ATOM      4  O   UNL A   1      34.371  21.521  27.642  1.00  0.00    -0.269 OA
ATOM      5  H   UNL A   1      35.516  19.893  26.464  1.00  0.00     0.163 HD
BRANCH   3   6
ATOM      6  C   UNL A   1      34.310  22.924  25.730  1.00  0.00     0.072 A 
ATOM      7  C   UNL A   1      33.098  22.976  25.016  1.00  0.00     0.109 A 
ATOM      8  N   UNL A   1      32.769  24.039  24.230  1.00  0.00    -0.249 NA
ATOM      9  C   UNL A   1      33.575  25.118  24.234  1.00  0.00     0.112 A 
ATOM     10  C   UNL A   1      35.094  24.086  25.740  1.00  0.00     0.018 A 
ATOM     11  C   UNL A   1      34.730  25.195  24.980  1.00  0.00     0.021 A 
BRANCH   7  12
ATOM     12  S   UNL A   1      31.866  21.677  25.049  1.00  0.00    -0.101 SA
BRANCH  12  13
ATOM     13  C   UNL A   1      32.406  20.573  23.709  1.00  0.00     0.112 C 
BRANCH  13  14
ATOM     14  C   UNL A   1      32.686  19.127  24.058  1.00  0.00    -0.037 A 
ATOM     15  C   UNL A   1      33.367  16.451  24.630  1.00  0.00     0.118 A 
ATOM     16  C   UNL A   1      32.955  17.310  25.650  1.00  0.00     0.047 A 
ATOM     17  C   UNL A   1      33.406  16.914  23.318  1.00  0.00     0.047 A 
ATOM     18  C   UNL A   1      32.631  18.645  25.372  1.00  0.00     0.008 A 
ATOM     19  C   UNL A   1      33.076  18.243  23.039  1.00  0.00     0.008 A 
BRANCH  15  20
ATOM     20  O   UNL A   1      33.666  15.169  25.004  1.00  0.00    -0.497 OA
ATOM     21  C   UNL A   1      32.586  14.465  25.613  1.00  0.00     0.278 C 
ENDBRANCH  15  20
ENDBRANCH  13  14
ENDBRANCH  12  13
ENDBRANCH   7  12
ENDBRANCH   3   6
ENDBRANCH   1   2
BRANCH   1  22
ATOM     22  C   UNL A   1      37.506  19.651  24.987  1.00  0.00     0.042 C 
BRANCH  22  23
ATOM     23  C   UNL A   1      38.747  20.283  25.622  1.00  0.00     0.118 C 
BRANCH  23  24
ATOM     24  N   UNL A   1      39.812  19.314  25.827  1.00  0.00    -0.352 N 
ATOM     25  C   UNL A   1      41.144  19.508  26.091  1.00  0.00     0.251 C 
ATOM     26  H   UNL A   1      39.533  18.372  25.766  1.00  0.00     0.163 HD
ATOM     27  O   UNL A   1      41.919  18.559  26.015  1.00  0.00    -0.269 OA
BRANCH  25  28
ATOM     28  C   UNL A   1      41.662  20.845  26.459  1.00  0.00     0.039 A 
ATOM     29  C   UNL A   1      41.900  21.773  25.440  1.00  0.00     0.014 A 
ATOM     30  C   UNL A   1      41.983  21.165  27.781  1.00  0.00     0.014 A 
ATOM     31  C   UNL A   1      42.422  23.032  25.749  1.00  0.00     0.010 A 
ATOM     32  C   UNL A   1      42.449  22.443  28.095  1.00  0.00     0.010 A 
ATOM     33  C   UNL A   1      42.682  23.385  27.082  1.00  0.00    -0.014 A 
BRANCH  33  34
ATOM     34  C   UNL A   1      43.214  24.728  27.428  1.00  0.00     0.031 A 
ATOM     35  C   UNL A   1      42.313  25.766  28.040  1.00  0.00     0.074 A 
ATOM     36  C   UNL A   1      44.495  25.032  27.143  1.00  0.00     0.049 A 
ATOM     37  N   UNL A   1      42.572  27.012  28.347  1.00  0.00    -0.248 NA
ATOM     38  C   UNL A   1      40.929  25.355  28.322  1.00  0.00     0.031 C 
ATOM     39  C   UNL A   1      45.456  24.126  26.513  1.00  0.00     0.029 A 
ATOM     40  N   UNL A   1      45.204  26.191  27.334  1.00  0.00    -0.354 N 
ATOM     41  C   UNL A   1      41.383  27.537  28.836  1.00  0.00     0.074 A 
ATOM     42  C   UNL A   1      40.390  26.488  28.748  1.00  0.00     0.031 C 
ATOM     43  C   UNL A   1      46.634  24.758  26.384  1.00  0.00     0.029 A 
ATOM     44  C   UNL A   1      46.502  26.121  26.889  1.00  0.00     0.049 A 
ATOM     45  H   UNL A   1      44.820  26.997  27.750  1.00  0.00     0.167 HD
ATOM     46  C   UNL A   1      41.146  28.776  29.332  1.00  0.00     0.037 A 
ATOM     47  C   UNL A   1      47.473  27.054  26.885  1.00  0.00     0.037 A 
ATOM     48  C   UNL A   1      42.143  29.808  29.450  1.00  0.00     0.049 A 
ATOM     49  C   UNL A   1      47.188  28.416  27.457  1.00  0.00     0.074 A 
ATOM     50  C   UNL A   1      42.016  31.075  29.991  1.00  0.00     0.029 A 
ATOM     51  N   UNL A   1      43.457  29.687  29.021  1.00  0.00    -0.354 N 
ATOM     52  N   UNL A   1      46.076  28.881  27.972  1.00  0.00    -0.248 NA
ATOM     53  C   UNL A   1      48.298  29.380  27.458  1.00  0.00     0.031 C 
ATOM     54  C   UNL A   1      43.242  31.734  29.856  1.00  0.00     0.029 A 
ATOM     55  C   UNL A   1      44.147  30.862  29.273  1.00  0.00     0.049 A 
ATOM     56  H   UNL A   1      43.842  28.884  28.599  1.00  0.00     0.167 HD
ATOM     57  C   UNL A   1      46.358  30.177  28.383  1.00  0.00     0.074 A 
ATOM     58  C   UNL A   1      47.750  30.420  28.071  1.00  0.00     0.031 C 
ATOM     59  C   UNL A   1      45.536  31.083  28.968  1.00  0.00     0.037 A 
BRANCH  46  60
ATOM     60  C   UNL A   1      39.751  29.086  29.793  1.00  0.00     0.064 A 
ATOM     61  C   UNL A   1      38.769  29.545  28.901  1.00  0.00     0.173 A 
ATOM     62  C   UNL A   1      39.380  28.883  31.130  1.00  0.00     0.173 A 
ATOM     63  F   UNL A   1      39.075  29.765  27.614  1.00  0.00    -0.203 F 
ATOM     64  C   UNL A   1      37.474  29.813  29.339  1.00  0.00     0.198 A 
ATOM     65  C   UNL A   1      38.077  29.125  31.558  1.00  0.00     0.198 A 
ATOM     66  F   UNL A   1      40.278  28.437  32.022  1.00  0.00    -0.203 F 
ATOM     67  F   UNL A   1      36.565  30.293  28.479  1.00  0.00    -0.200 F 
ATOM     68  C   UNL A   1      37.127  29.597  30.664  1.00  0.00     0.200 A 
ATOM     69  F   UNL A   1      37.739  28.902  32.835  1.00  0.00    -0.200 F 
ATOM     70  F   UNL A   1      35.878  29.848  31.081  1.00  0.00    -0.200 F 
ENDBRANCH  46  60
BRANCH  47  71
ATOM     71  C   UNL A   1      48.817  26.723  26.346  1.00  0.00     0.064 A 
ATOM     72  C   UNL A   1      49.781  26.103  27.152  1.00  0.00     0.173 A 
ATOM     73  C   UNL A   1      49.167  27.021  25.021  1.00  0.00     0.173 A 
ATOM     74  F   UNL A   1      49.501  25.816  28.431  1.00  0.00    -0.203 F 
ATOM     75  C   UNL A   1      51.053  25.812  26.659  1.00  0.00     0.198 A 
ATOM     76  C   UNL A   1      50.428  26.706  24.522  1.00  0.00     0.198 A 
ATOM     77  F   UNL A   1      48.277  27.609  24.208  1.00  0.00    -0.203 F 
ATOM     78  F   UNL A   1      51.970  25.260  27.464  1.00  0.00    -0.200 F 
ATOM     79  C   UNL A   1      51.373  26.109  25.344  1.00  0.00     0.200 A 
ATOM     80  F   UNL A   1      50.730  26.981  23.245  1.00  0.00    -0.200 F 
ATOM     81  F   UNL A   1      52.594  25.827  24.869  1.00  0.00    -0.200 F 
ENDBRANCH  47  71
BRANCH  59  82
ATOM     82  C   UNL A   1      46.134  32.405  29.346  1.00  0.00     0.064 A 
ATOM     83  C   UNL A   1      46.726  32.614  30.600  1.00  0.00     0.173 A 
ATOM     84  C   UNL A   1      46.143  33.468  28.429  1.00  0.00     0.173 A 
ATOM     85  F   UNL A   1      46.729  31.634  31.517  1.00  0.00    -0.203 F 
ATOM     86  C   UNL A   1      47.285  33.846  30.931  1.00  0.00     0.198 A 
ATOM     87  C   UNL A   1      46.727  34.688  28.753  1.00  0.00     0.198 A 
ATOM     88  F   UNL A   1      45.594  33.316  27.215  1.00  0.00    -0.203 F 
ATOM     89  F   UNL A   1      47.805  34.038  32.151  1.00  0.00    -0.200 F 
ATOM     90  C   UNL A   1      47.291  34.879  30.005  1.00  0.00     0.200 A 
ATOM     91  F   UNL A   1      46.742  35.682  27.853  1.00  0.00    -0.200 F 
ATOM     92  F   UNL A   1      47.833  36.063  30.324  1.00  0.00    -0.200 F 
ENDBRANCH  59  82
ENDBRANCH  33  34
ENDBRANCH  25  28
ENDBRANCH  23  24
ENDBRANCH  22  23
ENDBRANCH   1  22
TORSDOF 14
ENDMDL
MODEL 3
REMARK VINA RESULT:     -11.7      3.869      9.359
REMARK SMILES COc1ccc(CSc2ncccc2C(=O)NCCCNC(=O)c2ccc(-c3c4nc(c(-c5c(F)c(F)c(F)c(F)c5F)c5ccc([nH]5)c(-c5c(F)c(F)c(F)c(F)c5F)c5nc(c(-c6c(F)c(F)c(F)c(F)c6F)c6ccc3[nH]6)C=C5)C=C4)cc2)cc1
REMARK SMILES IDX 18 1 17 2 15 3 16 4 14 6 9 7 10 8 11 9 13 10 12 11 8 12 7 13
REMARK SMILES IDX 6 14 3 15 4 16 88 17 5 18 87 19 2 20 1 21 19 22 20 23 21 24
REMARK SMILES IDX 22 25 23 27 24 28 25 29 86 30 26 31 85 32 27 33 28 34 29 35
REMARK SMILES IDX 79 36 30 37 84 38 78 39 80 40 31 41 83 42 77 43 76 44 32 46
REMARK SMILES IDX 64 47 44 48 63 49 45 50 48 51 62 52 81 53 46 54 47 55 61 57
REMARK SMILES IDX 82 58 49 59 33 60 34 61 42 62 35 63 36 64 40 65 43 66 37 67
REMARK SMILES IDX 38 68 41 69 39 70 65 71 66 72 74 73 67 74 68 75 72 76 75 77
REMARK SMILES IDX 69 78 70 79 73 80 71 81 50 82 51 83 59 84 52 85 53 86 57 87
REMARK SMILES IDX 60 88 54 89 55 90 58 91 56 92
REMARK H PARENT 17 5 21 26 80 45 48 56
REMARK Flexibility Score: inf
ROOT
ATOM      1  C   UNL A   1      33.902  23.676  26.029  1.00  0.00     0.118 C 
ENDROOT
BRANCH   1   2
ATOM      2  N   UNL A   1      34.091  24.614  24.935  1.00  0.00    -0.352 N 
ATOM      3  C   UNL A   1      33.624  25.880  24.669  1.00  0.00     0.254 C 
ATOM      4  O   UNL A   1      33.776  26.272  23.514  1.00  0.00    -0.269 OA
ATOM      5  H   UNL A   1      34.684  24.268  24.229  1.00  0.00     0.163 HD
BRANCH   3   6
ATOM      6  C   UNL A   1      32.990  26.747  25.701  1.00  0.00     0.072 A 
ATOM      7  C   UNL A   1      31.638  26.605  26.067  1.00  0.00     0.109 A 
ATOM      8  N   UNL A   1      31.027  27.474  26.919  1.00  0.00    -0.249 NA
ATOM      9  C   UNL A   1      31.771  28.425  27.515  1.00  0.00     0.112 A 
ATOM     10  C   UNL A   1      33.734  27.722  26.380  1.00  0.00     0.018 A 
ATOM     11  C   UNL A   1      33.121  28.576  27.293  1.00  0.00     0.021 A 
BRANCH   7  12
ATOM     12  S   UNL A   1      30.578  25.292  25.469  1.00  0.00    -0.101 SA
BRANCH  12  13
ATOM     13  C   UNL A   1      30.363  25.713  23.713  1.00  0.00     0.112 C 
BRANCH  13  14
ATOM     14  C   UNL A   1      29.751  27.058  23.383  1.00  0.00    -0.037 A 
ATOM     15  C   UNL A   1      28.676  29.545  22.602  1.00  0.00     0.118 A 
ATOM     16  C   UNL A   1      27.860  28.570  23.178  1.00  0.00     0.047 A 
ATOM     17  C   UNL A   1      30.036  29.296  22.448  1.00  0.00     0.047 A 
ATOM     18  C   UNL A   1      28.387  27.328  23.552  1.00  0.00     0.008 A 
ATOM     19  C   UNL A   1      30.565  28.059  22.828  1.00  0.00     0.008 A 
BRANCH  15  20
ATOM     20  O   UNL A   1      28.065  30.724  22.266  1.00  0.00    -0.497 OA
ATOM     21  C   UNL A   1      27.616  31.493  23.379  1.00  0.00     0.278 C 
ENDBRANCH  15  20
ENDBRANCH  13  14
ENDBRANCH  12  13
ENDBRANCH   7  12
ENDBRANCH   3   6
ENDBRANCH   1   2
BRANCH   1  22
ATOM     22  C   UNL A   1      35.257  23.275  26.621  1.00  0.00     0.042 C 
BRANCH  22  23
ATOM     23  C   UNL A   1      36.443  23.561  25.694  1.00  0.00     0.118 C 
BRANCH  23  24
ATOM     24  N   UNL A   1      37.527  22.610  25.883  1.00  0.00    -0.352 N 
ATOM     25  C   UNL A   1      38.820  22.815  26.292  1.00  0.00     0.251 C 
ATOM     26  H   UNL A   1      37.297  21.673  25.687  1.00  0.00     0.163 HD
ATOM     27  O   UNL A   1      39.640  21.909  26.179  1.00  0.00    -0.269 OA
BRANCH  25  28
ATOM     28  C   UNL A   1      39.244  24.114  26.862  1.00  0.00     0.039 A 
ATOM     29  C   UNL A   1      39.968  24.995  26.050  1.00  0.00     0.014 A 
ATOM     30  C   UNL A   1      39.001  24.440  28.199  1.00  0.00     0.014 A 
ATOM     31  C   UNL A   1      40.413  26.214  26.566  1.00  0.00     0.010 A 
ATOM     32  C   UNL A   1      39.395  25.683  28.696  1.00  0.00     0.010 A 
ATOM     33  C   UNL A   1      40.113  26.578  27.888  1.00  0.00    -0.014 A 
BRANCH  33  34
ATOM     34  C   UNL A   1      40.559  27.882  28.443  1.00  0.00     0.031 A 
ATOM     35  C   UNL A   1      42.005  28.101  28.796  1.00  0.00     0.074 A 
ATOM     36  C   UNL A   1      39.653  28.850  28.680  1.00  0.00     0.049 A 
ATOM     37  N   UNL A   1      42.574  29.141  29.355  1.00  0.00    -0.248 NA
ATOM     38  C   UNL A   1      42.930  26.996  28.506  1.00  0.00     0.031 C 
ATOM     39  C   UNL A   1      38.217  28.744  28.419  1.00  0.00     0.029 A 
ATOM     40  N   UNL A   1      39.804  30.109  29.205  1.00  0.00    -0.354 N 
ATOM     41  C   UNL A   1      43.914  28.807  29.500  1.00  0.00     0.074 A 
ATOM     42  C   UNL A   1      44.067  27.453  29.011  1.00  0.00     0.031 C 
ATOM     43  C   UNL A   1      37.622  29.895  28.770  1.00  0.00     0.029 A 
ATOM     44  C   UNL A   1      38.626  30.806  29.312  1.00  0.00     0.049 A 
ATOM     45  H   UNL A   1      40.675  30.478  29.480  1.00  0.00     0.167 HD
ATOM     46  C   UNL A   1      44.927  29.566  29.981  1.00  0.00     0.037 A 
ATOM     47  C   UNL A   1      38.382  32.038  29.797  1.00  0.00     0.037 A 
ATOM     48  C   UNL A   1      44.779  30.924  30.437  1.00  0.00     0.049 A 
ATOM     49  C   UNL A   1      39.529  32.867  30.309  1.00  0.00     0.074 A 
ATOM     50  C   UNL A   1      45.754  31.795  30.889  1.00  0.00     0.029 A 
ATOM     51  N   UNL A   1      43.573  31.608  30.496  1.00  0.00    -0.354 N 
ATOM     52  N   UNL A   1      40.801  32.562  30.385  1.00  0.00    -0.248 NA
ATOM     53  C   UNL A   1      39.206  34.218  30.791  1.00  0.00     0.031 C 
ATOM     54  C   UNL A   1      45.134  32.994  31.256  1.00  0.00     0.029 A 
ATOM     55  C   UNL A   1      43.779  32.887  30.990  1.00  0.00     0.049 A 
ATOM     56  H   UNL A   1      42.701  31.239  30.228  1.00  0.00     0.167 HD
ATOM     57  C   UNL A   1      41.434  33.687  30.895  1.00  0.00     0.074 A 
ATOM     58  C   UNL A   1      40.407  34.687  31.097  1.00  0.00     0.031 C 
ATOM     59  C   UNL A   1      42.748  33.874  31.172  1.00  0.00     0.037 A 
BRANCH  46  60
ATOM     60  C   UNL A   1      46.295  28.949  30.035  1.00  0.00     0.064 A 
ATOM     61  C   UNL A   1      46.749  28.267  31.175  1.00  0.00     0.173 A 
ATOM     62  C   UNL A   1      47.146  29.002  28.920  1.00  0.00     0.173 A 
ATOM     63  F   UNL A   1      45.978  28.197  32.270  1.00  0.00    -0.203 F 
ATOM     64  C   UNL A   1      48.014  27.686  31.205  1.00  0.00     0.198 A 
ATOM     65  C   UNL A   1      48.399  28.394  28.944  1.00  0.00     0.198 A 
ATOM     66  F   UNL A   1      46.758  29.634  27.802  1.00  0.00    -0.203 F 
ATOM     67  F   UNL A   1      48.443  27.079  32.320  1.00  0.00    -0.200 F 
ATOM     68  C   UNL A   1      48.834  27.743  30.088  1.00  0.00     0.200 A 
ATOM     69  F   UNL A   1      49.185  28.439  27.860  1.00  0.00    -0.200 F 
ATOM     70  F   UNL A   1      50.048  27.175  30.117  1.00  0.00    -0.200 F 
ENDBRANCH  46  60
BRANCH  47  71
ATOM     71  C   UNL A   1      36.998  32.576  29.795  1.00  0.00     0.064 A 
ATOM     72  C   UNL A   1      36.500  33.275  28.686  1.00  0.00     0.173 A 
ATOM     73  C   UNL A   1      36.147  32.407  30.896  1.00  0.00     0.173 A 
ATOM     74  F   UNL A   1      37.283  33.479  27.617  1.00  0.00    -0.203 F 
ATOM     75  C   UNL A   1      35.211  33.804  28.688  1.00  0.00     0.198 A 
ATOM     76  C   UNL A   1      34.849  32.913  30.886  1.00  0.00     0.198 A 
ATOM     77  F   UNL A   1      36.573  31.740  31.979  1.00  0.00    -0.203 F 
ATOM     78  F   UNL A   1      34.776  34.507  27.634  1.00  0.00    -0.200 F 
ATOM     79  C   UNL A   1      34.385  33.618  29.785  1.00  0.00     0.200 A 
ATOM     80  F   UNL A   1      34.047  32.719  31.943  1.00  0.00    -0.200 F 
ATOM     81  F   UNL A   1      33.144  34.124  29.786  1.00  0.00    -0.200 F 
ENDBRANCH  47  71
BRANCH  59  82
ATOM     82  C   UNL A   1      43.156  35.225  31.681  1.00  0.00     0.064 A 
ATOM     83  C   UNL A   1      43.080  35.552  33.042  1.00  0.00     0.173 A 
ATOM     84  C   UNL A   1      43.662  36.192  30.799  1.00  0.00     0.173 A 
ATOM     85  F   UNL A   1      42.589  34.667  33.923  1.00  0.00    -0.203 F 
ATOM     86  C   UNL A   1      43.472  36.808  33.499  1.00  0.00     0.198 A 
ATOM     87  C   UNL A   1      44.079  37.436  31.262  1.00  0.00     0.198 A 
ATOM     88  F   UNL A   1      43.760  35.926  29.488  1.00  0.00    -0.203 F 
ATOM     89  F   UNL A   1      43.347  37.116  34.797  1.00  0.00    -0.200 F 
ATOM     90  C   UNL A   1      43.977  37.746  32.610  1.00  0.00     0.200 A 
ATOM     91  F   UNL A   1      44.577  38.336  30.404  1.00  0.00    -0.200 F 
ATOM     92  F   UNL A   1      44.358  38.952  33.052  1.00  0.00    -0.200 F 
ENDBRANCH  59  82
ENDBRANCH  33  34
ENDBRANCH  25  28
ENDBRANCH  23  24
ENDBRANCH  22  23
ENDBRANCH   1  22
TORSDOF 14
ENDMDL
