MODEL 1
REMARK VINA RESULT:     -13.0      0.000      0.000
REMARK SMILES CCn1ccc(NC(=O)[C@H]2[C@@H](C(=O)NCCCNC(=O)c3ccc(-c4c5nc(c(-c6c(F)c(F)c(F)c(F)c6F)c6ccc([nH]6)c(-c6c(F)c(F)c(F)c(F)c6F)c6nc(c(-c7c(F)c(F)c(F)c(F)c7F)c7ccc4[nH]7)C=C6)C=C5)cc3)[C@H]3C=C[C@@H]2C3)n1
REMARK SMILES IDX 15 1 14 2 12 3 13 4 11 6 10 7 87 8 84 9 86 10 88 11 85 12
REMARK SMILES IDX 8 13 7 14 9 16 6 17 3 18 4 19 89 20 5 21 2 22 1 23 16 24
REMARK SMILES IDX 17 25 18 26 19 27 20 29 21 30 22 31 83 32 23 33 82 34 24 35
REMARK SMILES IDX 25 36 26 37 76 38 27 39 81 40 75 41 77 42 28 43 80 44 74 45
REMARK SMILES IDX 73 46 29 48 61 49 41 50 60 51 42 52 45 53 59 54 78 55 43 56
REMARK SMILES IDX 44 57 58 59 79 60 46 61 30 62 31 63 39 64 32 65 33 66 37 67
REMARK SMILES IDX 40 68 34 69 35 70 38 71 36 72 62 73 63 74 71 75 64 76 65 77
REMARK SMILES IDX 69 78 72 79 66 80 67 81 70 82 68 83 47 84 48 85 56 86 49 87
REMARK SMILES IDX 50 88 54 89 57 90 51 91 52 92 55 93 53 94
REMARK H PARENT 14 5 7 15 18 28 77 47 45 58
REMARK Flexibility Score: inf
ROOT
ATOM      1  C   UNL A   1      37.269  23.065  25.397  1.00  0.00     0.117 C 
ENDROOT
BRANCH   1   2
ATOM      2  N   UNL A   1      36.326  23.047  26.511  1.00  0.00    -0.356 N 
ATOM      3  C   UNL A   1      34.958  22.993  26.533  1.00  0.00     0.224 C 
ATOM      4  O   UNL A   1      34.408  22.795  27.616  1.00  0.00    -0.275 OA
ATOM      5  H   UNL A   1      36.746  23.081  27.400  1.00  0.00     0.163 HD
BRANCH   3   6
ATOM      6  C   UNL A   1      34.200  23.036  25.223  1.00  0.00     0.098 C 
ATOM      7  C   UNL A   1      32.705  23.472  25.232  1.00  0.00     0.099 C 
ATOM      8  C   UNL A   1      32.010  22.358  24.406  1.00  0.00     0.025 C 
ATOM      9  C   UNL A   1      34.151  21.714  24.408  1.00  0.00     0.025 C 
ATOM     10  C   UNL A   1      32.085  21.050  25.161  1.00  0.00    -0.027 C 
ATOM     11  C   UNL A   1      33.085  22.075  23.356  1.00  0.00     0.017 C 
ATOM     12  C   UNL A   1      33.370  20.668  25.159  1.00  0.00    -0.027 C 
BRANCH   7  13
ATOM     13  C   UNL A   1      31.947  23.695  26.526  1.00  0.00     0.230 C 
ATOM     14  N   UNL A   1      31.501  24.954  26.836  1.00  0.00    -0.309 N 
ATOM     15  H   UNL A   1      30.966  25.000  27.662  1.00  0.00     0.171 HD
ATOM     16  O   UNL A   1      31.741  22.790  27.337  1.00  0.00    -0.274 OA
BRANCH  14  17
ATOM     17  C   UNL A   1      31.665  26.163  26.202  1.00  0.00     0.154 A 
ATOM     18  N   UNL A   1      32.687  27.955  25.681  1.00  0.00    -0.271 N 
ATOM     19  C   UNL A   1      31.599  27.932  24.864  1.00  0.00     0.111 A 
ATOM     20  N   UNL A   1      32.743  26.893  26.509  1.00  0.00    -0.155 NA
ATOM     21  C   UNL A   1      30.888  26.817  25.223  1.00  0.00     0.068 A 
BRANCH  18  22
ATOM     22  C   UNL A   1      33.731  28.962  25.739  1.00  0.00     0.141 C 
ATOM     23  C   UNL A   1      34.377  29.128  27.109  1.00  0.00     0.029 C 
ENDBRANCH  18  22
ENDBRANCH  14  17
ENDBRANCH   7  13
ENDBRANCH   3   6
ENDBRANCH   1   2
BRANCH   1  24
ATOM     24  C   UNL A   1      38.228  21.872  25.371  1.00  0.00     0.042 C 
BRANCH  24  25
ATOM     25  C   UNL A   1      39.303  21.917  26.434  1.00  0.00     0.118 C 
BRANCH  25  26
ATOM     26  N   UNL A   1      40.651  21.752  25.907  1.00  0.00    -0.352 N 
ATOM     27  C   UNL A   1      41.629  22.726  25.805  1.00  0.00     0.251 C 
ATOM     28  H   UNL A   1      40.891  20.852  25.589  1.00  0.00     0.163 HD
ATOM     29  O   UNL A   1      42.571  22.589  25.042  1.00  0.00    -0.269 OA
BRANCH  27  30
ATOM     30  C   UNL A   1      41.510  23.941  26.640  1.00  0.00     0.039 A 
ATOM     31  C   UNL A   1      42.196  24.053  27.852  1.00  0.00     0.014 A 
ATOM     32  C   UNL A   1      40.697  24.981  26.193  1.00  0.00     0.014 A 
ATOM     33  C   UNL A   1      42.095  25.241  28.574  1.00  0.00     0.010 A 
ATOM     34  C   UNL A   1      40.727  26.201  26.814  1.00  0.00     0.010 A 
ATOM     35  C   UNL A   1      41.367  26.317  28.038  1.00  0.00    -0.014 A 
BRANCH  35  36
ATOM     36  C   UNL A   1      41.371  27.627  28.680  1.00  0.00     0.031 A 
ATOM     37  C   UNL A   1      42.513  28.480  28.256  1.00  0.00     0.074 A 
ATOM     38  C   UNL A   1      40.331  28.095  29.405  1.00  0.00     0.049 A 
ATOM     39  N   UNL A   1      43.509  28.869  28.980  1.00  0.00    -0.248 NA
ATOM     40  C   UNL A   1      42.661  28.799  26.826  1.00  0.00     0.031 C 
ATOM     41  C   UNL A   1      39.022  27.465  29.623  1.00  0.00     0.029 A 
ATOM     42  N   UNL A   1      40.183  29.294  30.037  1.00  0.00    -0.354 N 
ATOM     43  C   UNL A   1      44.297  29.664  28.154  1.00  0.00     0.074 A 
ATOM     44  C   UNL A   1      43.844  29.420  26.811  1.00  0.00     0.031 C 
ATOM     45  C   UNL A   1      38.153  28.372  30.125  1.00  0.00     0.029 A 
ATOM     46  C   UNL A   1      38.877  29.592  30.425  1.00  0.00     0.049 A 
ATOM     47  H   UNL A   1      40.939  29.902  30.206  1.00  0.00     0.167 HD
ATOM     48  C   UNL A   1      45.062  30.656  28.688  1.00  0.00     0.037 A 
ATOM     49  C   UNL A   1      38.426  30.767  30.937  1.00  0.00     0.037 A 
ATOM     50  C   UNL A   1      45.213  30.460  30.110  1.00  0.00     0.049 A 
ATOM     51  C   UNL A   1      39.612  31.499  31.443  1.00  0.00     0.074 A 
ATOM     52  C   UNL A   1      45.770  29.486  30.914  1.00  0.00     0.029 A 
ATOM     53  N   UNL A   1      44.379  31.188  30.919  1.00  0.00    -0.354 N 
ATOM     54  N   UNL A   1      40.319  31.114  32.468  1.00  0.00    -0.248 NA
ATOM     55  C   UNL A   1      40.275  32.414  30.530  1.00  0.00     0.031 C 
ATOM     56  C   UNL A   1      44.910  29.404  32.050  1.00  0.00     0.029 A 
ATOM     57  C   UNL A   1      43.923  30.383  31.925  1.00  0.00     0.049 A 
ATOM     58  H   UNL A   1      44.146  32.137  30.795  1.00  0.00     0.167 HD
ATOM     59  C   UNL A   1      41.631  31.354  32.090  1.00  0.00     0.074 A 
ATOM     60  C   UNL A   1      41.535  32.248  30.938  1.00  0.00     0.031 C 
ATOM     61  C   UNL A   1      42.640  30.565  32.564  1.00  0.00     0.037 A 
BRANCH  48  62
ATOM     62  C   UNL A   1      45.280  32.018  28.052  1.00  0.00     0.064 A 
ATOM     63  C   UNL A   1      44.153  32.834  27.810  1.00  0.00     0.173 A 
ATOM     64  C   UNL A   1      46.460  32.413  27.385  1.00  0.00     0.173 A 
ATOM     65  F   UNL A   1      42.973  32.561  28.387  1.00  0.00    -0.203 F 
ATOM     66  C   UNL A   1      44.180  33.883  26.888  1.00  0.00     0.198 A 
ATOM     67  C   UNL A   1      46.495  33.493  26.504  1.00  0.00     0.198 A 
ATOM     68  F   UNL A   1      47.600  31.721  27.464  1.00  0.00    -0.203 F 
ATOM     69  F   UNL A   1      43.047  34.533  26.586  1.00  0.00    -0.200 F 
ATOM     70  C   UNL A   1      45.349  34.205  26.226  1.00  0.00     0.200 A 
ATOM     71  F   UNL A   1      47.636  33.779  25.860  1.00  0.00    -0.200 F 
ATOM     72  F   UNL A   1      45.363  35.162  25.290  1.00  0.00    -0.200 F 
ENDBRANCH  48  62
BRANCH  49  73
ATOM     73  C   UNL A   1      37.116  31.442  30.761  1.00  0.00     0.064 A 
ATOM     74  C   UNL A   1      36.243  31.627  31.849  1.00  0.00     0.173 A 
ATOM     75  C   UNL A   1      36.831  32.190  29.603  1.00  0.00     0.173 A 
ATOM     76  F   UNL A   1      36.466  30.989  33.008  1.00  0.00    -0.203 F 
ATOM     77  C   UNL A   1      35.177  32.531  31.795  1.00  0.00     0.198 A 
ATOM     78  C   UNL A   1      35.764  33.090  29.548  1.00  0.00     0.198 A 
ATOM     79  F   UNL A   1      37.645  32.138  28.538  1.00  0.00    -0.203 F 
ATOM     80  F   UNL A   1      34.411  32.731  32.878  1.00  0.00    -0.200 F 
ATOM     81  C   UNL A   1      34.946  33.273  30.649  1.00  0.00     0.200 A 
ATOM     82  F   UNL A   1      35.575  33.831  28.447  1.00  0.00    -0.200 F 
ATOM     83  F   UNL A   1      33.969  34.190  30.619  1.00  0.00    -0.200 F 
ENDBRANCH  49  73
BRANCH  61  84
ATOM     84  C   UNL A   1      42.335  29.670  33.735  1.00  0.00     0.064 A 
ATOM     85  C   UNL A   1      41.822  28.364  33.635  1.00  0.00     0.173 A 
ATOM     86  C   UNL A   1      42.704  30.120  35.010  1.00  0.00     0.173 A 
ATOM     87  F   UNL A   1      41.529  27.824  32.446  1.00  0.00    -0.203 F 
ATOM     88  C   UNL A   1      41.656  27.565  34.767  1.00  0.00     0.198 A 
ATOM     89  C   UNL A   1      42.573  29.308  36.131  1.00  0.00     0.198 A 
ATOM     90  F   UNL A   1      43.241  31.341  35.161  1.00  0.00    -0.203 F 
ATOM     91  F   UNL A   1      41.153  26.327  34.649  1.00  0.00    -0.200 F 
ATOM     92  C   UNL A   1      42.040  28.035  36.012  1.00  0.00     0.200 A 
ATOM     93  F   UNL A   1      42.992  29.750  37.325  1.00  0.00    -0.200 F 
ATOM     94  F   UNL A   1      41.920  27.254  37.095  1.00  0.00    -0.200 F 
ENDBRANCH  61  84
ENDBRANCH  35  36
ENDBRANCH  27  30
ENDBRANCH  25  26
ENDBRANCH  24  25
ENDBRANCH   1  24
TORSDOF 13
ENDMDL
MODEL 2
REMARK VINA RESULT:     -12.9      3.793      7.112
REMARK SMILES CCn1ccc(NC(=O)[C@H]2[C@@H](C(=O)NCCCNC(=O)c3ccc(-c4c5nc(c(-c6c(F)c(F)c(F)c(F)c6F)c6ccc([nH]6)c(-c6c(F)c(F)c(F)c(F)c6F)c6nc(c(-c7c(F)c(F)c(F)c(F)c7F)c7ccc4[nH]7)C=C6)C=C5)cc3)[C@H]3C=C[C@@H]2C3)n1
REMARK SMILES IDX 15 1 14 2 12 3 13 4 11 6 10 7 87 8 84 9 86 10 88 11 85 12
REMARK SMILES IDX 8 13 7 14 9 16 6 17 3 18 4 19 89 20 5 21 2 22 1 23 16 24
REMARK SMILES IDX 17 25 18 26 19 27 20 29 21 30 22 31 83 32 23 33 82 34 24 35
REMARK SMILES IDX 25 36 26 37 76 38 27 39 81 40 75 41 77 42 28 43 80 44 74 45
REMARK SMILES IDX 73 46 29 48 61 49 41 50 60 51 42 52 45 53 59 54 78 55 43 56
REMARK SMILES IDX 44 57 58 59 79 60 46 61 30 62 31 63 39 64 32 65 33 66 37 67
REMARK SMILES IDX 40 68 34 69 35 70 38 71 36 72 62 73 63 74 71 75 64 76 65 77
REMARK SMILES IDX 69 78 72 79 66 80 67 81 70 82 68 83 47 84 48 85 56 86 49 87
REMARK SMILES IDX 50 88 54 89 57 90 51 91 52 92 55 93 53 94
REMARK H PARENT 14 5 7 15 18 28 77 47 45 58
REMARK Flexibility Score: inf
ROOT
ATOM      1  C   UNL A   1      45.197  22.873  26.571  1.00  0.00     0.117 C 
ENDROOT
BRANCH   1   2
ATOM      2  N   UNL A   1      45.801  23.888  25.715  1.00  0.00    -0.356 N 
ATOM      3  C   UNL A   1      46.918  24.661  25.883  1.00  0.00     0.224 C 
ATOM      4  O   UNL A   1      47.321  25.309  24.917  1.00  0.00    -0.275 OA
ATOM      5  H   UNL A   1      45.321  24.046  24.870  1.00  0.00     0.163 HD
BRANCH   3   6
ATOM      6  C   UNL A   1      47.681  24.574  27.188  1.00  0.00     0.098 C 
ATOM      7  C   UNL A   1      47.074  25.238  28.460  1.00  0.00     0.099 C 
ATOM      8  C   UNL A   1      48.258  26.070  29.020  1.00  0.00     0.025 C 
ATOM      9  C   UNL A   1      49.128  25.137  27.183  1.00  0.00     0.025 C 
ATOM     10  C   UNL A   1      48.586  27.190  28.059  1.00  0.00    -0.027 C 
ATOM     11  C   UNL A   1      49.431  25.143  28.694  1.00  0.00     0.017 C 
ATOM     12  C   UNL A   1      49.107  26.627  26.960  1.00  0.00    -0.027 C 
BRANCH   7  13
ATOM     13  C   UNL A   1      45.831  26.103  28.392  1.00  0.00     0.230 C 
ATOM     14  N   UNL A   1      45.063  26.266  29.515  1.00  0.00    -0.309 N 
ATOM     15  H   UNL A   1      44.310  26.892  29.401  1.00  0.00     0.171 HD
ATOM     16  O   UNL A   1      45.459  26.645  27.350  1.00  0.00    -0.274 OA
BRANCH  14  17
ATOM     17  C   UNL A   1      45.153  25.716  30.772  1.00  0.00     0.154 A 
ATOM     18  N   UNL A   1      44.736  24.295  32.301  1.00  0.00    -0.271 N 
ATOM     19  C   UNL A   1      45.725  25.073  32.817  1.00  0.00     0.111 A 
ATOM     20  N   UNL A   1      44.366  24.674  31.060  1.00  0.00    -0.155 NA
ATOM     21  C   UNL A   1      45.971  26.037  31.876  1.00  0.00     0.068 A 
BRANCH  18  22
ATOM     22  C   UNL A   1      44.078  23.163  32.927  1.00  0.00     0.141 C 
ATOM     23  C   UNL A   1      43.502  23.448  34.308  1.00  0.00     0.029 C 
ENDBRANCH  18  22
ENDBRANCH  14  17
ENDBRANCH   7  13
ENDBRANCH   3   6
ENDBRANCH   1   2
BRANCH   1  24
ATOM     24  C   UNL A   1      44.219  21.944  25.845  1.00  0.00     0.042 C 
BRANCH  24  25
ATOM     25  C   UNL A   1      43.084  22.662  25.148  1.00  0.00     0.118 C 
BRANCH  25  26
ATOM     26  N   UNL A   1      41.769  22.133  25.482  1.00  0.00    -0.352 N 
ATOM     27  C   UNL A   1      40.899  22.614  26.447  1.00  0.00     0.251 C 
ATOM     28  H   UNL A   1      41.465  21.351  24.968  1.00  0.00     0.163 HD
ATOM     29  O   UNL A   1      40.007  21.911  26.890  1.00  0.00    -0.269 OA
BRANCH  27  30
ATOM     30  C   UNL A   1      41.075  24.000  26.932  1.00  0.00     0.039 A 
ATOM     31  C   UNL A   1      40.541  25.084  26.229  1.00  0.00     0.014 A 
ATOM     32  C   UNL A   1      41.786  24.209  28.112  1.00  0.00     0.014 A 
ATOM     33  C   UNL A   1      40.686  26.365  26.759  1.00  0.00     0.010 A 
ATOM     34  C   UNL A   1      41.788  25.440  28.713  1.00  0.00     0.010 A 
ATOM     35  C   UNL A   1      41.301  26.531  28.011  1.00  0.00    -0.014 A 
BRANCH  35  36
ATOM     36  C   UNL A   1      41.326  27.830  28.674  1.00  0.00     0.031 A 
ATOM     37  C   UNL A   1      42.475  28.676  28.257  1.00  0.00     0.074 A 
ATOM     38  C   UNL A   1      40.296  28.299  29.415  1.00  0.00     0.049 A 
ATOM     39  N   UNL A   1      43.481  29.040  28.980  1.00  0.00    -0.248 NA
ATOM     40  C   UNL A   1      42.617  29.017  26.831  1.00  0.00     0.031 C 
ATOM     41  C   UNL A   1      38.981  27.681  29.632  1.00  0.00     0.029 A 
ATOM     42  N   UNL A   1      40.167  29.489  30.068  1.00  0.00    -0.354 N 
ATOM     43  C   UNL A   1      44.273  29.840  28.162  1.00  0.00     0.074 A 
ATOM     44  C   UNL A   1      43.807  29.623  26.819  1.00  0.00     0.031 C 
ATOM     45  C   UNL A   1      38.127  28.590  30.155  1.00  0.00     0.029 A 
ATOM     46  C   UNL A   1      38.868  29.796  30.470  1.00  0.00     0.049 A 
ATOM     47  H   UNL A   1      40.933  30.084  30.242  1.00  0.00     0.167 HD
ATOM     48  C   UNL A   1      45.053  30.813  28.707  1.00  0.00     0.037 A 
ATOM     49  C   UNL A   1      38.436  30.967  31.005  1.00  0.00     0.037 A 
ATOM     50  C   UNL A   1      45.212  30.592  30.124  1.00  0.00     0.049 A 
ATOM     51  C   UNL A   1      39.634  31.676  31.515  1.00  0.00     0.074 A 
ATOM     52  C   UNL A   1      45.762  29.597  30.908  1.00  0.00     0.029 A 
ATOM     53  N   UNL A   1      44.393  31.316  30.951  1.00  0.00    -0.354 N 
ATOM     54  N   UNL A   1      40.343  31.266  32.528  1.00  0.00    -0.248 NA
ATOM     55  C   UNL A   1      40.301  32.598  30.612  1.00  0.00     0.031 C 
ATOM     56  C   UNL A   1      44.909  29.507  32.049  1.00  0.00     0.029 A 
ATOM     57  C   UNL A   1      43.933  30.499  31.947  1.00  0.00     0.049 A 
ATOM     58  H   UNL A   1      44.171  32.269  30.845  1.00  0.00     0.167 HD
ATOM     59  C   UNL A   1      41.655  31.496  32.144  1.00  0.00     0.074 A 
ATOM     60  C   UNL A   1      41.562  32.410  31.008  1.00  0.00     0.031 C 
ATOM     61  C   UNL A   1      42.658  30.687  32.598  1.00  0.00     0.037 A 
BRANCH  48  62
ATOM     62  C   UNL A   1      45.284  32.182  28.092  1.00  0.00     0.064 A 
ATOM     63  C   UNL A   1      44.168  33.022  27.886  1.00  0.00     0.173 A 
ATOM     64  C   UNL A   1      46.458  32.570  27.411  1.00  0.00     0.173 A 
ATOM     65  F   UNL A   1      42.993  32.759  28.480  1.00  0.00    -0.203 F 
ATOM     66  C   UNL A   1      44.196  34.088  26.983  1.00  0.00     0.198 A 
ATOM     67  C   UNL A   1      46.497  33.665  26.550  1.00  0.00     0.198 A 
ATOM     68  F   UNL A   1      47.587  31.857  27.457  1.00  0.00    -0.203 F 
ATOM     69  F   UNL A   1      43.069  34.763  26.714  1.00  0.00    -0.200 F 
ATOM     70  C   UNL A   1      45.358  34.402  26.306  1.00  0.00     0.200 A 
ATOM     71  F   UNL A   1      47.631  33.944  25.890  1.00  0.00    -0.200 F 
ATOM     72  F   UNL A   1      45.372  35.376  25.388  1.00  0.00    -0.200 F 
ENDBRANCH  48  62
BRANCH  49  73
ATOM     73  C   UNL A   1      37.132  31.661  30.850  1.00  0.00     0.064 A 
ATOM     74  C   UNL A   1      36.226  31.751  31.922  1.00  0.00     0.173 A 
ATOM     75  C   UNL A   1      36.886  32.512  29.755  1.00  0.00     0.173 A 
ATOM     76  F   UNL A   1      36.410  31.009  33.025  1.00  0.00    -0.203 F 
ATOM     77  C   UNL A   1      35.163  32.661  31.916  1.00  0.00     0.198 A 
ATOM     78  C   UNL A   1      35.823  33.418  29.749  1.00  0.00     0.198 A 
ATOM     79  F   UNL A   1      37.732  32.552  28.717  1.00  0.00    -0.203 F 
ATOM     80  F   UNL A   1      34.364  32.766  32.988  1.00  0.00    -0.200 F 
ATOM     81  C   UNL A   1      34.970  33.504  30.835  1.00  0.00     0.200 A 
ATOM     82  F   UNL A   1      35.669  34.256  28.713  1.00  0.00    -0.200 F 
ATOM     83  F   UNL A   1      33.996  34.425  30.857  1.00  0.00    -0.200 F 
ENDBRANCH  49  73
BRANCH  61  84
ATOM     84  C   UNL A   1      42.349  29.776  33.756  1.00  0.00     0.064 A 
ATOM     85  C   UNL A   1      41.871  28.459  33.637  1.00  0.00     0.173 A 
ATOM     86  C   UNL A   1      42.680  30.226  35.042  1.00  0.00     0.173 A 
ATOM     87  F   UNL A   1      41.617  27.920  32.438  1.00  0.00    -0.203 F 
ATOM     88  C   UNL A   1      41.700  27.648  34.759  1.00  0.00     0.198 A 
ATOM     89  C   UNL A   1      42.545  29.402  36.155  1.00  0.00     0.198 A 
ATOM     90  F   UNL A   1      43.183  31.458  35.212  1.00  0.00    -0.203 F 
ATOM     91  F   UNL A   1      41.231  26.398  34.622  1.00  0.00    -0.200 F 
ATOM     92  C   UNL A   1      42.046  28.117  36.015  1.00  0.00     0.200 A 
ATOM     93  F   UNL A   1      42.927  29.846  37.360  1.00  0.00    -0.200 F 
ATOM     94  F   UNL A   1      41.922  27.326  37.090  1.00  0.00    -0.200 F 
ENDBRANCH  61  84
ENDBRANCH  35  36
ENDBRANCH  27  30
ENDBRANCH  25  26
ENDBRANCH  24  25
ENDBRANCH   1  24
TORSDOF 13
ENDMDL
MODEL 3
REMARK VINA RESULT:     -12.8      1.727      3.401
REMARK SMILES CCn1ccc(NC(=O)[C@H]2[C@@H](C(=O)NCCCNC(=O)c3ccc(-c4c5nc(c(-c6c(F)c(F)c(F)c(F)c6F)c6ccc([nH]6)c(-c6c(F)c(F)c(F)c(F)c6F)c6nc(c(-c7c(F)c(F)c(F)c(F)c7F)c7ccc4[nH]7)C=C6)C=C5)cc3)[C@H]3C=C[C@@H]2C3)n1
REMARK SMILES IDX 15 1 14 2 12 3 13 4 11 6 10 7 87 8 84 9 86 10 88 11 85 12
REMARK SMILES IDX 8 13 7 14 9 16 6 17 3 18 4 19 89 20 5 21 2 22 1 23 16 24
REMARK SMILES IDX 17 25 18 26 19 27 20 29 21 30 22 31 83 32 23 33 82 34 24 35
REMARK SMILES IDX 25 36 26 37 76 38 27 39 81 40 75 41 77 42 28 43 80 44 74 45
REMARK SMILES IDX 73 46 29 48 61 49 41 50 60 51 42 52 45 53 59 54 78 55 43 56
REMARK SMILES IDX 44 57 58 59 79 60 46 61 30 62 31 63 39 64 32 65 33 66 37 67
REMARK SMILES IDX 40 68 34 69 35 70 38 71 36 72 62 73 63 74 71 75 64 76 65 77
REMARK SMILES IDX 69 78 72 79 66 80 67 81 70 82 68 83 47 84 48 85 56 86 49 87
REMARK SMILES IDX 50 88 54 89 57 90 51 91 52 92 55 93 53 94
REMARK H PARENT 14 5 7 15 18 28 77 47 45 58
REMARK Flexibility Score: inf
ROOT
ATOM      1  C   UNL A   1      35.017  23.990  24.566  1.00  0.00     0.117 C 
ENDROOT
BRANCH   1   2
ATOM      2  N   UNL A   1      34.445  24.429  23.297  1.00  0.00    -0.356 N 
ATOM      3  C   UNL A   1      33.787  25.579  22.954  1.00  0.00     0.224 C 
ATOM      4  O   UNL A   1      33.573  25.786  21.760  1.00  0.00    -0.275 OA
ATOM      5  H   UNL A   1      34.551  23.786  22.559  1.00  0.00     0.163 HD
BRANCH   3   6
ATOM      6  C   UNL A   1      33.481  26.598  24.031  1.00  0.00     0.098 C 
ATOM      7  C   UNL A   1      31.997  26.841  24.439  1.00  0.00     0.099 C 
ATOM      8  C   UNL A   1      31.868  28.386  24.389  1.00  0.00     0.025 C 
ATOM      9  C   UNL A   1      33.992  28.043  23.782  1.00  0.00     0.025 C 
ATOM     10  C   UNL A   1      32.008  28.857  22.960  1.00  0.00    -0.027 C 
ATOM     11  C   UNL A   1      33.249  28.799  24.900  1.00  0.00     0.017 C 
ATOM     12  C   UNL A   1      33.283  28.651  22.600  1.00  0.00    -0.027 C 
BRANCH   7  13
ATOM     13  C   UNL A   1      30.847  26.208  23.678  1.00  0.00     0.230 C 
ATOM     14  N   UNL A   1      30.425  24.951  24.021  1.00  0.00    -0.309 N 
ATOM     15  H   UNL A   1      29.636  24.640  23.520  1.00  0.00     0.171 HD
ATOM     16  O   UNL A   1      30.292  26.770  22.732  1.00  0.00    -0.274 OA
BRANCH  14  17
ATOM     17  C   UNL A   1      30.903  24.044  24.938  1.00  0.00     0.154 A 
ATOM     18  N   UNL A   1      31.983  22.328  25.586  1.00  0.00    -0.271 N 
ATOM     19  C   UNL A   1      31.607  22.951  26.736  1.00  0.00     0.111 A 
ATOM     20  N   UNL A   1      31.559  22.972  24.480  1.00  0.00    -0.155 NA
ATOM     21  C   UNL A   1      30.854  24.028  26.348  1.00  0.00     0.068 A 
BRANCH  18  22
ATOM     22  C   UNL A   1      32.753  21.105  25.450  1.00  0.00     0.141 C 
ATOM     23  C   UNL A   1      32.796  20.538  24.037  1.00  0.00     0.029 C 
ENDBRANCH  18  22
ENDBRANCH  14  17
ENDBRANCH   7  13
ENDBRANCH   3   6
ENDBRANCH   1   2
BRANCH   1  24
ATOM     24  C   UNL A   1      36.150  22.971  24.422  1.00  0.00     0.042 C 
BRANCH  24  25
ATOM     25  C   UNL A   1      37.408  23.330  25.183  1.00  0.00     0.118 C 
BRANCH  25  26
ATOM     26  N   UNL A   1      38.183  22.172  25.605  1.00  0.00    -0.352 N 
ATOM     27  C   UNL A   1      39.379  22.181  26.303  1.00  0.00     0.251 C 
ATOM     28  H   UNL A   1      37.818  21.289  25.371  1.00  0.00     0.163 HD
ATOM     29  O   UNL A   1      40.114  21.208  26.295  1.00  0.00    -0.269 OA
BRANCH  27  30
ATOM     30  C   UNL A   1      39.751  23.397  27.058  1.00  0.00     0.039 A 
ATOM     31  C   UNL A   1      40.972  23.482  27.732  1.00  0.00     0.014 A 
ATOM     32  C   UNL A   1      38.857  24.466  27.084  1.00  0.00     0.014 A 
ATOM     33  C   UNL A   1      41.299  24.671  28.382  1.00  0.00     0.010 A 
ATOM     34  C   UNL A   1      39.244  25.683  27.580  1.00  0.00     0.010 A 
ATOM     35  C   UNL A   1      40.432  25.773  28.288  1.00  0.00    -0.014 A 
BRANCH  35  36
ATOM     36  C   UNL A   1      40.811  27.080  28.812  1.00  0.00     0.031 A 
ATOM     37  C   UNL A   1      42.025  27.640  28.162  1.00  0.00     0.074 A 
ATOM     38  C   UNL A   1      40.018  27.801  29.636  1.00  0.00     0.049 A 
ATOM     39  N   UNL A   1      43.181  27.836  28.703  1.00  0.00    -0.248 NA
ATOM     40  C   UNL A   1      42.012  27.847  26.704  1.00  0.00     0.031 C 
ATOM     41  C   UNL A   1      38.657  27.486  30.089  1.00  0.00     0.029 A 
ATOM     42  N   UNL A   1      40.225  29.034  30.182  1.00  0.00    -0.354 N 
ATOM     43  C   UNL A   1      43.980  28.397  27.710  1.00  0.00     0.074 A 
ATOM     44  C   UNL A   1      43.281  28.191  26.471  1.00  0.00     0.031 C 
ATOM     45  C   UNL A   1      38.087  28.585  30.633  1.00  0.00     0.029 A 
ATOM     46  C   UNL A   1      39.088  29.630  30.725  1.00  0.00     0.049 A 
ATOM     47  H   UNL A   1      41.109  29.468  30.191  1.00  0.00     0.167 HD
ATOM     48  C   UNL A   1      45.009  29.222  28.047  1.00  0.00     0.037 A 
ATOM     49  C   UNL A   1      38.979  30.899  31.197  1.00  0.00     0.037 A 
ATOM     50  C   UNL A   1      45.336  29.069  29.444  1.00  0.00     0.049 A 
ATOM     51  C   UNL A   1      40.356  31.377  31.468  1.00  0.00     0.074 A 
ATOM     52  C   UNL A   1      45.795  28.037  30.239  1.00  0.00     0.029 A 
ATOM     53  N   UNL A   1      44.810  30.002  30.301  1.00  0.00    -0.354 N 
ATOM     54  N   UNL A   1      41.117  30.898  32.410  1.00  0.00    -0.248 NA
ATOM     55  C   UNL A   1      41.044  32.077  30.397  1.00  0.00     0.031 C 
ATOM     56  C   UNL A   1      45.125  28.204  31.489  1.00  0.00     0.029 A 
ATOM     57  C   UNL A   1      44.358  29.367  31.424  1.00  0.00     0.049 A 
ATOM     58  H   UNL A   1      44.765  30.971  30.133  1.00  0.00     0.167 HD
ATOM     59  C   UNL A   1      42.375  30.826  31.831  1.00  0.00     0.074 A 
ATOM     60  C   UNL A   1      42.290  31.660  30.635  1.00  0.00     0.031 C 
ATOM     61  C   UNL A   1      43.258  29.859  32.222  1.00  0.00     0.037 A 
BRANCH  48  62
ATOM     62  C   UNL A   1      45.406  30.469  27.276  1.00  0.00     0.064 A 
ATOM     63  C   UNL A   1      46.778  30.705  27.043  1.00  0.00     0.173 A 
ATOM     64  C   UNL A   1      44.561  31.577  27.051  1.00  0.00     0.173 A 
ATOM     65  F   UNL A   1      47.682  29.730  27.222  1.00  0.00    -0.203 F 
ATOM     66  C   UNL A   1      47.270  31.975  26.727  1.00  0.00     0.198 A 
ATOM     67  C   UNL A   1      45.051  32.830  26.686  1.00  0.00     0.198 A 
ATOM     68  F   UNL A   1      43.244  31.537  27.274  1.00  0.00    -0.203 F 
ATOM     69  F   UNL A   1      48.594  32.178  26.661  1.00  0.00    -0.200 F 
ATOM     70  C   UNL A   1      46.407  33.040  26.561  1.00  0.00     0.200 A 
ATOM     71  F   UNL A   1      44.197  33.854  26.544  1.00  0.00    -0.200 F 
ATOM     72  F   UNL A   1      46.878  34.271  26.328  1.00  0.00    -0.200 F 
ENDBRANCH  48  62
BRANCH  49  73
ATOM     73  C   UNL A   1      37.828  31.836  31.154  1.00  0.00     0.064 A 
ATOM     74  C   UNL A   1      37.404  32.409  29.941  1.00  0.00     0.173 A 
ATOM     75  C   UNL A   1      36.935  31.943  32.237  1.00  0.00     0.173 A 
ATOM     76  F   UNL A   1      38.172  32.314  28.846  1.00  0.00    -0.203 F 
ATOM     77  C   UNL A   1      36.150  33.016  29.809  1.00  0.00     0.198 A 
ATOM     78  C   UNL A   1      35.684  32.553  32.106  1.00  0.00     0.198 A 
ATOM     79  F   UNL A   1      37.216  31.368  33.415  1.00  0.00    -0.203 F 
ATOM     80  F   UNL A   1      35.754  33.487  28.617  1.00  0.00    -0.200 F 
ATOM     81  C   UNL A   1      35.285  33.076  30.889  1.00  0.00     0.200 A 
ATOM     82  F   UNL A   1      34.840  32.570  33.147  1.00  0.00    -0.200 F 
ATOM     83  F   UNL A   1      34.057  33.593  30.747  1.00  0.00    -0.200 F 
ENDBRANCH  49  73
BRANCH  61  84
ATOM     84  C   UNL A   1      42.958  29.112  33.494  1.00  0.00     0.064 A 
ATOM     85  C   UNL A   1      42.150  27.965  33.580  1.00  0.00     0.173 A 
ATOM     86  C   UNL A   1      43.633  29.512  34.655  1.00  0.00     0.173 A 
ATOM     87  F   UNL A   1      41.542  27.463  32.498  1.00  0.00    -0.203 F 
ATOM     88  C   UNL A   1      41.999  27.277  34.785  1.00  0.00     0.198 A 
ATOM     89  C   UNL A   1      43.511  28.802  35.845  1.00  0.00     0.198 A 
ATOM     90  F   UNL A   1      44.454  30.574  34.622  1.00  0.00    -0.203 F 
ATOM     91  F   UNL A   1      41.212  26.191  34.846  1.00  0.00    -0.200 F 
ATOM     92  C   UNL A   1      42.687  27.691  35.913  1.00  0.00     0.200 A 
ATOM     93  F   UNL A   1      44.217  29.180  36.919  1.00  0.00    -0.200 F 
ATOM     94  F   UNL A   1      42.576  27.007  37.060  1.00  0.00    -0.200 F 
ENDBRANCH  61  84
ENDBRANCH  35  36
ENDBRANCH  27  30
ENDBRANCH  25  26
ENDBRANCH  24  25
ENDBRANCH   1  24
TORSDOF 13
ENDMDL
