MODEL 1
REMARK VINA RESULT:     -14.0      0.000      0.000
REMARK SMILES Cc1c(NC(=O)C(F)(F)F)cccc1C(=O)NCCCNC(=O)c1ccc(-c2c3nc(c(-c4c(F)c(F)c(F)c(F)c4F)c4ccc([nH]4)c(-c4c(F)c(F)c(F)c(F)c4F)c4nc(c(-c5c(F)c(F)c(F)c(F)c5F)c5ccc2[nH]5)C=C4)C=C3)cc1
REMARK SMILES IDX 19 1 18 2 17 3 15 4 16 5 14 7 1 8 2 9 3 10 11 11 13 12 12 13
REMARK SMILES IDX 4 14 5 15 6 17 7 18 8 19 9 20 10 21 20 22 21 23 22 24 23 26
REMARK SMILES IDX 24 27 25 28 86 29 26 30 85 31 27 32 28 33 29 34 79 35 30 36
REMARK SMILES IDX 84 37 78 38 80 39 31 40 83 41 77 42 76 43 32 45 64 46 44 47
REMARK SMILES IDX 63 48 45 49 48 50 62 51 81 52 46 53 47 54 61 56 82 57 49 58
REMARK SMILES IDX 33 59 34 60 42 61 35 62 36 63 40 64 43 65 37 66 38 67 41 68
REMARK SMILES IDX 39 69 65 70 66 71 74 72 67 73 68 74 72 75 75 76 69 77 70 78
REMARK SMILES IDX 73 79 71 80 50 81 51 82 59 83 52 84 53 85 57 86 60 87 54 88
REMARK SMILES IDX 55 89 58 90 56 91
REMARK H PARENT 17 6 4 16 21 25 80 44 48 55
REMARK Flexibility Score: inf
ROOT
ATOM      1  C   UNL A   1      33.355  31.310  27.626  1.00  0.00     0.042 C 
ENDROOT
BRANCH   1   2
ATOM      2  C   UNL A   1      32.635  30.138  26.949  1.00  0.00     0.118 C 
BRANCH   2   3
ATOM      3  N   UNL A   1      33.064  29.986  25.566  1.00  0.00    -0.352 N 
ATOM      4  C   UNL A   1      32.714  29.144  24.536  1.00  0.00     0.251 C 
ATOM      5  O   UNL A   1      33.310  29.327  23.471  1.00  0.00    -0.269 OA
ATOM      6  H   UNL A   1      33.763  30.631  25.310  1.00  0.00     0.163 HD
BRANCH   4   7
ATOM      7  C   UNL A   1      31.629  28.109  24.570  1.00  0.00     0.044 A 
ATOM      8  C   UNL A   1      32.763  26.408  26.087  1.00  0.00     0.047 C 
ATOM      9  C   UNL A   1      31.565  26.939  25.357  1.00  0.00    -0.015 A 
ATOM     10  C   UNL A   1      30.400  26.121  25.344  1.00  0.00     0.045 A 
ATOM     11  C   UNL A   1      29.433  26.331  24.368  1.00  0.00     0.026 A 
ATOM     12  C   UNL A   1      30.624  28.292  23.604  1.00  0.00     0.014 A 
ATOM     13  C   UNL A   1      29.566  27.392  23.474  1.00  0.00     0.003 A 
BRANCH  10  14
ATOM     14  N   UNL A   1      30.278  25.178  26.387  1.00  0.00    -0.318 N 
ATOM     15  C   UNL A   1      30.473  23.829  26.504  1.00  0.00     0.330 C 
ATOM     16  H   UNL A   1      29.979  25.589  27.231  1.00  0.00     0.170 HD
ATOM     17  O   UNL A   1      30.077  23.329  27.569  1.00  0.00    -0.264 OA
BRANCH  15  18
ATOM     18  C   UNL A   1      31.173  22.993  25.430  1.00  0.00     0.471 C 
ATOM     19  F   UNL A   1      30.655  23.199  24.187  1.00  0.00    -0.162 F 
ATOM     20  F   UNL A   1      32.508  23.248  25.347  1.00  0.00    -0.162 F 
ATOM     21  F   UNL A   1      31.065  21.653  25.663  1.00  0.00    -0.162 F 
ENDBRANCH  15  18
ENDBRANCH  10  14
ENDBRANCH   4   7
ENDBRANCH   2   3
ENDBRANCH   1   2
BRANCH   1  22
ATOM     22  C   UNL A   1      34.863  31.198  27.747  1.00  0.00     0.118 C 
BRANCH  22  23
ATOM     23  N   UNL A   1      35.361  31.708  29.029  1.00  0.00    -0.352 N 
ATOM     24  C   UNL A   1      36.260  31.117  29.907  1.00  0.00     0.251 C 
ATOM     25  H   UNL A   1      35.011  32.586  29.303  1.00  0.00     0.163 HD
ATOM     26  O   UNL A   1      36.655  31.685  30.902  1.00  0.00    -0.269 OA
BRANCH  24  27
ATOM     27  C   UNL A   1      36.812  29.807  29.502  1.00  0.00     0.039 A 
ATOM     28  C   UNL A   1      37.266  28.983  30.533  1.00  0.00     0.014 A 
ATOM     29  C   UNL A   1      37.261  29.656  28.194  1.00  0.00     0.014 A 
ATOM     30  C   UNL A   1      38.392  28.203  30.312  1.00  0.00     0.010 A 
ATOM     31  C   UNL A   1      38.435  28.952  28.001  1.00  0.00     0.010 A 
ATOM     32  C   UNL A   1      39.044  28.298  29.081  1.00  0.00    -0.014 A 
BRANCH  32  33
ATOM     33  C   UNL A   1      40.399  27.799  28.875  1.00  0.00     0.031 A 
ATOM     34  C   UNL A   1      40.596  26.377  28.536  1.00  0.00     0.074 A 
ATOM     35  C   UNL A   1      41.480  28.602  28.999  1.00  0.00     0.049 A 
ATOM     36  N   UNL A   1      41.653  25.703  28.839  1.00  0.00    -0.248 NA
ATOM     37  C   UNL A   1      39.574  25.586  27.864  1.00  0.00     0.031 C 
ATOM     38  C   UNL A   1      42.860  28.272  28.648  1.00  0.00     0.029 A 
ATOM     39  N   UNL A   1      41.581  29.831  29.673  1.00  0.00    -0.354 N 
ATOM     40  C   UNL A   1      41.573  24.490  28.200  1.00  0.00     0.074 A 
ATOM     41  C   UNL A   1      40.235  24.445  27.654  1.00  0.00     0.031 C 
ATOM     42  C   UNL A   1      43.687  29.052  29.359  1.00  0.00     0.029 A 
ATOM     43  C   UNL A   1      42.873  29.840  30.262  1.00  0.00     0.049 A 
ATOM     44  H   UNL A   1      40.897  30.537  29.726  1.00  0.00     0.167 HD
ATOM     45  C   UNL A   1      42.687  23.708  28.108  1.00  0.00     0.037 A 
ATOM     46  C   UNL A   1      43.038  29.932  31.613  1.00  0.00     0.037 A 
ATOM     47  C   UNL A   1      43.829  24.305  28.804  1.00  0.00     0.049 A 
ATOM     48  C   UNL A   1      43.698  28.728  32.247  1.00  0.00     0.074 A 
ATOM     49  C   UNL A   1      44.933  25.039  28.400  1.00  0.00     0.029 A 
ATOM     50  N   UNL A   1      43.778  24.431  30.181  1.00  0.00    -0.354 N 
ATOM     51  N   UNL A   1      44.130  27.688  31.590  1.00  0.00    -0.248 NA
ATOM     52  C   UNL A   1      43.802  28.557  33.697  1.00  0.00     0.031 C 
ATOM     53  C   UNL A   1      45.554  25.589  29.559  1.00  0.00     0.029 A 
ATOM     54  C   UNL A   1      44.828  25.190  30.665  1.00  0.00     0.049 A 
ATOM     55  H   UNL A   1      43.081  24.029  30.748  1.00  0.00     0.167 HD
ATOM     56  C   UNL A   1      44.487  26.709  32.480  1.00  0.00     0.074 A 
ATOM     57  C   UNL A   1      44.258  27.298  33.786  1.00  0.00     0.031 C 
ATOM     58  C   UNL A   1      44.897  25.466  32.091  1.00  0.00     0.037 A 
BRANCH  45  59
ATOM     59  C   UNL A   1      42.801  22.527  27.172  1.00  0.00     0.064 A 
ATOM     60  C   UNL A   1      42.061  21.348  27.402  1.00  0.00     0.173 A 
ATOM     61  C   UNL A   1      43.662  22.470  26.059  1.00  0.00     0.173 A 
ATOM     62  F   UNL A   1      41.106  21.292  28.338  1.00  0.00    -0.203 F 
ATOM     63  C   UNL A   1      42.275  20.173  26.675  1.00  0.00     0.198 A 
ATOM     64  C   UNL A   1      43.928  21.279  25.376  1.00  0.00     0.198 A 
ATOM     65  F   UNL A   1      44.225  23.576  25.558  1.00  0.00    -0.203 F 
ATOM     66  F   UNL A   1      41.544  19.083  26.946  1.00  0.00    -0.200 F 
ATOM     67  C   UNL A   1      43.243  20.125  25.695  1.00  0.00     0.200 A 
ATOM     68  F   UNL A   1      44.851  21.262  24.403  1.00  0.00    -0.200 F 
ATOM     69  F   UNL A   1      43.491  18.984  25.039  1.00  0.00    -0.200 F 
ENDBRANCH  45  59
BRANCH  46  70
ATOM     70  C   UNL A   1      41.984  30.771  32.241  1.00  0.00     0.064 A 
ATOM     71  C   UNL A   1      42.068  32.164  32.051  1.00  0.00     0.173 A 
ATOM     72  C   UNL A   1      40.740  30.230  32.581  1.00  0.00     0.173 A 
ATOM     73  F   UNL A   1      43.247  32.731  31.748  1.00  0.00    -0.203 F 
ATOM     74  C   UNL A   1      40.921  32.948  32.000  1.00  0.00     0.198 A 
ATOM     75  C   UNL A   1      39.599  31.029  32.571  1.00  0.00     0.198 A 
ATOM     76  F   UNL A   1      40.601  28.912  32.781  1.00  0.00    -0.203 F 
ATOM     77  F   UNL A   1      41.006  34.233  31.630  1.00  0.00    -0.200 F 
ATOM     78  C   UNL A   1      39.682  32.370  32.221  1.00  0.00     0.200 A 
ATOM     79  F   UNL A   1      38.401  30.473  32.797  1.00  0.00    -0.200 F 
ATOM     80  F   UNL A   1      38.568  33.091  32.040  1.00  0.00    -0.200 F 
ENDBRANCH  46  70
BRANCH  58  81
ATOM     81  C   UNL A   1      45.359  24.403  33.054  1.00  0.00     0.064 A 
ATOM     82  C   UNL A   1      44.522  23.359  33.484  1.00  0.00     0.173 A 
ATOM     83  C   UNL A   1      46.634  24.450  33.660  1.00  0.00     0.173 A 
ATOM     84  F   UNL A   1      43.248  23.282  33.072  1.00  0.00    -0.203 F 
ATOM     85  C   UNL A   1      44.963  22.373  34.370  1.00  0.00     0.198 A 
ATOM     86  C   UNL A   1      47.052  23.498  34.589  1.00  0.00     0.198 A 
ATOM     87  F   UNL A   1      47.522  25.405  33.357  1.00  0.00    -0.203 F 
ATOM     88  F   UNL A   1      44.153  21.354  34.686  1.00  0.00    -0.200 F 
ATOM     89  C   UNL A   1      46.227  22.445  34.924  1.00  0.00     0.200 A 
ATOM     90  F   UNL A   1      48.266  23.605  35.148  1.00  0.00    -0.200 F 
ATOM     91  F   UNL A   1      46.646  21.506  35.783  1.00  0.00    -0.200 F 
ENDBRANCH  58  81
ENDBRANCH  32  33
ENDBRANCH  24  27
ENDBRANCH  22  23
ENDBRANCH   1  22
TORSDOF 12
ENDMDL
MODEL 2
REMARK VINA RESULT:     -13.9      0.663      1.747
REMARK SMILES Cc1c(NC(=O)C(F)(F)F)cccc1C(=O)NCCCNC(=O)c1ccc(-c2c3nc(c(-c4c(F)c(F)c(F)c(F)c4F)c4ccc([nH]4)c(-c4c(F)c(F)c(F)c(F)c4F)c4nc(c(-c5c(F)c(F)c(F)c(F)c5F)c5ccc2[nH]5)C=C4)C=C3)cc1
REMARK SMILES IDX 19 1 18 2 17 3 15 4 16 5 14 7 1 8 2 9 3 10 11 11 13 12 12 13
REMARK SMILES IDX 4 14 5 15 6 17 7 18 8 19 9 20 10 21 20 22 21 23 22 24 23 26
REMARK SMILES IDX 24 27 25 28 86 29 26 30 85 31 27 32 28 33 29 34 79 35 30 36
REMARK SMILES IDX 84 37 78 38 80 39 31 40 83 41 77 42 76 43 32 45 64 46 44 47
REMARK SMILES IDX 63 48 45 49 48 50 62 51 81 52 46 53 47 54 61 56 82 57 49 58
REMARK SMILES IDX 33 59 34 60 42 61 35 62 36 63 40 64 43 65 37 66 38 67 41 68
REMARK SMILES IDX 39 69 65 70 66 71 74 72 67 73 68 74 72 75 75 76 69 77 70 78
REMARK SMILES IDX 73 79 71 80 50 81 51 82 59 83 52 84 53 85 57 86 60 87 54 88
REMARK SMILES IDX 55 89 58 90 56 91
REMARK H PARENT 17 6 4 16 21 25 80 44 48 55
REMARK Flexibility Score: inf
ROOT
ATOM      1  C   UNL A   1      33.149  31.324  27.466  1.00  0.00     0.042 C 
ENDROOT
BRANCH   1   2
ATOM      2  C   UNL A   1      32.175  30.533  26.586  1.00  0.00     0.118 C 
BRANCH   2   3
ATOM      3  N   UNL A   1      32.795  30.154  25.325  1.00  0.00    -0.352 N 
ATOM      4  C   UNL A   1      32.591  29.141  24.417  1.00  0.00     0.251 C 
ATOM      5  O   UNL A   1      33.332  29.150  23.430  1.00  0.00    -0.269 OA
ATOM      6  H   UNL A   1      33.525  30.760  25.061  1.00  0.00     0.163 HD
BRANCH   4   7
ATOM      7  C   UNL A   1      31.508  28.104  24.477  1.00  0.00     0.044 A 
ATOM      8  C   UNL A   1      32.679  26.406  25.968  1.00  0.00     0.047 C 
ATOM      9  C   UNL A   1      31.464  26.936  25.266  1.00  0.00    -0.015 A 
ATOM     10  C   UNL A   1      30.300  26.116  25.281  1.00  0.00     0.045 A 
ATOM     11  C   UNL A   1      29.310  26.325  24.328  1.00  0.00     0.026 A 
ATOM     12  C   UNL A   1      30.480  28.286  23.535  1.00  0.00     0.014 A 
ATOM     13  C   UNL A   1      29.421  27.385  23.430  1.00  0.00     0.003 A 
BRANCH  10  14
ATOM     14  N   UNL A   1      30.203  25.174  26.327  1.00  0.00    -0.318 N 
ATOM     15  C   UNL A   1      30.425  23.829  26.447  1.00  0.00     0.330 C 
ATOM     16  H   UNL A   1      29.903  25.582  27.172  1.00  0.00     0.170 HD
ATOM     17  O   UNL A   1      30.046  23.325  27.515  1.00  0.00    -0.264 OA
BRANCH  15  18
ATOM     18  C   UNL A   1      31.133  23.003  25.370  1.00  0.00     0.471 C 
ATOM     19  F   UNL A   1      30.643  23.243  24.121  1.00  0.00    -0.162 F 
ATOM     20  F   UNL A   1      32.473  23.239  25.318  1.00  0.00    -0.162 F 
ATOM     21  F   UNL A   1      30.999  21.662  25.573  1.00  0.00    -0.162 F 
ENDBRANCH  15  18
ENDBRANCH  10  14
ENDBRANCH   4   7
ENDBRANCH   2   3
ENDBRANCH   1   2
BRANCH   1  22
ATOM     22  C   UNL A   1      34.253  30.529  28.137  1.00  0.00     0.118 C 
BRANCH  22  23
ATOM     23  N   UNL A   1      35.131  31.371  28.957  1.00  0.00    -0.352 N 
ATOM     24  C   UNL A   1      36.411  31.098  29.421  1.00  0.00     0.251 C 
ATOM     25  H   UNL A   1      34.763  32.247  29.212  1.00  0.00     0.163 HD
ATOM     26  O   UNL A   1      37.066  31.919  30.025  1.00  0.00    -0.269 OA
BRANCH  24  27
ATOM     27  C   UNL A   1      36.988  29.794  29.030  1.00  0.00     0.039 A 
ATOM     28  C   UNL A   1      37.390  28.959  30.074  1.00  0.00     0.014 A 
ATOM     29  C   UNL A   1      37.506  29.659  27.746  1.00  0.00     0.014 A 
ATOM     30  C   UNL A   1      38.529  28.184  29.903  1.00  0.00     0.010 A 
ATOM     31  C   UNL A   1      38.691  28.962  27.607  1.00  0.00     0.010 A 
ATOM     32  C   UNL A   1      39.245  28.296  28.710  1.00  0.00    -0.014 A 
BRANCH  32  33
ATOM     33  C   UNL A   1      40.610  27.803  28.570  1.00  0.00     0.031 A 
ATOM     34  C   UNL A   1      40.830  26.378  28.262  1.00  0.00     0.074 A 
ATOM     35  C   UNL A   1      41.680  28.616  28.728  1.00  0.00     0.049 A 
ATOM     36  N   UNL A   1      41.878  25.716  28.620  1.00  0.00    -0.248 NA
ATOM     37  C   UNL A   1      39.844  25.570  27.560  1.00  0.00     0.031 C 
ATOM     38  C   UNL A   1      43.076  28.290  28.443  1.00  0.00     0.029 A 
ATOM     39  N   UNL A   1      41.744  29.855  29.388  1.00  0.00    -0.354 N 
ATOM     40  C   UNL A   1      41.833  24.492  27.997  1.00  0.00     0.074 A 
ATOM     41  C   UNL A   1      40.520  24.430  27.396  1.00  0.00     0.031 C 
ATOM     42  C   UNL A   1      43.866  29.086  29.176  1.00  0.00     0.029 A 
ATOM     43  C   UNL A   1      43.010  29.882  30.031  1.00  0.00     0.049 A 
ATOM     44  H   UNL A   1      41.054  30.558  29.400  1.00  0.00     0.167 HD
ATOM     45  C   UNL A   1      42.955  23.717  27.966  1.00  0.00     0.037 A 
ATOM     46  C   UNL A   1      43.115  29.996  31.387  1.00  0.00     0.037 A 
ATOM     47  C   UNL A   1      44.061  24.332  28.702  1.00  0.00     0.049 A 
ATOM     48  C   UNL A   1      43.755  28.806  32.067  1.00  0.00     0.074 A 
ATOM     49  C   UNL A   1      45.177  25.068  28.334  1.00  0.00     0.029 A 
ATOM     50  N   UNL A   1      43.951  24.479  30.073  1.00  0.00    -0.354 N 
ATOM     51  N   UNL A   1      44.221  27.760  31.446  1.00  0.00    -0.248 NA
ATOM     52  C   UNL A   1      43.797  28.657  33.522  1.00  0.00     0.031 C 
ATOM     53  C   UNL A   1      45.744  25.639  29.510  1.00  0.00     0.029 A 
ATOM     54  C   UNL A   1      44.974  25.253  30.590  1.00  0.00     0.049 A 
ATOM     55  H   UNL A   1      43.232  24.080  30.615  1.00  0.00     0.167 HD
ATOM     56  C   UNL A   1      44.545  26.796  32.365  1.00  0.00     0.074 A 
ATOM     57  C   UNL A   1      44.256  27.403  33.651  1.00  0.00     0.031 C 
ATOM     58  C   UNL A   1      44.979  25.550  32.013  1.00  0.00     0.037 A 
BRANCH  45  59
ATOM     59  C   UNL A   1      43.117  22.523  27.054  1.00  0.00     0.064 A 
ATOM     60  C   UNL A   1      42.361  21.349  27.259  1.00  0.00     0.173 A 
ATOM     61  C   UNL A   1      44.037  22.448  25.991  1.00  0.00     0.173 A 
ATOM     62  F   UNL A   1      41.356  21.308  28.143  1.00  0.00    -0.203 F 
ATOM     63  C   UNL A   1      42.611  20.164  26.562  1.00  0.00     0.198 A 
ATOM     64  C   UNL A   1      44.336  21.248  25.339  1.00  0.00     0.198 A 
ATOM     65  F   UNL A   1      44.630  23.546  25.506  1.00  0.00    -0.203 F 
ATOM     66  F   UNL A   1      41.864  19.079  26.807  1.00  0.00    -0.200 F 
ATOM     67  C   UNL A   1      43.632  20.099  25.636  1.00  0.00     0.200 A 
ATOM     68  F   UNL A   1      45.311  21.215  24.419  1.00  0.00    -0.200 F 
ATOM     69  F   UNL A   1      43.913  18.949  25.012  1.00  0.00    -0.200 F 
ENDBRANCH  45  59
BRANCH  46  70
ATOM     70  C   UNL A   1      42.030  30.836  31.956  1.00  0.00     0.064 A 
ATOM     71  C   UNL A   1      40.945  30.170  32.559  1.00  0.00     0.173 A 
ATOM     72  C   UNL A   1      42.262  32.168  32.315  1.00  0.00     0.173 A 
ATOM     73  F   UNL A   1      40.668  28.898  32.226  1.00  0.00    -0.203 F 
ATOM     74  C   UNL A   1      40.257  30.744  33.622  1.00  0.00     0.198 A 
ATOM     75  C   UNL A   1      41.539  32.753  33.352  1.00  0.00     0.198 A 
ATOM     76  F   UNL A   1      43.275  32.854  31.768  1.00  0.00    -0.203 F 
ATOM     77  F   UNL A   1      39.358  30.020  34.304  1.00  0.00    -0.200 F 
ATOM     78  C   UNL A   1      40.583  32.021  34.043  1.00  0.00     0.200 A 
ATOM     79  F   UNL A   1      41.846  33.995  33.753  1.00  0.00    -0.200 F 
ATOM     80  F   UNL A   1      40.017  32.524  35.149  1.00  0.00    -0.200 F 
ENDBRANCH  46  70
BRANCH  58  81
ATOM     81  C   UNL A   1      45.406  24.505  33.011  1.00  0.00     0.064 A 
ATOM     82  C   UNL A   1      46.674  24.513  33.616  1.00  0.00     0.173 A 
ATOM     83  C   UNL A   1      44.589  23.396  33.324  1.00  0.00     0.173 A 
ATOM     84  F   UNL A   1      47.583  25.448  33.301  1.00  0.00    -0.203 F 
ATOM     85  C   UNL A   1      47.056  23.545  34.548  1.00  0.00     0.198 A 
ATOM     86  C   UNL A   1      44.994  22.399  34.211  1.00  0.00     0.198 A 
ATOM     87  F   UNL A   1      43.364  23.254  32.801  1.00  0.00    -0.203 F 
ATOM     88  F   UNL A   1      48.246  23.642  35.157  1.00  0.00    -0.200 F 
ATOM     89  C   UNL A   1      46.217  22.487  34.842  1.00  0.00     0.200 A 
ATOM     90  F   UNL A   1      44.185  21.359  34.455  1.00  0.00    -0.200 F 
ATOM     91  F   UNL A   1      46.588  21.552  35.728  1.00  0.00    -0.200 F 
ENDBRANCH  58  81
ENDBRANCH  32  33
ENDBRANCH  24  27
ENDBRANCH  22  23
ENDBRANCH   1  22
TORSDOF 12
ENDMDL
MODEL 3
REMARK VINA RESULT:     -13.7      3.758     10.197
REMARK SMILES Cc1c(NC(=O)C(F)(F)F)cccc1C(=O)NCCCNC(=O)c1ccc(-c2c3nc(c(-c4c(F)c(F)c(F)c(F)c4F)c4ccc([nH]4)c(-c4c(F)c(F)c(F)c(F)c4F)c4nc(c(-c5c(F)c(F)c(F)c(F)c5F)c5ccc2[nH]5)C=C4)C=C3)cc1
REMARK SMILES IDX 19 1 18 2 17 3 15 4 16 5 14 7 1 8 2 9 3 10 11 11 13 12 12 13
REMARK SMILES IDX 4 14 5 15 6 17 7 18 8 19 9 20 10 21 20 22 21 23 22 24 23 26
REMARK SMILES IDX 24 27 25 28 86 29 26 30 85 31 27 32 28 33 29 34 79 35 30 36
REMARK SMILES IDX 84 37 78 38 80 39 31 40 83 41 77 42 76 43 32 45 64 46 44 47
REMARK SMILES IDX 63 48 45 49 48 50 62 51 81 52 46 53 47 54 61 56 82 57 49 58
REMARK SMILES IDX 33 59 34 60 42 61 35 62 36 63 40 64 43 65 37 66 38 67 41 68
REMARK SMILES IDX 39 69 65 70 66 71 74 72 67 73 68 74 72 75 75 76 69 77 70 78
REMARK SMILES IDX 73 79 71 80 50 81 51 82 59 83 52 84 53 85 57 86 60 87 54 88
REMARK SMILES IDX 55 89 58 90 56 91
REMARK H PARENT 17 6 4 16 21 25 80 44 48 55
REMARK Flexibility Score: inf
ROOT
ATOM      1  C   UNL A   1      38.874  21.496  25.659  1.00  0.00     0.042 C 
ENDROOT
BRANCH   1   2
ATOM      2  C   UNL A   1      37.465  21.486  25.056  1.00  0.00     0.118 C 
BRANCH   2   3
ATOM      3  N   UNL A   1      36.447  21.496  26.097  1.00  0.00    -0.352 N 
ATOM      4  C   UNL A   1      35.086  21.686  26.112  1.00  0.00     0.251 C 
ATOM      5  O   UNL A   1      34.547  21.611  27.220  1.00  0.00    -0.269 OA
ATOM      6  H   UNL A   1      36.818  21.328  26.994  1.00  0.00     0.163 HD
BRANCH   4   7
ATOM      7  C   UNL A   1      34.207  21.879  24.911  1.00  0.00     0.044 A 
ATOM      8  C   UNL A   1      34.623  24.360  24.521  1.00  0.00     0.047 C 
ATOM      9  C   UNL A   1      34.081  23.026  24.100  1.00  0.00    -0.015 A 
ATOM     10  C   UNL A   1      33.277  22.998  22.925  1.00  0.00     0.045 A 
ATOM     11  C   UNL A   1      32.416  21.926  22.717  1.00  0.00     0.026 A 
ATOM     12  C   UNL A   1      33.327  20.811  24.659  1.00  0.00     0.014 A 
ATOM     13  C   UNL A   1      32.413  20.853  23.606  1.00  0.00     0.003 A 
BRANCH  10  14
ATOM     14  N   UNL A   1      33.466  24.048  22.003  1.00  0.00    -0.318 N 
ATOM     15  C   UNL A   1      32.773  25.179  21.663  1.00  0.00     0.330 C 
ATOM     16  H   UNL A   1      34.292  23.943  21.477  1.00  0.00     0.170 HD
ATOM     17  O   UNL A   1      33.189  25.769  20.654  1.00  0.00    -0.264 OA
BRANCH  15  18
ATOM     18  C   UNL A   1      31.600  25.715  22.488  1.00  0.00     0.471 C 
ATOM     19  F   UNL A   1      30.646  24.770  22.715  1.00  0.00    -0.162 F 
ATOM     20  F   UNL A   1      31.982  26.189  23.706  1.00  0.00    -0.162 F 
ATOM     21  F   UNL A   1      30.962  26.750  21.870  1.00  0.00    -0.162 F 
ENDBRANCH  15  18
ENDBRANCH  10  14
ENDBRANCH   4   7
ENDBRANCH   2   3
ENDBRANCH   1   2
BRANCH   1  22
ATOM     22  C   UNL A   1      39.259  22.727  26.459  1.00  0.00     0.118 C 
BRANCH  22  23
ATOM     23  N   UNL A   1      40.689  23.035  26.359  1.00  0.00    -0.352 N 
ATOM     24  C   UNL A   1      41.317  24.272  26.414  1.00  0.00     0.251 C 
ATOM     25  H   UNL A   1      41.284  22.260  26.236  1.00  0.00     0.163 HD
ATOM     26  O   UNL A   1      42.524  24.384  26.401  1.00  0.00    -0.269 OA
BRANCH  24  27
ATOM     27  C   UNL A   1      40.442  25.445  26.619  1.00  0.00     0.039 A 
ATOM     28  C   UNL A   1      40.925  26.667  26.146  1.00  0.00     0.014 A 
ATOM     29  C   UNL A   1      39.472  25.380  27.615  1.00  0.00     0.014 A 
ATOM     30  C   UNL A   1      40.655  27.816  26.877  1.00  0.00     0.010 A 
ATOM     31  C   UNL A   1      39.281  26.506  28.393  1.00  0.00     0.010 A 
ATOM     32  C   UNL A   1      39.942  27.700  28.071  1.00  0.00    -0.014 A 
BRANCH  32  33
ATOM     33  C   UNL A   1      39.907  28.766  29.065  1.00  0.00     0.031 A 
ATOM     34  C   UNL A   1      38.878  29.816  28.956  1.00  0.00     0.074 A 
ATOM     35  C   UNL A   1      40.802  28.824  30.078  1.00  0.00     0.049 A 
ATOM     36  N   UNL A   1      39.032  31.024  29.382  1.00  0.00    -0.248 NA
ATOM     37  C   UNL A   1      37.599  29.590  28.299  1.00  0.00     0.031 C 
ATOM     38  C   UNL A   1      40.766  29.728  31.226  1.00  0.00     0.029 A 
ATOM     39  N   UNL A   1      42.060  28.205  30.168  1.00  0.00    -0.354 N 
ATOM     40  C   UNL A   1      37.816  31.657  29.294  1.00  0.00     0.074 A 
ATOM     41  C   UNL A   1      36.972  30.740  28.560  1.00  0.00     0.031 C 
ATOM     42  C   UNL A   1      42.009  29.866  31.709  1.00  0.00     0.029 A 
ATOM     43  C   UNL A   1      42.901  29.137  30.830  1.00  0.00     0.049 A 
ATOM     44  H   UNL A   1      42.307  27.310  29.838  1.00  0.00     0.167 HD
ATOM     45  C   UNL A   1      37.627  32.838  29.951  1.00  0.00     0.037 A 
ATOM     46  C   UNL A   1      44.018  29.639  30.229  1.00  0.00     0.037 A 
ATOM     47  C   UNL A   1      38.848  33.285  30.624  1.00  0.00     0.049 A 
ATOM     48  C   UNL A   1      43.987  31.133  29.998  1.00  0.00     0.074 A 
ATOM     49  C   UNL A   1      39.313  33.221  31.928  1.00  0.00     0.029 A 
ATOM     50  N   UNL A   1      39.939  33.649  29.854  1.00  0.00    -0.354 N 
ATOM     51  N   UNL A   1      43.016  31.921  30.367  1.00  0.00    -0.248 NA
ATOM     52  C   UNL A   1      45.005  31.832  29.212  1.00  0.00     0.031 C 
ATOM     53  C   UNL A   1      40.694  33.573  31.929  1.00  0.00     0.029 A 
ATOM     54  C   UNL A   1      41.068  33.849  30.628  1.00  0.00     0.049 A 
ATOM     55  H   UNL A   1      39.915  33.754  28.876  1.00  0.00     0.167 HD
ATOM     56  C   UNL A   1      43.217  33.166  29.832  1.00  0.00     0.074 A 
ATOM     57  C   UNL A   1      44.472  33.059  29.112  1.00  0.00     0.031 C 
ATOM     58  C   UNL A   1      42.319  34.186  29.970  1.00  0.00     0.037 A 
BRANCH  45  59
ATOM     59  C   UNL A   1      36.266  33.451  30.188  1.00  0.00     0.064 A 
ATOM     60  C   UNL A   1      35.523  33.996  29.119  1.00  0.00     0.173 A 
ATOM     61  C   UNL A   1      35.659  33.583  31.451  1.00  0.00     0.173 A 
ATOM     62  F   UNL A   1      35.904  33.832  27.846  1.00  0.00    -0.203 F 
ATOM     63  C   UNL A   1      34.354  34.735  29.318  1.00  0.00     0.198 A 
ATOM     64  C   UNL A   1      34.528  34.379  31.661  1.00  0.00     0.198 A 
ATOM     65  F   UNL A   1      36.102  32.896  32.511  1.00  0.00    -0.203 F 
ATOM     66  F   UNL A   1      33.696  35.234  28.263  1.00  0.00    -0.200 F 
ATOM     67  C   UNL A   1      33.883  34.969  30.594  1.00  0.00     0.200 A 
ATOM     68  F   UNL A   1      34.068  34.566  32.907  1.00  0.00    -0.200 F 
ATOM     69  F   UNL A   1      32.798  35.727  30.790  1.00  0.00    -0.200 F 
ENDBRANCH  45  59
BRANCH  46  70
ATOM     70  C   UNL A   1      44.660  28.640  29.336  1.00  0.00     0.064 A 
ATOM     71  C   UNL A   1      45.370  27.588  29.948  1.00  0.00     0.173 A 
ATOM     72  C   UNL A   1      44.212  28.451  28.025  1.00  0.00     0.173 A 
ATOM     73  F   UNL A   1      45.842  27.733  31.198  1.00  0.00    -0.203 F 
ATOM     74  C   UNL A   1      45.445  26.334  29.351  1.00  0.00     0.198 A 
ATOM     75  C   UNL A   1      44.329  27.205  27.414  1.00  0.00     0.198 A 
ATOM     76  F   UNL A   1      43.537  29.420  27.390  1.00  0.00    -0.203 F 
ATOM     77  F   UNL A   1      45.956  25.300  30.031  1.00  0.00    -0.200 F 
ATOM     78  C   UNL A   1      44.887  26.135  28.099  1.00  0.00     0.200 A 
ATOM     79  F   UNL A   1      43.800  27.014  26.197  1.00  0.00    -0.200 F 
ATOM     80  F   UNL A   1      44.838  24.901  27.580  1.00  0.00    -0.200 F 
ENDBRANCH  46  70
BRANCH  58  81
ATOM     81  C   UNL A   1      42.558  35.580  29.447  1.00  0.00     0.064 A 
ATOM     82  C   UNL A   1      43.323  36.528  30.149  1.00  0.00     0.173 A 
ATOM     83  C   UNL A   1      41.942  36.048  28.266  1.00  0.00     0.173 A 
ATOM     84  F   UNL A   1      43.855  36.236  31.345  1.00  0.00    -0.203 F 
ATOM     85  C   UNL A   1      43.546  37.813  29.651  1.00  0.00     0.198 A 
ATOM     86  C   UNL A   1      42.119  37.350  27.800  1.00  0.00     0.198 A 
ATOM     87  F   UNL A   1      41.169  35.255  27.513  1.00  0.00    -0.203 F 
ATOM     88  F   UNL A   1      44.350  38.654  30.317  1.00  0.00    -0.200 F 
ATOM     89  C   UNL A   1      42.941  38.225  28.478  1.00  0.00     0.200 A 
ATOM     90  F   UNL A   1      41.492  37.746  26.683  1.00  0.00    -0.200 F 
ATOM     91  F   UNL A   1      43.146  39.462  28.006  1.00  0.00    -0.200 F 
ENDBRANCH  58  81
ENDBRANCH  32  33
ENDBRANCH  24  27
ENDBRANCH  22  23
ENDBRANCH   1  22
TORSDOF 12
ENDMDL
