MODEL 1
REMARK VINA RESULT:     -12.9      0.000      0.000
REMARK SMILES COc1ccc(-c2cccc(C(=O)NCC(=O)NCCCNC(=O)c3ccc(-c4c5nc(c(-c6c(F)c(F)c(F)c(F)c6F)c6ccc([nH]6)c(-c6c(F)c(F)c(F)c(F)c6F)c6nc(c(-c7c(F)c(F)c(F)c(F)c7F)c7ccc4[nH]7)C=C6)C=C5)cc3)c2)cc1
REMARK SMILES IDX 19 1 18 2 16 3 17 4 15 6 14 7 12 8 13 9 11 11 7 12 8 13
REMARK SMILES IDX 88 14 9 15 10 16 6 17 3 18 4 19 90 20 5 21 89 22 2 23 1 24
REMARK SMILES IDX 20 25 21 26 22 27 23 28 24 30 25 31 26 32 87 33 27 34 86 35
REMARK SMILES IDX 28 36 29 37 30 38 80 39 31 40 85 41 79 42 81 43 32 44 84 45
REMARK SMILES IDX 78 46 77 47 33 49 65 50 45 51 64 52 46 53 49 54 63 55 82 56
REMARK SMILES IDX 47 57 48 58 62 60 83 61 50 62 34 63 35 64 43 65 36 66 37 67
REMARK SMILES IDX 41 68 44 69 38 70 39 71 42 72 40 73 66 74 67 75 75 76 68 77
REMARK SMILES IDX 69 78 73 79 76 80 70 81 71 82 74 83 72 84 51 85 52 86 60 87
REMARK SMILES IDX 53 88 54 89 58 90 61 91 55 92 56 93 59 94 57 95
REMARK H PARENT 18 5 14 10 22 29 81 48 49 59
REMARK Flexibility Score: inf
ROOT
ATOM      1  C   UNL A   1      31.787  30.776  26.034  1.00  0.00     0.117 C 
ENDROOT
BRANCH   1   2
ATOM      2  N   UNL A   1      31.443  29.697  26.932  1.00  0.00    -0.355 N 
ATOM      3  C   UNL A   1      32.191  28.645  27.357  1.00  0.00     0.239 C 
ATOM      4  O   UNL A   1      31.667  27.871  28.164  1.00  0.00    -0.273 OA
ATOM      5  H   UNL A   1      30.526  29.728  27.290  1.00  0.00     0.163 HD
BRANCH   3   6
ATOM      6  C   UNL A   1      33.686  28.530  27.029  1.00  0.00     0.216 C 
BRANCH   6   7
ATOM      7  N   UNL A   1      34.170  27.351  26.310  1.00  0.00    -0.343 N 
ATOM      8  C   UNL A   1      33.655  26.426  25.436  1.00  0.00     0.251 C 
ATOM      9  O   UNL A   1      34.453  25.602  24.980  1.00  0.00    -0.269 OA
ATOM     10  H   UNL A   1      35.118  27.174  26.506  1.00  0.00     0.164 HD
BRANCH   8  11
ATOM     11  C   UNL A   1      32.212  26.275  25.082  1.00  0.00     0.040 A 
ATOM     12  C   UNL A   1      30.140  27.059  24.034  1.00  0.00    -0.018 A 
ATOM     13  C   UNL A   1      29.418  26.130  24.792  1.00  0.00     0.009 A 
ATOM     14  C   UNL A   1      31.544  27.055  24.142  1.00  0.00     0.022 A 
ATOM     15  C   UNL A   1      30.077  25.250  25.650  1.00  0.00     0.001 A 
ATOM     16  C   UNL A   1      31.462  25.339  25.810  1.00  0.00     0.014 A 
BRANCH  12  17
ATOM     17  C   UNL A   1      29.483  28.091  23.213  1.00  0.00    -0.018 A 
ATOM     18  C   UNL A   1      28.238  30.211  21.823  1.00  0.00     0.118 A 
ATOM     19  C   UNL A   1      27.473  29.313  22.562  1.00  0.00     0.047 A 
ATOM     20  C   UNL A   1      29.623  30.073  21.791  1.00  0.00     0.047 A 
ATOM     21  C   UNL A   1      28.087  28.257  23.243  1.00  0.00     0.012 A 
ATOM     22  C   UNL A   1      30.235  29.016  22.471  1.00  0.00     0.012 A 
BRANCH  18  23
ATOM     23  O   UNL A   1      27.556  31.224  21.208  1.00  0.00    -0.497 OA
ATOM     24  C   UNL A   1      28.179  32.499  21.342  1.00  0.00     0.278 C 
ENDBRANCH  18  23
ENDBRANCH  12  17
ENDBRANCH   8  11
ENDBRANCH   6   7
ENDBRANCH   3   6
ENDBRANCH   1   2
BRANCH   1  25
ATOM     25  C   UNL A   1      31.443  32.132  26.634  1.00  0.00     0.042 C 
BRANCH  25  26
ATOM     26  C   UNL A   1      32.626  32.779  27.347  1.00  0.00     0.118 C 
BRANCH  26  27
ATOM     27  N   UNL A   1      32.393  34.185  27.656  1.00  0.00    -0.352 N 
ATOM     28  C   UNL A   1      32.988  34.989  28.598  1.00  0.00     0.251 C 
ATOM     29  H   UNL A   1      31.705  34.624  27.107  1.00  0.00     0.163 HD
ATOM     30  O   UNL A   1      32.534  36.101  28.830  1.00  0.00    -0.269 OA
BRANCH  28  31
ATOM     31  C   UNL A   1      34.163  34.498  29.347  1.00  0.00     0.039 A 
ATOM     32  C   UNL A   1      33.965  33.909  30.598  1.00  0.00     0.014 A 
ATOM     33  C   UNL A   1      35.451  34.616  28.821  1.00  0.00     0.014 A 
ATOM     34  C   UNL A   1      35.052  33.373  31.289  1.00  0.00     0.010 A 
ATOM     35  C   UNL A   1      36.521  34.008  29.470  1.00  0.00     0.010 A 
ATOM     36  C   UNL A   1      36.332  33.379  30.710  1.00  0.00    -0.014 A 
BRANCH  36  37
ATOM     37  C   UNL A   1      37.483  32.723  31.378  1.00  0.00     0.031 A 
ATOM     38  C   UNL A   1      38.188  31.573  30.714  1.00  0.00     0.074 A 
ATOM     39  C   UNL A   1      37.848  33.119  32.613  1.00  0.00     0.049 A 
ATOM     40  N   UNL A   1      39.158  30.820  31.171  1.00  0.00    -0.248 NA
ATOM     41  C   UNL A   1      37.724  31.202  29.368  1.00  0.00     0.031 C 
ATOM     42  C   UNL A   1      37.215  34.195  33.377  1.00  0.00     0.029 A 
ATOM     43  N   UNL A   1      38.833  32.654  33.448  1.00  0.00    -0.354 N 
ATOM     44  C   UNL A   1      39.410  29.886  30.177  1.00  0.00     0.074 A 
ATOM     45  C   UNL A   1      38.455  30.126  29.117  1.00  0.00     0.031 C 
ATOM     46  C   UNL A   1      37.842  34.324  34.557  1.00  0.00     0.029 A 
ATOM     47  C   UNL A   1      38.888  33.312  34.653  1.00  0.00     0.049 A 
ATOM     48  H   UNL A   1      39.443  31.920  33.207  1.00  0.00     0.167 HD
ATOM     49  C   UNL A   1      40.369  28.929  30.141  1.00  0.00     0.037 A 
ATOM     50  C   UNL A   1      39.685  33.112  35.721  1.00  0.00     0.037 A 
ATOM     51  C   UNL A   1      41.325  28.704  31.193  1.00  0.00     0.049 A 
ATOM     52  C   UNL A   1      40.719  32.020  35.667  1.00  0.00     0.074 A 
ATOM     53  C   UNL A   1      42.366  27.793  31.232  1.00  0.00     0.029 A 
ATOM     54  N   UNL A   1      41.352  29.392  32.398  1.00  0.00    -0.354 N 
ATOM     55  N   UNL A   1      40.994  31.185  34.695  1.00  0.00    -0.248 NA
ATOM     56  C   UNL A   1      41.557  31.844  36.862  1.00  0.00     0.031 C 
ATOM     57  C   UNL A   1      42.987  27.891  32.481  1.00  0.00     0.029 A 
ATOM     58  C   UNL A   1      42.374  28.906  33.197  1.00  0.00     0.049 A 
ATOM     59  H   UNL A   1      40.734  30.118  32.647  1.00  0.00     0.167 HD
ATOM     60  C   UNL A   1      42.053  30.409  35.145  1.00  0.00     0.074 A 
ATOM     61  C   UNL A   1      42.382  30.883  36.473  1.00  0.00     0.031 C 
ATOM     62  C   UNL A   1      42.696  29.395  34.514  1.00  0.00     0.037 A 
BRANCH  49  63
ATOM     63  C   UNL A   1      40.431  28.053  28.922  1.00  0.00     0.064 A 
ATOM     64  C   UNL A   1      39.723  26.842  28.847  1.00  0.00     0.173 A 
ATOM     65  C   UNL A   1      41.175  28.446  27.799  1.00  0.00     0.173 A 
ATOM     66  F   UNL A   1      39.004  26.416  29.896  1.00  0.00    -0.203 F 
ATOM     67  C   UNL A   1      39.785  26.045  27.707  1.00  0.00     0.198 A 
ATOM     68  C   UNL A   1      41.206  27.661  26.649  1.00  0.00     0.198 A 
ATOM     69  F   UNL A   1      41.865  29.595  27.813  1.00  0.00    -0.203 F 
ATOM     70  F   UNL A   1      39.143  24.868  27.680  1.00  0.00    -0.200 F 
ATOM     71  C   UNL A   1      40.519  26.459  26.607  1.00  0.00     0.200 A 
ATOM     72  F   UNL A   1      41.903  28.071  25.579  1.00  0.00    -0.200 F 
ATOM     73  F   UNL A   1      40.570  25.694  25.507  1.00  0.00    -0.200 F 
ENDBRANCH  49  63
BRANCH  50  74
ATOM     74  C   UNL A   1      39.549  33.975  36.924  1.00  0.00     0.064 A 
ATOM     75  C   UNL A   1      38.784  33.561  38.023  1.00  0.00     0.173 A 
ATOM     76  C   UNL A   1      40.170  35.231  36.997  1.00  0.00     0.173 A 
ATOM     77  F   UNL A   1      38.155  32.377  37.993  1.00  0.00    -0.203 F 
ATOM     78  C   UNL A   1      38.625  34.380  39.139  1.00  0.00     0.198 A 
ATOM     79  C   UNL A   1      40.036  36.035  38.128  1.00  0.00     0.198 A 
ATOM     80  F   UNL A   1      40.917  35.673  35.975  1.00  0.00    -0.203 F 
ATOM     81  F   UNL A   1      37.845  33.981  40.154  1.00  0.00    -0.200 F 
ATOM     82  C   UNL A   1      39.255  35.614  39.193  1.00  0.00     0.200 A 
ATOM     83  F   UNL A   1      40.660  37.220  38.182  1.00  0.00    -0.200 F 
ATOM     84  F   UNL A   1      39.104  36.400  40.267  1.00  0.00    -0.200 F 
ENDBRANCH  50  74
BRANCH  62  85
ATOM     85  C   UNL A   1      43.849  28.754  35.233  1.00  0.00     0.064 A 
ATOM     86  C   UNL A   1      45.163  29.224  35.090  1.00  0.00     0.173 A 
ATOM     87  C   UNL A   1      43.627  27.683  36.113  1.00  0.00     0.173 A 
ATOM     88  F   UNL A   1      45.431  30.235  34.251  1.00  0.00    -0.203 F 
ATOM     89  C   UNL A   1      46.215  28.629  35.782  1.00  0.00     0.198 A 
ATOM     90  C   UNL A   1      44.676  27.114  36.829  1.00  0.00     0.198 A 
ATOM     91  F   UNL A   1      42.389  27.199  36.291  1.00  0.00    -0.203 F 
ATOM     92  F   UNL A   1      47.469  29.063  35.592  1.00  0.00    -0.200 F 
ATOM     93  C   UNL A   1      45.969  27.582  36.657  1.00  0.00     0.200 A 
ATOM     94  F   UNL A   1      44.434  26.113  37.687  1.00  0.00    -0.200 F 
ATOM     95  F   UNL A   1      46.982  27.018  37.331  1.00  0.00    -0.200 F 
ENDBRANCH  62  85
ENDBRANCH  36  37
ENDBRANCH  28  31
ENDBRANCH  26  27
ENDBRANCH  25  26
ENDBRANCH   1  25
TORSDOF 14
ENDMDL
MODEL 2
REMARK VINA RESULT:     -12.8      2.314      4.415
REMARK SMILES COc1ccc(-c2cccc(C(=O)NCC(=O)NCCCNC(=O)c3ccc(-c4c5nc(c(-c6c(F)c(F)c(F)c(F)c6F)c6ccc([nH]6)c(-c6c(F)c(F)c(F)c(F)c6F)c6nc(c(-c7c(F)c(F)c(F)c(F)c7F)c7ccc4[nH]7)C=C6)C=C5)cc3)c2)cc1
REMARK SMILES IDX 19 1 18 2 16 3 17 4 15 6 14 7 12 8 13 9 11 11 7 12 8 13
REMARK SMILES IDX 88 14 9 15 10 16 6 17 3 18 4 19 90 20 5 21 89 22 2 23 1 24
REMARK SMILES IDX 20 25 21 26 22 27 23 28 24 30 25 31 26 32 87 33 27 34 86 35
REMARK SMILES IDX 28 36 29 37 30 38 80 39 31 40 85 41 79 42 81 43 32 44 84 45
REMARK SMILES IDX 78 46 77 47 33 49 65 50 45 51 64 52 46 53 49 54 63 55 82 56
REMARK SMILES IDX 47 57 48 58 62 60 83 61 50 62 34 63 35 64 43 65 36 66 37 67
REMARK SMILES IDX 41 68 44 69 38 70 39 71 42 72 40 73 66 74 67 75 75 76 68 77
REMARK SMILES IDX 69 78 73 79 76 80 70 81 71 82 74 83 72 84 51 85 52 86 60 87
REMARK SMILES IDX 53 88 54 89 58 90 61 91 55 92 56 93 59 94 57 95
REMARK H PARENT 18 5 14 10 22 29 81 48 49 59
REMARK Flexibility Score: inf
ROOT
ATOM      1  C   UNL A   1      31.765  30.604  26.136  1.00  0.00     0.117 C 
ENDROOT
BRANCH   1   2
ATOM      2  N   UNL A   1      31.048  30.244  24.934  1.00  0.00    -0.355 N 
ATOM      3  C   UNL A   1      31.136  29.124  24.170  1.00  0.00     0.239 C 
ATOM      4  O   UNL A   1      30.376  29.043  23.199  1.00  0.00    -0.273 OA
ATOM      5  H   UNL A   1      30.395  30.912  24.622  1.00  0.00     0.163 HD
BRANCH   3   6
ATOM      6  C   UNL A   1      31.980  27.916  24.598  1.00  0.00     0.216 C 
BRANCH   6   7
ATOM      7  N   UNL A   1      31.405  26.933  25.516  1.00  0.00    -0.343 N 
ATOM      8  C   UNL A   1      31.733  25.686  25.987  1.00  0.00     0.251 C 
ATOM      9  O   UNL A   1      30.989  25.215  26.851  1.00  0.00    -0.269 OA
ATOM     10  H   UNL A   1      30.556  27.251  25.899  1.00  0.00     0.164 HD
BRANCH   8  11
ATOM     11  C   UNL A   1      32.839  24.827  25.469  1.00  0.00     0.040 A 
ATOM     12  C   UNL A   1      33.760  22.672  24.749  1.00  0.00    -0.018 A 
ATOM     13  C   UNL A   1      35.052  23.192  24.881  1.00  0.00     0.009 A 
ATOM     14  C   UNL A   1      32.671  23.536  24.974  1.00  0.00     0.022 A 
ATOM     15  C   UNL A   1      35.246  24.522  25.255  1.00  0.00     0.001 A 
ATOM     16  C   UNL A   1      34.147  25.326  25.569  1.00  0.00     0.014 A 
BRANCH  12  17
ATOM     17  C   UNL A   1      33.505  21.246  24.481  1.00  0.00    -0.018 A 
ATOM     18  C   UNL A   1      33.149  18.535  23.775  1.00  0.00     0.118 A 
ATOM     19  C   UNL A   1      32.266  19.503  23.306  1.00  0.00     0.047 A 
ATOM     20  C   UNL A   1      34.224  18.912  24.576  1.00  0.00     0.047 A 
ATOM     21  C   UNL A   1      32.435  20.844  23.662  1.00  0.00     0.012 A 
ATOM     22  C   UNL A   1      34.391  20.253  24.933  1.00  0.00     0.012 A 
BRANCH  18  23
ATOM     23  O   UNL A   1      32.919  17.253  23.359  1.00  0.00    -0.497 OA
ATOM     24  C   UNL A   1      33.589  16.267  24.139  1.00  0.00     0.278 C 
ENDBRANCH  18  23
ENDBRANCH  12  17
ENDBRANCH   8  11
ENDBRANCH   6   7
ENDBRANCH   3   6
ENDBRANCH   1   2
BRANCH   1  25
ATOM     25  C   UNL A   1      31.472  32.038  26.553  1.00  0.00     0.042 C 
BRANCH  25  26
ATOM     26  C   UNL A   1      32.648  32.698  27.265  1.00  0.00     0.118 C 
BRANCH  26  27
ATOM     27  N   UNL A   1      32.392  34.094  27.596  1.00  0.00    -0.352 N 
ATOM     28  C   UNL A   1      32.975  34.894  28.548  1.00  0.00     0.251 C 
ATOM     29  H   UNL A   1      31.695  34.530  27.055  1.00  0.00     0.163 HD
ATOM     30  O   UNL A   1      32.502  35.995  28.798  1.00  0.00    -0.269 OA
BRANCH  28  31
ATOM     31  C   UNL A   1      34.160  34.414  29.287  1.00  0.00     0.039 A 
ATOM     32  C   UNL A   1      33.972  33.754  30.505  1.00  0.00     0.014 A 
ATOM     33  C   UNL A   1      35.449  34.609  28.786  1.00  0.00     0.014 A 
ATOM     34  C   UNL A   1      35.072  33.227  31.182  1.00  0.00     0.010 A 
ATOM     35  C   UNL A   1      36.535  34.013  29.418  1.00  0.00     0.010 A 
ATOM     36  C   UNL A   1      36.357  33.314  30.621  1.00  0.00    -0.014 A 
BRANCH  36  37
ATOM     37  C   UNL A   1      37.527  32.670  31.270  1.00  0.00     0.031 A 
ATOM     38  C   UNL A   1      38.229  31.524  30.599  1.00  0.00     0.074 A 
ATOM     39  C   UNL A   1      37.911  33.076  32.496  1.00  0.00     0.049 A 
ATOM     40  N   UNL A   1      39.214  30.782  31.041  1.00  0.00    -0.248 NA
ATOM     41  C   UNL A   1      37.743  31.143  29.264  1.00  0.00     0.031 C 
ATOM     42  C   UNL A   1      37.282  34.149  33.267  1.00  0.00     0.029 A 
ATOM     43  N   UNL A   1      38.915  32.624  33.316  1.00  0.00    -0.354 N 
ATOM     44  C   UNL A   1      39.455  29.845  30.046  1.00  0.00     0.074 A 
ATOM     45  C   UNL A   1      38.479  30.072  29.004  1.00  0.00     0.031 C 
ATOM     46  C   UNL A   1      37.930  34.290  34.435  1.00  0.00     0.029 A 
ATOM     47  C   UNL A   1      38.986  33.287  34.516  1.00  0.00     0.049 A 
ATOM     48  H   UNL A   1      39.527  31.893  33.066  1.00  0.00     0.167 HD
ATOM     49  C   UNL A   1      40.422  28.897  29.997  1.00  0.00     0.037 A 
ATOM     50  C   UNL A   1      39.805  33.100  35.570  1.00  0.00     0.037 A 
ATOM     51  C   UNL A   1      41.399  28.685  31.032  1.00  0.00     0.049 A 
ATOM     52  C   UNL A   1      40.847  32.016  35.502  1.00  0.00     0.074 A 
ATOM     53  C   UNL A   1      42.450  27.784  31.055  1.00  0.00     0.029 A 
ATOM     54  N   UNL A   1      41.443  29.379  32.233  1.00  0.00    -0.354 N 
ATOM     55  N   UNL A   1      41.112  31.179  34.528  1.00  0.00    -0.248 NA
ATOM     56  C   UNL A   1      41.709  31.853  36.681  1.00  0.00     0.031 C 
ATOM     57  C   UNL A   1      43.092  27.893  32.292  1.00  0.00     0.029 A 
ATOM     58  C   UNL A   1      42.484  28.906  33.015  1.00  0.00     0.049 A 
ATOM     59  H   UNL A   1      40.824  30.101  32.490  1.00  0.00     0.167 HD
ATOM     60  C   UNL A   1      42.186  30.414  34.962  1.00  0.00     0.074 A 
ATOM     61  C   UNL A   1      42.536  30.898  36.281  1.00  0.00     0.031 C 
ATOM     62  C   UNL A   1      42.826  29.404  34.323  1.00  0.00     0.037 A 
BRANCH  49  63
ATOM     63  C   UNL A   1      40.469  28.016  28.781  1.00  0.00     0.064 A 
ATOM     64  C   UNL A   1      41.228  28.359  27.650  1.00  0.00     0.173 A 
ATOM     65  C   UNL A   1      39.780  26.794  28.759  1.00  0.00     0.173 A 
ATOM     66  F   UNL A   1      41.898  29.520  27.615  1.00  0.00    -0.203 F 
ATOM     67  C   UNL A   1      41.268  27.528  26.534  1.00  0.00     0.198 A 
ATOM     68  C   UNL A   1      39.850  25.950  27.653  1.00  0.00     0.198 A 
ATOM     69  F   UNL A   1      39.045  26.412  29.814  1.00  0.00    -0.203 F 
ATOM     70  F   UNL A   1      41.956  27.903  25.446  1.00  0.00    -0.200 F 
ATOM     71  C   UNL A   1      40.586  26.321  26.539  1.00  0.00     0.200 A 
ATOM     72  F   UNL A   1      39.204  24.775  27.666  1.00  0.00    -0.200 F 
ATOM     73  F   UNL A   1      40.634  25.518  25.467  1.00  0.00    -0.200 F 
ENDBRANCH  49  63
BRANCH  50  74
ATOM     74  C   UNL A   1      39.684  33.966  36.771  1.00  0.00     0.064 A 
ATOM     75  C   UNL A   1      40.356  35.194  36.842  1.00  0.00     0.173 A 
ATOM     76  C   UNL A   1      38.907  33.584  37.875  1.00  0.00     0.173 A 
ATOM     77  F   UNL A   1      41.128  35.595  35.822  1.00  0.00    -0.203 F 
ATOM     78  C   UNL A   1      40.276  35.995  37.980  1.00  0.00     0.198 A 
ATOM     79  C   UNL A   1      38.801  34.401  38.999  1.00  0.00     0.198 A 
ATOM     80  F   UNL A   1      38.240  32.421  37.856  1.00  0.00    -0.203 F 
ATOM     81  F   UNL A   1      40.971  37.139  38.042  1.00  0.00    -0.200 F 
ATOM     82  C   UNL A   1      39.494  35.601  39.055  1.00  0.00     0.200 A 
ATOM     83  F   UNL A   1      38.032  34.023  40.029  1.00  0.00    -0.200 F 
ATOM     84  F   UNL A   1      39.415  36.372  40.148  1.00  0.00    -0.200 F 
ENDBRANCH  50  74
BRANCH  62  85
ATOM     85  C   UNL A   1      43.998  28.776  35.024  1.00  0.00     0.064 A 
ATOM     86  C   UNL A   1      43.851  27.656  35.855  1.00  0.00     0.173 A 
ATOM     87  C   UNL A   1      45.294  29.279  34.823  1.00  0.00     0.173 A 
ATOM     88  F   UNL A   1      42.633  27.146  36.091  1.00  0.00    -0.203 F 
ATOM     89  C   UNL A   1      44.953  27.078  36.478  1.00  0.00     0.198 A 
ATOM     90  C   UNL A   1      46.398  28.677  35.421  1.00  0.00     0.198 A 
ATOM     91  F   UNL A   1      45.491  30.345  34.034  1.00  0.00    -0.203 F 
ATOM     92  F   UNL A   1      44.783  26.038  37.307  1.00  0.00    -0.200 F 
ATOM     93  C   UNL A   1      46.225  27.582  36.253  1.00  0.00     0.200 A 
ATOM     94  F   UNL A   1      47.627  29.156  35.189  1.00  0.00    -0.200 F 
ATOM     95  F   UNL A   1      47.287  27.016  36.845  1.00  0.00    -0.200 F 
ENDBRANCH  62  85
ENDBRANCH  36  37
ENDBRANCH  28  31
ENDBRANCH  26  27
ENDBRANCH  25  26
ENDBRANCH   1  25
TORSDOF 14
ENDMDL
MODEL 3
REMARK VINA RESULT:     -12.7      6.300     11.782
REMARK SMILES COc1ccc(-c2cccc(C(=O)NCC(=O)NCCCNC(=O)c3ccc(-c4c5nc(c(-c6c(F)c(F)c(F)c(F)c6F)c6ccc([nH]6)c(-c6c(F)c(F)c(F)c(F)c6F)c6nc(c(-c7c(F)c(F)c(F)c(F)c7F)c7ccc4[nH]7)C=C6)C=C5)cc3)c2)cc1
REMARK SMILES IDX 19 1 18 2 16 3 17 4 15 6 14 7 12 8 13 9 11 11 7 12 8 13
REMARK SMILES IDX 88 14 9 15 10 16 6 17 3 18 4 19 90 20 5 21 89 22 2 23 1 24
REMARK SMILES IDX 20 25 21 26 22 27 23 28 24 30 25 31 26 32 87 33 27 34 86 35
REMARK SMILES IDX 28 36 29 37 30 38 80 39 31 40 85 41 79 42 81 43 32 44 84 45
REMARK SMILES IDX 78 46 77 47 33 49 65 50 45 51 64 52 46 53 49 54 63 55 82 56
REMARK SMILES IDX 47 57 48 58 62 60 83 61 50 62 34 63 35 64 43 65 36 66 37 67
REMARK SMILES IDX 41 68 44 69 38 70 39 71 42 72 40 73 66 74 67 75 75 76 68 77
REMARK SMILES IDX 69 78 73 79 76 80 70 81 71 82 74 83 72 84 51 85 52 86 60 87
REMARK SMILES IDX 53 88 54 89 58 90 61 91 55 92 56 93 59 94 57 95
REMARK H PARENT 18 5 14 10 22 29 81 48 49 59
REMARK Flexibility Score: inf
ROOT
ATOM      1  C   UNL A   1      36.936  21.010  24.756  1.00  0.00     0.117 C 
ENDROOT
BRANCH   1   2
ATOM      2  N   UNL A   1      35.971  20.878  25.824  1.00  0.00    -0.355 N 
ATOM      3  C   UNL A   1      35.275  21.835  26.492  1.00  0.00     0.239 C 
ATOM      4  O   UNL A   1      34.474  21.453  27.351  1.00  0.00    -0.273 OA
ATOM      5  H   UNL A   1      35.791  19.954  26.112  1.00  0.00     0.163 HD
BRANCH   3   6
ATOM      6  C   UNL A   1      35.312  23.309  26.066  1.00  0.00     0.216 C 
BRANCH   6   7
ATOM      7  N   UNL A   1      34.059  24.058  25.975  1.00  0.00    -0.343 N 
ATOM      8  C   UNL A   1      32.830  23.891  25.389  1.00  0.00     0.251 C 
ATOM      9  O   UNL A   1      31.985  24.756  25.633  1.00  0.00    -0.269 OA
ATOM     10  H   UNL A   1      34.111  24.909  26.467  1.00  0.00     0.164 HD
BRANCH   8  11
ATOM     11  C   UNL A   1      32.473  22.820  24.410  1.00  0.00     0.040 A 
ATOM     12  C   UNL A   1      32.355  20.476  23.704  1.00  0.00    -0.018 A 
ATOM     13  C   UNL A   1      32.155  20.895  22.383  1.00  0.00     0.009 A 
ATOM     14  C   UNL A   1      32.432  21.460  24.708  1.00  0.00     0.022 A 
ATOM     15  C   UNL A   1      32.067  22.253  22.077  1.00  0.00     0.001 A 
ATOM     16  C   UNL A   1      32.248  23.208  23.081  1.00  0.00     0.014 A 
BRANCH  12  17
ATOM     17  C   UNL A   1      32.581  19.064  24.059  1.00  0.00    -0.018 A 
ATOM     18  C   UNL A   1      33.240  16.410  24.765  1.00  0.00     0.118 A 
ATOM     19  C   UNL A   1      33.277  16.811  23.432  1.00  0.00     0.047 A 
ATOM     20  C   UNL A   1      32.899  17.331  25.752  1.00  0.00     0.047 A 
ATOM     21  C   UNL A   1      32.942  18.121  23.080  1.00  0.00     0.012 A 
ATOM     22  C   UNL A   1      32.563  18.641  25.399  1.00  0.00     0.012 A 
BRANCH  18  23
ATOM     23  O   UNL A   1      33.605  15.117  25.019  1.00  0.00    -0.497 OA
ATOM     24  C   UNL A   1      32.569  14.333  25.605  1.00  0.00     0.278 C 
ENDBRANCH  18  23
ENDBRANCH  12  17
ENDBRANCH   8  11
ENDBRANCH   6   7
ENDBRANCH   3   6
ENDBRANCH   1   2
BRANCH   1  25
ATOM     25  C   UNL A   1      38.007  19.932  24.834  1.00  0.00     0.042 C 
BRANCH  25  26
ATOM     26  C   UNL A   1      39.096  20.254  25.852  1.00  0.00     0.118 C 
BRANCH  26  27
ATOM     27  N   UNL A   1      40.096  19.198  25.957  1.00  0.00    -0.352 N 
ATOM     28  C   UNL A   1      41.456  19.287  26.125  1.00  0.00     0.251 C 
ATOM     29  H   UNL A   1      39.742  18.281  25.898  1.00  0.00     0.163 HD
ATOM     30  O   UNL A   1      42.155  18.289  26.013  1.00  0.00    -0.269 OA
BRANCH  28  31
ATOM     31  C   UNL A   1      42.076  20.596  26.419  1.00  0.00     0.039 A 
ATOM     32  C   UNL A   1      42.506  21.391  25.354  1.00  0.00     0.014 A 
ATOM     33  C   UNL A   1      42.232  21.039  27.734  1.00  0.00     0.014 A 
ATOM     34  C   UNL A   1      43.026  22.661  25.606  1.00  0.00     0.010 A 
ATOM     35  C   UNL A   1      42.673  22.335  27.980  1.00  0.00     0.010 A 
ATOM     36  C   UNL A   1      43.073  23.160  26.918  1.00  0.00    -0.014 A 
BRANCH  36  37
ATOM     37  C   UNL A   1      43.523  24.545  27.200  1.00  0.00     0.031 A 
ATOM     38  C   UNL A   1      42.554  25.562  27.736  1.00  0.00     0.074 A 
ATOM     39  C   UNL A   1      44.788  24.904  26.908  1.00  0.00     0.049 A 
ATOM     40  N   UNL A   1      42.736  26.838  27.969  1.00  0.00    -0.248 NA
ATOM     41  C   UNL A   1      41.192  25.088  28.024  1.00  0.00     0.031 C 
ATOM     42  C   UNL A   1      45.809  24.018  26.346  1.00  0.00     0.029 A 
ATOM     43  N   UNL A   1      45.429  26.112  27.032  1.00  0.00    -0.354 N 
ATOM     44  C   UNL A   1      41.514  27.317  28.418  1.00  0.00     0.074 A 
ATOM     45  C   UNL A   1      40.582  26.212  28.371  1.00  0.00     0.031 C 
ATOM     46  C   UNL A   1      46.954  24.705  26.197  1.00  0.00     0.029 A 
ATOM     47  C   UNL A   1      46.735  26.088  26.606  1.00  0.00     0.049 A 
ATOM     48  H   UNL A   1      44.994  26.918  27.392  1.00  0.00     0.167 HD
ATOM     49  C   UNL A   1      41.204  28.562  28.854  1.00  0.00     0.037 A 
ATOM     50  C   UNL A   1      47.650  27.075  26.542  1.00  0.00     0.037 A 
ATOM     51  C   UNL A   1      42.139  29.654  28.912  1.00  0.00     0.049 A 
ATOM     52  C   UNL A   1      47.268  28.456  27.002  1.00  0.00     0.074 A 
ATOM     53  C   UNL A   1      41.938  30.939  29.384  1.00  0.00     0.029 A 
ATOM     54  N   UNL A   1      43.456  29.592  28.475  1.00  0.00    -0.354 N 
ATOM     55  N   UNL A   1      46.128  28.884  27.488  1.00  0.00    -0.248 NA
ATOM     56  C   UNL A   1      48.304  29.495  26.905  1.00  0.00     0.031 C 
ATOM     57  C   UNL A   1      43.112  31.670  29.180  1.00  0.00     0.029 A 
ATOM     58  C   UNL A   1      44.067  30.824  28.641  1.00  0.00     0.049 A 
ATOM     59  H   UNL A   1      43.889  28.790  28.102  1.00  0.00     0.167 HD
ATOM     60  C   UNL A   1      46.318  30.226  27.785  1.00  0.00     0.074 A 
ATOM     61  C   UNL A   1      47.688  30.540  27.439  1.00  0.00     0.031 C 
ATOM     62  C   UNL A   1      45.436  31.119  28.300  1.00  0.00     0.037 A 
BRANCH  49  63
ATOM     63  C   UNL A   1      39.792  28.808  29.305  1.00  0.00     0.064 A 
ATOM     64  C   UNL A   1      39.402  28.625  30.642  1.00  0.00     0.173 A 
ATOM     65  C   UNL A   1      38.826  29.272  28.400  1.00  0.00     0.173 A 
ATOM     66  F   UNL A   1      40.285  28.175  31.546  1.00  0.00    -0.203 F 
ATOM     67  C   UNL A   1      38.092  28.866  31.046  1.00  0.00     0.198 A 
ATOM     68  C   UNL A   1      37.524  29.543  28.816  1.00  0.00     0.198 A 
ATOM     69  F   UNL A   1      39.144  29.470  27.113  1.00  0.00    -0.203 F 
ATOM     70  F   UNL A   1      37.732  28.632  32.316  1.00  0.00    -0.200 F 
ATOM     71  C   UNL A   1      37.156  29.332  30.135  1.00  0.00     0.200 A 
ATOM     72  F   UNL A   1      36.625  30.009  27.938  1.00  0.00    -0.200 F 
ATOM     73  F   UNL A   1      35.898  29.571  30.529  1.00  0.00    -0.200 F 
ENDBRANCH  49  63
BRANCH  50  74
ATOM     74  C   UNL A   1      49.020  26.790  26.040  1.00  0.00     0.064 A 
ATOM     75  C   UNL A   1      49.352  27.005  24.696  1.00  0.00     0.173 A 
ATOM     76  C   UNL A   1      50.020  26.289  26.887  1.00  0.00     0.173 A 
ATOM     77  F   UNL A   1      48.425  27.464  23.842  1.00  0.00    -0.203 F 
ATOM     78  C   UNL A   1      50.624  26.707  24.211  1.00  0.00     0.198 A 
ATOM     79  C   UNL A   1      51.301  26.022  26.408  1.00  0.00     0.198 A 
ATOM     80  F   UNL A   1      49.756  26.070  28.183  1.00  0.00    -0.203 F 
ATOM     81  F   UNL A   1      50.899  26.873  22.910  1.00  0.00    -0.200 F 
ATOM     82  C   UNL A   1      51.599  26.221  25.069  1.00  0.00     0.200 A 
ATOM     83  F   UNL A   1      52.245  25.567  27.244  1.00  0.00    -0.200 F 
ATOM     84  F   UNL A   1      52.823  25.937  24.603  1.00  0.00    -0.200 F 
ENDBRANCH  50  74
BRANCH  62  85
ATOM     85  C   UNL A   1      45.935  32.512  28.560  1.00  0.00     0.064 A 
ATOM     86  C   UNL A   1      46.586  32.854  29.754  1.00  0.00     0.173 A 
ATOM     87  C   UNL A   1      45.798  33.507  27.579  1.00  0.00     0.173 A 
ATOM     88  F   UNL A   1      46.729  31.944  30.730  1.00  0.00    -0.203 F 
ATOM     89  C   UNL A   1      47.060  34.146  29.967  1.00  0.00     0.198 A 
ATOM     90  C   UNL A   1      46.304  34.788  27.781  1.00  0.00     0.198 A 
ATOM     91  F   UNL A   1      45.189  33.232  26.416  1.00  0.00    -0.203 F 
ATOM     92  F   UNL A   1      47.635  34.463  31.135  1.00  0.00    -0.200 F 
ATOM     93  C   UNL A   1      46.927  35.108  28.977  1.00  0.00     0.200 A 
ATOM     94  F   UNL A   1      46.189  35.712  26.817  1.00  0.00    -0.200 F 
ATOM     95  F   UNL A   1      47.394  36.349  29.179  1.00  0.00    -0.200 F 
ENDBRANCH  62  85
ENDBRANCH  36  37
ENDBRANCH  28  31
ENDBRANCH  26  27
ENDBRANCH  25  26
ENDBRANCH   1  25
TORSDOF 14
ENDMDL
