MODEL 1
REMARK VINA RESULT:     -12.5      0.000      0.000
REMARK SMILES O=C(CC1(CC(=O)NNC(=O)C2CC2)CCCCC1)NCCCNC(=O)c1ccc(-c2c3nc(c(-c4c(F)c(F)c(F)c(F)c4F)c4ccc([nH]4)c(-c4c(F)c(F)c(F)c(F)c4F)c4nc(c(-c5c(F)c(F)c(F)c(F)c5F)c5ccc2[nH]5)C=C4)C=C3)cc1
REMARK SMILES IDX 1 1 2 2 20 3 3 5 4 6 15 7 19 8 16 9 18 10 17 11 5 12 6 13
REMARK SMILES IDX 7 14 8 15 9 17 10 18 11 20 12 21 13 22 14 23 21 24 22 25
REMARK SMILES IDX 23 26 24 27 25 28 26 30 27 31 28 32 89 33 29 34 88 35 30 36
REMARK SMILES IDX 31 37 32 38 82 39 33 40 87 41 81 42 83 43 34 44 86 45 80 46
REMARK SMILES IDX 79 47 35 49 67 50 47 51 66 52 48 53 51 54 65 55 84 56 49 57
REMARK SMILES IDX 50 58 64 60 85 61 52 62 36 63 37 64 45 65 38 66 39 67 43 68
REMARK SMILES IDX 46 69 40 70 41 71 44 72 42 73 68 74 69 75 77 76 70 77 71 78
REMARK SMILES IDX 75 79 78 80 72 81 73 82 76 83 74 84 53 85 54 86 62 87 55 88
REMARK SMILES IDX 56 89 60 90 63 91 57 92 58 93 61 94 59 95
REMARK H PARENT 20 4 8 16 9 19 24 29 83 48 51 59
REMARK Flexibility Score: inf
ROOT
ATOM      1  O   UNL A   1      31.392  27.099  27.074  1.00  0.00    -0.275 OA
ATOM      2  C   UNL A   1      31.303  27.725  26.023  1.00  0.00     0.220 C 
ATOM      3  N   UNL A   1      31.699  29.031  25.882  1.00  0.00    -0.356 N 
ATOM      4  H   UNL A   1      31.748  29.422  24.980  1.00  0.00     0.163 HD
ENDROOT
BRANCH   2   5
ATOM      5  C   UNL A   1      30.664  27.124  24.784  1.00  0.00     0.107 C 
BRANCH   5   6
ATOM      6  C   UNL A   1      31.658  26.394  23.811  1.00  0.00    -0.012 C 
ATOM      7  C   UNL A   1      33.007  26.257  24.593  1.00  0.00     0.008 C 
ATOM      8  C   UNL A   1      31.186  24.959  23.455  1.00  0.00     0.008 C 
ATOM      9  C   UNL A   1      34.064  25.400  23.898  1.00  0.00     0.001 C 
ATOM     10  C   UNL A   1      32.243  24.093  22.765  1.00  0.00     0.001 C 
ATOM     11  C   UNL A   1      33.529  24.012  23.570  1.00  0.00     0.000 C 
BRANCH   6  12
ATOM     12  C   UNL A   1      31.912  27.252  22.529  1.00  0.00     0.109 C 
BRANCH  12  13
ATOM     13  C   UNL A   1      32.340  28.704  22.734  1.00  0.00     0.238 C 
ATOM     14  O   UNL A   1      33.328  28.977  23.424  1.00  0.00    -0.273 OA
ATOM     15  N   UNL A   1      31.630  29.739  22.183  1.00  0.00    -0.268 N 
ATOM     16  H   UNL A   1      32.007  30.646  22.254  1.00  0.00     0.191 HD
BRANCH  15  17
ATOM     17  N   UNL A   1      30.416  29.591  21.532  1.00  0.00    -0.267 N 
ATOM     18  C   UNL A   1      29.186  29.855  22.096  1.00  0.00     0.241 C 
ATOM     19  H   UNL A   1      30.433  29.275  20.599  1.00  0.00     0.191 HD
ATOM     20  O   UNL A   1      28.172  29.328  21.638  1.00  0.00    -0.273 OA
BRANCH  18  21
ATOM     21  C   UNL A   1      29.099  30.834  23.212  1.00  0.00     0.080 C 
ATOM     22  C   UNL A   1      28.660  32.250  22.904  1.00  0.00     0.014 C 
ATOM     23  C   UNL A   1      27.772  31.357  23.718  1.00  0.00     0.014 C 
ENDBRANCH  18  21
ENDBRANCH  15  17
ENDBRANCH  12  13
ENDBRANCH   6  12
ENDBRANCH   5   6
ENDBRANCH   2   5
BRANCH   3  24
ATOM     24  C   UNL A   1      32.046  29.848  27.023  1.00  0.00     0.117 C 
BRANCH  24  25
ATOM     25  C   UNL A   1      31.874  31.336  26.757  1.00  0.00     0.042 C 
BRANCH  25  26
ATOM     26  C   UNL A   1      32.960  32.224  27.353  1.00  0.00     0.118 C 
BRANCH  26  27
ATOM     27  N   UNL A   1      32.518  33.588  27.606  1.00  0.00    -0.352 N 
ATOM     28  C   UNL A   1      33.049  34.546  28.435  1.00  0.00     0.251 C 
ATOM     29  H   UNL A   1      31.716  33.866  27.106  1.00  0.00     0.163 HD
ATOM     30  O   UNL A   1      32.514  35.642  28.558  1.00  0.00    -0.269 OA
BRANCH  28  31
ATOM     31  C   UNL A   1      34.242  34.237  29.236  1.00  0.00     0.039 A 
ATOM     32  C   UNL A   1      34.060  33.545  30.438  1.00  0.00     0.014 A 
ATOM     33  C   UNL A   1      35.519  34.567  28.785  1.00  0.00     0.014 A 
ATOM     34  C   UNL A   1      35.170  33.087  31.138  1.00  0.00     0.010 A 
ATOM     35  C   UNL A   1      36.623  34.044  29.443  1.00  0.00     0.010 A 
ATOM     36  C   UNL A   1      36.454  33.283  30.611  1.00  0.00    -0.014 A 
BRANCH  36  37
ATOM     37  C   UNL A   1      37.640  32.663  31.243  1.00  0.00     0.031 A 
ATOM     38  C   UNL A   1      38.336  31.529  30.557  1.00  0.00     0.074 A 
ATOM     39  C   UNL A   1      38.018  33.071  32.469  1.00  0.00     0.049 A 
ATOM     40  N   UNL A   1      39.304  30.768  30.996  1.00  0.00    -0.248 NA
ATOM     41  C   UNL A   1      37.862  31.185  29.207  1.00  0.00     0.031 C 
ATOM     42  C   UNL A   1      37.387  34.147  33.235  1.00  0.00     0.029 A 
ATOM     43  N   UNL A   1      39.014  32.616  33.296  1.00  0.00    -0.354 N 
ATOM     44  C   UNL A   1      39.544  29.849  29.986  1.00  0.00     0.074 A 
ATOM     45  C   UNL A   1      38.587  30.112  28.933  1.00  0.00     0.031 C 
ATOM     46  C   UNL A   1      38.017  34.278  34.412  1.00  0.00     0.029 A 
ATOM     47  C   UNL A   1      39.061  33.264  34.506  1.00  0.00     0.049 A 
ATOM     48  H   UNL A   1      39.635  31.895  33.045  1.00  0.00     0.167 HD
ATOM     49  C   UNL A   1      40.491  28.884  29.940  1.00  0.00     0.037 A 
ATOM     50  C   UNL A   1      39.845  33.044  35.578  1.00  0.00     0.037 A 
ATOM     51  C   UNL A   1      41.441  28.644  30.993  1.00  0.00     0.049 A 
ATOM     52  C   UNL A   1      40.865  31.940  35.513  1.00  0.00     0.074 A 
ATOM     53  C   UNL A   1      42.473  27.723  31.031  1.00  0.00     0.029 A 
ATOM     54  N   UNL A   1      41.470  29.327  32.201  1.00  0.00    -0.354 N 
ATOM     55  N   UNL A   1      41.126  31.112  34.531  1.00  0.00    -0.248 NA
ATOM     56  C   UNL A   1      41.703  31.740  36.704  1.00  0.00     0.031 C 
ATOM     57  C   UNL A   1      43.087  27.809  32.284  1.00  0.00     0.029 A 
ATOM     58  C   UNL A   1      42.484  28.830  33.002  1.00  0.00     0.049 A 
ATOM     59  H   UNL A   1      40.858  30.059  32.451  1.00  0.00     0.167 HD
ATOM     60  C   UNL A   1      42.177  30.317  34.968  1.00  0.00     0.074 A 
ATOM     61  C   UNL A   1      42.512  30.770  36.303  1.00  0.00     0.031 C 
ATOM     62  C   UNL A   1      42.811  29.309  34.322  1.00  0.00     0.037 A 
BRANCH  49  63
ATOM     63  C   UNL A   1      40.536  28.011  28.719  1.00  0.00     0.064 A 
ATOM     64  C   UNL A   1      41.295  28.360  27.591  1.00  0.00     0.173 A 
ATOM     65  C   UNL A   1      39.836  26.797  28.687  1.00  0.00     0.173 A 
ATOM     66  F   UNL A   1      41.973  29.517  27.563  1.00  0.00    -0.203 F 
ATOM     67  C   UNL A   1      41.324  27.541  26.465  1.00  0.00     0.198 A 
ATOM     68  C   UNL A   1      39.895  25.964  27.572  1.00  0.00     0.198 A 
ATOM     69  F   UNL A   1      39.097  26.413  29.738  1.00  0.00    -0.203 F 
ATOM     70  F   UNL A   1      42.009  27.923  25.378  1.00  0.00    -0.200 F 
ATOM     71  C   UNL A   1      40.631  26.341  26.459  1.00  0.00     0.200 A 
ATOM     72  F   UNL A   1      39.235  24.797  27.574  1.00  0.00    -0.200 F 
ATOM     73  F   UNL A   1      40.665  25.550  25.378  1.00  0.00    -0.200 F 
ENDBRANCH  49  63
BRANCH  50  74
ATOM     74  C   UNL A   1      39.700  33.887  36.794  1.00  0.00     0.064 A 
ATOM     75  C   UNL A   1      38.907  33.468  37.871  1.00  0.00     0.173 A 
ATOM     76  C   UNL A   1      40.346  35.129  36.906  1.00  0.00     0.173 A 
ATOM     77  F   UNL A   1      38.255  32.298  37.806  1.00  0.00    -0.203 F 
ATOM     78  C   UNL A   1      38.745  34.267  39.001  1.00  0.00     0.198 A 
ATOM     79  C   UNL A   1      40.208  35.912  38.050  1.00  0.00     0.198 A 
ATOM     80  F   UNL A   1      41.124  35.573  35.909  1.00  0.00    -0.203 F 
ATOM     81  F   UNL A   1      37.940  33.864  39.994  1.00  0.00    -0.200 F 
ATOM     82  C   UNL A   1      39.401  35.485  39.092  1.00  0.00     0.200 A 
ATOM     83  F   UNL A   1      40.858  37.080  38.142  1.00  0.00    -0.200 F 
ATOM     84  F   UNL A   1      39.247  36.252  40.181  1.00  0.00    -0.200 F 
ENDBRANCH  50  74
BRANCH  62  85
ATOM     85  C   UNL A   1      43.966  28.655  35.022  1.00  0.00     0.064 A 
ATOM     86  C   UNL A   1      45.271  29.161  34.926  1.00  0.00     0.173 A 
ATOM     87  C   UNL A   1      43.748  27.549  35.858  1.00  0.00     0.173 A 
ATOM     88  F   UNL A   1      45.533  30.207  34.129  1.00  0.00    -0.203 F 
ATOM     89  C   UNL A   1      46.318  28.572  35.631  1.00  0.00     0.198 A 
ATOM     90  C   UNL A   1      44.790  26.985  36.586  1.00  0.00     0.198 A 
ATOM     91  F   UNL A   1      42.517  27.032  35.987  1.00  0.00    -0.203 F 
ATOM     92  F   UNL A   1      47.564  29.046  35.496  1.00  0.00    -0.200 F 
ATOM     93  C   UNL A   1      46.075  27.493  36.469  1.00  0.00     0.200 A 
ATOM     94  F   UNL A   1      44.549  25.955  37.409  1.00  0.00    -0.200 F 
ATOM     95  F   UNL A   1      47.081  26.941  37.161  1.00  0.00    -0.200 F 
ENDBRANCH  62  85
ENDBRANCH  36  37
ENDBRANCH  28  31
ENDBRANCH  26  27
ENDBRANCH  25  26
ENDBRANCH  24  25
ENDBRANCH   3  24
TORSDOF 15
ENDMDL
MODEL 2
REMARK VINA RESULT:     -12.5      0.822      7.509
REMARK SMILES O=C(CC1(CC(=O)NNC(=O)C2CC2)CCCCC1)NCCCNC(=O)c1ccc(-c2c3nc(c(-c4c(F)c(F)c(F)c(F)c4F)c4ccc([nH]4)c(-c4c(F)c(F)c(F)c(F)c4F)c4nc(c(-c5c(F)c(F)c(F)c(F)c5F)c5ccc2[nH]5)C=C4)C=C3)cc1
REMARK SMILES IDX 1 1 2 2 20 3 3 5 4 6 15 7 19 8 16 9 18 10 17 11 5 12 6 13
REMARK SMILES IDX 7 14 8 15 9 17 10 18 11 20 12 21 13 22 14 23 21 24 22 25
REMARK SMILES IDX 23 26 24 27 25 28 26 30 27 31 28 32 89 33 29 34 88 35 30 36
REMARK SMILES IDX 31 37 32 38 82 39 33 40 87 41 81 42 83 43 34 44 86 45 80 46
REMARK SMILES IDX 79 47 35 49 67 50 47 51 66 52 48 53 51 54 65 55 84 56 49 57
REMARK SMILES IDX 50 58 64 60 85 61 52 62 36 63 37 64 45 65 38 66 39 67 43 68
REMARK SMILES IDX 46 69 40 70 41 71 44 72 42 73 68 74 69 75 77 76 70 77 71 78
REMARK SMILES IDX 75 79 78 80 72 81 73 82 76 83 74 84 53 85 54 86 62 87 55 88
REMARK SMILES IDX 56 89 60 90 63 91 57 92 58 93 61 94 59 95
REMARK H PARENT 20 4 8 16 9 19 24 29 83 48 51 59
REMARK Flexibility Score: inf
ROOT
ATOM      1  O   UNL A   1      34.066  29.330  25.862  1.00  0.00    -0.275 OA
ATOM      2  C   UNL A   1      33.046  29.243  25.187  1.00  0.00     0.220 C 
ATOM      3  N   UNL A   1      31.875  29.888  25.497  1.00  0.00    -0.356 N 
ATOM      4  H   UNL A   1      31.147  29.904  24.834  1.00  0.00     0.163 HD
ENDROOT
BRANCH   2   5
ATOM      5  C   UNL A   1      32.963  28.337  23.972  1.00  0.00     0.107 C 
BRANCH   5   6
ATOM      6  C   UNL A   1      32.748  26.814  24.292  1.00  0.00    -0.012 C 
ATOM      7  C   UNL A   1      34.001  26.071  23.720  1.00  0.00     0.008 C 
ATOM      8  C   UNL A   1      32.703  26.533  25.818  1.00  0.00     0.008 C 
ATOM      9  C   UNL A   1      34.091  24.591  24.092  1.00  0.00     0.001 C 
ATOM     10  C   UNL A   1      32.801  25.053  26.196  1.00  0.00     0.001 C 
ATOM     11  C   UNL A   1      34.032  24.391  25.601  1.00  0.00     0.000 C 
BRANCH   6  12
ATOM     12  C   UNL A   1      31.474  26.268  23.568  1.00  0.00     0.109 C 
BRANCH  12  13
ATOM     13  C   UNL A   1      30.117  26.665  24.146  1.00  0.00     0.238 C 
ATOM     14  O   UNL A   1      29.592  25.991  25.038  1.00  0.00    -0.273 OA
ATOM     15  N   UNL A   1      29.437  27.759  23.677  1.00  0.00    -0.268 N 
ATOM     16  H   UNL A   1      28.621  28.033  24.155  1.00  0.00     0.191 HD
BRANCH  15  17
ATOM     17  N   UNL A   1      29.823  28.503  22.574  1.00  0.00    -0.267 N 
ATOM     18  C   UNL A   1      29.412  29.792  22.314  1.00  0.00     0.241 C 
ATOM     19  H   UNL A   1      30.436  28.079  21.929  1.00  0.00     0.191 HD
ATOM     20  O   UNL A   1      29.445  30.230  21.165  1.00  0.00    -0.273 OA
BRANCH  18  21
ATOM     21  C   UNL A   1      28.998  30.660  23.449  1.00  0.00     0.080 C 
ATOM     22  C   UNL A   1      28.686  32.116  23.173  1.00  0.00     0.014 C 
ATOM     23  C   UNL A   1      27.585  31.184  23.583  1.00  0.00     0.014 C 
ENDBRANCH  18  21
ENDBRANCH  15  17
ENDBRANCH  12  13
ENDBRANCH   6  12
ENDBRANCH   5   6
ENDBRANCH   2   5
BRANCH   3  24
ATOM     24  C   UNL A   1      31.682  30.545  26.770  1.00  0.00     0.117 C 
BRANCH  24  25
ATOM     25  C   UNL A   1      31.613  32.060  26.648  1.00  0.00     0.042 C 
BRANCH  25  26
ATOM     26  C   UNL A   1      32.769  32.809  27.300  1.00  0.00     0.118 C 
BRANCH  26  27
ATOM     27  N   UNL A   1      32.430  34.171  27.687  1.00  0.00    -0.352 N 
ATOM     28  C   UNL A   1      33.017  34.994  28.618  1.00  0.00     0.251 C 
ATOM     29  H   UNL A   1      31.663  34.562  27.209  1.00  0.00     0.163 HD
ATOM     30  O   UNL A   1      32.568  36.111  28.846  1.00  0.00    -0.269 OA
BRANCH  28  31
ATOM     31  C   UNL A   1      34.165  34.511  29.398  1.00  0.00     0.039 A 
ATOM     32  C   UNL A   1      33.908  33.918  30.638  1.00  0.00     0.014 A 
ATOM     33  C   UNL A   1      35.463  34.582  28.892  1.00  0.00     0.014 A 
ATOM     34  C   UNL A   1      34.944  33.298  31.328  1.00  0.00     0.010 A 
ATOM     35  C   UNL A   1      36.479  33.898  29.543  1.00  0.00     0.010 A 
ATOM     36  C   UNL A   1      36.221  33.233  30.753  1.00  0.00    -0.014 A 
BRANCH  36  37
ATOM     37  C   UNL A   1      37.299  32.438  31.380  1.00  0.00     0.031 A 
ATOM     38  C   UNL A   1      37.798  32.811  32.742  1.00  0.00     0.074 A 
ATOM     39  C   UNL A   1      37.878  31.446  30.676  1.00  0.00     0.049 A 
ATOM     40  N   UNL A   1      38.814  32.330  33.409  1.00  0.00    -0.248 NA
ATOM     41  C   UNL A   1      37.075  33.889  33.435  1.00  0.00     0.031 C 
ATOM     42  C   UNL A   1      37.486  31.025  29.330  1.00  0.00     0.029 A 
ATOM     43  N   UNL A   1      38.931  30.624  30.988  1.00  0.00    -0.354 N 
ATOM     44  C   UNL A   1      38.861  33.055  34.591  1.00  0.00     0.074 A 
ATOM     45  C   UNL A   1      37.805  34.042  34.529  1.00  0.00     0.031 C 
ATOM     46  C   UNL A   1      38.279  30.016  28.937  1.00  0.00     0.029 A 
ATOM     47  C   UNL A   1      39.265  29.755  29.979  1.00  0.00     0.049 A 
ATOM     48  H   UNL A   1      39.402  30.655  31.852  1.00  0.00     0.167 HD
ATOM     49  C   UNL A   1      39.702  32.894  35.639  1.00  0.00     0.037 A 
ATOM     50  C   UNL A   1      40.271  28.864  29.898  1.00  0.00     0.037 A 
ATOM     51  C   UNL A   1      40.740  31.899  35.686  1.00  0.00     0.049 A 
ATOM     52  C   UNL A   1      41.215  28.732  31.063  1.00  0.00     0.074 A 
ATOM     53  C   UNL A   1      41.619  31.618  36.717  1.00  0.00     0.029 A 
ATOM     54  N   UNL A   1      41.043  31.025  34.652  1.00  0.00    -0.354 N 
ATOM     55  N   UNL A   1      41.218  29.380  32.203  1.00  0.00    -0.248 NA
ATOM     56  C   UNL A   1      42.294  27.743  30.934  1.00  0.00     0.031 C 
ATOM     57  C   UNL A   1      42.491  30.616  36.284  1.00  0.00     0.029 A 
ATOM     58  C   UNL A   1      42.113  30.223  35.009  1.00  0.00     0.049 A 
ATOM     59  H   UNL A   1      40.566  30.981  33.790  1.00  0.00     0.167 HD
ATOM     60  C   UNL A   1      42.271  28.857  32.940  1.00  0.00     0.074 A 
ATOM     61  C   UNL A   1      42.881  27.830  32.120  1.00  0.00     0.031 C 
ATOM     62  C   UNL A   1      42.692  29.193  34.183  1.00  0.00     0.037 A 
BRANCH  49  63
ATOM     63  C   UNL A   1      39.541  33.822  36.808  1.00  0.00     0.064 A 
ATOM     64  C   UNL A   1      38.782  33.466  37.933  1.00  0.00     0.173 A 
ATOM     65  C   UNL A   1      40.179  35.071  36.817  1.00  0.00     0.173 A 
ATOM     66  F   UNL A   1      38.139  32.288  37.970  1.00  0.00    -0.203 F 
ATOM     67  C   UNL A   1      38.639  34.339  39.008  1.00  0.00     0.198 A 
ATOM     68  C   UNL A   1      40.063  35.928  37.910  1.00  0.00     0.198 A 
ATOM     69  F   UNL A   1      40.919  35.461  35.770  1.00  0.00    -0.203 F 
ATOM     70  F   UNL A   1      37.862  34.001  40.046  1.00  0.00    -0.200 F 
ATOM     71  C   UNL A   1      39.287  35.565  38.999  1.00  0.00     0.200 A 
ATOM     72  F   UNL A   1      40.700  37.107  37.905  1.00  0.00    -0.200 F 
ATOM     73  F   UNL A   1      39.155  36.402  40.038  1.00  0.00    -0.200 F 
ENDBRANCH  49  63
BRANCH  50  74
ATOM     74  C   UNL A   1      40.432  28.028  28.680  1.00  0.00     0.064 A 
ATOM     75  C   UNL A   1      41.198  28.476  27.594  1.00  0.00     0.173 A 
ATOM     76  C   UNL A   1      39.825  26.767  28.570  1.00  0.00     0.173 A 
ATOM     77  F   UNL A   1      41.784  29.682  27.643  1.00  0.00    -0.203 F 
ATOM     78  C   UNL A   1      41.329  27.710  26.438  1.00  0.00     0.198 A 
ATOM     79  C   UNL A   1      39.983  25.988  27.426  1.00  0.00     0.198 A 
ATOM     80  F   UNL A   1      39.089  26.286  29.582  1.00  0.00    -0.203 F 
ATOM     81  F   UNL A   1      42.025  28.186  25.397  1.00  0.00    -0.200 F 
ATOM     82  C   UNL A   1      40.727  26.464  26.358  1.00  0.00     0.200 A 
ATOM     83  F   UNL A   1      39.414  24.776  27.359  1.00  0.00    -0.200 F 
ATOM     84  F   UNL A   1      40.856  25.725  25.247  1.00  0.00    -0.200 F 
ENDBRANCH  50  74
BRANCH  62  85
ATOM     85  C   UNL A   1      43.835  28.411  34.762  1.00  0.00     0.064 A 
ATOM     86  C   UNL A   1      45.162  28.849  34.651  1.00  0.00     0.173 A 
ATOM     87  C   UNL A   1      43.587  27.243  35.499  1.00  0.00     0.173 A 
ATOM     88  F   UNL A   1      45.453  29.951  33.944  1.00  0.00    -0.203 F 
ATOM     89  C   UNL A   1      46.201  28.137  35.246  1.00  0.00     0.198 A 
ATOM     90  C   UNL A   1      44.623  26.553  36.121  1.00  0.00     0.198 A 
ATOM     91  F   UNL A   1      42.333  26.786  35.639  1.00  0.00    -0.203 F 
ATOM     92  F   UNL A   1      47.466  28.552  35.096  1.00  0.00    -0.200 F 
ATOM     93  C   UNL A   1      45.929  26.997  35.990  1.00  0.00     0.200 A 
ATOM     94  F   UNL A   1      44.355  25.464  36.853  1.00  0.00    -0.200 F 
ATOM     95  F   UNL A   1      46.929  26.326  36.577  1.00  0.00    -0.200 F 
ENDBRANCH  62  85
ENDBRANCH  36  37
ENDBRANCH  28  31
ENDBRANCH  26  27
ENDBRANCH  25  26
ENDBRANCH  24  25
ENDBRANCH   3  24
TORSDOF 15
ENDMDL
MODEL 3
REMARK VINA RESULT:     -12.4      2.958      5.090
REMARK SMILES O=C(CC1(CC(=O)NNC(=O)C2CC2)CCCCC1)NCCCNC(=O)c1ccc(-c2c3nc(c(-c4c(F)c(F)c(F)c(F)c4F)c4ccc([nH]4)c(-c4c(F)c(F)c(F)c(F)c4F)c4nc(c(-c5c(F)c(F)c(F)c(F)c5F)c5ccc2[nH]5)C=C4)C=C3)cc1
REMARK SMILES IDX 1 1 2 2 20 3 3 5 4 6 15 7 19 8 16 9 18 10 17 11 5 12 6 13
REMARK SMILES IDX 7 14 8 15 9 17 10 18 11 20 12 21 13 22 14 23 21 24 22 25
REMARK SMILES IDX 23 26 24 27 25 28 26 30 27 31 28 32 89 33 29 34 88 35 30 36
REMARK SMILES IDX 31 37 32 38 82 39 33 40 87 41 81 42 83 43 34 44 86 45 80 46
REMARK SMILES IDX 79 47 35 49 67 50 47 51 66 52 48 53 51 54 65 55 84 56 49 57
REMARK SMILES IDX 50 58 64 60 85 61 52 62 36 63 37 64 45 65 38 66 39 67 43 68
REMARK SMILES IDX 46 69 40 70 41 71 44 72 42 73 68 74 69 75 77 76 70 77 71 78
REMARK SMILES IDX 75 79 78 80 72 81 73 82 76 83 74 84 53 85 54 86 62 87 55 88
REMARK SMILES IDX 56 89 60 90 63 91 57 92 58 93 61 94 59 95
REMARK H PARENT 20 4 8 16 9 19 24 29 83 48 51 59
REMARK Flexibility Score: inf
ROOT
ATOM      1  O   UNL A   1      33.565  26.051  22.588  1.00  0.00    -0.275 OA
ATOM      2  C   UNL A   1      33.834  26.088  23.784  1.00  0.00     0.220 C 
ATOM      3  N   UNL A   1      33.708  27.215  24.557  1.00  0.00    -0.356 N 
ATOM      4  H   UNL A   1      33.788  27.137  25.534  1.00  0.00     0.163 HD
ENDROOT
BRANCH   2   5
ATOM      5  C   UNL A   1      34.415  24.888  24.511  1.00  0.00     0.107 C 
BRANCH   5   6
ATOM      6  C   UNL A   1      33.365  23.806  24.953  1.00  0.00    -0.012 C 
ATOM      7  C   UNL A   1      33.540  23.639  26.499  1.00  0.00     0.008 C 
ATOM      8  C   UNL A   1      31.904  24.267  24.702  1.00  0.00     0.008 C 
ATOM      9  C   UNL A   1      32.479  22.768  27.171  1.00  0.00     0.001 C 
ATOM     10  C   UNL A   1      30.838  23.402  25.380  1.00  0.00     0.001 C 
ATOM     11  C   UNL A   1      31.073  23.273  26.875  1.00  0.00     0.000 C 
BRANCH   6  12
ATOM     12  C   UNL A   1      33.661  22.431  24.269  1.00  0.00     0.109 C 
BRANCH  12  13
ATOM     13  C   UNL A   1      34.948  21.714  24.671  1.00  0.00     0.238 C 
ATOM     14  O   UNL A   1      36.050  22.176  24.358  1.00  0.00    -0.273 OA
ATOM     15  N   UNL A   1      34.916  20.531  25.364  1.00  0.00    -0.268 N 
ATOM     16  H   UNL A   1      35.770  20.167  25.692  1.00  0.00     0.191 HD
BRANCH  15  17
ATOM     17  N   UNL A   1      33.760  19.817  25.632  1.00  0.00    -0.267 N 
ATOM     18  C   UNL A   1      33.349  18.700  24.937  1.00  0.00     0.241 C 
ATOM     19  H   UNL A   1      33.192  20.129  26.374  1.00  0.00     0.191 HD
ATOM     20  O   UNL A   1      32.162  18.374  24.941  1.00  0.00    -0.273 OA
BRANCH  18  21
ATOM     21  C   UNL A   1      34.367  17.866  24.244  1.00  0.00     0.080 C 
ATOM     22  C   UNL A   1      34.415  16.382  24.544  1.00  0.00     0.014 C 
ATOM     23  C   UNL A   1      33.986  16.852  23.186  1.00  0.00     0.014 C 
ENDBRANCH  18  21
ENDBRANCH  15  17
ENDBRANCH  12  13
ENDBRANCH   6  12
ENDBRANCH   5   6
ENDBRANCH   2   5
BRANCH   3  24
ATOM     24  C   UNL A   1      33.461  28.514  23.972  1.00  0.00     0.117 C 
BRANCH  24  25
ATOM     25  C   UNL A   1      32.423  29.319  24.740  1.00  0.00     0.042 C 
BRANCH  25  26
ATOM     26  C   UNL A   1      32.772  29.587  26.200  1.00  0.00     0.118 C 
BRANCH  26  27
ATOM     27  N   UNL A   1      32.528  30.963  26.608  1.00  0.00    -0.352 N 
ATOM     28  C   UNL A   1      33.328  31.823  27.321  1.00  0.00     0.251 C 
ATOM     29  H   UNL A   1      31.659  31.333  26.332  1.00  0.00     0.163 HD
ATOM     30  O   UNL A   1      32.939  32.948  27.616  1.00  0.00    -0.269 OA
BRANCH  28  31
ATOM     31  C   UNL A   1      34.645  31.374  27.793  1.00  0.00     0.039 A 
ATOM     32  C   UNL A   1      35.654  32.333  27.919  1.00  0.00     0.014 A 
ATOM     33  C   UNL A   1      34.865  30.048  28.164  1.00  0.00     0.014 A 
ATOM     34  C   UNL A   1      36.859  31.984  28.520  1.00  0.00     0.010 A 
ATOM     35  C   UNL A   1      36.035  29.720  28.832  1.00  0.00     0.010 A 
ATOM     36  C   UNL A   1      37.030  30.691  29.034  1.00  0.00    -0.014 A 
BRANCH  36  37
ATOM     37  C   UNL A   1      38.228  30.338  29.826  1.00  0.00     0.031 A 
ATOM     38  C   UNL A   1      39.220  29.361  29.274  1.00  0.00     0.074 A 
ATOM     39  C   UNL A   1      38.361  30.833  31.072  1.00  0.00     0.049 A 
ATOM     40  N   UNL A   1      40.260  28.823  29.854  1.00  0.00    -0.248 NA
ATOM     41  C   UNL A   1      38.997  28.908  27.892  1.00  0.00     0.031 C 
ATOM     42  C   UNL A   1      37.434  31.767  31.714  1.00  0.00     0.029 A 
ATOM     43  N   UNL A   1      39.318  30.605  32.028  1.00  0.00    -0.354 N 
ATOM     44  C   UNL A   1      40.805  27.959  28.917  1.00  0.00     0.074 A 
ATOM     45  C   UNL A   1      39.953  28.003  27.748  1.00  0.00     0.031 C 
ATOM     46  C   UNL A   1      37.874  32.042  32.951  1.00  0.00     0.029 A 
ATOM     47  C   UNL A   1      39.082  31.266  33.208  1.00  0.00     0.049 A 
ATOM     48  H   UNL A   1      40.099  30.024  31.881  1.00  0.00     0.167 HD
ATOM     49  C   UNL A   1      41.926  27.209  29.022  1.00  0.00     0.037 A 
ATOM     50  C   UNL A   1      39.754  31.228  34.373  1.00  0.00     0.037 A 
ATOM     51  C   UNL A   1      42.767  27.185  30.189  1.00  0.00     0.049 A 
ATOM     52  C   UNL A   1      40.978  30.358  34.474  1.00  0.00     0.074 A 
ATOM     53  C   UNL A   1      43.951  26.498  30.385  1.00  0.00     0.029 A 
ATOM     54  N   UNL A   1      42.506  27.877  31.363  1.00  0.00    -0.354 N 
ATOM     55  N   UNL A   1      41.521  29.586  33.564  1.00  0.00    -0.248 NA
ATOM     56  C   UNL A   1      41.684  30.352  35.763  1.00  0.00     0.031 C 
ATOM     57  C   UNL A   1      44.375  26.727  31.697  1.00  0.00     0.029 A 
ATOM     58  C   UNL A   1      43.492  27.612  32.298  1.00  0.00     0.049 A 
ATOM     59  H   UNL A   1      41.732  28.471  31.510  1.00  0.00     0.167 HD
ATOM     60  C   UNL A   1      42.649  29.032  34.153  1.00  0.00     0.074 A 
ATOM     61  C   UNL A   1      42.716  29.563  35.500  1.00  0.00     0.031 C 
ATOM     62  C   UNL A   1      43.549  28.167  33.627  1.00  0.00     0.037 A 
BRANCH  49  63
ATOM     63  C   UNL A   1      42.298  26.347  27.850  1.00  0.00     0.064 A 
ATOM     64  C   UNL A   1      41.721  25.084  27.651  1.00  0.00     0.173 A 
ATOM     65  C   UNL A   1      43.222  26.802  26.898  1.00  0.00     0.173 A 
ATOM     66  F   UNL A   1      40.841  24.594  28.538  1.00  0.00    -0.203 F 
ATOM     67  C   UNL A   1      42.078  24.295  26.561  1.00  0.00     0.198 A 
ATOM     68  C   UNL A   1      43.552  26.025  25.790  1.00  0.00     0.198 A 
ATOM     69  F   UNL A   1      43.803  28.002  27.038  1.00  0.00    -0.203 F 
ATOM     70  F   UNL A   1      41.557  23.068  26.422  1.00  0.00    -0.200 F 
ATOM     71  C   UNL A   1      42.987  24.769  25.627  1.00  0.00     0.200 A 
ATOM     72  F   UNL A   1      44.421  26.491  24.882  1.00  0.00    -0.200 F 
ATOM     73  F   UNL A   1      43.326  24.012  24.574  1.00  0.00    -0.200 F 
ENDBRANCH  49  63
BRANCH  50  74
ATOM     74  C   UNL A   1      39.292  32.041  35.529  1.00  0.00     0.064 A 
ATOM     75  C   UNL A   1      39.687  33.379  35.672  1.00  0.00     0.173 A 
ATOM     76  C   UNL A   1      38.453  31.502  36.516  1.00  0.00     0.173 A 
ATOM     77  F   UNL A   1      40.503  33.936  34.765  1.00  0.00    -0.203 F 
ATOM     78  C   UNL A   1      39.280  34.138  36.768  1.00  0.00     0.198 A 
ATOM     79  C   UNL A   1      38.021  32.271  37.595  1.00  0.00     0.198 A 
ATOM     80  F   UNL A   1      38.039  30.230  36.424  1.00  0.00    -0.203 F 
ATOM     81  F   UNL A   1      39.714  35.399  36.905  1.00  0.00    -0.200 F 
ATOM     82  C   UNL A   1      38.443  33.585  37.725  1.00  0.00     0.200 A 
ATOM     83  F   UNL A   1      37.198  31.739  38.508  1.00  0.00    -0.200 F 
ATOM     84  F   UNL A   1      38.050  34.316  38.777  1.00  0.00    -0.200 F 
ENDBRANCH  50  74
BRANCH  62  85
ATOM     85  C   UNL A   1      44.717  27.776  34.485  1.00  0.00     0.064 A 
ATOM     86  C   UNL A   1      44.689  26.631  35.294  1.00  0.00     0.173 A 
ATOM     87  C   UNL A   1      45.906  28.520  34.437  1.00  0.00     0.173 A 
ATOM     88  F   UNL A   1      43.572  25.895  35.387  1.00  0.00    -0.203 F 
ATOM     89  C   UNL A   1      45.806  26.256  36.038  1.00  0.00     0.198 A 
ATOM     90  C   UNL A   1      47.030  28.123  35.154  1.00  0.00     0.198 A 
ATOM     91  F   UNL A   1      45.984  29.620  33.672  1.00  0.00    -0.203 F 
ATOM     92  F   UNL A   1      45.747  25.181  36.835  1.00  0.00    -0.200 F 
ATOM     93  C   UNL A   1      46.978  26.995  35.957  1.00  0.00     0.200 A 
ATOM     94  F   UNL A   1      48.165  28.828  35.060  1.00  0.00    -0.200 F 
ATOM     95  F   UNL A   1      48.057  26.620  36.658  1.00  0.00    -0.200 F 
ENDBRANCH  62  85
ENDBRANCH  36  37
ENDBRANCH  28  31
ENDBRANCH  26  27
ENDBRANCH  25  26
ENDBRANCH  24  25
ENDBRANCH   3  24
TORSDOF 15
ENDMDL
