MODEL 1
REMARK VINA RESULT:     -12.5      0.000      0.000
REMARK SMILES CCN(C)S(=O)(=O)N1CC[C@H](Cc2ccc(C(=O)NCCCNC(=O)c3ccc(-c4c5nc(c(-c6c(F)c(F)c(F)c(F)c6F)c6ccc([nH]6)c(-c6c(F)c(F)c(F)c(F)c6F)c6nc(c(-c7c(F)c(F)c(F)c(F)c7F)c7ccc4[nH]7)C=C6)C=C5)cc3)cc2)C1
REMARK SMILES IDX 17 1 18 2 19 3 16 5 13 6 14 7 90 8 15 9 89 10 12 11 11 12
REMARK SMILES IDX 8 13 9 14 91 15 10 16 5 17 6 18 7 19 3 20 4 21 2 22 1 23
REMARK SMILES IDX 20 24 21 25 22 26 23 27 24 28 25 30 26 31 27 32 88 33 28 34
REMARK SMILES IDX 87 35 29 36 30 37 31 38 81 39 32 40 86 41 80 42 82 43 33 44
REMARK SMILES IDX 85 45 79 46 78 47 34 49 66 50 46 51 65 52 47 53 50 54 64 55
REMARK SMILES IDX 83 56 48 57 49 58 63 60 84 61 51 62 35 63 36 64 44 65 37 66
REMARK SMILES IDX 38 67 42 68 45 69 39 70 40 71 43 72 41 73 67 74 68 75 76 76
REMARK SMILES IDX 69 77 70 78 74 79 77 80 71 81 72 82 75 83 73 84 52 85 53 86
REMARK SMILES IDX 61 87 54 88 55 89 59 90 62 91 56 92 57 93 60 94 58 95
REMARK H PARENT 19 4 23 29 82 48 50 59
REMARK Flexibility Score: inf
ROOT
ATOM      1  C   UNL A   1      30.780  29.541  24.140  1.00  0.00     0.251 C 
ATOM      2  O   UNL A   1      30.053  29.535  23.146  1.00  0.00    -0.269 OA
ATOM      3  N   UNL A   1      30.742  30.650  24.947  1.00  0.00    -0.352 N 
ATOM      4  H   UNL A   1      30.159  31.369  24.614  1.00  0.00     0.163 HD
ENDROOT
BRANCH   1   5
ATOM      5  C   UNL A   1      31.608  28.344  24.447  1.00  0.00     0.039 A 
ATOM      6  C   UNL A   1      33.108  26.086  25.222  1.00  0.00    -0.048 A 
ATOM      7  C   UNL A   1      31.809  26.275  25.710  1.00  0.00     0.004 A 
ATOM      8  C   UNL A   1      33.621  26.997  24.295  1.00  0.00     0.004 A 
ATOM      9  C   UNL A   1      31.068  27.396  25.326  1.00  0.00     0.014 A 
ATOM     10  C   UNL A   1      32.867  28.101  23.895  1.00  0.00     0.014 A 
BRANCH   6  11
ATOM     11  C   UNL A   1      33.973  24.949  25.717  1.00  0.00     0.040 C 
BRANCH  11  12
ATOM     12  C   UNL A   1      34.390  24.017  24.566  1.00  0.00     0.010 C 
ATOM     13  N   UNL A   1      33.613  21.741  24.184  1.00  0.00    -0.189 NA
ATOM     14  C   UNL A   1      35.092  21.751  24.250  1.00  0.00     0.104 C 
ATOM     15  C   UNL A   1      33.225  23.180  24.002  1.00  0.00     0.107 C 
ATOM     16  C   UNL A   1      35.442  23.001  25.015  1.00  0.00     0.022 C 
BRANCH  13  17
ATOM     17  S   UNL A   1      32.742  21.019  25.446  1.00  0.00     0.281 S 
ATOM     18  O   UNL A   1      31.616  21.869  25.745  1.00  0.00    -0.195 OA
ATOM     19  O   UNL A   1      33.705  20.685  26.472  1.00  0.00    -0.195 OA
BRANCH  17  20
ATOM     20  N   UNL A   1      32.163  19.580  24.766  1.00  0.00    -0.192 NA
ATOM     21  C   UNL A   1      32.695  18.344  25.396  1.00  0.00     0.125 C 
BRANCH  20  22
ATOM     22  C   UNL A   1      32.304  19.481  23.276  1.00  0.00     0.100 C 
ATOM     23  C   UNL A   1      32.542  18.071  22.760  1.00  0.00     0.022 C 
ENDBRANCH  20  22
ENDBRANCH  17  20
ENDBRANCH  13  17
ENDBRANCH  11  12
ENDBRANCH   6  11
ENDBRANCH   1   5
BRANCH   3  24
ATOM     24  C   UNL A   1      31.405  30.958  26.200  1.00  0.00     0.118 C 
BRANCH  24  25
ATOM     25  C   UNL A   1      31.400  32.462  26.465  1.00  0.00     0.042 C 
BRANCH  25  26
ATOM     26  C   UNL A   1      32.621  32.939  27.245  1.00  0.00     0.118 C 
BRANCH  26  27
ATOM     27  N   UNL A   1      32.473  34.317  27.692  1.00  0.00    -0.352 N 
ATOM     28  C   UNL A   1      33.065  34.972  28.739  1.00  0.00     0.251 C 
ATOM     29  H   UNL A   1      31.850  34.862  27.159  1.00  0.00     0.163 HD
ATOM     30  O   UNL A   1      32.620  36.056  29.106  1.00  0.00    -0.269 OA
BRANCH  28  31
ATOM     31  C   UNL A   1      34.231  34.384  29.433  1.00  0.00     0.039 A 
ATOM     32  C   UNL A   1      34.018  33.666  30.613  1.00  0.00     0.014 A 
ATOM     33  C   UNL A   1      35.530  34.577  28.956  1.00  0.00     0.014 A 
ATOM     34  C   UNL A   1      35.101  33.100  31.286  1.00  0.00     0.010 A 
ATOM     35  C   UNL A   1      36.600  33.942  29.580  1.00  0.00     0.010 A 
ATOM     36  C   UNL A   1      36.398  33.208  30.758  1.00  0.00    -0.014 A 
BRANCH  36  37
ATOM     37  C   UNL A   1      37.551  32.554  31.425  1.00  0.00     0.031 A 
ATOM     38  C   UNL A   1      38.251  31.396  30.771  1.00  0.00     0.074 A 
ATOM     39  C   UNL A   1      37.921  32.962  32.653  1.00  0.00     0.049 A 
ATOM     40  N   UNL A   1      39.237  30.662  31.223  1.00  0.00    -0.248 NA
ATOM     41  C   UNL A   1      37.757  30.988  29.448  1.00  0.00     0.031 C 
ATOM     42  C   UNL A   1      37.278  34.036  33.412  1.00  0.00     0.029 A 
ATOM     43  N   UNL A   1      38.915  32.514  33.485  1.00  0.00    -0.354 N 
ATOM     44  C   UNL A   1      39.467  29.699  30.250  1.00  0.00     0.074 A 
ATOM     45  C   UNL A   1      38.481  29.905  29.211  1.00  0.00     0.031 C 
ATOM     46  C   UNL A   1      37.902  34.172  34.592  1.00  0.00     0.029 A 
ATOM     47  C   UNL A   1      38.958  33.171  34.690  1.00  0.00     0.049 A 
ATOM     48  H   UNL A   1      39.538  31.791  33.242  1.00  0.00     0.167 HD
ATOM     49  C   UNL A   1      40.426  28.742  30.218  1.00  0.00     0.037 A 
ATOM     50  C   UNL A   1      39.749  32.976  35.762  1.00  0.00     0.037 A 
ATOM     51  C   UNL A   1      41.409  28.554  31.253  1.00  0.00     0.049 A 
ATOM     52  C   UNL A   1      40.810  31.911  35.705  1.00  0.00     0.074 A 
ATOM     53  C   UNL A   1      42.473  27.668  31.284  1.00  0.00     0.029 A 
ATOM     54  N   UNL A   1      41.441  29.256  32.451  1.00  0.00    -0.354 N 
ATOM     55  N   UNL A   1      41.079  31.064  34.742  1.00  0.00    -0.248 NA
ATOM     56  C   UNL A   1      41.682  31.781  36.880  1.00  0.00     0.031 C 
ATOM     57  C   UNL A   1      43.102  27.784  32.528  1.00  0.00     0.029 A 
ATOM     58  C   UNL A   1      42.479  28.795  33.245  1.00  0.00     0.049 A 
ATOM     59  H   UNL A   1      40.816  29.974  32.701  1.00  0.00     0.167 HD
ATOM     60  C   UNL A   1      42.163  30.316  35.181  1.00  0.00     0.074 A 
ATOM     61  C   UNL A   1      42.512  30.824  36.492  1.00  0.00     0.031 C 
ATOM     62  C   UNL A   1      42.810  29.303  34.554  1.00  0.00     0.037 A 
BRANCH  49  63
ATOM     63  C   UNL A   1      40.441  27.814  29.034  1.00  0.00     0.064 A 
ATOM     64  C   UNL A   1      41.225  28.070  27.898  1.00  0.00     0.173 A 
ATOM     65  C   UNL A   1      39.666  26.644  29.039  1.00  0.00     0.173 A 
ATOM     66  F   UNL A   1      41.981  29.177  27.833  1.00  0.00    -0.203 F 
ATOM     67  C   UNL A   1      41.194  27.219  26.795  1.00  0.00     0.198 A 
ATOM     68  C   UNL A   1      39.667  25.774  27.951  1.00  0.00     0.198 A 
ATOM     69  F   UNL A   1      38.904  26.342  30.102  1.00  0.00    -0.203 F 
ATOM     70  F   UNL A   1      41.895  27.524  25.695  1.00  0.00    -0.200 F 
ATOM     71  C   UNL A   1      40.419  26.070  26.825  1.00  0.00     0.200 A 
ATOM     72  F   UNL A   1      38.931  24.655  27.990  1.00  0.00    -0.200 F 
ATOM     73  F   UNL A   1      40.390  25.251  25.764  1.00  0.00    -0.200 F 
ENDBRANCH  49  63
BRANCH  50  74
ATOM     74  C   UNL A   1      39.564  33.822  36.970  1.00  0.00     0.064 A 
ATOM     75  C   UNL A   1      40.168  35.081  37.075  1.00  0.00     0.173 A 
ATOM     76  C   UNL A   1      38.747  33.399  38.031  1.00  0.00     0.173 A 
ATOM     77  F   UNL A   1      40.970  35.522  36.095  1.00  0.00    -0.203 F 
ATOM     78  C   UNL A   1      39.973  35.881  38.199  1.00  0.00     0.198 A 
ATOM     79  C   UNL A   1      38.528  34.213  39.140  1.00  0.00     0.198 A 
ATOM     80  F   UNL A   1      38.137  32.206  37.975  1.00  0.00    -0.203 F 
ATOM     81  F   UNL A   1      40.592  37.067  38.289  1.00  0.00    -0.200 F 
ATOM     82  C   UNL A   1      39.147  35.451  39.226  1.00  0.00     0.200 A 
ATOM     83  F   UNL A   1      37.711  33.802  40.119  1.00  0.00    -0.200 F 
ATOM     84  F   UNL A   1      38.946  36.228  40.299  1.00  0.00    -0.200 F 
ENDBRANCH  50  74
BRANCH  62  85
ATOM     85  C   UNL A   1      43.981  28.687  35.267  1.00  0.00     0.064 A 
ATOM     86  C   UNL A   1      45.291  29.160  35.086  1.00  0.00     0.173 A 
ATOM     87  C   UNL A   1      43.785  27.635  36.175  1.00  0.00     0.173 A 
ATOM     88  F   UNL A   1      45.536  30.154  34.219  1.00  0.00    -0.203 F 
ATOM     89  C   UNL A   1      46.361  28.583  35.765  1.00  0.00     0.198 A 
ATOM     90  C   UNL A   1      44.852  27.085  36.879  1.00  0.00     0.198 A 
ATOM     91  F   UNL A   1      42.553  27.149  36.391  1.00  0.00    -0.203 F 
ATOM     92  F   UNL A   1      47.608  29.014  35.535  1.00  0.00    -0.200 F 
ATOM     93  C   UNL A   1      46.140  27.553  36.667  1.00  0.00     0.200 A 
ATOM     94  F   UNL A   1      44.633  26.102  37.763  1.00  0.00    -0.200 F 
ATOM     95  F   UNL A   1      47.169  27.005  37.327  1.00  0.00    -0.200 F 
ENDBRANCH  62  85
ENDBRANCH  36  37
ENDBRANCH  28  31
ENDBRANCH  26  27
ENDBRANCH  25  26
ENDBRANCH  24  25
ENDBRANCH   3  24
TORSDOF 15
ENDMDL
MODEL 2
REMARK VINA RESULT:     -12.3      6.584     11.372
REMARK SMILES CCN(C)S(=O)(=O)N1CC[C@H](Cc2ccc(C(=O)NCCCNC(=O)c3ccc(-c4c5nc(c(-c6c(F)c(F)c(F)c(F)c6F)c6ccc([nH]6)c(-c6c(F)c(F)c(F)c(F)c6F)c6nc(c(-c7c(F)c(F)c(F)c(F)c7F)c7ccc4[nH]7)C=C6)C=C5)cc3)cc2)C1
REMARK SMILES IDX 17 1 18 2 19 3 16 5 13 6 14 7 90 8 15 9 89 10 12 11 11 12
REMARK SMILES IDX 8 13 9 14 91 15 10 16 5 17 6 18 7 19 3 20 4 21 2 22 1 23
REMARK SMILES IDX 20 24 21 25 22 26 23 27 24 28 25 30 26 31 27 32 88 33 28 34
REMARK SMILES IDX 87 35 29 36 30 37 31 38 81 39 32 40 86 41 80 42 82 43 33 44
REMARK SMILES IDX 85 45 79 46 78 47 34 49 66 50 46 51 65 52 47 53 50 54 64 55
REMARK SMILES IDX 83 56 48 57 49 58 63 60 84 61 51 62 35 63 36 64 44 65 37 66
REMARK SMILES IDX 38 67 42 68 45 69 39 70 40 71 43 72 41 73 67 74 68 75 76 76
REMARK SMILES IDX 69 77 70 78 74 79 77 80 71 81 72 82 75 83 73 84 52 85 53 86
REMARK SMILES IDX 61 87 54 88 55 89 59 90 62 91 56 92 57 93 60 94 58 95
REMARK H PARENT 19 4 23 29 82 48 50 59
REMARK Flexibility Score: inf
ROOT
ATOM      1  C   UNL A   1      41.712  22.015  28.077  1.00  0.00     0.251 C 
ATOM      2  O   UNL A   1      42.342  22.868  28.702  1.00  0.00    -0.269 OA
ATOM      3  N   UNL A   1      42.151  20.717  28.158  1.00  0.00    -0.352 N 
ATOM      4  H   UNL A   1      42.976  20.604  28.682  1.00  0.00     0.163 HD
ENDROOT
BRANCH   1   5
ATOM      5  C   UNL A   1      40.492  22.412  27.325  1.00  0.00     0.039 A 
ATOM      6  C   UNL A   1      38.115  23.259  26.068  1.00  0.00    -0.048 A 
ATOM      7  C   UNL A   1      38.800  24.116  26.939  1.00  0.00     0.004 A 
ATOM      8  C   UNL A   1      38.663  22.007  25.781  1.00  0.00     0.004 A 
ATOM      9  C   UNL A   1      39.978  23.693  27.562  1.00  0.00     0.014 A 
ATOM     10  C   UNL A   1      39.852  21.599  26.387  1.00  0.00     0.014 A 
BRANCH   6  11
ATOM     11  C   UNL A   1      36.778  23.648  25.479  1.00  0.00     0.040 C 
BRANCH  11  12
ATOM     12  C   UNL A   1      35.677  22.647  25.871  1.00  0.00     0.010 C 
ATOM     13  N   UNL A   1      33.759  21.991  24.521  1.00  0.00    -0.189 NA
ATOM     14  C   UNL A   1      33.289  22.491  25.833  1.00  0.00     0.104 C 
ATOM     15  C   UNL A   1      35.228  21.742  24.707  1.00  0.00     0.107 C 
ATOM     16  C   UNL A   1      34.409  23.358  26.346  1.00  0.00     0.022 C 
BRANCH  13  17
ATOM     17  S   UNL A   1      33.458  22.921  23.136  1.00  0.00     0.281 S 
ATOM     18  O   UNL A   1      32.631  22.136  22.251  1.00  0.00    -0.195 OA
ATOM     19  O   UNL A   1      34.740  23.423  22.692  1.00  0.00    -0.195 OA
BRANCH  17  20
ATOM     20  N   UNL A   1      32.543  24.223  23.713  1.00  0.00    -0.192 NA
ATOM     21  C   UNL A   1      31.090  24.134  23.415  1.00  0.00     0.125 C 
BRANCH  20  22
ATOM     22  C   UNL A   1      33.050  25.579  23.320  1.00  0.00     0.100 C 
ATOM     23  C   UNL A   1      33.817  26.304  24.412  1.00  0.00     0.022 C 
ENDBRANCH  20  22
ENDBRANCH  17  20
ENDBRANCH  13  17
ENDBRANCH  11  12
ENDBRANCH   6  11
ENDBRANCH   1   5
BRANCH   3  24
ATOM     24  C   UNL A   1      41.621  19.481  27.613  1.00  0.00     0.118 C 
BRANCH  24  25
ATOM     25  C   UNL A   1      42.684  18.744  26.799  1.00  0.00     0.042 C 
BRANCH  25  26
ATOM     26  C   UNL A   1      42.787  19.240  25.361  1.00  0.00     0.118 C 
BRANCH  26  27
ATOM     27  N   UNL A   1      44.059  18.873  24.753  1.00  0.00    -0.352 N 
ATOM     28  C   UNL A   1      45.106  19.662  24.354  1.00  0.00     0.251 C 
ATOM     29  H   UNL A   1      44.186  17.908  24.606  1.00  0.00     0.163 HD
ATOM     30  O   UNL A   1      45.980  19.190  23.633  1.00  0.00    -0.269 OA
BRANCH  28  31
ATOM     31  C   UNL A   1      45.188  21.076  24.779  1.00  0.00     0.039 A 
ATOM     32  C   UNL A   1      45.494  21.359  26.113  1.00  0.00     0.014 A 
ATOM     33  C   UNL A   1      44.918  22.117  23.887  1.00  0.00     0.014 A 
ATOM     34  C   UNL A   1      45.578  22.686  26.538  1.00  0.00     0.010 A 
ATOM     35  C   UNL A   1      45.085  23.438  24.290  1.00  0.00     0.010 A 
ATOM     36  C   UNL A   1      45.405  23.736  25.623  1.00  0.00    -0.014 A 
BRANCH  36  37
ATOM     37  C   UNL A   1      45.558  25.151  26.044  1.00  0.00     0.031 A 
ATOM     38  C   UNL A   1      46.908  25.811  26.014  1.00  0.00     0.074 A 
ATOM     39  C   UNL A   1      44.490  25.816  26.522  1.00  0.00     0.049 A 
ATOM     40  N   UNL A   1      47.250  27.016  26.396  1.00  0.00    -0.248 NA
ATOM     41  C   UNL A   1      48.028  24.999  25.517  1.00  0.00     0.031 C 
ATOM     42  C   UNL A   1      43.143  25.260  26.655  1.00  0.00     0.029 A 
ATOM     43  N   UNL A   1      44.371  27.097  26.997  1.00  0.00    -0.354 N 
ATOM     44  C   UNL A   1      48.621  27.098  26.203  1.00  0.00     0.074 A 
ATOM     45  C   UNL A   1      49.059  25.804  25.725  1.00  0.00     0.031 C 
ATOM     46  C   UNL A   1      42.330  26.198  27.165  1.00  0.00     0.029 A 
ATOM     47  C   UNL A   1      43.106  27.405  27.433  1.00  0.00     0.049 A 
ATOM     48  H   UNL A   1      45.120  27.736  27.023  1.00  0.00     0.167 HD
ATOM     49  C   UNL A   1      49.439  28.163  26.390  1.00  0.00     0.037 A 
ATOM     50  C   UNL A   1      42.628  28.527  28.002  1.00  0.00     0.037 A 
ATOM     51  C   UNL A   1      48.990  29.449  26.855  1.00  0.00     0.049 A 
ATOM     52  C   UNL A   1      43.551  29.699  28.197  1.00  0.00     0.074 A 
ATOM     53  C   UNL A   1      49.719  30.617  27.004  1.00  0.00     0.029 A 
ATOM     54  N   UNL A   1      47.694  29.734  27.264  1.00  0.00    -0.354 N 
ATOM     55  N   UNL A   1      44.829  29.798  27.926  1.00  0.00    -0.248 NA
ATOM     56  C   UNL A   1      42.962  30.918  28.768  1.00  0.00     0.031 C 
ATOM     57  C   UNL A   1      48.882  31.585  27.569  1.00  0.00     0.029 A 
ATOM     58  C   UNL A   1      47.612  31.047  27.703  1.00  0.00     0.049 A 
ATOM     59  H   UNL A   1      46.943  29.097  27.246  1.00  0.00     0.167 HD
ATOM     60  C   UNL A   1      45.195  31.091  28.271  1.00  0.00     0.074 A 
ATOM     61  C   UNL A   1      43.996  31.746  28.754  1.00  0.00     0.031 C 
ATOM     62  C   UNL A   1      46.413  31.683  28.192  1.00  0.00     0.037 A 
BRANCH  49  63
ATOM     63  C   UNL A   1      50.904  27.970  26.109  1.00  0.00     0.064 A 
ATOM     64  C   UNL A   1      51.438  28.102  24.817  1.00  0.00     0.173 A 
ATOM     65  C   UNL A   1      51.791  27.657  27.151  1.00  0.00     0.173 A 
ATOM     66  F   UNL A   1      50.637  28.393  23.781  1.00  0.00    -0.203 F 
ATOM     67  C   UNL A   1      52.792  27.880  24.572  1.00  0.00     0.198 A 
ATOM     68  C   UNL A   1      53.151  27.474  26.909  1.00  0.00     0.198 A 
ATOM     69  F   UNL A   1      51.340  27.527  28.408  1.00  0.00    -0.203 F 
ATOM     70  F   UNL A   1      53.263  27.941  23.319  1.00  0.00    -0.200 F 
ATOM     71  C   UNL A   1      53.647  27.572  25.618  1.00  0.00     0.200 A 
ATOM     72  F   UNL A   1      53.978  27.193  27.925  1.00  0.00    -0.200 F 
ATOM     73  F   UNL A   1      54.949  27.359  25.382  1.00  0.00    -0.200 F 
ENDBRANCH  49  63
BRANCH  50  74
ATOM     74  C   UNL A   1      41.201  28.587  28.414  1.00  0.00     0.064 A 
ATOM     75  C   UNL A   1      40.802  28.228  29.707  1.00  0.00     0.173 A 
ATOM     76  C   UNL A   1      40.210  29.039  27.527  1.00  0.00     0.173 A 
ATOM     77  F   UNL A   1      41.709  27.774  30.585  1.00  0.00    -0.203 F 
ATOM     78  C   UNL A   1      39.467  28.306  30.097  1.00  0.00     0.198 A 
ATOM     79  C   UNL A   1      38.881  29.147  27.927  1.00  0.00     0.198 A 
ATOM     80  F   UNL A   1      40.542  29.405  26.280  1.00  0.00    -0.203 F 
ATOM     81  F   UNL A   1      39.107  27.922  31.330  1.00  0.00    -0.200 F 
ATOM     82  C   UNL A   1      38.509  28.775  29.210  1.00  0.00     0.200 A 
ATOM     83  F   UNL A   1      37.963  29.621  27.074  1.00  0.00    -0.200 F 
ATOM     84  F   UNL A   1      37.227  28.866  29.590  1.00  0.00    -0.200 F 
ENDBRANCH  50  74
BRANCH  62  85
ATOM     85  C   UNL A   1      46.508  33.122  28.616  1.00  0.00     0.064 A 
ATOM     86  C   UNL A   1      46.836  33.486  29.932  1.00  0.00     0.173 A 
ATOM     87  C   UNL A   1      46.307  34.151  27.683  1.00  0.00     0.173 A 
ATOM     88  F   UNL A   1      47.023  32.542  30.867  1.00  0.00    -0.203 F 
ATOM     89  C   UNL A   1      46.930  34.825  30.302  1.00  0.00     0.198 A 
ATOM     90  C   UNL A   1      46.438  35.488  28.049  1.00  0.00     0.198 A 
ATOM     91  F   UNL A   1      45.999  33.859  26.410  1.00  0.00    -0.203 F 
ATOM     92  F   UNL A   1      47.189  35.148  31.576  1.00  0.00    -0.200 F 
ATOM     93  C   UNL A   1      46.740  35.824  29.359  1.00  0.00     0.200 A 
ATOM     94  F   UNL A   1      46.272  36.450  27.131  1.00  0.00    -0.200 F 
ATOM     95  F   UNL A   1      46.841  37.112  29.715  1.00  0.00    -0.200 F 
ENDBRANCH  62  85
ENDBRANCH  36  37
ENDBRANCH  28  31
ENDBRANCH  26  27
ENDBRANCH  25  26
ENDBRANCH  24  25
ENDBRANCH   3  24
TORSDOF 15
ENDMDL
MODEL 3
REMARK VINA RESULT:     -12.2      2.303      7.948
REMARK SMILES CCN(C)S(=O)(=O)N1CC[C@H](Cc2ccc(C(=O)NCCCNC(=O)c3ccc(-c4c5nc(c(-c6c(F)c(F)c(F)c(F)c6F)c6ccc([nH]6)c(-c6c(F)c(F)c(F)c(F)c6F)c6nc(c(-c7c(F)c(F)c(F)c(F)c7F)c7ccc4[nH]7)C=C6)C=C5)cc3)cc2)C1
REMARK SMILES IDX 17 1 18 2 19 3 16 5 13 6 14 7 90 8 15 9 89 10 12 11 11 12
REMARK SMILES IDX 8 13 9 14 91 15 10 16 5 17 6 18 7 19 3 20 4 21 2 22 1 23
REMARK SMILES IDX 20 24 21 25 22 26 23 27 24 28 25 30 26 31 27 32 88 33 28 34
REMARK SMILES IDX 87 35 29 36 30 37 31 38 81 39 32 40 86 41 80 42 82 43 33 44
REMARK SMILES IDX 85 45 79 46 78 47 34 49 66 50 46 51 65 52 47 53 50 54 64 55
REMARK SMILES IDX 83 56 48 57 49 58 63 60 84 61 51 62 35 63 36 64 44 65 37 66
REMARK SMILES IDX 38 67 42 68 45 69 39 70 40 71 43 72 41 73 67 74 68 75 76 76
REMARK SMILES IDX 69 77 70 78 74 79 77 80 71 81 72 82 75 83 73 84 52 85 53 86
REMARK SMILES IDX 61 87 54 88 55 89 59 90 62 91 56 92 57 93 60 94 58 95
REMARK H PARENT 19 4 23 29 82 48 50 59
REMARK Flexibility Score: inf
ROOT
ATOM      1  C   UNL A   1      36.271  33.396  28.454  1.00  0.00     0.251 C 
ATOM      2  O   UNL A   1      37.435  33.353  28.853  1.00  0.00    -0.269 OA
ATOM      3  N   UNL A   1      35.699  34.633  28.298  1.00  0.00    -0.352 N 
ATOM      4  H   UNL A   1      36.275  35.380  28.575  1.00  0.00     0.163 HD
ENDROOT
BRANCH   1   5
ATOM      5  C   UNL A   1      35.570  32.129  28.110  1.00  0.00     0.039 A 
ATOM      6  C   UNL A   1      34.401  29.684  27.335  1.00  0.00    -0.048 A 
ATOM      7  C   UNL A   1      35.777  29.765  27.578  1.00  0.00     0.004 A 
ATOM      8  C   UNL A   1      33.609  30.815  27.548  1.00  0.00     0.004 A 
ATOM      9  C   UNL A   1      36.355  30.979  27.960  1.00  0.00     0.014 A 
ATOM     10  C   UNL A   1      34.187  32.018  27.954  1.00  0.00     0.014 A 
BRANCH   6  11
ATOM     11  C   UNL A   1      33.773  28.416  26.803  1.00  0.00     0.040 C 
BRANCH  11  12
ATOM     12  C   UNL A   1      33.203  28.619  25.389  1.00  0.00     0.010 C 
ATOM     13  N   UNL A   1      31.244  27.527  24.439  1.00  0.00    -0.189 NA
ATOM     14  C   UNL A   1      32.412  27.295  23.559  1.00  0.00     0.104 C 
ATOM     15  C   UNL A   1      31.662  28.647  25.347  1.00  0.00     0.107 C 
ATOM     16  C   UNL A   1      33.615  27.489  24.444  1.00  0.00     0.022 C 
BRANCH  13  17
ATOM     17  S   UNL A   1      30.608  26.223  25.315  1.00  0.00     0.281 S 
ATOM     18  O   UNL A   1      29.229  26.062  24.924  1.00  0.00    -0.195 OA
ATOM     19  O   UNL A   1      30.957  26.450  26.700  1.00  0.00    -0.195 OA
BRANCH  17  20
ATOM     20  N   UNL A   1      31.486  24.890  24.752  1.00  0.00    -0.192 NA
ATOM     21  C   UNL A   1      30.755  24.040  23.775  1.00  0.00     0.125 C 
BRANCH  20  22
ATOM     22  C   UNL A   1      32.078  24.022  25.822  1.00  0.00     0.100 C 
ATOM     23  C   UNL A   1      33.547  24.286  26.104  1.00  0.00     0.022 C 
ENDBRANCH  20  22
ENDBRANCH  17  20
ENDBRANCH  13  17
ENDBRANCH  11  12
ENDBRANCH   6  11
ENDBRANCH   1   5
BRANCH   3  24
ATOM     24  C   UNL A   1      34.398  35.042  27.799  1.00  0.00     0.118 C 
BRANCH  24  25
ATOM     25  C   UNL A   1      33.667  35.905  28.826  1.00  0.00     0.042 C 
BRANCH  25  26
ATOM     26  C   UNL A   1      32.917  35.088  29.872  1.00  0.00     0.118 C 
BRANCH  26  27
ATOM     27  N   UNL A   1      32.497  35.908  30.999  1.00  0.00    -0.352 N 
ATOM     28  C   UNL A   1      32.903  35.884  32.308  1.00  0.00     0.251 C 
ATOM     29  H   UNL A   1      31.815  36.586  30.789  1.00  0.00     0.163 HD
ATOM     30  O   UNL A   1      32.249  36.482  33.157  1.00  0.00    -0.269 OA
BRANCH  28  31
ATOM     31  C   UNL A   1      34.118  35.140  32.705  1.00  0.00     0.039 A 
ATOM     32  C   UNL A   1      33.971  33.897  33.326  1.00  0.00     0.014 A 
ATOM     33  C   UNL A   1      35.393  35.680  32.514  1.00  0.00     0.014 A 
ATOM     34  C   UNL A   1      35.102  33.175  33.710  1.00  0.00     0.010 A 
ATOM     35  C   UNL A   1      36.520  34.924  32.819  1.00  0.00     0.010 A 
ATOM     36  C   UNL A   1      36.386  33.669  33.431  1.00  0.00    -0.014 A 
BRANCH  36  37
ATOM     37  C   UNL A   1      37.598  32.882  33.770  1.00  0.00     0.031 A 
ATOM     38  C   UNL A   1      38.373  33.183  35.022  1.00  0.00     0.074 A 
ATOM     39  C   UNL A   1      38.037  31.944  32.911  1.00  0.00     0.049 A 
ATOM     40  N   UNL A   1      39.485  32.645  35.457  1.00  0.00    -0.248 NA
ATOM     41  C   UNL A   1      37.846  34.250  35.884  1.00  0.00     0.031 C 
ATOM     42  C   UNL A   1      37.402  31.607  31.636  1.00  0.00     0.029 A 
ATOM     43  N   UNL A   1      39.127  31.114  32.970  1.00  0.00    -0.354 N 
ATOM     44  C   UNL A   1      39.797  33.319  36.629  1.00  0.00     0.074 A 
ATOM     45  C   UNL A   1      38.791  34.344  36.807  1.00  0.00     0.031 C 
ATOM     46  C   UNL A   1      38.106  30.632  31.041  1.00  0.00     0.029 A 
ATOM     47  C   UNL A   1      39.262  30.306  31.869  1.00  0.00     0.049 A 
ATOM     48  H   UNL A   1      39.754  31.099  33.730  1.00  0.00     0.167 HD
ATOM     49  C   UNL A   1      40.820  33.092  37.488  1.00  0.00     0.037 A 
ATOM     50  C   UNL A   1      40.220  29.415  31.552  1.00  0.00     0.037 A 
ATOM     51  C   UNL A   1      41.809  32.061  37.306  1.00  0.00     0.049 A 
ATOM     52  C   UNL A   1      41.345  29.174  32.521  1.00  0.00     0.074 A 
ATOM     53  C   UNL A   1      42.839  31.693  38.154  1.00  0.00     0.029 A 
ATOM     54  N   UNL A   1      41.900  31.241  36.190  1.00  0.00    -0.354 N 
ATOM     55  N   UNL A   1      41.581  29.754  33.672  1.00  0.00    -0.248 NA
ATOM     56  C   UNL A   1      42.329  28.148  32.152  1.00  0.00     0.031 C 
ATOM     57  C   UNL A   1      43.595  30.701  37.519  1.00  0.00     0.029 A 
ATOM     58  C   UNL A   1      42.993  30.397  36.308  1.00  0.00     0.049 A 
ATOM     59  H   UNL A   1      41.281  31.257  35.424  1.00  0.00     0.167 HD
ATOM     60  C   UNL A   1      42.726  29.152  34.176  1.00  0.00     0.074 A 
ATOM     61  C   UNL A   1      43.125  28.148  33.211  1.00  0.00     0.031 C 
ATOM     62  C   UNL A   1      43.385  29.407  35.334  1.00  0.00     0.037 A 
BRANCH  49  63
ATOM     63  C   UNL A   1      40.929  33.989  38.691  1.00  0.00     0.064 A 
ATOM     64  C   UNL A   1      41.681  35.174  38.670  1.00  0.00     0.173 A 
ATOM     65  C   UNL A   1      40.263  33.662  39.883  1.00  0.00     0.173 A 
ATOM     66  F   UNL A   1      42.345  35.534  37.561  1.00  0.00    -0.203 F 
ATOM     67  C   UNL A   1      41.802  35.971  39.807  1.00  0.00     0.198 A 
ATOM     68  C   UNL A   1      40.354  34.480  41.006  1.00  0.00     0.198 A 
ATOM     69  F   UNL A   1      39.522  32.546  39.960  1.00  0.00    -0.203 F 
ATOM     70  F   UNL A   1      42.584  37.058  39.782  1.00  0.00    -0.200 F 
ATOM     71  C   UNL A   1      41.134  35.625  40.972  1.00  0.00     0.200 A 
ATOM     72  F   UNL A   1      39.694  34.154  42.126  1.00  0.00    -0.200 F 
ATOM     73  F   UNL A   1      41.251  36.392  42.065  1.00  0.00    -0.200 F 
ENDBRANCH  49  63
BRANCH  50  74
ATOM     74  C   UNL A   1      40.139  28.683  30.261  1.00  0.00     0.064 A 
ATOM     75  C   UNL A   1      40.738  29.189  29.100  1.00  0.00     0.173 A 
ATOM     76  C   UNL A   1      39.487  27.443  30.172  1.00  0.00     0.173 A 
ATOM     77  F   UNL A   1      41.358  30.377  29.131  1.00  0.00    -0.203 F 
ATOM     78  C   UNL A   1      40.679  28.489  27.897  1.00  0.00     0.198 A 
ATOM     79  C   UNL A   1      39.456  26.729  28.976  1.00  0.00     0.198 A 
ATOM     80  F   UNL A   1      38.906  26.910  31.257  1.00  0.00    -0.203 F 
ATOM     81  F   UNL A   1      41.230  29.012  26.792  1.00  0.00    -0.200 F 
ATOM     82  C   UNL A   1      40.047  27.256  27.837  1.00  0.00     0.200 A 
ATOM     83  F   UNL A   1      38.863  25.529  28.930  1.00  0.00    -0.200 F 
ATOM     84  F   UNL A   1      40.005  26.576  26.684  1.00  0.00    -0.200 F 
ENDBRANCH  50  74
BRANCH  62  85
ATOM     85  C   UNL A   1      44.597  28.570  35.636  1.00  0.00     0.064 A 
ATOM     86  C   UNL A   1      45.887  28.968  35.250  1.00  0.00     0.173 A 
ATOM     87  C   UNL A   1      44.469  27.371  36.356  1.00  0.00     0.173 A 
ATOM     88  F   UNL A   1      46.064  30.097  34.547  1.00  0.00    -0.203 F 
ATOM     89  C   UNL A   1      46.997  28.183  35.550  1.00  0.00     0.198 A 
ATOM     90  C   UNL A   1      45.585  26.609  36.684  1.00  0.00     0.198 A 
ATOM     91  F   UNL A   1      43.260  26.948  36.754  1.00  0.00    -0.203 F 
ATOM     92  F   UNL A   1      48.212  28.555  35.124  1.00  0.00    -0.200 F 
ATOM     93  C   UNL A   1      46.847  27.010  36.273  1.00  0.00     0.200 A 
ATOM     94  F   UNL A   1      45.439  25.485  37.399  1.00  0.00    -0.200 F 
ATOM     95  F   UNL A   1      47.918  26.261  36.569  1.00  0.00    -0.200 F 
ENDBRANCH  62  85
ENDBRANCH  36  37
ENDBRANCH  28  31
ENDBRANCH  26  27
ENDBRANCH  25  26
ENDBRANCH  24  25
ENDBRANCH   3  24
TORSDOF 15
ENDMDL
