MODEL 1
REMARK VINA RESULT:     -13.2      0.000      0.000
REMARK SMILES C/C(=N\NC(N)=S)c1nnn(-c2ccc(C(=O)NCCCNC(=O)c3ccc(-c4c5nc(c(-c6c(F)c(F)c(F)c(F)c6F)c6ccc([nH]6)c(-c6c(F)c(F)c(F)c(F)c6F)c6nc(c(-c7c(F)c(F)c(F)c(F)c7F)c7ccc4[nH]7)C=C6)C=C5)cc3)cc2)c1C
REMARK SMILES IDX 16 1 17 2 18 3 15 5 12 6 13 7 89 8 14 9 88 10 11 11 8 12
REMARK SMILES IDX 9 13 90 14 10 15 91 16 2 17 1 18 3 19 4 20 5 22 7 23 6 24
REMARK SMILES IDX 19 27 20 28 21 29 22 30 23 31 24 33 25 34 26 35 87 36 27 37
REMARK SMILES IDX 86 38 28 39 29 40 30 41 80 42 31 43 85 44 79 45 81 46 32 47
REMARK SMILES IDX 84 48 78 49 77 50 33 52 65 53 45 54 64 55 46 56 49 57 63 58
REMARK SMILES IDX 82 59 47 60 48 61 62 63 83 64 50 65 34 66 35 67 43 68 36 69
REMARK SMILES IDX 37 70 41 71 44 72 38 73 39 74 42 75 40 76 66 77 67 78 75 79
REMARK SMILES IDX 68 80 69 81 73 82 76 83 70 84 71 85 74 86 72 87 51 88 52 89
REMARK SMILES IDX 60 90 53 91 54 92 58 93 61 94 55 95 56 96 59 97 57 98
REMARK H PARENT 18 4 4 21 6 25 6 26 22 32 81 51 49 62
REMARK Flexibility Score: inf
ROOT
ATOM      1  C   UNL A   1      35.288  20.307  25.021  1.00  0.00     0.251 C 
ATOM      2  O   UNL A   1      34.786  19.244  24.655  1.00  0.00    -0.269 OA
ATOM      3  N   UNL A   1      36.663  20.395  25.048  1.00  0.00    -0.352 N 
ATOM      4  H   UNL A   1      37.123  19.543  24.873  1.00  0.00     0.163 HD
ENDROOT
BRANCH   1   5
ATOM      5  C   UNL A   1      34.398  21.455  25.357  1.00  0.00     0.039 A 
ATOM      6  C   UNL A   1      32.866  23.751  25.738  1.00  0.00     0.067 A 
ATOM      7  C   UNL A   1      32.508  22.864  24.723  1.00  0.00     0.029 A 
ATOM      8  C   UNL A   1      33.883  23.446  26.636  1.00  0.00     0.029 A 
ATOM      9  C   UNL A   1      33.301  21.726  24.519  1.00  0.00     0.016 A 
ATOM     10  C   UNL A   1      34.608  22.277  26.463  1.00  0.00     0.016 A 
BRANCH   6  11
ATOM     11  N   UNL A   1      32.293  25.027  25.810  1.00  0.00    -0.217 N 
ATOM     12  C   UNL A   1      31.832  27.130  25.555  1.00  0.00     0.132 A 
ATOM     13  N   UNL A   1      31.012  26.609  26.525  1.00  0.00    -0.128 NA
ATOM     14  C   UNL A   1      32.646  26.133  25.059  1.00  0.00     0.071 A 
ATOM     15  N   UNL A   1      31.251  25.307  26.613  1.00  0.00    -0.061 NA
ATOM     16  C   UNL A   1      33.578  26.101  23.906  1.00  0.00     0.069 C 
BRANCH  12  17
ATOM     17  C   UNL A   1      31.647  28.468  25.027  1.00  0.00     0.087 C 
ATOM     18  C   UNL A   1      32.766  29.436  25.303  1.00  0.00     0.071 C 
ATOM     19  N   UNL A   1      30.561  28.655  24.336  1.00  0.00    -0.176 NA
BRANCH  19  20
ATOM     20  N   UNL A   1      30.300  29.826  23.687  1.00  0.00    -0.254 N 
ATOM     21  H   UNL A   1      30.448  30.642  24.218  1.00  0.00     0.193 HD
BRANCH  20  22
ATOM     22  C   UNL A   1      29.862  30.036  22.396  1.00  0.00     0.184 C 
ATOM     23  S   UNL A   1      28.326  30.312  21.822  1.00  0.00    -0.040 S 
BRANCH  22  24
ATOM     24  N   UNL A   1      30.894  29.994  21.495  1.00  0.00    -0.375 N 
ATOM     25  H   UNL A   1      31.480  30.777  21.382  1.00  0.00     0.159 HD
ATOM     26  H   UNL A   1      31.049  29.182  20.962  1.00  0.00     0.159 HD
ENDBRANCH  22  24
ENDBRANCH  20  22
ENDBRANCH  19  20
ENDBRANCH  12  17
ENDBRANCH   6  11
ENDBRANCH   1   5
BRANCH   3  27
ATOM     27  C   UNL A   1      37.565  21.517  25.290  1.00  0.00     0.118 C 
BRANCH  27  28
ATOM     28  C   UNL A   1      38.951  21.064  25.773  1.00  0.00     0.042 C 
BRANCH  28  29
ATOM     29  C   UNL A   1      39.740  22.174  26.434  1.00  0.00     0.118 C 
BRANCH  29  30
ATOM     30  N   UNL A   1      41.158  22.148  26.083  1.00  0.00    -0.352 N 
ATOM     31  C   UNL A   1      42.051  23.206  26.061  1.00  0.00     0.251 C 
ATOM     32  H   UNL A   1      41.525  21.269  25.833  1.00  0.00     0.163 HD
ATOM     33  O   UNL A   1      43.083  23.146  25.420  1.00  0.00    -0.269 OA
BRANCH  31  34
ATOM     34  C   UNL A   1      41.707  24.421  26.824  1.00  0.00     0.039 A 
ATOM     35  C   UNL A   1      42.189  24.623  28.118  1.00  0.00     0.014 A 
ATOM     36  C   UNL A   1      40.938  25.390  26.189  1.00  0.00     0.014 A 
ATOM     37  C   UNL A   1      41.961  25.855  28.725  1.00  0.00     0.010 A 
ATOM     38  C   UNL A   1      40.892  26.659  26.702  1.00  0.00     0.010 A 
ATOM     39  C   UNL A   1      41.337  26.882  27.996  1.00  0.00    -0.014 A 
BRANCH  39  40
ATOM     40  C   UNL A   1      41.208  28.221  28.554  1.00  0.00     0.031 A 
ATOM     41  C   UNL A   1      42.266  29.172  28.127  1.00  0.00     0.074 A 
ATOM     42  C   UNL A   1      40.137  28.634  29.263  1.00  0.00     0.049 A 
ATOM     43  N   UNL A   1      43.249  29.614  28.839  1.00  0.00    -0.248 NA
ATOM     44  C   UNL A   1      42.327  29.573  26.714  1.00  0.00     0.031 C 
ATOM     45  C   UNL A   1      38.865  27.933  29.493  1.00  0.00     0.029 A 
ATOM     46  N   UNL A   1      39.927  29.836  29.869  1.00  0.00    -0.354 N 
ATOM     47  C   UNL A   1      43.942  30.505  28.027  1.00  0.00     0.074 A 
ATOM     48  C   UNL A   1      43.442  30.308  26.692  1.00  0.00     0.031 C 
ATOM     49  C   UNL A   1      37.947  28.798  29.974  1.00  0.00     0.029 A 
ATOM     50  C   UNL A   1      38.616  30.048  30.274  1.00  0.00     0.049 A 
ATOM     51  H   UNL A   1      40.643  30.496  30.008  1.00  0.00     0.167 HD
ATOM     52  C   UNL A   1      44.680  31.509  28.579  1.00  0.00     0.037 A 
ATOM     53  C   UNL A   1      38.114  31.178  30.821  1.00  0.00     0.037 A 
ATOM     54  C   UNL A   1      44.833  31.305  29.998  1.00  0.00     0.049 A 
ATOM     55  C   UNL A   1      39.254  31.921  31.402  1.00  0.00     0.074 A 
ATOM     56  C   UNL A   1      45.509  30.422  30.811  1.00  0.00     0.029 A 
ATOM     57  N   UNL A   1      43.858  31.891  30.761  1.00  0.00    -0.354 N 
ATOM     58  N   UNL A   1      39.954  31.496  32.418  1.00  0.00    -0.248 NA
ATOM     59  C   UNL A   1      39.869  32.987  30.625  1.00  0.00     0.031 C 
ATOM     60  C   UNL A   1      44.706  30.290  31.985  1.00  0.00     0.029 A 
ATOM     61  C   UNL A   1      43.597  31.129  31.866  1.00  0.00     0.049 A 
ATOM     62  H   UNL A   1      43.410  32.741  30.545  1.00  0.00     0.167 HD
ATOM     63  C   UNL A   1      41.244  31.913  32.148  1.00  0.00     0.074 A 
ATOM     64  C   UNL A   1      41.099  32.962  31.146  1.00  0.00     0.031 C 
ATOM     65  C   UNL A   1      42.313  31.157  32.536  1.00  0.00     0.037 A 
BRANCH  52  66
ATOM     66  C   UNL A   1      44.862  32.888  27.984  1.00  0.00     0.064 A 
ATOM     67  C   UNL A   1      46.160  33.307  27.615  1.00  0.00     0.173 A 
ATOM     68  C   UNL A   1      43.899  33.915  28.075  1.00  0.00     0.173 A 
ATOM     69  F   UNL A   1      47.161  32.420  27.524  1.00  0.00    -0.203 F 
ATOM     70  C   UNL A   1      46.477  34.654  27.426  1.00  0.00     0.198 A 
ATOM     71  C   UNL A   1      44.208  35.253  27.835  1.00  0.00     0.198 A 
ATOM     72  F   UNL A   1      42.656  33.687  28.517  1.00  0.00    -0.203 F 
ATOM     73  F   UNL A   1      47.749  35.015  27.203  1.00  0.00    -0.200 F 
ATOM     74  C   UNL A   1      45.502  35.627  27.542  1.00  0.00     0.200 A 
ATOM     75  F   UNL A   1      43.253  36.184  27.977  1.00  0.00    -0.200 F 
ATOM     76  F   UNL A   1      45.815  36.924  27.423  1.00  0.00    -0.200 F 
ENDBRANCH  52  66
BRANCH  53  77
ATOM     77  C   UNL A   1      36.779  31.782  30.624  1.00  0.00     0.064 A 
ATOM     78  C   UNL A   1      35.922  32.009  31.713  1.00  0.00     0.173 A 
ATOM     79  C   UNL A   1      36.443  32.422  29.415  1.00  0.00     0.173 A 
ATOM     80  F   UNL A   1      36.193  31.464  32.907  1.00  0.00    -0.203 F 
ATOM     81  C   UNL A   1      34.821  32.865  31.612  1.00  0.00     0.198 A 
ATOM     82  C   UNL A   1      35.342  33.273  29.314  1.00  0.00     0.198 A 
ATOM     83  F   UNL A   1      37.236  32.315  28.339  1.00  0.00    -0.203 F 
ATOM     84  F   UNL A   1      34.071  33.119  32.693  1.00  0.00    -0.200 F 
ATOM     85  C   UNL A   1      34.542  33.509  30.417  1.00  0.00     0.200 A 
ATOM     86  F   UNL A   1      35.104  33.919  28.164  1.00  0.00    -0.200 F 
ATOM     87  F   UNL A   1      33.533  34.387  30.341  1.00  0.00    -0.200 F 
ENDBRANCH  53  77
BRANCH  65  88
ATOM     88  C   UNL A   1      42.086  30.157  33.632  1.00  0.00     0.064 A 
ATOM     89  C   UNL A   1      41.702  28.821  33.434  1.00  0.00     0.173 A 
ATOM     90  C   UNL A   1      42.362  30.560  34.947  1.00  0.00     0.173 A 
ATOM     91  F   UNL A   1      41.501  28.334  32.203  1.00  0.00    -0.203 F 
ATOM     92  C   UNL A   1      41.560  27.943  34.509  1.00  0.00     0.198 A 
ATOM     93  C   UNL A   1      42.258  29.672  36.013  1.00  0.00     0.198 A 
ATOM     94  F   UNL A   1      42.776  31.813  35.191  1.00  0.00    -0.203 F 
ATOM     95  F   UNL A   1      41.171  26.676  34.298  1.00  0.00    -0.200 F 
ATOM     96  C   UNL A   1      41.845  28.369  35.796  1.00  0.00     0.200 A 
ATOM     97  F   UNL A   1      42.579  30.079  37.249  1.00  0.00    -0.200 F 
ATOM     98  F   UNL A   1      41.743  27.517  36.826  1.00  0.00    -0.200 F 
ENDBRANCH  65  88
ENDBRANCH  39  40
ENDBRANCH  31  34
ENDBRANCH  29  30
ENDBRANCH  28  29
ENDBRANCH  27  28
ENDBRANCH   3  27
TORSDOF 15
ENDMDL
MODEL 2
REMARK VINA RESULT:     -12.8      3.895      9.303
REMARK SMILES C/C(=N\NC(N)=S)c1nnn(-c2ccc(C(=O)NCCCNC(=O)c3ccc(-c4c5nc(c(-c6c(F)c(F)c(F)c(F)c6F)c6ccc([nH]6)c(-c6c(F)c(F)c(F)c(F)c6F)c6nc(c(-c7c(F)c(F)c(F)c(F)c7F)c7ccc4[nH]7)C=C6)C=C5)cc3)cc2)c1C
REMARK SMILES IDX 16 1 17 2 18 3 15 5 12 6 13 7 89 8 14 9 88 10 11 11 8 12
REMARK SMILES IDX 9 13 90 14 10 15 91 16 2 17 1 18 3 19 4 20 5 22 7 23 6 24
REMARK SMILES IDX 19 27 20 28 21 29 22 30 23 31 24 33 25 34 26 35 87 36 27 37
REMARK SMILES IDX 86 38 28 39 29 40 30 41 80 42 31 43 85 44 79 45 81 46 32 47
REMARK SMILES IDX 84 48 78 49 77 50 33 52 65 53 45 54 64 55 46 56 49 57 63 58
REMARK SMILES IDX 82 59 47 60 48 61 62 63 83 64 50 65 34 66 35 67 43 68 36 69
REMARK SMILES IDX 37 70 41 71 44 72 38 73 39 74 42 75 40 76 66 77 67 78 75 79
REMARK SMILES IDX 68 80 69 81 73 82 76 83 70 84 71 85 74 86 72 87 51 88 52 89
REMARK SMILES IDX 60 90 53 91 54 92 58 93 61 94 55 95 56 96 59 97 57 98
REMARK H PARENT 18 4 4 21 6 25 6 26 22 32 81 51 49 62
REMARK Flexibility Score: inf
ROOT
ATOM      1  C   UNL A   1      30.900  29.706  24.364  1.00  0.00     0.251 C 
ATOM      2  O   UNL A   1      29.850  30.112  23.866  1.00  0.00    -0.269 OA
ATOM      3  N   UNL A   1      31.464  30.450  25.378  1.00  0.00    -0.352 N 
ATOM      4  H   UNL A   1      31.019  31.314  25.536  1.00  0.00     0.163 HD
ENDROOT
BRANCH   1   5
ATOM      5  C   UNL A   1      31.476  28.414  23.894  1.00  0.00     0.039 A 
ATOM      6  C   UNL A   1      32.605  25.931  23.321  1.00  0.00     0.067 A 
ATOM      7  C   UNL A   1      31.289  25.983  23.780  1.00  0.00     0.029 A 
ATOM      8  C   UNL A   1      33.309  27.092  23.023  1.00  0.00     0.029 A 
ATOM      9  C   UNL A   1      30.737  27.233  24.093  1.00  0.00     0.016 A 
ATOM     10  C   UNL A   1      32.720  28.322  23.269  1.00  0.00     0.016 A 
BRANCH   6  11
ATOM     11  N   UNL A   1      33.295  24.714  23.261  1.00  0.00    -0.217 N 
ATOM     12  C   UNL A   1      34.339  22.876  23.741  1.00  0.00     0.132 A 
ATOM     13  N   UNL A   1      34.390  23.075  22.384  1.00  0.00    -0.128 NA
ATOM     14  C   UNL A   1      33.620  23.897  24.328  1.00  0.00     0.071 A 
ATOM     15  N   UNL A   1      33.681  24.159  22.097  1.00  0.00    -0.061 NA
ATOM     16  C   UNL A   1      33.121  24.085  25.711  1.00  0.00     0.069 C 
BRANCH  12  17
ATOM     17  C   UNL A   1      34.789  21.642  24.356  1.00  0.00     0.087 C 
ATOM     18  C   UNL A   1      36.259  21.574  24.677  1.00  0.00     0.071 C 
ATOM     19  N   UNL A   1      33.862  20.764  24.602  1.00  0.00    -0.176 NA
BRANCH  19  20
ATOM     20  N   UNL A   1      34.113  19.604  25.273  1.00  0.00    -0.254 N 
ATOM     21  H   UNL A   1      34.848  19.647  25.926  1.00  0.00     0.193 HD
BRANCH  20  22
ATOM     22  C   UNL A   1      33.487  18.378  25.172  1.00  0.00     0.184 C 
ATOM     23  S   UNL A   1      33.497  17.274  23.929  1.00  0.00    -0.040 S 
BRANCH  22  24
ATOM     24  N   UNL A   1      32.761  18.084  26.296  1.00  0.00    -0.375 N 
ATOM     25  H   UNL A   1      32.236  17.252  26.339  1.00  0.00     0.159 HD
ATOM     26  H   UNL A   1      32.764  18.704  27.061  1.00  0.00     0.159 HD
ENDBRANCH  22  24
ENDBRANCH  20  22
ENDBRANCH  19  20
ENDBRANCH  12  17
ENDBRANCH   6  11
ENDBRANCH   1   5
BRANCH   3  27
ATOM     27  C   UNL A   1      32.598  30.196  26.261  1.00  0.00     0.118 C 
BRANCH  27  28
ATOM     28  C   UNL A   1      32.813  31.324  27.282  1.00  0.00     0.042 C 
BRANCH  28  29
ATOM     29  C   UNL A   1      34.219  31.355  27.842  1.00  0.00     0.118 C 
BRANCH  29  30
ATOM     30  N   UNL A   1      34.327  32.161  29.056  1.00  0.00    -0.352 N 
ATOM     31  C   UNL A   1      35.224  32.013  30.101  1.00  0.00     0.251 C 
ATOM     32  H   UNL A   1      33.683  32.901  29.142  1.00  0.00     0.163 HD
ATOM     33  O   UNL A   1      34.997  32.489  31.197  1.00  0.00    -0.269 OA
BRANCH  31  34
ATOM     34  C   UNL A   1      36.458  31.245  29.853  1.00  0.00     0.039 A 
ATOM     35  C   UNL A   1      37.667  31.886  29.579  1.00  0.00     0.014 A 
ATOM     36  C   UNL A   1      36.394  29.860  29.964  1.00  0.00     0.014 A 
ATOM     37  C   UNL A   1      38.825  31.117  29.510  1.00  0.00     0.010 A 
ATOM     38  C   UNL A   1      37.550  29.138  30.097  1.00  0.00     0.010 A 
ATOM     39  C   UNL A   1      38.762  29.743  29.802  1.00  0.00    -0.014 A 
BRANCH  39  40
ATOM     40  C   UNL A   1      39.975  28.939  29.874  1.00  0.00     0.031 A 
ATOM     41  C   UNL A   1      40.496  28.729  31.248  1.00  0.00     0.074 A 
ATOM     42  C   UNL A   1      40.503  28.289  28.815  1.00  0.00     0.049 A 
ATOM     43  N   UNL A   1      41.539  29.277  31.777  1.00  0.00    -0.248 NA
ATOM     44  C   UNL A   1      39.699  27.932  32.192  1.00  0.00     0.031 C 
ATOM     45  C   UNL A   1      39.936  28.120  27.469  1.00  0.00     0.029 A 
ATOM     46  N   UNL A   1      41.647  27.554  28.750  1.00  0.00    -0.354 N 
ATOM     47  C   UNL A   1      41.647  28.743  33.057  1.00  0.00     0.074 A 
ATOM     48  C   UNL A   1      40.405  28.066  33.318  1.00  0.00     0.031 C 
ATOM     49  C   UNL A   1      40.608  27.153  26.809  1.00  0.00     0.029 A 
ATOM     50  C   UNL A   1      41.765  26.785  27.600  1.00  0.00     0.049 A 
ATOM     51  H   UNL A   1      42.331  27.566  29.457  1.00  0.00     0.167 HD
ATOM     52  C   UNL A   1      42.858  28.687  33.680  1.00  0.00     0.037 A 
ATOM     53  C   UNL A   1      42.750  25.903  27.318  1.00  0.00     0.037 A 
ATOM     54  C   UNL A   1      43.832  29.475  32.967  1.00  0.00     0.049 A 
ATOM     55  C   UNL A   1      43.919  26.281  28.143  1.00  0.00     0.074 A 
ATOM     56  C   UNL A   1      44.061  30.814  32.742  1.00  0.00     0.029 A 
ATOM     57  N   UNL A   1      44.531  28.780  32.014  1.00  0.00    -0.354 N 
ATOM     58  N   UNL A   1      44.588  27.391  27.988  1.00  0.00    -0.248 NA
ATOM     59  C   UNL A   1      44.141  25.591  29.405  1.00  0.00     0.031 C 
ATOM     60  C   UNL A   1      44.666  30.888  31.450  1.00  0.00     0.029 A 
ATOM     61  C   UNL A   1      44.826  29.593  30.955  1.00  0.00     0.049 A 
ATOM     62  H   UNL A   1      44.785  27.831  32.083  1.00  0.00     0.167 HD
ATOM     63  C   UNL A   1      44.953  27.756  29.270  1.00  0.00     0.074 A 
ATOM     64  C   UNL A   1      44.813  26.540  30.062  1.00  0.00     0.031 C 
ATOM     65  C   UNL A   1      45.036  29.073  29.619  1.00  0.00     0.037 A 
BRANCH  52  66
ATOM     66  C   UNL A   1      43.306  27.591  34.621  1.00  0.00     0.064 A 
ATOM     67  C   UNL A   1      43.634  27.927  35.954  1.00  0.00     0.173 A 
ATOM     68  C   UNL A   1      43.744  26.320  34.193  1.00  0.00     0.173 A 
ATOM     69  F   UNL A   1      43.291  29.121  36.459  1.00  0.00    -0.203 F 
ATOM     70  C   UNL A   1      44.402  27.084  36.762  1.00  0.00     0.198 A 
ATOM     71  C   UNL A   1      44.465  25.460  35.020  1.00  0.00     0.198 A 
ATOM     72  F   UNL A   1      43.601  25.908  32.928  1.00  0.00    -0.203 F 
ATOM     73  F   UNL A   1      44.796  27.500  37.974  1.00  0.00    -0.200 F 
ATOM     74  C   UNL A   1      44.821  25.854  36.293  1.00  0.00     0.200 A 
ATOM     75  F   UNL A   1      44.884  24.281  34.538  1.00  0.00    -0.200 F 
ATOM     76  F   UNL A   1      45.609  25.070  37.042  1.00  0.00    -0.200 F 
ENDBRANCH  52  66
BRANCH  53  77
ATOM     77  C   UNL A   1      42.653  24.609  26.608  1.00  0.00     0.064 A 
ATOM     78  C   UNL A   1      43.434  24.350  25.470  1.00  0.00     0.173 A 
ATOM     79  C   UNL A   1      42.022  23.500  27.205  1.00  0.00     0.173 A 
ATOM     80  F   UNL A   1      44.095  25.347  24.866  1.00  0.00    -0.203 F 
ATOM     81  C   UNL A   1      43.613  23.050  24.986  1.00  0.00     0.198 A 
ATOM     82  C   UNL A   1      42.198  22.204  26.719  1.00  0.00     0.198 A 
ATOM     83  F   UNL A   1      41.308  23.642  28.331  1.00  0.00    -0.203 F 
ATOM     84  F   UNL A   1      44.428  22.831  23.946  1.00  0.00    -0.200 F 
ATOM     85  C   UNL A   1      43.008  21.977  25.622  1.00  0.00     0.200 A 
ATOM     86  F   UNL A   1      41.639  21.171  27.363  1.00  0.00    -0.200 F 
ATOM     87  F   UNL A   1      43.241  20.725  25.205  1.00  0.00    -0.200 F 
ENDBRANCH  53  77
BRANCH  65  88
ATOM     88  C   UNL A   1      45.186  30.071  28.507  1.00  0.00     0.064 A 
ATOM     89  C   UNL A   1      44.121  30.653  27.801  1.00  0.00     0.173 A 
ATOM     90  C   UNL A   1      46.480  30.522  28.209  1.00  0.00     0.173 A 
ATOM     91  F   UNL A   1      42.850  30.340  28.083  1.00  0.00    -0.203 F 
ATOM     92  C   UNL A   1      44.348  31.611  26.813  1.00  0.00     0.198 A 
ATOM     93  C   UNL A   1      46.702  31.506  27.251  1.00  0.00     0.198 A 
ATOM     94  F   UNL A   1      47.533  30.032  28.884  1.00  0.00    -0.203 F 
ATOM     95  F   UNL A   1      43.318  32.139  26.136  1.00  0.00    -0.200 F 
ATOM     96  C   UNL A   1      45.638  32.041  26.544  1.00  0.00     0.200 A 
ATOM     97  F   UNL A   1      47.947  31.948  27.029  1.00  0.00    -0.200 F 
ATOM     98  F   UNL A   1      45.855  32.987  25.620  1.00  0.00    -0.200 F 
ENDBRANCH  65  88
ENDBRANCH  39  40
ENDBRANCH  31  34
ENDBRANCH  29  30
ENDBRANCH  28  29
ENDBRANCH  27  28
ENDBRANCH   3  27
TORSDOF 15
ENDMDL
MODEL 3
REMARK VINA RESULT:     -12.8      4.608      7.626
REMARK SMILES C/C(=N\NC(N)=S)c1nnn(-c2ccc(C(=O)NCCCNC(=O)c3ccc(-c4c5nc(c(-c6c(F)c(F)c(F)c(F)c6F)c6ccc([nH]6)c(-c6c(F)c(F)c(F)c(F)c6F)c6nc(c(-c7c(F)c(F)c(F)c(F)c7F)c7ccc4[nH]7)C=C6)C=C5)cc3)cc2)c1C
REMARK SMILES IDX 16 1 17 2 18 3 15 5 12 6 13 7 89 8 14 9 88 10 11 11 8 12
REMARK SMILES IDX 9 13 90 14 10 15 91 16 2 17 1 18 3 19 4 20 5 22 7 23 6 24
REMARK SMILES IDX 19 27 20 28 21 29 22 30 23 31 24 33 25 34 26 35 87 36 27 37
REMARK SMILES IDX 86 38 28 39 29 40 30 41 80 42 31 43 85 44 79 45 81 46 32 47
REMARK SMILES IDX 84 48 78 49 77 50 33 52 65 53 45 54 64 55 46 56 49 57 63 58
REMARK SMILES IDX 82 59 47 60 48 61 62 63 83 64 50 65 34 66 35 67 43 68 36 69
REMARK SMILES IDX 37 70 41 71 44 72 38 73 39 74 42 75 40 76 66 77 67 78 75 79
REMARK SMILES IDX 68 80 69 81 73 82 76 83 70 84 71 85 74 86 72 87 51 88 52 89
REMARK SMILES IDX 60 90 53 91 54 92 58 93 61 94 55 95 56 96 59 97 57 98
REMARK H PARENT 18 4 4 21 6 25 6 26 22 32 81 51 49 62
REMARK Flexibility Score: inf
ROOT
ATOM      1  C   UNL A   1      46.057  25.429  25.238  1.00  0.00     0.251 C 
ATOM      2  O   UNL A   1      46.386  26.372  24.519  1.00  0.00    -0.269 OA
ATOM      3  N   UNL A   1      45.821  24.211  24.637  1.00  0.00    -0.352 N 
ATOM      4  H   UNL A   1      45.832  24.241  23.653  1.00  0.00     0.163 HD
ENDROOT
BRANCH   1   5
ATOM      5  C   UNL A   1      45.988  25.627  26.714  1.00  0.00     0.039 A 
ATOM      6  C   UNL A   1      45.789  25.690  29.493  1.00  0.00     0.067 A 
ATOM      7  C   UNL A   1      46.947  25.173  28.912  1.00  0.00     0.029 A 
ATOM      8  C   UNL A   1      44.801  26.288  28.719  1.00  0.00     0.029 A 
ATOM      9  C   UNL A   1      47.028  25.118  27.513  1.00  0.00     0.016 A 
ATOM     10  C   UNL A   1      44.933  26.292  27.340  1.00  0.00     0.016 A 
BRANCH   6  11
ATOM     11  N   UNL A   1      45.533  25.515  30.859  1.00  0.00    -0.217 N 
ATOM     12  C   UNL A   1      44.771  24.846  32.774  1.00  0.00     0.132 A 
ATOM     13  N   UNL A   1      45.591  25.929  32.975  1.00  0.00    -0.128 NA
ATOM     14  C   UNL A   1      44.736  24.540  31.429  1.00  0.00     0.071 A 
ATOM     15  N   UNL A   1      46.111  26.276  31.805  1.00  0.00    -0.061 NA
ATOM     16  C   UNL A   1      44.160  23.390  30.693  1.00  0.00     0.069 C 
BRANCH  12  17
ATOM     17  C   UNL A   1      44.251  24.059  33.876  1.00  0.00     0.087 C 
ATOM     18  C   UNL A   1      44.907  22.721  34.085  1.00  0.00     0.071 C 
ATOM     19  N   UNL A   1      43.317  24.626  34.582  1.00  0.00    -0.176 NA
BRANCH  19  20
ATOM     20  N   UNL A   1      42.807  24.057  35.711  1.00  0.00    -0.254 N 
ATOM     21  H   UNL A   1      42.854  23.075  35.745  1.00  0.00     0.193 HD
BRANCH  20  22
ATOM     22  C   UNL A   1      42.234  24.656  36.815  1.00  0.00     0.184 C 
ATOM     23  S   UNL A   1      40.638  24.985  37.142  1.00  0.00    -0.040 S 
BRANCH  22  24
ATOM     24  N   UNL A   1      43.175  25.013  37.745  1.00  0.00    -0.375 N 
ATOM     25  H   UNL A   1      42.897  25.259  38.657  1.00  0.00     0.159 HD
ATOM     26  H   UNL A   1      44.128  25.024  37.501  1.00  0.00     0.159 HD
ENDBRANCH  22  24
ENDBRANCH  20  22
ENDBRANCH  19  20
ENDBRANCH  12  17
ENDBRANCH   6  11
ENDBRANCH   1   5
BRANCH   3  27
ATOM     27  C   UNL A   1      45.557  22.886  25.187  1.00  0.00     0.118 C 
BRANCH  27  28
ATOM     28  C   UNL A   1      44.274  22.844  26.031  1.00  0.00     0.042 C 
BRANCH  28  29
ATOM     29  C   UNL A   1      43.066  23.388  25.300  1.00  0.00     0.118 C 
BRANCH  29  30
ATOM     30  N   UNL A   1      41.875  22.560  25.478  1.00  0.00    -0.352 N 
ATOM     31  C   UNL A   1      40.892  22.676  26.445  1.00  0.00     0.251 C 
ATOM     32  H   UNL A   1      41.757  21.829  24.828  1.00  0.00     0.163 HD
ATOM     33  O   UNL A   1      40.163  21.741  26.718  1.00  0.00    -0.269 OA
BRANCH  31  34
ATOM     34  C   UNL A   1      40.761  23.964  27.151  1.00  0.00     0.039 A 
ATOM     35  C   UNL A   1      41.539  24.258  28.271  1.00  0.00     0.014 A 
ATOM     36  C   UNL A   1      39.881  24.905  26.626  1.00  0.00     0.014 A 
ATOM     37  C   UNL A   1      41.484  25.545  28.799  1.00  0.00     0.010 A 
ATOM     38  C   UNL A   1      39.981  26.214  27.016  1.00  0.00     0.010 A 
ATOM     39  C   UNL A   1      40.724  26.530  28.144  1.00  0.00    -0.014 A 
BRANCH  39  40
ATOM     40  C   UNL A   1      40.755  27.916  28.589  1.00  0.00     0.031 A 
ATOM     41  C   UNL A   1      41.859  28.725  28.013  1.00  0.00     0.074 A 
ATOM     42  C   UNL A   1      39.779  28.485  29.328  1.00  0.00     0.049 A 
ATOM     43  N   UNL A   1      42.926  29.128  28.618  1.00  0.00    -0.248 NA
ATOM     44  C   UNL A   1      41.853  29.002  26.569  1.00  0.00     0.031 C 
ATOM     45  C   UNL A   1      38.470  27.928  29.701  1.00  0.00     0.029 A 
ATOM     46  N   UNL A   1      39.721  29.746  29.839  1.00  0.00    -0.354 N 
ATOM     47  C   UNL A   1      43.635  29.881  27.688  1.00  0.00     0.074 A 
ATOM     48  C   UNL A   1      43.024  29.625  26.411  1.00  0.00     0.031 C 
ATOM     49  C   UNL A   1      37.670  28.912  30.162  1.00  0.00     0.029 A 
ATOM     50  C   UNL A   1      38.467  30.113  30.308  1.00  0.00     0.049 A 
ATOM     51  H   UNL A   1      40.501  30.345  29.872  1.00  0.00     0.167 HD
ATOM     52  C   UNL A   1      44.497  30.852  28.101  1.00  0.00     0.037 A 
ATOM     53  C   UNL A   1      38.109  31.327  30.784  1.00  0.00     0.037 A 
ATOM     54  C   UNL A   1      44.735  30.750  29.519  1.00  0.00     0.049 A 
ATOM     55  C   UNL A   1      39.349  32.003  31.224  1.00  0.00     0.074 A 
ATOM     56  C   UNL A   1      45.387  29.877  30.361  1.00  0.00     0.029 A 
ATOM     57  N   UNL A   1      43.874  31.486  30.290  1.00  0.00    -0.354 N 
ATOM     58  N   UNL A   1      40.081  31.598  32.226  1.00  0.00    -0.248 NA
ATOM     59  C   UNL A   1      39.998  32.939  30.317  1.00  0.00     0.031 C 
ATOM     60  C   UNL A   1      44.663  29.917  31.592  1.00  0.00     0.029 A 
ATOM     61  C   UNL A   1      43.626  30.844  31.472  1.00  0.00     0.049 A 
ATOM     62  H   UNL A   1      43.488  32.354  30.030  1.00  0.00     0.167 HD
ATOM     63  C   UNL A   1      41.380  31.867  31.836  1.00  0.00     0.074 A 
ATOM     64  C   UNL A   1      41.255  32.840  30.758  1.00  0.00     0.031 C 
ATOM     65  C   UNL A   1      42.402  31.048  32.219  1.00  0.00     0.037 A 
BRANCH  52  66
ATOM     66  C   UNL A   1      44.758  32.155  27.377  1.00  0.00     0.064 A 
ATOM     67  C   UNL A   1      45.995  32.337  26.722  1.00  0.00     0.173 A 
ATOM     68  C   UNL A   1      44.003  33.330  27.582  1.00  0.00     0.173 A 
ATOM     69  F   UNL A   1      46.807  31.293  26.498  1.00  0.00    -0.203 F 
ATOM     70  C   UNL A   1      46.467  33.604  26.370  1.00  0.00     0.198 A 
ATOM     71  C   UNL A   1      44.455  34.587  27.182  1.00  0.00     0.198 A 
ATOM     72  F   UNL A   1      42.863  33.330  28.282  1.00  0.00    -0.203 F 
ATOM     73  F   UNL A   1      47.703  33.740  25.867  1.00  0.00    -0.200 F 
ATOM     74  C   UNL A   1      45.699  34.729  26.605  1.00  0.00     0.200 A 
ATOM     75  F   UNL A   1      43.706  35.668  27.442  1.00  0.00    -0.200 F 
ATOM     76  F   UNL A   1      46.174  35.950  26.325  1.00  0.00    -0.200 F 
ENDBRANCH  52  66
BRANCH  53  77
ATOM     77  C   UNL A   1      36.821  32.036  30.623  1.00  0.00     0.064 A 
ATOM     78  C   UNL A   1      35.903  32.116  31.683  1.00  0.00     0.173 A 
ATOM     79  C   UNL A   1      36.602  32.902  29.534  1.00  0.00     0.173 A 
ATOM     80  F   UNL A   1      36.063  31.350  32.771  1.00  0.00    -0.203 F 
ATOM     81  C   UNL A   1      34.855  33.041  31.675  1.00  0.00     0.198 A 
ATOM     82  C   UNL A   1      35.554  33.823  29.525  1.00  0.00     0.198 A 
ATOM     83  F   UNL A   1      37.462  32.942  28.505  1.00  0.00    -0.203 F 
ATOM     84  F   UNL A   1      34.045  33.142  32.737  1.00  0.00    -0.200 F 
ATOM     85  C   UNL A   1      34.692  33.905  30.603  1.00  0.00     0.200 A 
ATOM     86  F   UNL A   1      35.428  34.678  28.501  1.00  0.00    -0.200 F 
ATOM     87  F   UNL A   1      33.735  34.842  30.630  1.00  0.00    -0.200 F 
ENDBRANCH  53  77
BRANCH  65  88
ATOM     88  C   UNL A   1      42.168  30.166  33.411  1.00  0.00     0.064 A 
ATOM     89  C   UNL A   1      41.691  28.846  33.352  1.00  0.00     0.173 A 
ATOM     90  C   UNL A   1      42.533  30.664  34.670  1.00  0.00     0.173 A 
ATOM     91  F   UNL A   1      41.400  28.267  32.181  1.00  0.00    -0.203 F 
ATOM     92  C   UNL A   1      41.548  28.078  34.508  1.00  0.00     0.198 A 
ATOM     93  C   UNL A   1      42.427  29.883  35.816  1.00  0.00     0.198 A 
ATOM     94  F   UNL A   1      43.037  31.904  34.780  1.00  0.00    -0.203 F 
ATOM     95  F   UNL A   1      41.071  26.827  34.431  1.00  0.00    -0.200 F 
ATOM     96  C   UNL A   1      41.923  28.596  35.738  1.00  0.00     0.200 A 
ATOM     97  F   UNL A   1      42.834  30.375  36.994  1.00  0.00    -0.200 F 
ATOM     98  F   UNL A   1      41.820  27.848  36.845  1.00  0.00    -0.200 F 
ENDBRANCH  65  88
ENDBRANCH  39  40
ENDBRANCH  31  34
ENDBRANCH  29  30
ENDBRANCH  28  29
ENDBRANCH  27  28
ENDBRANCH   3  27
TORSDOF 15
ENDMDL
