MODEL 1
REMARK VINA RESULT:     -11.9      0.000      0.000
REMARK SMILES O=C(NCCCNC(=O)c1ccc2nc(Cl)sc2c1)c1ccc(-c2c3nc(c(-c4c(F)c(F)c(F)c(F)c4F)c4ccc([nH]4)c(-c4c(F)c(F)c(F)c(F)c4F)c4nc(c(-c5c(F)c(F)c(F)c(F)c5F)c5ccc2[nH]5)C=C4)C=C3)cc1
REMARK SMILES IDX 4 1 3 2 1 3 2 4 20 6 21 7 82 8 22 9 81 10 23 11 24 12 25 13
REMARK SMILES IDX 75 14 26 15 80 16 74 17 76 18 27 19 79 20 73 21 72 22 28 24
REMARK SMILES IDX 60 25 40 26 59 27 41 28 44 29 58 30 77 31 42 32 43 33 57 35
REMARK SMILES IDX 78 36 45 37 29 38 30 39 38 40 31 41 32 42 36 43 39 44 33 45
REMARK SMILES IDX 34 46 37 47 35 48 61 49 62 50 70 51 63 52 64 53 68 54 71 55
REMARK SMILES IDX 65 56 66 57 69 58 67 59 46 60 47 61 55 62 48 63 49 64 53 65
REMARK SMILES IDX 56 66 50 67 51 68 54 69 52 70 5 71 6 72 7 73 8 74 9 76 10 77
REMARK SMILES IDX 11 78 19 79 12 80 18 81 13 82 17 83 14 84 15 85 16 86
REMARK H PARENT 3 5 76 23 44 34 7 75
REMARK Flexibility Score: inf
ROOT
ATOM      1  C   UNL A   1      38.447  22.232  25.497  1.00  0.00     0.118 C 
ENDROOT
BRANCH   1   2
ATOM      2  N   UNL A   1      39.207  21.507  26.501  1.00  0.00    -0.352 N 
ATOM      3  O   UNL A   1      40.899  20.910  27.815  1.00  0.00    -0.269 OA
ATOM      4  C   UNL A   1      40.345  21.816  27.192  1.00  0.00     0.251 C 
ATOM      5  H   UNL A   1      38.831  20.625  26.726  1.00  0.00     0.163 HD
BRANCH   4   6
ATOM      6  C   UNL A   1      40.931  23.176  27.236  1.00  0.00     0.039 A 
ATOM      7  C   UNL A   1      40.408  24.066  28.186  1.00  0.00     0.014 A 
ATOM      8  C   UNL A   1      41.853  23.643  26.295  1.00  0.00     0.014 A 
ATOM      9  C   UNL A   1      40.816  25.398  28.213  1.00  0.00     0.010 A 
ATOM     10  C   UNL A   1      42.270  24.980  26.328  1.00  0.00     0.010 A 
ATOM     11  C   UNL A   1      41.758  25.864  27.287  1.00  0.00    -0.014 A 
BRANCH  11  12
ATOM     12  C   UNL A   1      42.225  27.258  27.410  1.00  0.00     0.031 A 
ATOM     13  C   UNL A   1      41.162  28.295  27.520  1.00  0.00     0.074 A 
ATOM     14  C   UNL A   1      43.447  27.579  27.884  1.00  0.00     0.049 A 
ATOM     15  N   UNL A   1      40.561  28.556  28.644  1.00  0.00    -0.248 NA
ATOM     16  C   UNL A   1      40.563  28.953  26.361  1.00  0.00     0.031 C 
ATOM     17  C   UNL A   1      44.225  26.727  28.789  1.00  0.00     0.029 A 
ATOM     18  N   UNL A   1      44.132  28.774  27.867  1.00  0.00    -0.354 N 
ATOM     19  C   UNL A   1      39.469  29.343  28.351  1.00  0.00     0.074 A 
ATOM     20  C   UNL A   1      39.524  29.590  26.926  1.00  0.00     0.031 C 
ATOM     21  C   UNL A   1      45.175  27.483  29.381  1.00  0.00     0.029 A 
ATOM     22  C   UNL A   1      45.181  28.815  28.780  1.00  0.00     0.049 A 
ATOM     23  H   UNL A   1      43.902  29.522  27.270  1.00  0.00     0.167 HD
ATOM     24  C   UNL A   1      38.572  29.727  29.295  1.00  0.00     0.037 A 
ATOM     25  C   UNL A   1      45.628  29.930  29.420  1.00  0.00     0.037 A 
ATOM     26  C   UNL A   1      38.835  29.272  30.628  1.00  0.00     0.049 A 
ATOM     27  C   UNL A   1      44.426  30.310  30.244  1.00  0.00     0.074 A 
ATOM     28  C   UNL A   1      38.506  28.178  31.398  1.00  0.00     0.029 A 
ATOM     29  N   UNL A   1      39.714  29.994  31.402  1.00  0.00    -0.354 N 
ATOM     30  N   UNL A   1      44.072  29.762  31.377  1.00  0.00    -0.248 NA
ATOM     31  C   UNL A   1      43.387  31.126  29.610  1.00  0.00     0.031 C 
ATOM     32  C   UNL A   1      39.547  28.070  32.374  1.00  0.00     0.029 A 
ATOM     33  C   UNL A   1      40.468  29.077  32.090  1.00  0.00     0.049 A 
ATOM     34  H   UNL A   1      39.787  30.975  31.451  1.00  0.00     0.167 HD
ATOM     35  C   UNL A   1      42.692  29.949  31.461  1.00  0.00     0.074 A 
ATOM     36  C   UNL A   1      42.340  30.830  30.367  1.00  0.00     0.031 C 
ATOM     37  C   UNL A   1      41.888  29.226  32.292  1.00  0.00     0.037 A 
BRANCH  24  38
ATOM     38  C   UNL A   1      37.446  30.644  29.060  1.00  0.00     0.064 A 
ATOM     39  C   UNL A   1      36.306  30.146  28.416  1.00  0.00     0.173 A 
ATOM     40  C   UNL A   1      37.555  32.023  29.254  1.00  0.00     0.173 A 
ATOM     41  F   UNL A   1      36.181  28.825  28.203  1.00  0.00    -0.203 F 
ATOM     42  C   UNL A   1      35.320  31.003  27.943  1.00  0.00     0.198 A 
ATOM     43  C   UNL A   1      36.563  32.881  28.783  1.00  0.00     0.198 A 
ATOM     44  F   UNL A   1      38.639  32.540  29.852  1.00  0.00    -0.203 F 
ATOM     45  F   UNL A   1      34.262  30.505  27.290  1.00  0.00    -0.200 F 
ATOM     46  C   UNL A   1      35.454  32.372  28.117  1.00  0.00     0.200 A 
ATOM     47  F   UNL A   1      36.692  34.205  28.944  1.00  0.00    -0.200 F 
ATOM     48  F   UNL A   1      34.523  33.202  27.628  1.00  0.00    -0.200 F 
ENDBRANCH  24  38
BRANCH  25  49
ATOM     49  C   UNL A   1      46.394  30.903  28.575  1.00  0.00     0.064 A 
ATOM     50  C   UNL A   1      47.783  31.046  28.794  1.00  0.00     0.173 A 
ATOM     51  C   UNL A   1      45.848  31.724  27.578  1.00  0.00     0.173 A 
ATOM     52  F   UNL A   1      48.377  30.396  29.806  1.00  0.00    -0.203 F 
ATOM     53  C   UNL A   1      48.583  31.856  27.985  1.00  0.00     0.198 A 
ATOM     54  C   UNL A   1      46.651  32.513  26.749  1.00  0.00     0.198 A 
ATOM     55  F   UNL A   1      44.525  31.779  27.374  1.00  0.00    -0.203 F 
ATOM     56  F   UNL A   1      49.901  31.933  28.213  1.00  0.00    -0.200 F 
ATOM     57  C   UNL A   1      48.020  32.565  26.943  1.00  0.00     0.200 A 
ATOM     58  F   UNL A   1      46.092  33.210  25.750  1.00  0.00    -0.200 F 
ATOM     59  F   UNL A   1      48.790  33.304  26.131  1.00  0.00    -0.200 F 
ENDBRANCH  25  49
BRANCH  37  60
ATOM     60  C   UNL A   1      42.598  28.344  33.258  1.00  0.00     0.064 A 
ATOM     61  C   UNL A   1      43.111  27.111  32.840  1.00  0.00     0.173 A 
ATOM     62  C   UNL A   1      42.804  28.731  34.591  1.00  0.00     0.173 A 
ATOM     63  F   UNL A   1      42.943  26.702  31.573  1.00  0.00    -0.203 F 
ATOM     64  C   UNL A   1      43.828  26.304  33.718  1.00  0.00     0.198 A 
ATOM     65  C   UNL A   1      43.541  27.933  35.460  1.00  0.00     0.198 A 
ATOM     66  F   UNL A   1      42.319  29.895  35.050  1.00  0.00    -0.203 F 
ATOM     67  F   UNL A   1      44.323  25.132  33.297  1.00  0.00    -0.200 F 
ATOM     68  C   UNL A   1      44.054  26.721  35.022  1.00  0.00     0.200 A 
ATOM     69  F   UNL A   1      43.774  28.345  36.713  1.00  0.00    -0.200 F 
ATOM     70  F   UNL A   1      44.779  25.961  35.855  1.00  0.00    -0.200 F 
ENDBRANCH  37  60
ENDBRANCH  11  12
ENDBRANCH   4   6
ENDBRANCH   1   2
BRANCH   1  71
ATOM     71  C   UNL A   1      37.747  23.458  26.094  1.00  0.00     0.042 C 
BRANCH  71  72
ATOM     72  C   UNL A   1      36.216  23.424  26.057  1.00  0.00     0.118 C 
BRANCH  72  73
ATOM     73  N   UNL A   1      35.667  23.948  24.817  1.00  0.00    -0.352 N 
ATOM     74  C   UNL A   1      34.725  23.406  23.981  1.00  0.00     0.251 C 
ATOM     75  H   UNL A   1      36.024  24.821  24.535  1.00  0.00     0.163 HD
ATOM     76  O   UNL A   1      34.486  23.936  22.895  1.00  0.00    -0.269 OA
BRANCH  74  77
ATOM     77  C   UNL A   1      34.004  22.170  24.351  1.00  0.00     0.041 A 
ATOM     78  C   UNL A   1      32.660  22.205  24.726  1.00  0.00     0.016 A 
ATOM     79  C   UNL A   1      34.694  20.954  24.252  1.00  0.00     0.035 A 
ATOM     80  C   UNL A   1      31.996  21.024  25.081  1.00  0.00     0.031 A 
ATOM     81  C   UNL A   1      34.016  19.779  24.610  1.00  0.00     0.057 A 
ATOM     82  C   UNL A   1      32.681  19.791  25.035  1.00  0.00     0.083 A 
ATOM     83  S   UNL A   1      34.589  18.150  24.626  1.00  0.00    -0.102 S 
ATOM     84  N   UNL A   1      32.153  18.559  25.375  1.00  0.00    -0.225 NA
ATOM     85  C   UNL A   1      33.075  17.647  25.196  1.00  0.00     0.184 A 
ATOM     86  Cl  UNL A   1      32.795  15.985  25.527  1.00  0.00    -0.050 Cl
ENDBRANCH  74  77
ENDBRANCH  72  73
ENDBRANCH  71  72
ENDBRANCH   1  71
TORSDOF 10
ENDMDL
MODEL 2
REMARK VINA RESULT:     -11.8      1.850      2.515
REMARK SMILES O=C(NCCCNC(=O)c1ccc2nc(Cl)sc2c1)c1ccc(-c2c3nc(c(-c4c(F)c(F)c(F)c(F)c4F)c4ccc([nH]4)c(-c4c(F)c(F)c(F)c(F)c4F)c4nc(c(-c5c(F)c(F)c(F)c(F)c5F)c5ccc2[nH]5)C=C4)C=C3)cc1
REMARK SMILES IDX 4 1 3 2 1 3 2 4 20 6 21 7 82 8 22 9 81 10 23 11 24 12 25 13
REMARK SMILES IDX 75 14 26 15 80 16 74 17 76 18 27 19 79 20 73 21 72 22 28 24
REMARK SMILES IDX 60 25 40 26 59 27 41 28 44 29 58 30 77 31 42 32 43 33 57 35
REMARK SMILES IDX 78 36 45 37 29 38 30 39 38 40 31 41 32 42 36 43 39 44 33 45
REMARK SMILES IDX 34 46 37 47 35 48 61 49 62 50 70 51 63 52 64 53 68 54 71 55
REMARK SMILES IDX 65 56 66 57 69 58 67 59 46 60 47 61 55 62 48 63 49 64 53 65
REMARK SMILES IDX 56 66 50 67 51 68 54 69 52 70 5 71 6 72 7 73 8 74 9 76 10 77
REMARK SMILES IDX 11 78 19 79 12 80 18 81 13 82 17 83 14 84 15 85 16 86
REMARK H PARENT 3 5 76 23 44 34 7 75
REMARK Flexibility Score: inf
ROOT
ATOM      1  C   UNL A   1      38.150  22.372  25.596  1.00  0.00     0.118 C 
ENDROOT
BRANCH   1   2
ATOM      2  N   UNL A   1      38.965  21.582  26.502  1.00  0.00    -0.352 N 
ATOM      3  O   UNL A   1      40.734  20.892  27.661  1.00  0.00    -0.269 OA
ATOM      4  C   UNL A   1      40.151  21.838  27.131  1.00  0.00     0.251 C 
ATOM      5  H   UNL A   1      38.594  20.691  26.699  1.00  0.00     0.163 HD
BRANCH   4   6
ATOM      6  C   UNL A   1      40.757  23.189  27.216  1.00  0.00     0.039 A 
ATOM      7  C   UNL A   1      40.040  24.165  27.923  1.00  0.00     0.014 A 
ATOM      8  C   UNL A   1      41.906  23.557  26.511  1.00  0.00     0.014 A 
ATOM      9  C   UNL A   1      40.477  25.489  27.948  1.00  0.00     0.010 A 
ATOM     10  C   UNL A   1      42.349  24.885  26.543  1.00  0.00     0.010 A 
ATOM     11  C   UNL A   1      41.641  25.858  27.262  1.00  0.00    -0.014 A 
BRANCH  11  12
ATOM     12  C   UNL A   1      42.113  27.250  27.389  1.00  0.00     0.031 A 
ATOM     13  C   UNL A   1      41.053  28.290  27.503  1.00  0.00     0.074 A 
ATOM     14  C   UNL A   1      43.336  27.566  27.863  1.00  0.00     0.049 A 
ATOM     15  N   UNL A   1      40.453  28.549  28.629  1.00  0.00    -0.248 NA
ATOM     16  C   UNL A   1      40.456  28.953  26.347  1.00  0.00     0.031 C 
ATOM     17  C   UNL A   1      44.112  26.709  28.766  1.00  0.00     0.029 A 
ATOM     18  N   UNL A   1      44.024  28.759  27.850  1.00  0.00    -0.354 N 
ATOM     19  C   UNL A   1      39.364  29.341  28.338  1.00  0.00     0.074 A 
ATOM     20  C   UNL A   1      39.419  29.592  26.914  1.00  0.00     0.031 C 
ATOM     21  C   UNL A   1      45.064  27.459  29.359  1.00  0.00     0.029 A 
ATOM     22  C   UNL A   1      45.075  28.794  28.763  1.00  0.00     0.049 A 
ATOM     23  H   UNL A   1      43.797  29.510  27.256  1.00  0.00     0.167 HD
ATOM     24  C   UNL A   1      38.469  29.724  29.284  1.00  0.00     0.037 A 
ATOM     25  C   UNL A   1      45.525  29.905  29.406  1.00  0.00     0.037 A 
ATOM     26  C   UNL A   1      38.731  29.265  30.615  1.00  0.00     0.049 A 
ATOM     27  C   UNL A   1      44.325  30.287  30.232  1.00  0.00     0.074 A 
ATOM     28  C   UNL A   1      38.399  28.169  31.382  1.00  0.00     0.029 A 
ATOM     29  N   UNL A   1      39.612  29.982  31.390  1.00  0.00    -0.354 N 
ATOM     30  N   UNL A   1      43.970  29.737  31.363  1.00  0.00    -0.248 NA
ATOM     31  C   UNL A   1      43.288  31.107  29.600  1.00  0.00     0.031 C 
ATOM     32  C   UNL A   1      39.440  28.055  32.357  1.00  0.00     0.029 A 
ATOM     33  C   UNL A   1      40.363  29.060  32.076  1.00  0.00     0.049 A 
ATOM     34  H   UNL A   1      39.689  30.962  31.442  1.00  0.00     0.167 HD
ATOM     35  C   UNL A   1      42.590  29.927  31.448  1.00  0.00     0.074 A 
ATOM     36  C   UNL A   1      42.240  30.813  30.358  1.00  0.00     0.031 C 
ATOM     37  C   UNL A   1      41.784  29.204  32.278  1.00  0.00     0.037 A 
BRANCH  24  38
ATOM     38  C   UNL A   1      37.346  30.646  29.052  1.00  0.00     0.064 A 
ATOM     39  C   UNL A   1      36.202  30.152  28.410  1.00  0.00     0.173 A 
ATOM     40  C   UNL A   1      37.459  32.024  29.247  1.00  0.00     0.173 A 
ATOM     41  F   UNL A   1      36.072  28.832  28.197  1.00  0.00    -0.203 F 
ATOM     42  C   UNL A   1      35.218  31.013  27.940  1.00  0.00     0.198 A 
ATOM     43  C   UNL A   1      36.469  32.886  28.779  1.00  0.00     0.198 A 
ATOM     44  F   UNL A   1      38.546  32.537  29.842  1.00  0.00    -0.203 F 
ATOM     45  F   UNL A   1      34.157  30.519  27.289  1.00  0.00    -0.200 F 
ATOM     46  C   UNL A   1      35.358  32.381  28.115  1.00  0.00     0.200 A 
ATOM     47  F   UNL A   1      36.604  34.210  28.940  1.00  0.00    -0.200 F 
ATOM     48  F   UNL A   1      34.428  33.215  27.629  1.00  0.00    -0.200 F 
ENDBRANCH  24  38
BRANCH  25  49
ATOM     49  C   UNL A   1      46.294  30.879  28.564  1.00  0.00     0.064 A 
ATOM     50  C   UNL A   1      47.683  31.017  28.783  1.00  0.00     0.173 A 
ATOM     51  C   UNL A   1      45.750  31.705  27.569  1.00  0.00     0.173 A 
ATOM     52  F   UNL A   1      48.276  30.361  29.793  1.00  0.00    -0.203 F 
ATOM     53  C   UNL A   1      48.485  31.826  27.976  1.00  0.00     0.198 A 
ATOM     54  C   UNL A   1      46.555  32.494  26.743  1.00  0.00     0.198 A 
ATOM     55  F   UNL A   1      44.427  31.764  27.366  1.00  0.00    -0.203 F 
ATOM     56  F   UNL A   1      49.804  31.899  28.204  1.00  0.00    -0.200 F 
ATOM     57  C   UNL A   1      47.924  32.541  26.936  1.00  0.00     0.200 A 
ATOM     58  F   UNL A   1      45.997  33.195  25.746  1.00  0.00    -0.200 F 
ATOM     59  F   UNL A   1      48.696  33.279  26.126  1.00  0.00    -0.200 F 
ENDBRANCH  25  49
BRANCH  37  60
ATOM     60  C   UNL A   1      42.491  28.317  33.240  1.00  0.00     0.064 A 
ATOM     61  C   UNL A   1      42.606  28.686  34.585  1.00  0.00     0.173 A 
ATOM     62  C   UNL A   1      43.027  27.082  32.843  1.00  0.00     0.173 A 
ATOM     63  F   UNL A   1      42.103  29.855  35.011  1.00  0.00    -0.203 F 
ATOM     64  C   UNL A   1      43.212  27.839  35.508  1.00  0.00     0.198 A 
ATOM     65  C   UNL A   1      43.613  26.227  33.772  1.00  0.00     0.198 A 
ATOM     66  F   UNL A   1      42.962  26.685  31.563  1.00  0.00    -0.203 F 
ATOM     67  F   UNL A   1      43.301  28.203  36.794  1.00  0.00    -0.200 F 
ATOM     68  C   UNL A   1      43.702  26.605  35.103  1.00  0.00     0.200 A 
ATOM     69  F   UNL A   1      44.068  25.028  33.384  1.00  0.00    -0.200 F 
ATOM     70  F   UNL A   1      44.250  25.773  36.000  1.00  0.00    -0.200 F 
ENDBRANCH  37  60
ENDBRANCH  11  12
ENDBRANCH   4   6
ENDBRANCH   1   2
BRANCH   1  71
ATOM     71  C   UNL A   1      37.112  21.509  24.870  1.00  0.00     0.042 C 
BRANCH  71  72
ATOM     72  C   UNL A   1      35.894  21.102  25.705  1.00  0.00     0.118 C 
BRANCH  72  73
ATOM     73  N   UNL A   1      35.144  20.004  25.118  1.00  0.00    -0.352 N 
ATOM     74  C   UNL A   1      33.866  19.986  24.622  1.00  0.00     0.251 C 
ATOM     75  H   UNL A   1      35.624  19.146  25.069  1.00  0.00     0.163 HD
ATOM     76  O   UNL A   1      33.348  18.919  24.290  1.00  0.00    -0.269 OA
BRANCH  74  77
ATOM     77  C   UNL A   1      33.080  21.233  24.505  1.00  0.00     0.041 A 
ATOM     78  C   UNL A   1      32.033  21.509  25.386  1.00  0.00     0.016 A 
ATOM     79  C   UNL A   1      33.459  22.157  23.521  1.00  0.00     0.035 A 
ATOM     80  C   UNL A   1      31.294  22.690  25.254  1.00  0.00     0.031 A 
ATOM     81  C   UNL A   1      32.709  23.337  23.401  1.00  0.00     0.057 A 
ATOM     82  C   UNL A   1      31.625  23.617  24.243  1.00  0.00     0.083 A 
ATOM     83  S   UNL A   1      32.900  24.641  22.287  1.00  0.00    -0.102 S 
ATOM     84  N   UNL A   1      30.969  24.809  23.991  1.00  0.00    -0.225 NA
ATOM     85  C   UNL A   1      31.561  25.408  22.989  1.00  0.00     0.184 A 
ATOM     86  Cl  UNL A   1      31.020  26.916  22.374  1.00  0.00    -0.050 Cl
ENDBRANCH  74  77
ENDBRANCH  72  73
ENDBRANCH  71  72
ENDBRANCH   1  71
TORSDOF 10
ENDMDL
MODEL 3
REMARK VINA RESULT:     -11.7      1.967      2.638
REMARK SMILES O=C(NCCCNC(=O)c1ccc2nc(Cl)sc2c1)c1ccc(-c2c3nc(c(-c4c(F)c(F)c(F)c(F)c4F)c4ccc([nH]4)c(-c4c(F)c(F)c(F)c(F)c4F)c4nc(c(-c5c(F)c(F)c(F)c(F)c5F)c5ccc2[nH]5)C=C4)C=C3)cc1
REMARK SMILES IDX 4 1 3 2 1 3 2 4 20 6 21 7 82 8 22 9 81 10 23 11 24 12 25 13
REMARK SMILES IDX 75 14 26 15 80 16 74 17 76 18 27 19 79 20 73 21 72 22 28 24
REMARK SMILES IDX 60 25 40 26 59 27 41 28 44 29 58 30 77 31 42 32 43 33 57 35
REMARK SMILES IDX 78 36 45 37 29 38 30 39 38 40 31 41 32 42 36 43 39 44 33 45
REMARK SMILES IDX 34 46 37 47 35 48 61 49 62 50 70 51 63 52 64 53 68 54 71 55
REMARK SMILES IDX 65 56 66 57 69 58 67 59 46 60 47 61 55 62 48 63 49 64 53 65
REMARK SMILES IDX 56 66 50 67 51 68 54 69 52 70 5 71 6 72 7 73 8 74 9 76 10 77
REMARK SMILES IDX 11 78 19 79 12 80 18 81 13 82 17 83 14 84 15 85 16 86
REMARK H PARENT 3 5 76 23 44 34 7 75
REMARK Flexibility Score: inf
ROOT
ATOM      1  C   UNL A   1      38.881  21.820  25.751  1.00  0.00     0.118 C 
ENDROOT
BRANCH   1   2
ATOM      2  N   UNL A   1      39.954  21.265  26.559  1.00  0.00    -0.352 N 
ATOM      3  O   UNL A   1      41.928  21.071  27.565  1.00  0.00    -0.269 OA
ATOM      4  C   UNL A   1      41.062  21.829  27.126  1.00  0.00     0.251 C 
ATOM      5  H   UNL A   1      39.866  20.299  26.729  1.00  0.00     0.163 HD
BRANCH   4   6
ATOM      6  C   UNL A   1      41.265  23.292  27.247  1.00  0.00     0.039 A 
ATOM      7  C   UNL A   1      42.282  23.862  26.468  1.00  0.00     0.014 A 
ATOM      8  C   UNL A   1      40.603  24.080  28.192  1.00  0.00     0.014 A 
ATOM      9  C   UNL A   1      42.620  25.207  26.612  1.00  0.00     0.010 A 
ATOM     10  C   UNL A   1      40.936  25.434  28.331  1.00  0.00     0.010 A 
ATOM     11  C   UNL A   1      41.943  26.006  27.541  1.00  0.00    -0.014 A 
BRANCH  11  12
ATOM     12  C   UNL A   1      42.273  27.443  27.596  1.00  0.00     0.031 A 
ATOM     13  C   UNL A   1      41.122  28.381  27.486  1.00  0.00     0.074 A 
ATOM     14  C   UNL A   1      43.393  27.912  28.184  1.00  0.00     0.049 A 
ATOM     15  N   UNL A   1      40.362  28.670  28.503  1.00  0.00    -0.248 NA
ATOM     16  C   UNL A   1      40.623  28.889  26.211  1.00  0.00     0.031 C 
ATOM     17  C   UNL A   1      44.118  27.209  29.248  1.00  0.00     0.029 A 
ATOM     18  N   UNL A   1      43.973  29.161  28.144  1.00  0.00    -0.354 N 
ATOM     19  C   UNL A   1      39.255  29.327  28.012  1.00  0.00     0.074 A 
ATOM     20  C   UNL A   1      39.471  29.468  26.588  1.00  0.00     0.031 C 
ATOM     21  C   UNL A   1      44.918  28.093  29.880  1.00  0.00     0.029 A 
ATOM     22  C   UNL A   1      44.890  29.370  29.170  1.00  0.00     0.049 A 
ATOM     23  H   UNL A   1      43.760  29.837  27.461  1.00  0.00     0.167 HD
ATOM     24  C   UNL A   1      38.216  29.697  28.804  1.00  0.00     0.037 A 
ATOM     25  C   UNL A   1      45.157  30.568  29.758  1.00  0.00     0.037 A 
ATOM     26  C   UNL A   1      38.344  29.372  30.193  1.00  0.00     0.049 A 
ATOM     27  C   UNL A   1      43.832  30.896  30.395  1.00  0.00     0.074 A 
ATOM     28  C   UNL A   1      38.011  28.314  31.012  1.00  0.00     0.029 A 
ATOM     29  N   UNL A   1      39.054  30.231  31.001  1.00  0.00    -0.354 N 
ATOM     30  N   UNL A   1      43.383  30.407  31.521  1.00  0.00    -0.248 NA
ATOM     31  C   UNL A   1      42.819  31.560  29.571  1.00  0.00     0.031 C 
ATOM     32  C   UNL A   1      38.925  28.380  32.111  1.00  0.00     0.029 A 
ATOM     33  C   UNL A   1      39.787  29.444  31.853  1.00  0.00     0.049 A 
ATOM     34  H   UNL A   1      39.039  31.215  30.972  1.00  0.00     0.167 HD
ATOM     35  C   UNL A   1      41.993  30.469  31.422  1.00  0.00     0.074 A 
ATOM     36  C   UNL A   1      41.712  31.227  30.220  1.00  0.00     0.031 C 
ATOM     37  C   UNL A   1      41.153  29.740  32.210  1.00  0.00     0.037 A 
BRANCH  24  38
ATOM     38  C   UNL A   1      37.058  30.484  28.355  1.00  0.00     0.064 A 
ATOM     39  C   UNL A   1      37.047  31.860  28.617  1.00  0.00     0.173 A 
ATOM     40  C   UNL A   1      35.889  29.886  27.879  1.00  0.00     0.173 A 
ATOM     41  F   UNL A   1      38.153  32.460  29.089  1.00  0.00    -0.203 F 
ATOM     42  C   UNL A   1      35.891  32.611  28.448  1.00  0.00     0.198 A 
ATOM     43  C   UNL A   1      34.731  30.641  27.705  1.00  0.00     0.198 A 
ATOM     44  F   UNL A   1      35.855  28.568  27.631  1.00  0.00    -0.203 F 
ATOM     45  F   UNL A   1      35.895  33.916  28.750  1.00  0.00    -0.200 F 
ATOM     46  C   UNL A   1      34.730  31.999  28.002  1.00  0.00     0.200 A 
ATOM     47  F   UNL A   1      33.605  30.052  27.281  1.00  0.00    -0.200 F 
ATOM     48  F   UNL A   1      33.604  32.715  27.875  1.00  0.00    -0.200 F 
ENDBRANCH  24  38
BRANCH  25  49
ATOM     49  C   UNL A   1      45.941  31.541  28.930  1.00  0.00     0.064 A 
ATOM     50  C   UNL A   1      47.212  31.953  29.388  1.00  0.00     0.173 A 
ATOM     51  C   UNL A   1      45.514  32.114  27.723  1.00  0.00     0.173 A 
ATOM     52  F   UNL A   1      47.658  31.556  30.590  1.00  0.00    -0.203 F 
ATOM     53  C   UNL A   1      48.045  32.777  28.628  1.00  0.00     0.198 A 
ATOM     54  C   UNL A   1      46.357  32.916  26.948  1.00  0.00     0.198 A 
ATOM     55  F   UNL A   1      44.275  31.908  27.259  1.00  0.00    -0.203 F 
ATOM     56  F   UNL A   1      49.256  33.114  29.092  1.00  0.00    -0.200 F 
ATOM     57  C   UNL A   1      47.628  33.233  27.393  1.00  0.00     0.200 A 
ATOM     58  F   UNL A   1      45.936  33.366  25.757  1.00  0.00    -0.200 F 
ATOM     59  F   UNL A   1      48.442  33.981  26.635  1.00  0.00    -0.200 F 
ENDBRANCH  25  49
BRANCH  37  60
ATOM     60  C   UNL A   1      41.804  29.005  33.328  1.00  0.00     0.064 A 
ATOM     61  C   UNL A   1      42.406  27.763  33.098  1.00  0.00     0.173 A 
ATOM     62  C   UNL A   1      41.866  29.544  34.623  1.00  0.00     0.173 A 
ATOM     63  F   UNL A   1      42.377  27.212  31.875  1.00  0.00    -0.203 F 
ATOM     64  C   UNL A   1      43.071  27.093  34.121  1.00  0.00     0.198 A 
ATOM     65  C   UNL A   1      42.551  28.882  35.638  1.00  0.00     0.198 A 
ATOM     66  F   UNL A   1      41.291  30.723  34.904  1.00  0.00    -0.203 F 
ATOM     67  F   UNL A   1      43.652  25.911  33.880  1.00  0.00    -0.200 F 
ATOM     68  C   UNL A   1      43.154  27.660  35.386  1.00  0.00     0.200 A 
ATOM     69  F   UNL A   1      42.647  29.439  36.853  1.00  0.00    -0.200 F 
ATOM     70  F   UNL A   1      43.828  27.032  36.360  1.00  0.00    -0.200 F 
ENDBRANCH  37  60
ENDBRANCH  11  12
ENDBRANCH   4   6
ENDBRANCH   1   2
BRANCH   1  71
ATOM     71  C   UNL A   1      37.893  20.738  25.303  1.00  0.00     0.042 C 
BRANCH  71  72
ATOM     72  C   UNL A   1      36.415  21.141  25.338  1.00  0.00     0.118 C 
BRANCH  72  73
ATOM     73  N   UNL A   1      35.520  20.046  25.001  1.00  0.00    -0.352 N 
ATOM     74  C   UNL A   1      34.155  19.974  25.096  1.00  0.00     0.251 C 
ATOM     75  H   UNL A   1      35.959  19.237  24.652  1.00  0.00     0.163 HD
ATOM     76  O   UNL A   1      33.578  18.905  24.893  1.00  0.00    -0.269 OA
BRANCH  74  77
ATOM     77  C   UNL A   1      33.356  21.161  25.471  1.00  0.00     0.041 A 
ATOM     78  C   UNL A   1      33.283  21.590  26.797  1.00  0.00     0.016 A 
ATOM     79  C   UNL A   1      32.726  21.878  24.444  1.00  0.00     0.035 A 
ATOM     80  C   UNL A   1      32.514  22.710  27.134  1.00  0.00     0.031 A 
ATOM     81  C   UNL A   1      31.960  22.999  24.797  1.00  0.00     0.057 A 
ATOM     82  C   UNL A   1      31.832  23.424  26.126  1.00  0.00     0.083 A 
ATOM     83  S   UNL A   1      31.050  24.060  23.784  1.00  0.00    -0.102 S 
ATOM     84  N   UNL A   1      31.027  24.532  26.321  1.00  0.00    -0.225 NA
ATOM     85  C   UNL A   1      30.575  24.929  25.159  1.00  0.00     0.184 A 
ATOM     86  Cl  UNL A   1      29.525  26.278  24.998  1.00  0.00    -0.050 Cl
ENDBRANCH  74  77
ENDBRANCH  72  73
ENDBRANCH  71  72
ENDBRANCH   1  71
TORSDOF 10
ENDMDL
