MODEL 1
REMARK VINA RESULT:     -13.4      0.000      0.000
REMARK SMILES O=C(Cc1ccc(NC(=O)Nc2ccc(Br)cc2)cc1)NCCCNC(=O)c1ccc(-c2c3nc(c(-c4c(F)c(F)c(F)c(F)c4F)c4ccc([nH]4)c(-c4c(F)c(F)c(F)c(F)c4F)c4nc(c(-c5c(F)c(F)c(F)c(F)c5F)c5ccc2[nH]5)C=C4)C=C3)cc1
REMARK SMILES IDX 22 1 21 2 1 3 2 4 3 6 4 7 5 8 20 9 6 10 19 11 7 12 8 13 9 14
REMARK SMILES IDX 10 16 11 17 12 19 13 20 18 21 14 22 17 23 15 24 16 25 23 26
REMARK SMILES IDX 24 27 25 28 26 29 27 31 28 32 29 33 90 34 30 35 89 36 31 37
REMARK SMILES IDX 32 38 33 39 83 40 34 41 88 42 82 43 84 44 35 45 87 46 81 47
REMARK SMILES IDX 80 48 36 50 68 51 48 52 67 53 49 54 52 55 66 56 85 57 50 58
REMARK SMILES IDX 51 59 65 61 86 62 53 63 37 64 38 65 46 66 39 67 40 68 44 69
REMARK SMILES IDX 47 70 41 71 42 72 45 73 43 74 69 75 70 76 78 77 71 78 72 79
REMARK SMILES IDX 76 80 79 81 73 82 74 83 77 84 75 85 54 86 55 87 63 88 56 89
REMARK SMILES IDX 57 90 61 91 64 92 58 93 59 94 62 95 60 96
REMARK H PARENT 21 5 8 15 11 18 25 30 84 49 52 60
REMARK Flexibility Score: inf
ROOT
ATOM      1  C   UNL A   1      39.711  21.550  26.503  1.00  0.00     0.117 C 
ENDROOT
BRANCH   1   2
ATOM      2  N   UNL A   1      38.687  22.225  25.727  1.00  0.00    -0.356 N 
ATOM      3  O   UNL A   1      37.791  20.244  24.985  1.00  0.00    -0.275 OA
ATOM      4  C   UNL A   1      37.738  21.470  25.053  1.00  0.00     0.224 C 
ATOM      5  H   UNL A   1      38.666  23.207  25.678  1.00  0.00     0.163 HD
BRANCH   4   6
ATOM      6  C   UNL A   1      36.590  22.255  24.436  1.00  0.00     0.135 C 
BRANCH   6   7
ATOM      7  C   UNL A   1      35.243  22.012  25.086  1.00  0.00    -0.039 A 
ATOM      8  C   UNL A   1      35.059  21.957  26.474  1.00  0.00     0.006 A 
ATOM      9  C   UNL A   1      34.124  21.814  24.268  1.00  0.00     0.006 A 
ATOM     10  C   UNL A   1      33.770  21.914  27.026  1.00  0.00     0.026 A 
ATOM     11  C   UNL A   1      32.843  21.773  24.820  1.00  0.00     0.026 A 
ATOM     12  C   UNL A   1      32.657  21.956  26.193  1.00  0.00     0.042 A 
BRANCH  12  13
ATOM     13  N   UNL A   1      31.346  22.214  26.608  1.00  0.00    -0.308 N 
ATOM     14  C   UNL A   1      30.605  23.298  26.891  1.00  0.00     0.323 C 
ATOM     15  H   UNL A   1      30.832  21.382  26.722  1.00  0.00     0.171 HD
ATOM     16  O   UNL A   1      29.541  23.094  27.492  1.00  0.00    -0.248 OA
ATOM     17  N   UNL A   1      30.883  24.575  26.591  1.00  0.00    -0.308 N 
ATOM     18  H   UNL A   1      30.311  25.196  27.096  1.00  0.00     0.171 HD
BRANCH  17  19
ATOM     19  C   UNL A   1      31.768  25.260  25.751  1.00  0.00     0.042 A 
ATOM     20  C   UNL A   1      31.254  25.645  24.506  1.00  0.00     0.027 A 
ATOM     21  C   UNL A   1      33.074  25.610  26.077  1.00  0.00     0.027 A 
ATOM     22  C   UNL A   1      31.954  26.532  23.692  1.00  0.00     0.018 A 
ATOM     23  C   UNL A   1      33.771  26.526  25.277  1.00  0.00     0.018 A 
ATOM     24  C   UNL A   1      33.190  27.011  24.106  1.00  0.00     0.018 A 
ATOM     25  Br  UNL A   1      34.026  28.348  23.068  1.00  0.00    -0.051 Br
ENDBRANCH  17  19
ENDBRANCH  12  13
ENDBRANCH   6   7
ENDBRANCH   4   6
ENDBRANCH   1   2
BRANCH   1  26
ATOM     26  C   UNL A   1      41.022  21.280  25.780  1.00  0.00     0.042 C 
BRANCH  26  27
ATOM     27  C   UNL A   1      42.263  21.946  26.367  1.00  0.00     0.118 C 
BRANCH  27  28
ATOM     28  N   UNL A   1      43.144  22.577  25.391  1.00  0.00    -0.352 N 
ATOM     29  C   UNL A   1      43.483  23.899  25.200  1.00  0.00     0.251 C 
ATOM     30  H   UNL A   1      43.570  21.952  24.762  1.00  0.00     0.163 HD
ATOM     31  O   UNL A   1      44.251  24.206  24.289  1.00  0.00    -0.269 OA
BRANCH  29  32
ATOM     32  C   UNL A   1      42.880  24.968  26.027  1.00  0.00     0.039 A 
ATOM     33  C   UNL A   1      41.731  24.671  26.768  1.00  0.00     0.014 A 
ATOM     34  C   UNL A   1      43.457  26.232  26.123  1.00  0.00     0.014 A 
ATOM     35  C   UNL A   1      41.248  25.589  27.706  1.00  0.00     0.010 A 
ATOM     36  C   UNL A   1      43.037  27.105  27.123  1.00  0.00     0.010 A 
ATOM     37  C   UNL A   1      41.947  26.781  27.947  1.00  0.00    -0.014 A 
BRANCH  37  38
ATOM     38  C   UNL A   1      41.606  27.678  29.085  1.00  0.00     0.031 A 
ATOM     39  C   UNL A   1      42.359  27.579  30.382  1.00  0.00     0.074 A 
ATOM     40  C   UNL A   1      40.536  28.495  28.992  1.00  0.00     0.049 A 
ATOM     41  N   UNL A   1      42.100  28.139  31.536  1.00  0.00    -0.248 NA
ATOM     42  C   UNL A   1      43.541  26.703  30.391  1.00  0.00     0.031 C 
ATOM     43  C   UNL A   1      39.686  28.649  27.811  1.00  0.00     0.029 A 
ATOM     44  N   UNL A   1      39.966  29.333  29.919  1.00  0.00    -0.354 N 
ATOM     45  C   UNL A   1      43.062  27.659  32.414  1.00  0.00     0.074 A 
ATOM     46  C   UNL A   1      43.885  26.729  31.671  1.00  0.00     0.031 C 
ATOM     47  C   UNL A   1      38.715  29.538  28.077  1.00  0.00     0.029 A 
ATOM     48  C   UNL A   1      38.844  29.981  29.461  1.00  0.00     0.049 A 
ATOM     49  H   UNL A   1      40.327  29.458  30.828  1.00  0.00     0.167 HD
ATOM     50  C   UNL A   1      43.254  27.978  33.716  1.00  0.00     0.037 A 
ATOM     51  C   UNL A   1      38.000  30.823  30.089  1.00  0.00     0.037 A 
ATOM     52  C   UNL A   1      42.465  28.938  34.442  1.00  0.00     0.049 A 
ATOM     53  C   UNL A   1      38.242  31.170  31.532  1.00  0.00     0.074 A 
ATOM     54  C   UNL A   1      42.633  29.387  35.741  1.00  0.00     0.029 A 
ATOM     55  N   UNL A   1      41.359  29.600  33.930  1.00  0.00    -0.354 N 
ATOM     56  N   UNL A   1      39.190  30.752  32.335  1.00  0.00    -0.248 NA
ATOM     57  C   UNL A   1      37.294  32.104  32.158  1.00  0.00     0.031 C 
ATOM     58  C   UNL A   1      41.607  30.293  36.026  1.00  0.00     0.029 A 
ATOM     59  C   UNL A   1      40.824  30.439  34.894  1.00  0.00     0.049 A 
ATOM     60  H   UNL A   1      41.006  29.489  33.018  1.00  0.00     0.167 HD
ATOM     61  C   UNL A   1      38.969  31.387  33.549  1.00  0.00     0.074 A 
ATOM     62  C   UNL A   1      37.805  32.229  33.375  1.00  0.00     0.031 C 
ATOM     63  C   UNL A   1      39.669  31.279  34.703  1.00  0.00     0.037 A 
BRANCH  50  64
ATOM     64  C   UNL A   1      44.372  27.289  34.441  1.00  0.00     0.064 A 
ATOM     65  C   UNL A   1      45.656  27.849  34.518  1.00  0.00     0.173 A 
ATOM     66  C   UNL A   1      44.148  26.068  35.097  1.00  0.00     0.173 A 
ATOM     67  F   UNL A   1      45.924  29.008  33.898  1.00  0.00    -0.203 F 
ATOM     68  C   UNL A   1      46.682  27.199  35.198  1.00  0.00     0.198 A 
ATOM     69  C   UNL A   1      45.169  25.436  35.801  1.00  0.00     0.198 A 
ATOM     70  F   UNL A   1      42.937  25.492  35.061  1.00  0.00    -0.203 F 
ATOM     71  F   UNL A   1      47.913  27.729  35.214  1.00  0.00    -0.200 F 
ATOM     72  C   UNL A   1      46.437  25.997  35.844  1.00  0.00     0.200 A 
ATOM     73  F   UNL A   1      44.928  24.280  36.436  1.00  0.00    -0.200 F 
ATOM     74  F   UNL A   1      47.425  25.375  36.503  1.00  0.00    -0.200 F 
ENDBRANCH  50  64
BRANCH  51  75
ATOM     75  C   UNL A   1      36.852  31.412  29.351  1.00  0.00     0.064 A 
ATOM     76  C   UNL A   1      35.740  30.629  29.015  1.00  0.00     0.173 A 
ATOM     77  C   UNL A   1      36.842  32.760  28.964  1.00  0.00     0.173 A 
ATOM     78  F   UNL A   1      35.715  29.328  29.344  1.00  0.00    -0.203 F 
ATOM     79  C   UNL A   1      34.668  31.165  28.306  1.00  0.00     0.198 A 
ATOM     80  C   UNL A   1      35.759  33.303  28.275  1.00  0.00     0.198 A 
ATOM     81  F   UNL A   1      37.882  33.553  29.263  1.00  0.00    -0.203 F 
ATOM     82  F   UNL A   1      33.637  30.383  27.960  1.00  0.00    -0.200 F 
ATOM     83  C   UNL A   1      34.676  32.503  27.941  1.00  0.00     0.200 A 
ATOM     84  F   UNL A   1      35.764  34.598  27.936  1.00  0.00    -0.200 F 
ATOM     85  F   UNL A   1      33.644  33.020  27.260  1.00  0.00    -0.200 F 
ENDBRANCH  51  75
BRANCH  63  86
ATOM     86  C   UNL A   1      39.215  32.114  35.864  1.00  0.00     0.064 A 
ATOM     87  C   UNL A   1      38.308  31.619  36.812  1.00  0.00     0.173 A 
ATOM     88  C   UNL A   1      39.732  33.404  36.056  1.00  0.00     0.173 A 
ATOM     89  F   UNL A   1      37.774  30.398  36.662  1.00  0.00    -0.203 F 
ATOM     90  C   UNL A   1      37.922  32.393  37.903  1.00  0.00     0.198 A 
ATOM     91  C   UNL A   1      39.364  34.165  37.161  1.00  0.00     0.198 A 
ATOM     92  F   UNL A   1      40.606  33.920  35.178  1.00  0.00    -0.203 F 
ATOM     93  F   UNL A   1      37.027  31.916  38.777  1.00  0.00    -0.200 F 
ATOM     94  C   UNL A   1      38.456  33.661  38.081  1.00  0.00     0.200 A 
ATOM     95  F   UNL A   1      39.889  35.385  37.337  1.00  0.00    -0.200 F 
ATOM     96  F   UNL A   1      38.092  34.401  39.138  1.00  0.00    -0.200 F 
ENDBRANCH  63  86
ENDBRANCH  37  38
ENDBRANCH  29  32
ENDBRANCH  27  28
ENDBRANCH  26  27
ENDBRANCH   1  26
TORSDOF 13
ENDMDL
MODEL 2
REMARK VINA RESULT:     -13.4      3.063      8.041
REMARK SMILES O=C(Cc1ccc(NC(=O)Nc2ccc(Br)cc2)cc1)NCCCNC(=O)c1ccc(-c2c3nc(c(-c4c(F)c(F)c(F)c(F)c4F)c4ccc([nH]4)c(-c4c(F)c(F)c(F)c(F)c4F)c4nc(c(-c5c(F)c(F)c(F)c(F)c5F)c5ccc2[nH]5)C=C4)C=C3)cc1
REMARK SMILES IDX 22 1 21 2 1 3 2 4 3 6 4 7 5 8 20 9 6 10 19 11 7 12 8 13 9 14
REMARK SMILES IDX 10 16 11 17 12 19 13 20 18 21 14 22 17 23 15 24 16 25 23 26
REMARK SMILES IDX 24 27 25 28 26 29 27 31 28 32 29 33 90 34 30 35 89 36 31 37
REMARK SMILES IDX 32 38 33 39 83 40 34 41 88 42 82 43 84 44 35 45 87 46 81 47
REMARK SMILES IDX 80 48 36 50 68 51 48 52 67 53 49 54 52 55 66 56 85 57 50 58
REMARK SMILES IDX 51 59 65 61 86 62 53 63 37 64 38 65 46 66 39 67 40 68 44 69
REMARK SMILES IDX 47 70 41 71 42 72 45 73 43 74 69 75 70 76 78 77 71 78 72 79
REMARK SMILES IDX 76 80 79 81 73 82 74 83 77 84 75 85 54 86 55 87 63 88 56 89
REMARK SMILES IDX 57 90 61 91 64 92 58 93 59 94 62 95 60 96
REMARK H PARENT 21 5 8 15 11 18 25 30 84 49 52 60
REMARK Flexibility Score: inf
ROOT
ATOM      1  C   UNL A   1      31.675  28.783  23.905  1.00  0.00     0.117 C 
ENDROOT
BRANCH   1   2
ATOM      2  N   UNL A   1      32.480  27.582  23.785  1.00  0.00    -0.356 N 
ATOM      3  O   UNL A   1      31.383  26.904  21.886  1.00  0.00    -0.275 OA
ATOM      4  C   UNL A   1      32.290  26.741  22.699  1.00  0.00     0.224 C 
ATOM      5  H   UNL A   1      33.155  27.366  24.468  1.00  0.00     0.163 HD
BRANCH   4   6
ATOM      6  C   UNL A   1      33.308  25.622  22.546  1.00  0.00     0.135 C 
BRANCH   6   7
ATOM      7  C   UNL A   1      32.805  24.255  22.959  1.00  0.00    -0.039 A 
ATOM      8  C   UNL A   1      33.032  23.094  22.207  1.00  0.00     0.006 A 
ATOM      9  C   UNL A   1      32.060  24.135  24.138  1.00  0.00     0.006 A 
ATOM     10  C   UNL A   1      32.707  21.829  22.723  1.00  0.00     0.026 A 
ATOM     11  C   UNL A   1      31.738  22.877  24.649  1.00  0.00     0.026 A 
ATOM     12  C   UNL A   1      32.179  21.719  24.004  1.00  0.00     0.042 A 
BRANCH  12  13
ATOM     13  N   UNL A   1      32.088  20.532  24.741  1.00  0.00    -0.308 N 
ATOM     14  C   UNL A   1      32.941  19.626  25.246  1.00  0.00     0.323 C 
ATOM     15  H   UNL A   1      31.152  20.300  24.941  1.00  0.00     0.171 HD
ATOM     16  O   UNL A   1      32.447  18.552  25.617  1.00  0.00    -0.248 OA
ATOM     17  N   UNL A   1      34.267  19.755  25.401  1.00  0.00    -0.308 N 
ATOM     18  H   UNL A   1      34.695  18.886  25.575  1.00  0.00     0.171 HD
BRANCH  17  19
ATOM     19  C   UNL A   1      35.205  20.794  25.382  1.00  0.00     0.042 A 
ATOM     20  C   UNL A   1      34.823  21.972  26.034  1.00  0.00     0.027 A 
ATOM     21  C   UNL A   1      36.470  20.722  24.808  1.00  0.00     0.027 A 
ATOM     22  C   UNL A   1      35.753  22.977  26.289  1.00  0.00     0.018 A 
ATOM     23  C   UNL A   1      37.419  21.716  25.087  1.00  0.00     0.018 A 
ATOM     24  C   UNL A   1      37.063  22.821  25.857  1.00  0.00     0.018 A 
ATOM     25  Br  UNL A   1      38.337  24.115  26.376  1.00  0.00    -0.051 Br
ENDBRANCH  17  19
ENDBRANCH  12  13
ENDBRANCH   6   7
ENDBRANCH   4   6
ENDBRANCH   1   2
BRANCH   1  26
ATOM     26  C   UNL A   1      31.475  29.311  25.318  1.00  0.00     0.042 C 
BRANCH  26  27
ATOM     27  C   UNL A   1      32.700  29.930  25.983  1.00  0.00     0.118 C 
BRANCH  27  28
ATOM     28  N   UNL A   1      32.474  31.233  26.601  1.00  0.00    -0.352 N 
ATOM     29  C   UNL A   1      33.292  32.017  27.385  1.00  0.00     0.251 C 
ATOM     30  H   UNL A   1      31.585  31.617  26.428  1.00  0.00     0.163 HD
ATOM     31  O   UNL A   1      32.879  33.093  27.812  1.00  0.00    -0.269 OA
BRANCH  29  32
ATOM     32  C   UNL A   1      34.639  31.550  27.784  1.00  0.00     0.039 A 
ATOM     33  C   UNL A   1      35.675  32.488  27.867  1.00  0.00     0.014 A 
ATOM     34  C   UNL A   1      34.881  30.221  28.126  1.00  0.00     0.014 A 
ATOM     35  C   UNL A   1      36.904  32.123  28.424  1.00  0.00     0.010 A 
ATOM     36  C   UNL A   1      36.068  29.882  28.769  1.00  0.00     0.010 A 
ATOM     37  C   UNL A   1      37.082  30.836  28.954  1.00  0.00    -0.014 A 
BRANCH  37  38
ATOM     38  C   UNL A   1      38.282  30.473  29.756  1.00  0.00     0.031 A 
ATOM     39  C   UNL A   1      39.291  29.500  29.213  1.00  0.00     0.074 A 
ATOM     40  C   UNL A   1      38.399  30.922  31.022  1.00  0.00     0.049 A 
ATOM     41  N   UNL A   1      40.298  28.924  29.820  1.00  0.00    -0.248 NA
ATOM     42  C   UNL A   1      39.123  29.092  27.810  1.00  0.00     0.031 C 
ATOM     43  C   UNL A   1      37.464  31.828  31.691  1.00  0.00     0.029 A 
ATOM     44  N   UNL A   1      39.344  30.657  31.983  1.00  0.00    -0.354 N 
ATOM     45  C   UNL A   1      40.860  28.064  28.887  1.00  0.00     0.074 A 
ATOM     46  C   UNL A   1      40.058  28.160  27.686  1.00  0.00     0.031 C 
ATOM     47  C   UNL A   1      37.890  32.057  32.944  1.00  0.00     0.029 A 
ATOM     48  C   UNL A   1      39.099  31.278  33.185  1.00  0.00     0.049 A 
ATOM     49  H   UNL A   1      40.124  30.076  31.827  1.00  0.00     0.167 HD
ATOM     50  C   UNL A   1      41.956  27.279  29.012  1.00  0.00     0.037 A 
ATOM     51  C   UNL A   1      39.761  31.213  34.356  1.00  0.00     0.037 A 
ATOM     52  C   UNL A   1      42.781  27.217  30.190  1.00  0.00     0.049 A 
ATOM     53  C   UNL A   1      40.982  30.342  34.467  1.00  0.00     0.074 A 
ATOM     54  C   UNL A   1      43.957  26.513  30.384  1.00  0.00     0.029 A 
ATOM     55  N   UNL A   1      42.518  27.890  31.374  1.00  0.00    -0.354 N 
ATOM     56  N   UNL A   1      41.536  29.577  33.558  1.00  0.00    -0.248 NA
ATOM     57  C   UNL A   1      41.669  30.324  35.766  1.00  0.00     0.031 C 
ATOM     58  C   UNL A   1      44.385  26.731  31.698  1.00  0.00     0.029 A 
ATOM     59  C   UNL A   1      43.499  27.602  32.309  1.00  0.00     0.049 A 
ATOM     60  H   UNL A   1      41.748  28.485  31.528  1.00  0.00     0.167 HD
ATOM     61  C   UNL A   1      42.645  29.006  34.165  1.00  0.00     0.074 A 
ATOM     62  C   UNL A   1      42.695  29.522  35.517  1.00  0.00     0.031 C 
ATOM     63  C   UNL A   1      43.540  28.131  33.648  1.00  0.00     0.037 A 
BRANCH  50  64
ATOM     64  C   UNL A   1      42.336  26.425  27.839  1.00  0.00     0.064 A 
ATOM     65  C   UNL A   1      43.247  26.870  26.869  1.00  0.00     0.173 A 
ATOM     66  C   UNL A   1      41.809  25.132  27.700  1.00  0.00     0.173 A 
ATOM     67  F   UNL A   1      43.769  28.103  26.950  1.00  0.00    -0.203 F 
ATOM     68  C   UNL A   1      43.592  26.065  25.787  1.00  0.00     0.198 A 
ATOM     69  C   UNL A   1      42.180  24.318  26.632  1.00  0.00     0.198 A 
ATOM     70  F   UNL A   1      40.938  24.654  28.602  1.00  0.00    -0.203 F 
ATOM     71  F   UNL A   1      44.425  26.532  24.846  1.00  0.00    -0.200 F 
ATOM     72  C   UNL A   1      43.064  24.788  25.672  1.00  0.00     0.200 A 
ATOM     73  F   UNL A   1      41.678  23.079  26.529  1.00  0.00    -0.200 F 
ATOM     74  F   UNL A   1      43.402  24.012  24.633  1.00  0.00    -0.200 F 
ENDBRANCH  50  64
BRANCH  51  75
ATOM     75  C   UNL A   1      39.292  32.010  35.520  1.00  0.00     0.064 A 
ATOM     76  C   UNL A   1      39.693  33.343  35.682  1.00  0.00     0.173 A 
ATOM     77  C   UNL A   1      38.442  31.461  36.491  1.00  0.00     0.173 A 
ATOM     78  F   UNL A   1      40.525  33.904  34.791  1.00  0.00    -0.203 F 
ATOM     79  C   UNL A   1      39.276  34.093  36.779  1.00  0.00     0.198 A 
ATOM     80  C   UNL A   1      38.005  32.219  37.576  1.00  0.00     0.198 A 
ATOM     81  F   UNL A   1      38.028  30.190  36.380  1.00  0.00    -0.203 F 
ATOM     82  F   UNL A   1      39.709  35.351  36.933  1.00  0.00    -0.200 F 
ATOM     83  C   UNL A   1      38.428  33.532  37.723  1.00  0.00     0.200 A 
ATOM     84  F   UNL A   1      37.176  31.678  38.478  1.00  0.00    -0.200 F 
ATOM     85  F   UNL A   1      38.025  34.253  38.778  1.00  0.00    -0.200 F 
ENDBRANCH  51  75
BRANCH  63  86
ATOM     86  C   UNL A   1      44.671  27.697  34.534  1.00  0.00     0.064 A 
ATOM     87  C   UNL A   1      45.866  28.427  34.608  1.00  0.00     0.173 A 
ATOM     88  C   UNL A   1      44.536  26.567  35.354  1.00  0.00     0.173 A 
ATOM     89  F   UNL A   1      46.047  29.505  33.831  1.00  0.00    -0.203 F 
ATOM     90  C   UNL A   1      46.893  28.031  35.460  1.00  0.00     0.198 A 
ATOM     91  C   UNL A   1      45.555  26.189  36.224  1.00  0.00     0.198 A 
ATOM     92  F   UNL A   1      43.410  25.838  35.322  1.00  0.00    -0.203 F 
ATOM     93  F   UNL A   1      48.040  28.721  35.489  1.00  0.00    -0.200 F 
ATOM     94  C   UNL A   1      46.734  26.918  36.273  1.00  0.00     0.200 A 
ATOM     95  F   UNL A   1      45.394  25.119  37.015  1.00  0.00    -0.200 F 
ATOM     96  F   UNL A   1      47.719  26.544  37.100  1.00  0.00    -0.200 F 
ENDBRANCH  63  86
ENDBRANCH  37  38
ENDBRANCH  29  32
ENDBRANCH  27  28
ENDBRANCH  26  27
ENDBRANCH   1  26
TORSDOF 13
ENDMDL
MODEL 3
REMARK VINA RESULT:     -13.3      4.029      8.959
REMARK SMILES O=C(Cc1ccc(NC(=O)Nc2ccc(Br)cc2)cc1)NCCCNC(=O)c1ccc(-c2c3nc(c(-c4c(F)c(F)c(F)c(F)c4F)c4ccc([nH]4)c(-c4c(F)c(F)c(F)c(F)c4F)c4nc(c(-c5c(F)c(F)c(F)c(F)c5F)c5ccc2[nH]5)C=C4)C=C3)cc1
REMARK SMILES IDX 22 1 21 2 1 3 2 4 3 6 4 7 5 8 20 9 6 10 19 11 7 12 8 13 9 14
REMARK SMILES IDX 10 16 11 17 12 19 13 20 18 21 14 22 17 23 15 24 16 25 23 26
REMARK SMILES IDX 24 27 25 28 26 29 27 31 28 32 29 33 90 34 30 35 89 36 31 37
REMARK SMILES IDX 32 38 33 39 83 40 34 41 88 42 82 43 84 44 35 45 87 46 81 47
REMARK SMILES IDX 80 48 36 50 68 51 48 52 67 53 49 54 52 55 66 56 85 57 50 58
REMARK SMILES IDX 51 59 65 61 86 62 53 63 37 64 38 65 46 66 39 67 40 68 44 69
REMARK SMILES IDX 47 70 41 71 42 72 45 73 43 74 69 75 70 76 78 77 71 78 72 79
REMARK SMILES IDX 76 80 79 81 73 82 74 83 77 84 75 85 54 86 55 87 63 88 56 89
REMARK SMILES IDX 57 90 61 91 64 92 58 93 59 94 62 95 60 96
REMARK H PARENT 21 5 8 15 11 18 25 30 84 49 52 60
REMARK Flexibility Score: inf
ROOT
ATOM      1  C   UNL A   1      34.535  32.718  29.073  1.00  0.00     0.117 C 
ENDROOT
BRANCH   1   2
ATOM      2  N   UNL A   1      34.233  31.379  28.603  1.00  0.00    -0.356 N 
ATOM      3  O   UNL A   1      36.324  31.108  27.693  1.00  0.00    -0.275 OA
ATOM      4  C   UNL A   1      35.225  30.638  27.977  1.00  0.00     0.224 C 
ATOM      5  H   UNL A   1      33.334  30.999  28.727  1.00  0.00     0.163 HD
BRANCH   4   6
ATOM      6  C   UNL A   1      34.885  29.181  27.703  1.00  0.00     0.135 C 
BRANCH   6   7
ATOM      7  C   UNL A   1      33.805  28.974  26.661  1.00  0.00    -0.039 A 
ATOM      8  C   UNL A   1      32.463  28.736  26.984  1.00  0.00     0.006 A 
ATOM      9  C   UNL A   1      34.158  29.003  25.306  1.00  0.00     0.006 A 
ATOM     10  C   UNL A   1      31.474  28.735  25.987  1.00  0.00     0.026 A 
ATOM     11  C   UNL A   1      33.173  29.003  24.318  1.00  0.00     0.026 A 
ATOM     12  C   UNL A   1      31.820  29.001  24.667  1.00  0.00     0.042 A 
BRANCH  12  13
ATOM     13  N   UNL A   1      30.919  29.319  23.644  1.00  0.00    -0.308 N 
ATOM     14  C   UNL A   1      30.622  28.849  22.422  1.00  0.00     0.323 C 
ATOM     15  H   UNL A   1      30.356  30.090  23.884  1.00  0.00     0.171 HD
ATOM     16  O   UNL A   1      29.927  29.583  21.705  1.00  0.00    -0.248 OA
ATOM     17  N   UNL A   1      30.987  27.673  21.891  1.00  0.00    -0.308 N 
ATOM     18  H   UNL A   1      30.843  27.657  20.917  1.00  0.00     0.171 HD
BRANCH  17  19
ATOM     19  C   UNL A   1      31.516  26.462  22.351  1.00  0.00     0.042 A 
ATOM     20  C   UNL A   1      30.681  25.707  23.183  1.00  0.00     0.027 A 
ATOM     21  C   UNL A   1      32.767  25.954  22.014  1.00  0.00     0.027 A 
ATOM     22  C   UNL A   1      30.999  24.389  23.502  1.00  0.00     0.018 A 
ATOM     23  C   UNL A   1      33.079  24.619  22.307  1.00  0.00     0.018 A 
ATOM     24  C   UNL A   1      32.175  23.833  23.019  1.00  0.00     0.018 A 
ATOM     25  Br  UNL A   1      32.486  21.995  23.318  1.00  0.00    -0.051 Br
ENDBRANCH  17  19
ENDBRANCH  12  13
ENDBRANCH   6   7
ENDBRANCH   4   6
ENDBRANCH   1   2
BRANCH   1  26
ATOM     26  C   UNL A   1      33.582  33.813  28.614  1.00  0.00     0.042 C 
BRANCH  26  27
ATOM     27  C   UNL A   1      33.859  35.213  29.151  1.00  0.00     0.118 C 
BRANCH  27  28
ATOM     28  N   UNL A   1      32.869  35.717  30.097  1.00  0.00    -0.352 N 
ATOM     29  C   UNL A   1      32.846  35.706  31.475  1.00  0.00     0.251 C 
ATOM     30  H   UNL A   1      32.084  36.138  29.680  1.00  0.00     0.163 HD
ATOM     31  O   UNL A   1      31.886  36.188  32.073  1.00  0.00    -0.269 OA
BRANCH  29  32
ATOM     32  C   UNL A   1      33.927  35.056  32.250  1.00  0.00     0.039 A 
ATOM     33  C   UNL A   1      33.717  33.759  32.732  1.00  0.00     0.014 A 
ATOM     34  C   UNL A   1      35.155  35.681  32.459  1.00  0.00     0.014 A 
ATOM     35  C   UNL A   1      34.778  33.043  33.295  1.00  0.00     0.010 A 
ATOM     36  C   UNL A   1      36.234  34.937  32.929  1.00  0.00     0.010 A 
ATOM     37  C   UNL A   1      36.066  33.600  33.323  1.00  0.00    -0.014 A 
BRANCH  37  38
ATOM     38  C   UNL A   1      37.263  32.799  33.700  1.00  0.00     0.031 A 
ATOM     39  C   UNL A   1      37.991  33.080  34.984  1.00  0.00     0.074 A 
ATOM     40  C   UNL A   1      37.768  31.904  32.826  1.00  0.00     0.049 A 
ATOM     41  N   UNL A   1      39.143  32.622  35.402  1.00  0.00    -0.248 NA
ATOM     42  C   UNL A   1      37.354  34.034  35.906  1.00  0.00     0.031 C 
ATOM     43  C   UNL A   1      37.191  31.572  31.522  1.00  0.00     0.029 A 
ATOM     44  N   UNL A   1      38.897  31.124  32.894  1.00  0.00    -0.354 N 
ATOM     45  C   UNL A   1      39.385  33.254  36.614  1.00  0.00     0.074 A 
ATOM     46  C   UNL A   1      38.281  34.161  36.845  1.00  0.00     0.031 C 
ATOM     47  C   UNL A   1      37.958  30.648  30.922  1.00  0.00     0.029 A 
ATOM     48  C   UNL A   1      39.105  30.356  31.773  1.00  0.00     0.049 A 
ATOM     49  H   UNL A   1      39.501  31.117  33.672  1.00  0.00     0.167 HD
ATOM     50  C   UNL A   1      40.424  33.081  37.466  1.00  0.00     0.037 A 
ATOM     51  C   UNL A   1      40.116  29.524  31.457  1.00  0.00     0.037 A 
ATOM     52  C   UNL A   1      41.498  32.146  37.258  1.00  0.00     0.049 A 
ATOM     53  C   UNL A   1      41.252  29.341  32.425  1.00  0.00     0.074 A 
ATOM     54  C   UNL A   1      42.552  31.842  38.103  1.00  0.00     0.029 A 
ATOM     55  N   UNL A   1      41.653  31.359  36.127  1.00  0.00    -0.354 N 
ATOM     56  N   UNL A   1      41.440  29.903  33.594  1.00  0.00    -0.248 NA
ATOM     57  C   UNL A   1      42.318  28.409  32.029  1.00  0.00     0.031 C 
ATOM     58  C   UNL A   1      43.364  30.898  37.465  1.00  0.00     0.029 A 
ATOM     59  C   UNL A   1      42.795  30.585  36.243  1.00  0.00     0.049 A 
ATOM     60  H   UNL A   1      41.041  31.353  35.355  1.00  0.00     0.167 HD
ATOM     61  C   UNL A   1      42.628  29.379  34.083  1.00  0.00     0.074 A 
ATOM     62  C   UNL A   1      43.113  28.443  33.090  1.00  0.00     0.031 C 
ATOM     63  C   UNL A   1      43.260  29.651  35.249  1.00  0.00     0.037 A 
BRANCH  50  64
ATOM     64  C   UNL A   1      40.445  33.917  38.711  1.00  0.00     0.064 A 
ATOM     65  C   UNL A   1      41.123  35.145  38.762  1.00  0.00     0.173 A 
ATOM     66  C   UNL A   1      39.751  33.503  39.858  1.00  0.00     0.173 A 
ATOM     67  F   UNL A   1      41.812  35.579  37.696  1.00  0.00    -0.203 F 
ATOM     68  C   UNL A   1      41.131  35.912  39.923  1.00  0.00     0.198 A 
ATOM     69  C   UNL A   1      39.737  34.287  41.009  1.00  0.00     0.198 A 
ATOM     70  F   UNL A   1      39.082  32.341  39.862  1.00  0.00    -0.203 F 
ATOM     71  F   UNL A   1      41.828  37.056  39.964  1.00  0.00    -0.200 F 
ATOM     72  C   UNL A   1      40.434  35.486  41.044  1.00  0.00     0.200 A 
ATOM     73  F   UNL A   1      39.052  33.881  42.087  1.00  0.00    -0.200 F 
ATOM     74  F   UNL A   1      40.438  36.228  42.160  1.00  0.00    -0.200 F 
ENDBRANCH  50  64
BRANCH  51  75
ATOM     75  C   UNL A   1      40.094  28.784  30.168  1.00  0.00     0.064 A 
ATOM     76  C   UNL A   1      40.686  29.329  29.021  1.00  0.00     0.173 A 
ATOM     77  C   UNL A   1      39.482  27.528  30.053  1.00  0.00     0.173 A 
ATOM     78  F   UNL A   1      41.262  30.539  29.076  1.00  0.00    -0.203 F 
ATOM     79  C   UNL A   1      40.652  28.654  27.803  1.00  0.00     0.198 A 
ATOM     80  C   UNL A   1      39.471  26.841  28.841  1.00  0.00     0.198 A 
ATOM     81  F   UNL A   1      38.904  26.961  31.123  1.00  0.00    -0.203 F 
ATOM     82  F   UNL A   1      41.187  29.218  26.712  1.00  0.00    -0.200 F 
ATOM     83  C   UNL A   1      40.050  27.408  27.714  1.00  0.00     0.200 A 
ATOM     84  F   UNL A   1      38.899  25.632  28.762  1.00  0.00    -0.200 F 
ATOM     85  F   UNL A   1      40.019  26.758  26.544  1.00  0.00    -0.200 F 
ENDBRANCH  51  75
BRANCH  63  86
ATOM     86  C   UNL A   1      44.531  28.906  35.534  1.00  0.00     0.064 A 
ATOM     87  C   UNL A   1      44.524  27.674  36.203  1.00  0.00     0.173 A 
ATOM     88  C   UNL A   1      45.763  29.409  35.090  1.00  0.00     0.173 A 
ATOM     89  F   UNL A   1      43.373  27.161  36.661  1.00  0.00    -0.203 F 
ATOM     90  C   UNL A   1      45.709  26.978  36.430  1.00  0.00     0.198 A 
ATOM     91  C   UNL A   1      46.942  28.698  35.296  1.00  0.00     0.198 A 
ATOM     92  F   UNL A   1      45.821  30.582  34.442  1.00  0.00    -0.203 F 
ATOM     93  F   UNL A   1      45.684  25.820  37.103  1.00  0.00    -0.200 F 
ATOM     94  C   UNL A   1      46.914  27.486  35.970  1.00  0.00     0.200 A 
ATOM     95  F   UNL A   1      48.104  29.186  34.840  1.00  0.00    -0.200 F 
ATOM     96  F   UNL A   1      48.053  26.811  36.180  1.00  0.00    -0.200 F 
ENDBRANCH  63  86
ENDBRANCH  37  38
ENDBRANCH  29  32
ENDBRANCH  27  28
ENDBRANCH  26  27
ENDBRANCH   1  26
TORSDOF 13
ENDMDL
