MODEL 1
REMARK VINA RESULT:     -14.1      0.000      0.000
REMARK SMILES O=C(NCCCNC(=O)c1nc(NC[C@H]2c3ccccc3CSc3ccccc32)c2ccccc2n1)c1ccc(-c2c3nc(c(-c4c(F)c(F)c(F)c(F)c4F)c4ccc([nH]4)c(-c4c(F)c(F)c(F)c(F)c4F)c4nc(c(-c5c(F)c(F)c(F)c(F)c5F)c5ccc2[nH]5)C=C4)C=C3)cc1
REMARK SMILES IDX 5 1 4 2 3 3 1 4 2 5 37 7 38 8 99 9 39 10 98 11 40 12 41 13
REMARK SMILES IDX 42 14 92 15 43 16 97 17 91 18 93 19 44 20 96 21 90 22 89 23
REMARK SMILES IDX 45 25 77 26 57 27 76 28 58 29 61 30 75 31 94 32 59 33 60 34
REMARK SMILES IDX 74 36 95 37 62 38 46 39 47 40 55 41 48 42 49 43 53 44 56 45
REMARK SMILES IDX 50 46 51 47 54 48 52 49 78 50 79 51 87 52 80 53 81 54 85 55
REMARK SMILES IDX 88 56 82 57 83 58 86 59 84 60 63 61 64 62 72 63 65 64 66 65
REMARK SMILES IDX 70 66 73 67 67 68 68 69 71 70 69 71 6 72 7 73 8 74 9 76
REMARK SMILES IDX 10 77 11 78 36 79 12 80 35 81 30 82 34 83 31 84 33 85 32 86
REMARK SMILES IDX 13 87 14 89 15 90 16 91 29 92 17 93 21 94 24 95 28 96 18 97
REMARK SMILES IDX 20 98 22 99 23 100 25 101 27 102 19 103 26 104
REMARK H PARENT 3 6 93 24 61 35 7 75 13 88
REMARK Flexibility Score: inf
ROOT
ATOM      1  C   UNL A   1      46.728  22.786  34.723  1.00  0.00     0.042 C 
ENDROOT
BRANCH   1   2
ATOM      2  C   UNL A   1      47.904  23.751  34.796  1.00  0.00     0.118 C 
BRANCH   2   3
ATOM      3  N   UNL A   1      48.018  24.427  36.079  1.00  0.00    -0.352 N 
ATOM      4  O   UNL A   1      47.756  26.029  37.633  1.00  0.00    -0.269 OA
ATOM      5  C   UNL A   1      47.402  25.560  36.550  1.00  0.00     0.251 C 
ATOM      6  H   UNL A   1      48.639  24.003  36.715  1.00  0.00     0.163 HD
BRANCH   5   7
ATOM      7  C   UNL A   1      46.340  26.244  35.775  1.00  0.00     0.039 A 
ATOM      8  C   UNL A   1      45.031  25.755  35.856  1.00  0.00     0.014 A 
ATOM      9  C   UNL A   1      46.616  27.325  34.935  1.00  0.00     0.014 A 
ATOM     10  C   UNL A   1      44.006  26.374  35.135  1.00  0.00     0.010 A 
ATOM     11  C   UNL A   1      45.577  28.008  34.305  1.00  0.00     0.010 A 
ATOM     12  C   UNL A   1      44.264  27.524  34.371  1.00  0.00    -0.014 A 
BRANCH  12  13
ATOM     13  C   UNL A   1      43.184  28.185  33.588  1.00  0.00     0.031 A 
ATOM     14  C   UNL A   1      43.015  27.869  32.123  1.00  0.00     0.074 A 
ATOM     15  C   UNL A   1      42.364  29.074  34.182  1.00  0.00     0.049 A 
ATOM     16  N   UNL A   1      42.145  28.348  31.269  1.00  0.00    -0.248 NA
ATOM     17  C   UNL A   1      43.960  26.908  31.528  1.00  0.00     0.031 C 
ATOM     18  C   UNL A   1      42.448  29.498  35.580  1.00  0.00     0.029 A 
ATOM     19  N   UNL A   1      41.290  29.778  33.690  1.00  0.00    -0.354 N 
ATOM     20  C   UNL A   1      42.446  27.756  30.048  1.00  0.00     0.074 A 
ATOM     21  C   UNL A   1      43.619  26.937  30.249  1.00  0.00     0.031 C 
ATOM     22  C   UNL A   1      41.443  30.347  35.845  1.00  0.00     0.029 A 
ATOM     23  C   UNL A   1      40.666  30.565  34.628  1.00  0.00     0.049 A 
ATOM     24  H   UNL A   1      40.996  29.723  32.751  1.00  0.00     0.167 HD
ATOM     25  C   UNL A   1      41.779  27.851  28.875  1.00  0.00     0.037 A 
ATOM     26  C   UNL A   1      39.587  31.367  34.520  1.00  0.00     0.037 A 
ATOM     27  C   UNL A   1      40.583  28.625  28.688  1.00  0.00     0.049 A 
ATOM     28  C   UNL A   1      38.874  31.468  33.197  1.00  0.00     0.074 A 
ATOM     29  C   UNL A   1      39.805  28.737  27.550  1.00  0.00     0.029 A 
ATOM     30  N   UNL A   1      39.989  29.408  29.664  1.00  0.00    -0.354 N 
ATOM     31  N   UNL A   1      39.132  30.848  32.071  1.00  0.00    -0.248 NA
ATOM     32  C   UNL A   1      37.721  32.379  33.126  1.00  0.00     0.031 C 
ATOM     33  C   UNL A   1      38.766  29.629  27.820  1.00  0.00     0.029 A 
ATOM     34  C   UNL A   1      38.864  30.027  29.145  1.00  0.00     0.049 A 
ATOM     35  H   UNL A   1      40.317  29.511  30.586  1.00  0.00     0.167 HD
ATOM     36  C   UNL A   1      38.159  31.264  31.173  1.00  0.00     0.074 A 
ATOM     37  C   UNL A   1      37.298  32.185  31.883  1.00  0.00     0.031 C 
ATOM     38  C   UNL A   1      37.998  30.916  29.874  1.00  0.00     0.037 A 
BRANCH  25  39
ATOM     39  C   UNL A   1      42.293  27.071  27.700  1.00  0.00     0.064 A 
ATOM     40  C   UNL A   1      43.240  27.617  26.821  1.00  0.00     0.173 A 
ATOM     41  C   UNL A   1      41.921  25.731  27.515  1.00  0.00     0.173 A 
ATOM     42  F   UNL A   1      43.623  28.897  26.951  1.00  0.00    -0.203 F 
ATOM     43  C   UNL A   1      43.791  26.852  25.797  1.00  0.00     0.198 A 
ATOM     44  C   UNL A   1      42.495  24.961  26.509  1.00  0.00     0.198 A 
ATOM     45  F   UNL A   1      41.024  25.158  28.335  1.00  0.00    -0.203 F 
ATOM     46  F   UNL A   1      44.677  27.402  24.955  1.00  0.00    -0.200 F 
ATOM     47  C   UNL A   1      43.429  25.522  25.651  1.00  0.00     0.200 A 
ATOM     48  F   UNL A   1      42.160  23.669  26.380  1.00  0.00    -0.200 F 
ATOM     49  F   UNL A   1      43.983  24.778  24.683  1.00  0.00    -0.200 F 
ENDBRANCH  25  39
BRANCH  26  50
ATOM     50  C   UNL A   1      39.091  32.109  35.712  1.00  0.00     0.064 A 
ATOM     51  C   UNL A   1      38.263  31.483  36.655  1.00  0.00     0.173 A 
ATOM     52  C   UNL A   1      39.431  33.451  35.935  1.00  0.00     0.173 A 
ATOM     53  F   UNL A   1      37.891  30.207  36.478  1.00  0.00    -0.203 F 
ATOM     54  C   UNL A   1      37.782  32.176  37.765  1.00  0.00     0.198 A 
ATOM     55  C   UNL A   1      38.976  34.133  37.061  1.00  0.00     0.198 A 
ATOM     56  F   UNL A   1      40.223  34.097  35.066  1.00  0.00    -0.203 F 
ATOM     57  F   UNL A   1      36.956  31.566  38.627  1.00  0.00    -0.200 F 
ATOM     58  C   UNL A   1      38.144  33.498  37.972  1.00  0.00     0.200 A 
ATOM     59  F   UNL A   1      39.342  35.406  37.266  1.00  0.00    -0.200 F 
ATOM     60  F   UNL A   1      37.688  34.161  39.043  1.00  0.00    -0.200 F 
ENDBRANCH  26  50
BRANCH  38  61
ATOM     61  C   UNL A   1      36.835  31.490  29.120  1.00  0.00     0.064 A 
ATOM     62  C   UNL A   1      35.704  30.717  28.825  1.00  0.00     0.173 A 
ATOM     63  C   UNL A   1      36.795  32.861  28.824  1.00  0.00     0.173 A 
ATOM     64  F   UNL A   1      35.701  29.401  29.081  1.00  0.00    -0.203 F 
ATOM     65  C   UNL A   1      34.570  31.299  28.267  1.00  0.00     0.198 A 
ATOM     66  C   UNL A   1      35.649  33.444  28.294  1.00  0.00     0.198 A 
ATOM     67  F   UNL A   1      37.849  33.645  29.101  1.00  0.00    -0.203 F 
ATOM     68  F   UNL A   1      33.502  30.541  27.984  1.00  0.00    -0.200 F 
ATOM     69  C   UNL A   1      34.537  32.663  28.017  1.00  0.00     0.200 A 
ATOM     70  F   UNL A   1      35.610  34.766  28.075  1.00  0.00    -0.200 F 
ATOM     71  F   UNL A   1      33.429  33.227  27.517  1.00  0.00    -0.200 F 
ENDBRANCH  38  61
ENDBRANCH  12  13
ENDBRANCH   5   7
ENDBRANCH   2   3
ENDBRANCH   1   2
BRANCH   1  72
ATOM     72  C   UNL A   1      46.862  21.539  35.589  1.00  0.00     0.118 C 
BRANCH  72  73
ATOM     73  N   UNL A   1      46.003  20.452  35.145  1.00  0.00    -0.349 N 
ATOM     74  C   UNL A   1      45.624  19.293  35.804  1.00  0.00     0.289 C 
ATOM     75  H   UNL A   1      45.635  20.555  34.238  1.00  0.00     0.163 HD
ATOM     76  O   UNL A   1      44.977  18.461  35.167  1.00  0.00    -0.266 OA
BRANCH  74  77
ATOM     77  C   UNL A   1      46.025  19.034  37.232  1.00  0.00     0.220 A 
ATOM     78  N   UNL A   1      45.269  18.152  37.902  1.00  0.00    -0.206 NA
ATOM     79  N   UNL A   1      47.169  19.573  37.675  1.00  0.00    -0.224 NA
ATOM     80  C   UNL A   1      45.723  17.700  39.082  1.00  0.00     0.138 A 
ATOM     81  C   UNL A   1      47.604  19.144  38.855  1.00  0.00     0.077 A 
ATOM     82  C   UNL A   1      46.924  18.189  39.632  1.00  0.00     0.043 A 
ATOM     83  C   UNL A   1      48.826  19.631  39.296  1.00  0.00     0.029 A 
ATOM     84  C   UNL A   1      47.504  17.764  40.853  1.00  0.00     0.014 A 
ATOM     85  C   UNL A   1      49.397  19.205  40.494  1.00  0.00     0.002 A 
ATOM     86  C   UNL A   1      48.731  18.273  41.280  1.00  0.00     0.001 A 
BRANCH  80  87
ATOM     87  N   UNL A   1      45.083  16.585  39.632  1.00  0.00    -0.368 N 
ATOM     88  H   UNL A   1      45.391  15.678  39.405  1.00  0.00     0.162 HD
BRANCH  87  89
ATOM     89  C   UNL A   1      43.949  16.769  40.552  1.00  0.00     0.127 C 
BRANCH  89  90
ATOM     90  C   UNL A   1      44.261  16.464  42.072  1.00  0.00     0.070 C 
ATOM     91  C   UNL A   1      44.508  17.785  42.836  1.00  0.00    -0.035 A 
ATOM     92  C   UNL A   1      43.319  15.490  42.826  1.00  0.00    -0.025 A 
ATOM     93  C   UNL A   1      43.980  19.019  42.406  1.00  0.00     0.005 A 
ATOM     94  C   UNL A   1      45.304  17.787  44.001  1.00  0.00    -0.034 A 
ATOM     95  C   UNL A   1      43.530  14.999  44.137  1.00  0.00     0.011 A 
ATOM     96  C   UNL A   1      42.200  14.960  42.145  1.00  0.00     0.005 A 
ATOM     97  C   UNL A   1      44.233  20.208  43.097  1.00  0.00     0.000 A 
ATOM     98  C   UNL A   1      45.513  18.983  44.715  1.00  0.00     0.005 A 
ATOM     99  C   UNL A   1      45.919  16.517  44.517  1.00  0.00     0.110 C 
ATOM    100  S   UNL A   1      44.731  15.484  45.383  1.00  0.00    -0.121 SA
ATOM    101  C   UNL A   1      42.682  13.981  44.646  1.00  0.00     0.015 A 
ATOM    102  C   UNL A   1      41.404  13.925  42.639  1.00  0.00     0.000 A 
ATOM    103  C   UNL A   1      44.988  20.189  44.260  1.00  0.00     0.000 A 
ATOM    104  C   UNL A   1      41.651  13.423  43.896  1.00  0.00     0.001 A 
ENDBRANCH  89  90
ENDBRANCH  87  89
ENDBRANCH  80  87
ENDBRANCH  74  77
ENDBRANCH  72  73
ENDBRANCH   1  72
TORSDOF 13
ENDMDL
MODEL 2
REMARK VINA RESULT:     -14.0     10.161     20.490
REMARK SMILES O=C(NCCCNC(=O)c1nc(NC[C@H]2c3ccccc3CSc3ccccc32)c2ccccc2n1)c1ccc(-c2c3nc(c(-c4c(F)c(F)c(F)c(F)c4F)c4ccc([nH]4)c(-c4c(F)c(F)c(F)c(F)c4F)c4nc(c(-c5c(F)c(F)c(F)c(F)c5F)c5ccc2[nH]5)C=C4)C=C3)cc1
REMARK SMILES IDX 5 1 4 2 3 3 1 4 2 5 37 7 38 8 99 9 39 10 98 11 40 12 41 13
REMARK SMILES IDX 42 14 92 15 43 16 97 17 91 18 93 19 44 20 96 21 90 22 89 23
REMARK SMILES IDX 45 25 77 26 57 27 76 28 58 29 61 30 75 31 94 32 59 33 60 34
REMARK SMILES IDX 74 36 95 37 62 38 46 39 47 40 55 41 48 42 49 43 53 44 56 45
REMARK SMILES IDX 50 46 51 47 54 48 52 49 78 50 79 51 87 52 80 53 81 54 85 55
REMARK SMILES IDX 88 56 82 57 83 58 86 59 84 60 63 61 64 62 72 63 65 64 66 65
REMARK SMILES IDX 70 66 73 67 67 68 68 69 71 70 69 71 6 72 7 73 8 74 9 76
REMARK SMILES IDX 10 77 11 78 36 79 12 80 35 81 30 82 34 83 31 84 33 85 32 86
REMARK SMILES IDX 13 87 14 89 15 90 16 91 29 92 17 93 21 94 24 95 28 96 18 97
REMARK SMILES IDX 20 98 22 99 23 100 25 101 27 102 19 103 26 104
REMARK H PARENT 3 6 93 24 61 35 7 75 13 88
REMARK Flexibility Score: inf
ROOT
ATOM      1  C   UNL A   1      43.273  37.892  28.251  1.00  0.00     0.042 C 
ENDROOT
BRANCH   1   2
ATOM      2  C   UNL A   1      44.096  38.327  29.456  1.00  0.00     0.118 C 
BRANCH   2   3
ATOM      3  N   UNL A   1      45.532  38.286  29.220  1.00  0.00    -0.352 N 
ATOM      4  O   UNL A   1      47.590  37.418  28.972  1.00  0.00    -0.269 OA
ATOM      5  C   UNL A   1      46.374  37.221  29.019  1.00  0.00     0.251 C 
ATOM      6  H   UNL A   1      45.972  39.167  29.201  1.00  0.00     0.163 HD
BRANCH   5   7
ATOM      7  C   UNL A   1      45.857  35.839  28.883  1.00  0.00     0.039 A 
ATOM      8  C   UNL A   1      45.937  34.982  29.986  1.00  0.00     0.014 A 
ATOM      9  C   UNL A   1      45.339  35.358  27.679  1.00  0.00     0.014 A 
ATOM     10  C   UNL A   1      45.462  33.671  29.891  1.00  0.00     0.010 A 
ATOM     11  C   UNL A   1      44.766  34.089  27.618  1.00  0.00     0.010 A 
ATOM     12  C   UNL A   1      44.847  33.218  28.713  1.00  0.00    -0.014 A 
BRANCH  12  13
ATOM     13  C   UNL A   1      44.349  31.820  28.594  1.00  0.00     0.031 A 
ATOM     14  C   UNL A   1      43.018  31.440  29.193  1.00  0.00     0.074 A 
ATOM     15  C   UNL A   1      45.090  30.889  27.961  1.00  0.00     0.049 A 
ATOM     16  N   UNL A   1      42.418  30.276  29.205  1.00  0.00    -0.248 NA
ATOM     17  C   UNL A   1      42.269  32.499  29.893  1.00  0.00     0.031 C 
ATOM     18  C   UNL A   1      46.412  31.116  27.376  1.00  0.00     0.029 A 
ATOM     19  N   UNL A   1      44.837  29.564  27.696  1.00  0.00    -0.354 N 
ATOM     20  C   UNL A   1      41.239  30.464  29.915  1.00  0.00     0.074 A 
ATOM     21  C   UNL A   1      41.235  31.832  30.381  1.00  0.00     0.031 C 
ATOM     22  C   UNL A   1      46.831  29.988  26.780  1.00  0.00     0.029 A 
ATOM     23  C   UNL A   1      45.830  28.943  26.976  1.00  0.00     0.049 A 
ATOM     24  H   UNL A   1      44.019  29.102  27.994  1.00  0.00     0.167 HD
ATOM     25  C   UNL A   1      40.229  29.589  30.124  1.00  0.00     0.037 A 
ATOM     26  C   UNL A   1      45.921  27.677  26.522  1.00  0.00     0.037 A 
ATOM     27  C   UNL A   1      40.210  28.244  29.618  1.00  0.00     0.049 A 
ATOM     28  C   UNL A   1      44.789  26.717  26.785  1.00  0.00     0.074 A 
ATOM     29  C   UNL A   1      39.205  27.301  29.731  1.00  0.00     0.029 A 
ATOM     30  N   UNL A   1      41.237  27.657  28.899  1.00  0.00    -0.354 N 
ATOM     31  N   UNL A   1      43.651  26.932  27.398  1.00  0.00    -0.248 NA
ATOM     32  C   UNL A   1      44.951  25.340  26.292  1.00  0.00     0.031 C 
ATOM     33  C   UNL A   1      39.643  26.124  29.122  1.00  0.00     0.029 A 
ATOM     34  C   UNL A   1      40.898  26.353  28.580  1.00  0.00     0.049 A 
ATOM     35  H   UNL A   1      42.081  28.099  28.651  1.00  0.00     0.167 HD
ATOM     36  C   UNL A   1      42.951  25.735  27.337  1.00  0.00     0.074 A 
ATOM     37  C   UNL A   1      43.786  24.796  26.619  1.00  0.00     0.031 C 
ATOM     38  C   UNL A   1      41.727  25.441  27.836  1.00  0.00     0.037 A 
BRANCH  25  39
ATOM     39  C   UNL A   1      39.032  30.057  30.900  1.00  0.00     0.064 A 
ATOM     40  C   UNL A   1      38.982  29.949  32.298  1.00  0.00     0.173 A 
ATOM     41  C   UNL A   1      37.976  30.717  30.253  1.00  0.00     0.173 A 
ATOM     42  F   UNL A   1      39.963  29.319  32.962  1.00  0.00    -0.203 F 
ATOM     43  C   UNL A   1      37.917  30.481  33.019  1.00  0.00     0.198 A 
ATOM     44  C   UNL A   1      36.928  31.273  30.980  1.00  0.00     0.198 A 
ATOM     45  F   UNL A   1      37.981  30.855  28.918  1.00  0.00    -0.203 F 
ATOM     46  F   UNL A   1      37.879  30.345  34.352  1.00  0.00    -0.200 F 
ATOM     47  C   UNL A   1      36.899  31.154  32.361  1.00  0.00     0.200 A 
ATOM     48  F   UNL A   1      35.954  31.942  30.346  1.00  0.00    -0.200 F 
ATOM     49  F   UNL A   1      35.889  31.691  33.061  1.00  0.00    -0.200 F 
ENDBRANCH  25  39
BRANCH  26  50
ATOM     50  C   UNL A   1      47.112  27.252  25.736  1.00  0.00     0.064 A 
ATOM     51  C   UNL A   1      48.162  26.549  26.345  1.00  0.00     0.173 A 
ATOM     52  C   UNL A   1      47.229  27.535  24.367  1.00  0.00     0.173 A 
ATOM     53  F   UNL A   1      48.110  26.270  27.656  1.00  0.00    -0.203 F 
ATOM     54  C   UNL A   1      49.287  26.161  25.619  1.00  0.00     0.198 A 
ATOM     55  C   UNL A   1      48.339  27.119  23.636  1.00  0.00     0.198 A 
ATOM     56  F   UNL A   1      46.252  28.203  23.734  1.00  0.00    -0.203 F 
ATOM     57  F   UNL A   1      50.295  25.529  26.237  1.00  0.00    -0.200 F 
ATOM     58  C   UNL A   1      49.372  26.440  24.264  1.00  0.00     0.200 A 
ATOM     59  F   UNL A   1      48.409  27.377  22.323  1.00  0.00    -0.200 F 
ATOM     60  F   UNL A   1      50.450  26.060  23.565  1.00  0.00    -0.200 F 
ENDBRANCH  26  50
BRANCH  38  61
ATOM     61  C   UNL A   1      41.174  24.065  27.608  1.00  0.00     0.064 A 
ATOM     62  C   UNL A   1      40.130  23.839  26.701  1.00  0.00     0.173 A 
ATOM     63  C   UNL A   1      41.796  22.950  28.191  1.00  0.00     0.173 A 
ATOM     64  F   UNL A   1      39.500  24.874  26.126  1.00  0.00    -0.203 F 
ATOM     65  C   UNL A   1      39.733  22.545  26.380  1.00  0.00     0.198 A 
ATOM     66  C   UNL A   1      41.416  21.658  27.846  1.00  0.00     0.198 A 
ATOM     67  F   UNL A   1      42.809  23.115  29.055  1.00  0.00    -0.203 F 
ATOM     68  F   UNL A   1      38.727  22.351  25.517  1.00  0.00    -0.200 F 
ATOM     69  C   UNL A   1      40.386  21.456  26.939  1.00  0.00     0.200 A 
ATOM     70  F   UNL A   1      42.063  20.607  28.369  1.00  0.00    -0.200 F 
ATOM     71  F   UNL A   1      40.028  20.211  26.597  1.00  0.00    -0.200 F 
ENDBRANCH  38  61
ENDBRANCH  12  13
ENDBRANCH   5   7
ENDBRANCH   2   3
ENDBRANCH   1   2
BRANCH   1  72
ATOM     72  C   UNL A   1      43.235  38.891  27.100  1.00  0.00     0.118 C 
BRANCH  72  73
ATOM     73  N   UNL A   1      41.890  39.359  26.806  1.00  0.00    -0.349 N 
ATOM     74  C   UNL A   1      41.471  40.492  26.127  1.00  0.00     0.289 C 
ATOM     75  H   UNL A   1      41.165  38.783  27.142  1.00  0.00     0.163 HD
ATOM     76  O   UNL A   1      40.264  40.733  26.109  1.00  0.00    -0.266 OA
BRANCH  74  77
ATOM     77  C   UNL A   1      42.456  41.422  25.469  1.00  0.00     0.220 A 
ATOM     78  N   UNL A   1      42.142  41.827  24.230  1.00  0.00    -0.206 NA
ATOM     79  N   UNL A   1      43.472  41.890  26.206  1.00  0.00    -0.224 NA
ATOM     80  C   UNL A   1      42.847  42.839  23.700  1.00  0.00     0.138 A 
ATOM     81  C   UNL A   1      44.185  42.875  25.670  1.00  0.00     0.077 A 
ATOM     82  C   UNL A   1      43.927  43.415  24.398  1.00  0.00     0.043 A 
ATOM     83  C   UNL A   1      45.192  43.426  26.449  1.00  0.00     0.029 A 
ATOM     84  C   UNL A   1      44.716  44.500  23.943  1.00  0.00     0.014 A 
ATOM     85  C   UNL A   1      45.962  44.499  26.001  1.00  0.00     0.002 A 
ATOM     86  C   UNL A   1      45.729  45.033  24.741  1.00  0.00     0.001 A 
BRANCH  80  87
ATOM     87  N   UNL A   1      42.339  43.438  22.542  1.00  0.00    -0.368 N 
ATOM     88  H   UNL A   1      41.642  44.130  22.610  1.00  0.00     0.162 HD
BRANCH  87  89
ATOM     89  C   UNL A   1      42.850  43.033  21.222  1.00  0.00     0.127 C 
BRANCH  89  90
ATOM     90  C   UNL A   1      43.794  44.086  20.515  1.00  0.00     0.070 C 
ATOM     91  C   UNL A   1      45.266  43.624  20.612  1.00  0.00    -0.035 A 
ATOM     92  C   UNL A   1      43.400  44.579  19.099  1.00  0.00    -0.025 A 
ATOM     93  C   UNL A   1      45.626  42.270  20.767  1.00  0.00     0.005 A 
ATOM     94  C   UNL A   1      46.307  44.575  20.564  1.00  0.00    -0.034 A 
ATOM     95  C   UNL A   1      44.048  45.615  18.385  1.00  0.00     0.011 A 
ATOM     96  C   UNL A   1      42.252  44.032  18.481  1.00  0.00     0.005 A 
ATOM     97  C   UNL A   1      46.963  41.873  20.876  1.00  0.00     0.000 A 
ATOM     98  C   UNL A   1      47.651  44.157  20.627  1.00  0.00     0.005 A 
ATOM     99  C   UNL A   1      46.008  46.040  20.418  1.00  0.00     0.110 C 
ATOM    100  S   UNL A   1      45.581  46.486  18.730  1.00  0.00    -0.121 SA
ATOM    101  C   UNL A   1      43.483  46.084  17.170  1.00  0.00     0.015 A 
ATOM    102  C   UNL A   1      41.681  44.536  17.312  1.00  0.00     0.000 A 
ATOM    103  C   UNL A   1      47.977  42.815  20.791  1.00  0.00     0.000 A 
ATOM    104  C   UNL A   1      42.295  45.577  16.653  1.00  0.00     0.001 A 
ENDBRANCH  89  90
ENDBRANCH  87  89
ENDBRANCH  80  87
ENDBRANCH  74  77
ENDBRANCH  72  73
ENDBRANCH   1  72
TORSDOF 13
ENDMDL
MODEL 3
REMARK VINA RESULT:     -13.9      7.387     15.852
REMARK SMILES O=C(NCCCNC(=O)c1nc(NC[C@H]2c3ccccc3CSc3ccccc32)c2ccccc2n1)c1ccc(-c2c3nc(c(-c4c(F)c(F)c(F)c(F)c4F)c4ccc([nH]4)c(-c4c(F)c(F)c(F)c(F)c4F)c4nc(c(-c5c(F)c(F)c(F)c(F)c5F)c5ccc2[nH]5)C=C4)C=C3)cc1
REMARK SMILES IDX 5 1 4 2 3 3 1 4 2 5 37 7 38 8 99 9 39 10 98 11 40 12 41 13
REMARK SMILES IDX 42 14 92 15 43 16 97 17 91 18 93 19 44 20 96 21 90 22 89 23
REMARK SMILES IDX 45 25 77 26 57 27 76 28 58 29 61 30 75 31 94 32 59 33 60 34
REMARK SMILES IDX 74 36 95 37 62 38 46 39 47 40 55 41 48 42 49 43 53 44 56 45
REMARK SMILES IDX 50 46 51 47 54 48 52 49 78 50 79 51 87 52 80 53 81 54 85 55
REMARK SMILES IDX 88 56 82 57 83 58 86 59 84 60 63 61 64 62 72 63 65 64 66 65
REMARK SMILES IDX 70 66 73 67 67 68 68 69 71 70 69 71 6 72 7 73 8 74 9 76
REMARK SMILES IDX 10 77 11 78 36 79 12 80 35 81 30 82 34 83 31 84 33 85 32 86
REMARK SMILES IDX 13 87 14 89 15 90 16 91 29 92 17 93 21 94 24 95 28 96 18 97
REMARK SMILES IDX 20 98 22 99 23 100 25 101 27 102 19 103 26 104
REMARK H PARENT 3 6 93 24 61 35 7 75 13 88
REMARK Flexibility Score: inf
ROOT
ATOM      1  C   UNL A   1      31.553  31.441  26.873  1.00  0.00     0.042 C 
ENDROOT
BRANCH   1   2
ATOM      2  C   UNL A   1      32.732  32.390  26.700  1.00  0.00     0.118 C 
BRANCH   2   3
ATOM      3  N   UNL A   1      32.535  33.680  27.344  1.00  0.00    -0.352 N 
ATOM      4  O   UNL A   1      32.764  35.318  28.865  1.00  0.00    -0.269 OA
ATOM      5  C   UNL A   1      33.195  34.263  28.398  1.00  0.00     0.251 C 
ATOM      6  H   UNL A   1      31.809  34.224  26.963  1.00  0.00     0.163 HD
BRANCH   5   7
ATOM      7  C   UNL A   1      34.397  33.639  29.000  1.00  0.00     0.039 A 
ATOM      8  C   UNL A   1      34.238  32.477  29.763  1.00  0.00     0.014 A 
ATOM      9  C   UNL A   1      35.668  34.201  28.867  1.00  0.00     0.014 A 
ATOM     10  C   UNL A   1      35.349  31.866  30.349  1.00  0.00     0.010 A 
ATOM     11  C   UNL A   1      36.787  33.532  29.357  1.00  0.00     0.010 A 
ATOM     12  C   UNL A   1      36.641  32.372  30.130  1.00  0.00    -0.014 A 
BRANCH  12  13
ATOM     13  C   UNL A   1      37.832  31.738  30.758  1.00  0.00     0.031 A 
ATOM     14  C   UNL A   1      38.252  32.136  32.151  1.00  0.00     0.074 A 
ATOM     15  C   UNL A   1      38.545  30.816  30.080  1.00  0.00     0.049 A 
ATOM     16  N   UNL A   1      39.264  31.709  32.864  1.00  0.00    -0.248 NA
ATOM     17  C   UNL A   1      37.446  33.168  32.827  1.00  0.00     0.031 C 
ATOM     18  C   UNL A   1      38.270  30.374  28.713  1.00  0.00     0.029 A 
ATOM     19  N   UNL A   1      39.643  30.077  30.450  1.00  0.00    -0.354 N 
ATOM     20  C   UNL A   1      39.217  32.423  34.055  1.00  0.00     0.074 A 
ATOM     21  C   UNL A   1      38.123  33.361  33.948  1.00  0.00     0.031 C 
ATOM     22  C   UNL A   1      39.142  29.409  28.377  1.00  0.00     0.029 A 
ATOM     23  C   UNL A   1      40.066  29.192  29.487  1.00  0.00     0.049 A 
ATOM     24  H   UNL A   1      40.086  30.172  31.325  1.00  0.00     0.167 HD
ATOM     25  C   UNL A   1      39.988  32.280  35.157  1.00  0.00     0.037 A 
ATOM     26  C   UNL A   1      41.080  28.303  29.499  1.00  0.00     0.037 A 
ATOM     27  C   UNL A   1      41.043  31.313  35.283  1.00  0.00     0.049 A 
ATOM     28  C   UNL A   1      41.934  28.177  30.733  1.00  0.00     0.074 A 
ATOM     29  C   UNL A   1      41.842  31.055  36.382  1.00  0.00     0.029 A 
ATOM     30  N   UNL A   1      41.438  30.441  34.282  1.00  0.00    -0.354 N 
ATOM     31  N   UNL A   1      41.832  28.812  31.875  1.00  0.00    -0.248 NA
ATOM     32  C   UNL A   1      43.045  27.213  30.684  1.00  0.00     0.031 C 
ATOM     33  C   UNL A   1      42.756  30.061  36.032  1.00  0.00     0.029 A 
ATOM     34  C   UNL A   1      42.488  29.659  34.732  1.00  0.00     0.049 A 
ATOM     35  H   UNL A   1      41.034  30.386  33.386  1.00  0.00     0.167 HD
ATOM     36  C   UNL A   1      42.837  28.303  32.687  1.00  0.00     0.074 A 
ATOM     37  C   UNL A   1      43.536  27.300  31.913  1.00  0.00     0.031 C 
ATOM     38  C   UNL A   1      43.152  28.641  33.960  1.00  0.00     0.037 A 
BRANCH  25  39
ATOM     39  C   UNL A   1      39.704  33.157  36.342  1.00  0.00     0.064 A 
ATOM     40  C   UNL A   1      40.308  34.417  36.477  1.00  0.00     0.173 A 
ATOM     41  C   UNL A   1      38.739  32.786  37.290  1.00  0.00     0.173 A 
ATOM     42  F   UNL A   1      41.243  34.815  35.600  1.00  0.00    -0.203 F 
ATOM     43  C   UNL A   1      39.961  35.269  37.521  1.00  0.00     0.198 A 
ATOM     44  C   UNL A   1      38.373  33.653  38.316  1.00  0.00     0.198 A 
ATOM     45  F   UNL A   1      38.126  31.595  37.201  1.00  0.00    -0.203 F 
ATOM     46  F   UNL A   1      40.568  36.457  37.644  1.00  0.00    -0.200 F 
ATOM     47  C   UNL A   1      38.984  34.892  38.431  1.00  0.00     0.200 A 
ATOM     48  F   UNL A   1      37.415  33.296  39.183  1.00  0.00    -0.200 F 
ATOM     49  F   UNL A   1      38.629  35.727  39.418  1.00  0.00    -0.200 F 
ENDBRANCH  25  39
BRANCH  26  50
ATOM     50  C   UNL A   1      41.319  27.432  28.315  1.00  0.00     0.064 A 
ATOM     51  C   UNL A   1      42.215  27.818  27.308  1.00  0.00     0.173 A 
ATOM     52  C   UNL A   1      40.664  26.201  28.164  1.00  0.00     0.173 A 
ATOM     53  F   UNL A   1      42.852  28.995  27.393  1.00  0.00    -0.203 F 
ATOM     54  C   UNL A   1      42.434  27.015  26.190  1.00  0.00     0.198 A 
ATOM     55  C   UNL A   1      40.907  25.385  27.062  1.00  0.00     0.198 A 
ATOM     56  F   UNL A   1      39.799  25.782  29.100  1.00  0.00    -0.203 F 
ATOM     57  F   UNL A   1      43.261  27.430  25.220  1.00  0.00    -0.200 F 
ATOM     58  C   UNL A   1      41.785  25.795  26.070  1.00  0.00     0.200 A 
ATOM     59  F   UNL A   1      40.290  24.199  26.959  1.00  0.00    -0.200 F 
ATOM     60  F   UNL A   1      42.001  25.020  24.999  1.00  0.00    -0.200 F 
ENDBRANCH  26  50
BRANCH  38  61
ATOM     61  C   UNL A   1      44.277  27.914  34.634  1.00  0.00     0.064 A 
ATOM     62  C   UNL A   1      45.573  28.445  34.667  1.00  0.00     0.173 A 
ATOM     63  C   UNL A   1      44.021  26.750  35.377  1.00  0.00     0.173 A 
ATOM     64  F   UNL A   1      45.868  29.550  33.966  1.00  0.00    -0.203 F 
ATOM     65  C   UNL A   1      46.571  27.842  35.428  1.00  0.00     0.198 A 
ATOM     66  C   UNL A   1      45.013  26.168  36.158  1.00  0.00     0.198 A 
ATOM     67  F   UNL A   1      42.791  26.211  35.386  1.00  0.00    -0.203 F 
ATOM     68  F   UNL A   1      47.806  28.362  35.440  1.00  0.00    -0.200 F 
ATOM     69  C   UNL A   1      46.287  26.716  36.185  1.00  0.00     0.200 A 
ATOM     70  F   UNL A   1      44.730  25.092  36.907  1.00  0.00    -0.200 F 
ATOM     71  F   UNL A   1      47.239  26.161  36.947  1.00  0.00    -0.200 F 
ENDBRANCH  38  61
ENDBRANCH  12  13
ENDBRANCH   5   7
ENDBRANCH   2   3
ENDBRANCH   1   2
BRANCH   1  72
ATOM     72  C   UNL A   1      31.777  30.030  26.341  1.00  0.00     0.118 C 
BRANCH  72  73
ATOM     73  N   UNL A   1      32.465  30.015  25.059  1.00  0.00    -0.349 N 
ATOM     74  C   UNL A   1      32.918  28.944  24.306  1.00  0.00     0.289 C 
ATOM     75  H   UNL A   1      32.636  30.902  24.667  1.00  0.00     0.163 HD
ATOM     76  O   UNL A   1      33.583  29.195  23.300  1.00  0.00    -0.266 OA
BRANCH  74  77
ATOM     77  C   UNL A   1      32.648  27.522  24.721  1.00  0.00     0.220 A 
ATOM     78  N   UNL A   1      33.730  26.771  24.976  1.00  0.00    -0.206 NA
ATOM     79  N   UNL A   1      31.379  27.161  24.951  1.00  0.00    -0.224 NA
ATOM     80  C   UNL A   1      33.547  25.587  25.583  1.00  0.00     0.138 A 
ATOM     81  C   UNL A   1      31.199  25.977  25.529  1.00  0.00     0.077 A 
ATOM     82  C   UNL A   1      32.254  25.119  25.885  1.00  0.00     0.043 A 
ATOM     83  C   UNL A   1      29.896  25.619  25.846  1.00  0.00     0.029 A 
ATOM     84  C   UNL A   1      31.951  23.902  26.544  1.00  0.00     0.014 A 
ATOM     85  C   UNL A   1      29.604  24.424  26.502  1.00  0.00     0.002 A 
ATOM     86  C   UNL A   1      30.633  23.559  26.847  1.00  0.00     0.001 A 
BRANCH  80  87
ATOM     87  N   UNL A   1      34.680  24.948  26.097  1.00  0.00    -0.368 N 
ATOM     88  H   UNL A   1      34.910  25.041  27.049  1.00  0.00     0.162 HD
BRANCH  87  89
ATOM     89  C   UNL A   1      35.529  24.135  25.210  1.00  0.00     0.127 C 
BRANCH  89  90
ATOM     90  C   UNL A   1      35.051  22.641  25.007  1.00  0.00     0.070 C 
ATOM     91  C   UNL A   1      34.025  22.567  23.854  1.00  0.00    -0.035 A 
ATOM     92  C   UNL A   1      36.135  21.535  24.933  1.00  0.00    -0.025 A 
ATOM     93  C   UNL A   1      33.979  23.522  22.818  1.00  0.00     0.005 A 
ATOM     94  C   UNL A   1      33.075  21.523  23.821  1.00  0.00    -0.034 A 
ATOM     95  C   UNL A   1      35.881  20.143  24.897  1.00  0.00     0.011 A 
ATOM     96  C   UNL A   1      37.496  21.910  24.995  1.00  0.00     0.005 A 
ATOM     97  C   UNL A   1      33.029  23.452  21.795  1.00  0.00     0.000 A 
ATOM     98  C   UNL A   1      32.154  21.437  22.759  1.00  0.00     0.005 A 
ATOM     99  C   UNL A   1      33.044  20.475  24.896  1.00  0.00     0.110 C 
ATOM    100  S   UNL A   1      34.339  19.245  24.689  1.00  0.00    -0.121 SA
ATOM    101  C   UNL A   1      36.966  19.233  25.001  1.00  0.00     0.015 A 
ATOM    102  C   UNL A   1      38.548  21.005  25.147  1.00  0.00     0.000 A 
ATOM    103  C   UNL A   1      32.124  22.401  21.757  1.00  0.00     0.000 A 
ATOM    104  C   UNL A   1      38.282  19.655  25.160  1.00  0.00     0.001 A 
ENDBRANCH  89  90
ENDBRANCH  87  89
ENDBRANCH  80  87
ENDBRANCH  74  77
ENDBRANCH  72  73
ENDBRANCH   1  72
TORSDOF 13
ENDMDL
