MODEL 1
REMARK VINA RESULT:     -13.0      0.000      0.000
REMARK SMILES C[C@@H](C(=O)NCCCNC(=O)c1ccc(-c2c3nc(c(-c4c(F)c(F)c(F)c(F)c4F)c4ccc([nH]4)c(-c4c(F)c(F)c(F)c(F)c4F)c4nc(c(-c5c(F)c(F)c(F)c(F)c5F)c5ccc2[nH]5)C=C4)C=C3)cc1)c1ccc(-c2cccc(OC(=O)Nc3ccccc3)c2)c(F)c1
REMARK SMILES IDX 3 1 4 2 5 3 2 5 1 6 75 7 76 8 97 9 77 10 95 11 78 12 96 13
REMARK SMILES IDX 79 14 80 15 94 16 81 17 83 18 82 19 84 20 85 21 86 22 87 23
REMARK SMILES IDX 88 25 89 26 93 27 90 28 92 29 91 30 6 31 7 32 8 33 9 34
REMARK SMILES IDX 10 35 11 37 12 38 13 39 74 40 14 41 73 42 15 43 16 44 17 45
REMARK SMILES IDX 67 46 18 47 72 48 66 49 68 50 19 51 71 52 65 53 64 54 20 56
REMARK SMILES IDX 52 57 32 58 51 59 33 60 36 61 50 62 69 63 34 64 35 65 49 67
REMARK SMILES IDX 70 68 37 69 21 70 22 71 30 72 23 73 24 74 28 75 31 76 25 77
REMARK SMILES IDX 26 78 29 79 27 80 53 81 54 82 62 83 55 84 56 85 60 86 63 87
REMARK SMILES IDX 57 88 58 89 61 90 59 91 38 92 39 93 47 94 40 95 41 96 45 97
REMARK SMILES IDX 48 98 42 99 43 100 46 101 44 102
REMARK H PARENT 5 4 87 24 9 36 68 55 36 66
REMARK Flexibility Score: inf
ROOT
ATOM      1  C   UNL A   1      34.828  33.638  27.973  1.00  0.00     0.227 C 
ATOM      2  O   UNL A   1      35.929  33.468  27.447  1.00  0.00    -0.274 OA
ATOM      3  N   UNL A   1      34.263  34.869  27.819  1.00  0.00    -0.356 N 
ATOM      4  H   UNL A   1      34.735  35.467  27.195  1.00  0.00     0.163 HD
ENDROOT
BRANCH   1   5
ATOM      5  C   UNL A   1      34.081  32.540  28.742  1.00  0.00     0.105 C 
ATOM      6  C   UNL A   1      34.755  32.211  30.081  1.00  0.00     0.023 C 
BRANCH   5   7
ATOM      7  C   UNL A   1      33.916  31.288  27.890  1.00  0.00    -0.033 A 
ATOM      8  C   UNL A   1      34.952  30.346  27.807  1.00  0.00     0.005 A 
ATOM      9  C   UNL A   1      32.726  31.037  27.194  1.00  0.00     0.044 A 
ATOM     10  C   UNL A   1      34.825  29.212  26.994  1.00  0.00     0.012 A 
ATOM     11  C   UNL A   1      32.609  29.913  26.386  1.00  0.00     0.131 A 
ATOM     12  C   UNL A   1      33.658  28.995  26.246  1.00  0.00     0.018 A 
ATOM     13  F   UNL A   1      31.464  29.742  25.706  1.00  0.00    -0.206 F 
BRANCH  12  14
ATOM     14  C   UNL A   1      33.569  27.903  25.271  1.00  0.00    -0.012 A 
ATOM     15  C   UNL A   1      33.794  28.097  23.901  1.00  0.00     0.009 A 
ATOM     16  C   UNL A   1      33.231  26.616  25.723  1.00  0.00     0.056 A 
ATOM     17  C   UNL A   1      33.693  27.026  23.008  1.00  0.00     0.004 A 
ATOM     18  C   UNL A   1      33.114  25.558  24.834  1.00  0.00     0.133 A 
ATOM     19  C   UNL A   1      33.353  25.755  23.474  1.00  0.00     0.047 A 
BRANCH  18  20
ATOM     20  O   UNL A   1      32.742  24.243  25.211  1.00  0.00    -0.410 OA
BRANCH  20  21
ATOM     21  C   UNL A   1      32.683  23.749  26.515  1.00  0.00     0.417 C 
ATOM     22  O   UNL A   1      31.761  23.918  27.309  1.00  0.00    -0.224 OA
ATOM     23  N   UNL A   1      33.716  22.918  26.863  1.00  0.00    -0.291 N 
ATOM     24  H   UNL A   1      33.600  22.457  27.726  1.00  0.00     0.173 HD
BRANCH  23  25
ATOM     25  C   UNL A   1      34.907  22.614  26.193  1.00  0.00     0.044 A 
ATOM     26  C   UNL A   1      35.884  23.615  26.153  1.00  0.00     0.026 A 
ATOM     27  C   UNL A   1      35.151  21.400  25.546  1.00  0.00     0.026 A 
ATOM     28  C   UNL A   1      37.107  23.388  25.519  1.00  0.00     0.002 A 
ATOM     29  C   UNL A   1      36.368  21.181  24.895  1.00  0.00     0.002 A 
ATOM     30  C   UNL A   1      37.349  22.170  24.892  1.00  0.00     0.000 A 
ENDBRANCH  23  25
ENDBRANCH  20  21
ENDBRANCH  18  20
ENDBRANCH  12  14
ENDBRANCH   5   7
ENDBRANCH   1   5
BRANCH   3  31
ATOM     31  C   UNL A   1      33.079  35.437  28.430  1.00  0.00     0.117 C 
BRANCH  31  32
ATOM     32  C   UNL A   1      33.320  36.878  28.870  1.00  0.00     0.042 C 
BRANCH  32  33
ATOM     33  C   UNL A   1      33.645  37.028  30.354  1.00  0.00     0.118 C 
BRANCH  33  34
ATOM     34  N   UNL A   1      32.563  36.569  31.211  1.00  0.00    -0.352 N 
ATOM     35  C   UNL A   1      32.545  35.568  32.149  1.00  0.00     0.251 C 
ATOM     36  H   UNL A   1      31.712  37.052  31.101  1.00  0.00     0.163 HD
ATOM     37  O   UNL A   1      31.475  35.210  32.633  1.00  0.00    -0.269 OA
BRANCH  35  38
ATOM     38  C   UNL A   1      33.798  34.904  32.569  1.00  0.00     0.039 A 
ATOM     39  C   UNL A   1      33.715  33.677  33.233  1.00  0.00     0.014 A 
ATOM     40  C   UNL A   1      35.045  35.496  32.346  1.00  0.00     0.014 A 
ATOM     41  C   UNL A   1      34.884  33.017  33.621  1.00  0.00     0.010 A 
ATOM     42  C   UNL A   1      36.210  34.803  32.669  1.00  0.00     0.010 A 
ATOM     43  C   UNL A   1      36.141  33.558  33.312  1.00  0.00    -0.014 A 
BRANCH  43  44
ATOM     44  C   UNL A   1      37.393  32.836  33.653  1.00  0.00     0.031 A 
ATOM     45  C   UNL A   1      38.121  33.141  34.932  1.00  0.00     0.074 A 
ATOM     46  C   UNL A   1      37.908  31.950  32.779  1.00  0.00     0.049 A 
ATOM     47  N   UNL A   1      39.262  32.672  35.369  1.00  0.00    -0.248 NA
ATOM     48  C   UNL A   1      37.495  34.125  35.830  1.00  0.00     0.031 C 
ATOM     49  C   UNL A   1      37.320  31.600  31.485  1.00  0.00     0.029 A 
ATOM     50  N   UNL A   1      39.050  31.192  32.840  1.00  0.00    -0.354 N 
ATOM     51  C   UNL A   1      39.498  33.312  36.578  1.00  0.00     0.074 A 
ATOM     52  C   UNL A   1      38.407  34.239  36.785  1.00  0.00     0.031 C 
ATOM     53  C   UNL A   1      38.093  30.684  30.883  1.00  0.00     0.029 A 
ATOM     54  C   UNL A   1      39.252  30.410  31.729  1.00  0.00     0.049 A 
ATOM     55  H   UNL A   1      39.667  31.208  33.607  1.00  0.00     0.167 HD
ATOM     56  C   UNL A   1      40.521  33.127  37.447  1.00  0.00     0.037 A 
ATOM     57  C   UNL A   1      40.262  29.573  31.423  1.00  0.00     0.037 A 
ATOM     58  C   UNL A   1      41.592  32.187  37.250  1.00  0.00     0.049 A 
ATOM     59  C   UNL A   1      41.387  29.390  32.403  1.00  0.00     0.074 A 
ATOM     60  C   UNL A   1      42.642  31.883  38.100  1.00  0.00     0.029 A 
ATOM     61  N   UNL A   1      41.751  31.396  36.121  1.00  0.00    -0.354 N 
ATOM     62  N   UNL A   1      41.565  29.952  33.575  1.00  0.00    -0.248 NA
ATOM     63  C   UNL A   1      42.452  28.450  32.023  1.00  0.00     0.031 C 
ATOM     64  C   UNL A   1      43.459  30.941  37.466  1.00  0.00     0.029 A 
ATOM     65  C   UNL A   1      42.893  30.620  36.243  1.00  0.00     0.049 A 
ATOM     66  H   UNL A   1      41.143  31.388  35.347  1.00  0.00     0.167 HD
ATOM     67  C   UNL A   1      42.740  29.414  34.082  1.00  0.00     0.074 A 
ATOM     68  C   UNL A   1      43.227  28.471  33.098  1.00  0.00     0.031 C 
ATOM     69  C   UNL A   1      43.359  29.678  35.259  1.00  0.00     0.037 A 
BRANCH  56  70
ATOM     70  C   UNL A   1      40.531  33.961  38.696  1.00  0.00     0.064 A 
ATOM     71  C   UNL A   1      39.884  33.539  39.867  1.00  0.00     0.173 A 
ATOM     72  C   UNL A   1      41.230  35.176  38.736  1.00  0.00     0.173 A 
ATOM     73  F   UNL A   1      39.192  32.388  39.878  1.00  0.00    -0.203 F 
ATOM     74  C   UNL A   1      39.912  34.315  41.022  1.00  0.00     0.198 A 
ATOM     75  C   UNL A   1      41.282  35.936  39.902  1.00  0.00     0.198 A 
ATOM     76  F   UNL A   1      41.873  35.624  37.647  1.00  0.00    -0.203 F 
ATOM     77  F   UNL A   1      39.248  33.912  42.114  1.00  0.00    -0.200 F 
ATOM     78  C   UNL A   1      40.618  35.508  41.042  1.00  0.00     0.200 A 
ATOM     79  F   UNL A   1      41.976  37.082  39.924  1.00  0.00    -0.200 F 
ATOM     80  F   UNL A   1      40.652  36.250  42.157  1.00  0.00    -0.200 F 
ENDBRANCH  56  70
BRANCH  57  81
ATOM     81  C   UNL A   1      40.243  28.827  30.138  1.00  0.00     0.064 A 
ATOM     82  C   UNL A   1      40.867  29.347  28.996  1.00  0.00     0.173 A 
ATOM     83  C   UNL A   1      39.601  27.586  30.024  1.00  0.00     0.173 A 
ATOM     84  F   UNL A   1      41.475  30.541  29.051  1.00  0.00    -0.203 F 
ATOM     85  C   UNL A   1      40.833  28.664  27.782  1.00  0.00     0.198 A 
ATOM     86  C   UNL A   1      39.592  26.890  28.816  1.00  0.00     0.198 A 
ATOM     87  F   UNL A   1      38.994  27.042  31.088  1.00  0.00    -0.203 F 
ATOM     88  F   UNL A   1      41.398  29.205  26.695  1.00  0.00    -0.200 F 
ATOM     89  C   UNL A   1      40.200  27.433  27.695  1.00  0.00     0.200 A 
ATOM     90  F   UNL A   1      38.992  25.693  28.740  1.00  0.00    -0.200 F 
ATOM     91  F   UNL A   1      40.170  26.775  26.528  1.00  0.00    -0.200 F 
ENDBRANCH  57  81
BRANCH  69  92
ATOM     92  C   UNL A   1      44.611  28.909  35.564  1.00  0.00     0.064 A 
ATOM     93  C   UNL A   1      45.874  29.373  35.171  1.00  0.00     0.173 A 
ATOM     94  C   UNL A   1      44.547  27.714  36.297  1.00  0.00     0.173 A 
ATOM     95  F   UNL A   1      45.986  30.502  34.455  1.00  0.00    -0.203 F 
ATOM     96  C   UNL A   1      47.027  28.654  35.479  1.00  0.00     0.198 A 
ATOM     97  C   UNL A   1      45.704  27.015  36.629  1.00  0.00     0.198 A 
ATOM     98  F   UNL A   1      43.363  27.232  36.702  1.00  0.00    -0.203 F 
ATOM     99  F   UNL A   1      48.220  29.091  35.052  1.00  0.00    -0.200 F 
ATOM    100  C   UNL A   1      46.941  27.481  36.214  1.00  0.00     0.200 A 
ATOM    101  F   UNL A   1      45.620  25.887  37.349  1.00  0.00    -0.200 F 
ATOM    102  F   UNL A   1      48.052  26.795  36.516  1.00  0.00    -0.200 F 
ENDBRANCH  69  92
ENDBRANCH  43  44
ENDBRANCH  35  38
ENDBRANCH  33  34
ENDBRANCH  32  33
ENDBRANCH  31  32
ENDBRANCH   3  31
TORSDOF 15
ENDMDL
MODEL 2
REMARK VINA RESULT:     -13.0      0.549      2.009
REMARK SMILES C[C@@H](C(=O)NCCCNC(=O)c1ccc(-c2c3nc(c(-c4c(F)c(F)c(F)c(F)c4F)c4ccc([nH]4)c(-c4c(F)c(F)c(F)c(F)c4F)c4nc(c(-c5c(F)c(F)c(F)c(F)c5F)c5ccc2[nH]5)C=C4)C=C3)cc1)c1ccc(-c2cccc(OC(=O)Nc3ccccc3)c2)c(F)c1
REMARK SMILES IDX 3 1 4 2 5 3 2 5 1 6 75 7 76 8 97 9 77 10 95 11 78 12 96 13
REMARK SMILES IDX 79 14 80 15 94 16 81 17 83 18 82 19 84 20 85 21 86 22 87 23
REMARK SMILES IDX 88 25 89 26 93 27 90 28 92 29 91 30 6 31 7 32 8 33 9 34
REMARK SMILES IDX 10 35 11 37 12 38 13 39 74 40 14 41 73 42 15 43 16 44 17 45
REMARK SMILES IDX 67 46 18 47 72 48 66 49 68 50 19 51 71 52 65 53 64 54 20 56
REMARK SMILES IDX 52 57 32 58 51 59 33 60 36 61 50 62 69 63 34 64 35 65 49 67
REMARK SMILES IDX 70 68 37 69 21 70 22 71 30 72 23 73 24 74 28 75 31 76 25 77
REMARK SMILES IDX 26 78 29 79 27 80 53 81 54 82 62 83 55 84 56 85 60 86 63 87
REMARK SMILES IDX 57 88 58 89 61 90 59 91 38 92 39 93 47 94 40 95 41 96 45 97
REMARK SMILES IDX 48 98 42 99 43 100 46 101 44 102
REMARK H PARENT 5 4 87 24 9 36 68 55 36 66
REMARK Flexibility Score: inf
ROOT
ATOM      1  C   UNL A   1      35.523  33.390  28.256  1.00  0.00     0.227 C 
ATOM      2  O   UNL A   1      36.716  33.084  28.236  1.00  0.00    -0.274 OA
ATOM      3  N   UNL A   1      35.188  34.572  27.665  1.00  0.00    -0.356 N 
ATOM      4  H   UNL A   1      35.917  35.009  27.168  1.00  0.00     0.163 HD
ENDROOT
BRANCH   1   5
ATOM      5  C   UNL A   1      34.434  32.502  28.873  1.00  0.00     0.105 C 
ATOM      6  C   UNL A   1      34.778  32.075  30.306  1.00  0.00     0.023 C 
BRANCH   5   7
ATOM      7  C   UNL A   1      34.149  31.291  27.994  1.00  0.00    -0.033 A 
ATOM      8  C   UNL A   1      35.040  30.208  27.971  1.00  0.00     0.005 A 
ATOM      9  C   UNL A   1      32.989  31.219  27.212  1.00  0.00     0.044 A 
ATOM     10  C   UNL A   1      34.808  29.107  27.136  1.00  0.00     0.012 A 
ATOM     11  C   UNL A   1      32.768  30.127  26.382  1.00  0.00     0.131 A 
ATOM     12  C   UNL A   1      33.679  29.066  26.304  1.00  0.00     0.018 A 
ATOM     13  F   UNL A   1      31.662  30.128  25.621  1.00  0.00    -0.206 F 
BRANCH  12  14
ATOM     14  C   UNL A   1      33.502  28.002  25.310  1.00  0.00    -0.012 A 
ATOM     15  C   UNL A   1      33.844  28.168  23.961  1.00  0.00     0.009 A 
ATOM     16  C   UNL A   1      32.955  26.775  25.721  1.00  0.00     0.056 A 
ATOM     17  C   UNL A   1      33.653  27.125  23.049  1.00  0.00     0.004 A 
ATOM     18  C   UNL A   1      32.749  25.747  24.811  1.00  0.00     0.133 A 
ATOM     19  C   UNL A   1      33.105  25.914  23.474  1.00  0.00     0.047 A 
BRANCH  18  20
ATOM     20  O   UNL A   1      32.169  24.498  25.145  1.00  0.00    -0.410 OA
BRANCH  20  21
ATOM     21  C   UNL A   1      32.265  23.851  26.378  1.00  0.00     0.417 C 
ATOM     22  O   UNL A   1      31.403  23.834  27.252  1.00  0.00    -0.224 OA
ATOM     23  N   UNL A   1      33.394  23.091  26.542  1.00  0.00    -0.291 N 
ATOM     24  H   UNL A   1      33.393  22.524  27.347  1.00  0.00     0.173 HD
BRANCH  23  25
ATOM     25  C   UNL A   1      34.546  22.986  25.754  1.00  0.00     0.044 A 
ATOM     26  C   UNL A   1      35.647  23.761  26.136  1.00  0.00     0.026 A 
ATOM     27  C   UNL A   1      34.639  22.192  24.609  1.00  0.00     0.026 A 
ATOM     28  C   UNL A   1      36.840  23.704  25.415  1.00  0.00     0.002 A 
ATOM     29  C   UNL A   1      35.827  22.149  23.876  1.00  0.00     0.002 A 
ATOM     30  C   UNL A   1      36.930  22.896  24.285  1.00  0.00     0.000 A 
ENDBRANCH  23  25
ENDBRANCH  20  21
ENDBRANCH  18  20
ENDBRANCH  12  14
ENDBRANCH   5   7
ENDBRANCH   1   5
BRANCH   3  31
ATOM     31  C   UNL A   1      33.928  35.286  27.652  1.00  0.00     0.117 C 
BRANCH  31  32
ATOM     32  C   UNL A   1      33.718  36.060  28.951  1.00  0.00     0.042 C 
BRANCH  32  33
ATOM     33  C   UNL A   1      32.735  35.401  29.915  1.00  0.00     0.118 C 
BRANCH  33  34
ATOM     34  N   UNL A   1      32.468  36.220  31.087  1.00  0.00    -0.352 N 
ATOM     35  C   UNL A   1      33.007  36.159  32.347  1.00  0.00     0.251 C 
ATOM     36  H   UNL A   1      31.798  36.929  30.955  1.00  0.00     0.163 HD
ATOM     37  O   UNL A   1      32.509  36.822  33.252  1.00  0.00    -0.269 OA
BRANCH  35  38
ATOM     38  C   UNL A   1      34.170  35.290  32.629  1.00  0.00     0.039 A 
ATOM     39  C   UNL A   1      35.434  35.703  32.197  1.00  0.00     0.014 A 
ATOM     40  C   UNL A   1      34.020  34.063  33.280  1.00  0.00     0.014 A 
ATOM     41  C   UNL A   1      36.554  34.913  32.470  1.00  0.00     0.010 A 
ATOM     42  C   UNL A   1      35.145  33.311  33.614  1.00  0.00     0.010 A 
ATOM     43  C   UNL A   1      36.423  33.727  33.209  1.00  0.00    -0.014 A 
BRANCH  43  44
ATOM     44  C   UNL A   1      37.610  32.912  33.570  1.00  0.00     0.031 A 
ATOM     45  C   UNL A   1      38.344  33.166  34.857  1.00  0.00     0.074 A 
ATOM     46  C   UNL A   1      38.065  31.983  32.706  1.00  0.00     0.049 A 
ATOM     47  N   UNL A   1      39.439  32.612  35.310  1.00  0.00    -0.248 NA
ATOM     48  C   UNL A   1      37.785  34.202  35.742  1.00  0.00     0.031 C 
ATOM     49  C   UNL A   1      37.467  31.672  31.408  1.00  0.00     0.029 A 
ATOM     50  N   UNL A   1      39.144  31.139  32.786  1.00  0.00    -0.354 N 
ATOM     51  C   UNL A   1      39.709  33.239  36.519  1.00  0.00     0.074 A 
ATOM     52  C   UNL A   1      38.691  34.249  36.707  1.00  0.00     0.031 C 
ATOM     53  C   UNL A   1      38.175  30.695  30.820  1.00  0.00     0.029 A 
ATOM     54  C   UNL A   1      39.298  30.336  31.682  1.00  0.00     0.049 A 
ATOM     55  H   UNL A   1      39.750  31.111  33.561  1.00  0.00     0.167 HD
ATOM     56  C   UNL A   1      40.703  32.980  37.402  1.00  0.00     0.037 A 
ATOM     57  C   UNL A   1      40.243  29.422  31.392  1.00  0.00     0.037 A 
ATOM     58  C   UNL A   1      41.700  31.958  37.223  1.00  0.00     0.049 A 
ATOM     59  C   UNL A   1      41.338  29.157  32.388  1.00  0.00     0.074 A 
ATOM     60  C   UNL A   1      42.712  31.578  38.088  1.00  0.00     0.029 A 
ATOM     61  N   UNL A   1      41.811  31.151  36.101  1.00  0.00    -0.354 N 
ATOM     62  N   UNL A   1      41.545  29.710  33.559  1.00  0.00    -0.248 NA
ATOM     63  C   UNL A   1      42.331  28.136  32.026  1.00  0.00     0.031 C 
ATOM     64  C   UNL A   1      43.462  30.572  37.470  1.00  0.00     0.029 A 
ATOM     65  C   UNL A   1      42.887  30.289  36.241  1.00  0.00     0.049 A 
ATOM     66  H   UNL A   1      41.214  31.185  35.319  1.00  0.00     0.167 HD
ATOM     67  C   UNL A   1      42.668  29.085  34.084  1.00  0.00     0.074 A 
ATOM     68  C   UNL A   1      43.092  28.102  33.111  1.00  0.00     0.031 C 
ATOM     69  C   UNL A   1      43.291  29.307  35.267  1.00  0.00     0.037 A 
BRANCH  56  70
ATOM     70  C   UNL A   1      40.763  33.818  38.647  1.00  0.00     0.064 A 
ATOM     71  C   UNL A   1      41.544  34.981  38.715  1.00  0.00     0.173 A 
ATOM     72  C   UNL A   1      39.996  33.477  39.772  1.00  0.00     0.173 A 
ATOM     73  F   UNL A   1      42.303  35.346  37.670  1.00  0.00    -0.203 F 
ATOM     74  C   UNL A   1      41.579  35.756  39.871  1.00  0.00     0.198 A 
ATOM     75  C   UNL A   1      40.010  34.270  40.916  1.00  0.00     0.198 A 
ATOM     76  F   UNL A   1      39.226  32.378  39.759  1.00  0.00    -0.203 F 
ATOM     77  F   UNL A   1      42.369  36.837  39.928  1.00  0.00    -0.200 F 
ATOM     78  C   UNL A   1      40.806  35.405  40.968  1.00  0.00     0.200 A 
ATOM     79  F   UNL A   1      39.252  33.937  41.971  1.00  0.00    -0.200 F 
ATOM     80  F   UNL A   1      40.834  36.156  42.077  1.00  0.00    -0.200 F 
ENDBRANCH  56  70
BRANCH  57  81
ATOM     81  C   UNL A   1      40.182  28.673  30.111  1.00  0.00     0.064 A 
ATOM     82  C   UNL A   1      39.497  27.452  30.024  1.00  0.00     0.173 A 
ATOM     83  C   UNL A   1      40.806  29.155  28.952  1.00  0.00     0.173 A 
ATOM     84  F   UNL A   1      38.903  26.941  31.112  1.00  0.00    -0.203 F 
ATOM     85  C   UNL A   1      39.456  26.733  28.832  1.00  0.00     0.198 A 
ATOM     86  C   UNL A   1      40.740  28.449  27.752  1.00  0.00     0.198 A 
ATOM     87  F   UNL A   1      41.469  30.321  28.980  1.00  0.00    -0.203 F 
ATOM     88  F   UNL A   1      38.834  25.548  28.788  1.00  0.00    -0.200 F 
ATOM     89  C   UNL A   1      40.073  27.235  27.696  1.00  0.00     0.200 A 
ATOM     90  F   UNL A   1      41.324  28.944  26.653  1.00  0.00    -0.200 F 
ATOM     91  F   UNL A   1      40.030  26.544  26.548  1.00  0.00    -0.200 F 
ENDBRANCH  57  81
BRANCH  69  92
ATOM     92  C   UNL A   1      44.475  28.445  35.593  1.00  0.00     0.064 A 
ATOM     93  C   UNL A   1      44.334  27.226  36.272  1.00  0.00     0.173 A 
ATOM     94  C   UNL A   1      45.762  28.825  35.182  1.00  0.00     0.173 A 
ATOM     95  F   UNL A   1      43.127  26.827  36.699  1.00  0.00    -0.203 F 
ATOM     96  C   UNL A   1      45.444  26.432  36.550  1.00  0.00     0.198 A 
ATOM     97  C   UNL A   1      46.864  28.014  35.437  1.00  0.00     0.198 A 
ATOM     98  F   UNL A   1      45.948  29.979  34.525  1.00  0.00    -0.203 F 
ATOM     99  F   UNL A   1      45.293  25.294  37.242  1.00  0.00    -0.200 F 
ATOM    100  C   UNL A   1      46.705  26.822  36.126  1.00  0.00     0.200 A 
ATOM    101  F   UNL A   1      48.080  28.387  35.015  1.00  0.00    -0.200 F 
ATOM    102  F   UNL A   1      47.770  26.052  36.388  1.00  0.00    -0.200 F 
ENDBRANCH  69  92
ENDBRANCH  43  44
ENDBRANCH  35  38
ENDBRANCH  33  34
ENDBRANCH  32  33
ENDBRANCH  31  32
ENDBRANCH   3  31
TORSDOF 15
ENDMDL
MODEL 3
REMARK VINA RESULT:     -12.7      2.142      3.506
REMARK SMILES C[C@@H](C(=O)NCCCNC(=O)c1ccc(-c2c3nc(c(-c4c(F)c(F)c(F)c(F)c4F)c4ccc([nH]4)c(-c4c(F)c(F)c(F)c(F)c4F)c4nc(c(-c5c(F)c(F)c(F)c(F)c5F)c5ccc2[nH]5)C=C4)C=C3)cc1)c1ccc(-c2cccc(OC(=O)Nc3ccccc3)c2)c(F)c1
REMARK SMILES IDX 3 1 4 2 5 3 2 5 1 6 75 7 76 8 97 9 77 10 95 11 78 12 96 13
REMARK SMILES IDX 79 14 80 15 94 16 81 17 83 18 82 19 84 20 85 21 86 22 87 23
REMARK SMILES IDX 88 25 89 26 93 27 90 28 92 29 91 30 6 31 7 32 8 33 9 34
REMARK SMILES IDX 10 35 11 37 12 38 13 39 74 40 14 41 73 42 15 43 16 44 17 45
REMARK SMILES IDX 67 46 18 47 72 48 66 49 68 50 19 51 71 52 65 53 64 54 20 56
REMARK SMILES IDX 52 57 32 58 51 59 33 60 36 61 50 62 69 63 34 64 35 65 49 67
REMARK SMILES IDX 70 68 37 69 21 70 22 71 30 72 23 73 24 74 28 75 31 76 25 77
REMARK SMILES IDX 26 78 29 79 27 80 53 81 54 82 62 83 55 84 56 85 60 86 63 87
REMARK SMILES IDX 57 88 58 89 61 90 59 91 38 92 39 93 47 94 40 95 41 96 45 97
REMARK SMILES IDX 48 98 42 99 43 100 46 101 44 102
REMARK H PARENT 5 4 87 24 9 36 68 55 36 66
REMARK Flexibility Score: inf
ROOT
ATOM      1  C   UNL A   1      35.517  33.375  28.231  1.00  0.00     0.227 C 
ATOM      2  O   UNL A   1      36.699  33.032  28.181  1.00  0.00    -0.274 OA
ATOM      3  N   UNL A   1      35.209  34.580  27.673  1.00  0.00    -0.356 N 
ATOM      4  H   UNL A   1      35.942  35.006  27.172  1.00  0.00     0.163 HD
ENDROOT
BRANCH   1   5
ATOM      5  C   UNL A   1      34.411  32.508  28.849  1.00  0.00     0.105 C 
ATOM      6  C   UNL A   1      34.837  31.898  30.191  1.00  0.00     0.023 C 
BRANCH   5   7
ATOM      7  C   UNL A   1      33.952  31.429  27.878  1.00  0.00    -0.033 A 
ATOM      8  C   UNL A   1      34.741  30.288  27.662  1.00  0.00     0.005 A 
ATOM      9  C   UNL A   1      32.731  31.535  27.200  1.00  0.00     0.044 A 
ATOM     10  C   UNL A   1      34.346  29.309  26.741  1.00  0.00     0.012 A 
ATOM     11  C   UNL A   1      32.349  30.563  26.283  1.00  0.00     0.131 A 
ATOM     12  C   UNL A   1      33.155  29.449  26.014  1.00  0.00     0.018 A 
ATOM     13  F   UNL A   1      31.190  30.735  25.629  1.00  0.00    -0.206 F 
BRANCH  12  14
ATOM     14  C   UNL A   1      32.806  28.520  24.934  1.00  0.00    -0.012 A 
ATOM     15  C   UNL A   1      33.700  27.552  24.455  1.00  0.00     0.009 A 
ATOM     16  C   UNL A   1      31.533  28.612  24.346  1.00  0.00     0.056 A 
ATOM     17  C   UNL A   1      33.323  26.691  23.420  1.00  0.00     0.004 A 
ATOM     18  C   UNL A   1      31.167  27.769  23.307  1.00  0.00     0.133 A 
ATOM     19  C   UNL A   1      32.056  26.799  22.845  1.00  0.00     0.047 A 
BRANCH  18  20
ATOM     20  O   UNL A   1      29.917  27.827  22.642  1.00  0.00    -0.410 OA
BRANCH  20  21
ATOM     21  C   UNL A   1      28.666  27.615  23.225  1.00  0.00     0.417 C 
ATOM     22  O   UNL A   1      28.283  26.575  23.753  1.00  0.00    -0.224 OA
ATOM     23  N   UNL A   1      27.866  28.726  23.287  1.00  0.00    -0.291 N 
ATOM     24  H   UNL A   1      27.048  28.613  23.824  1.00  0.00     0.173 HD
BRANCH  23  25
ATOM     25  C   UNL A   1      28.020  29.995  22.716  1.00  0.00     0.044 A 
ATOM     26  C   UNL A   1      28.183  31.070  23.597  1.00  0.00     0.026 A 
ATOM     27  C   UNL A   1      27.985  30.241  21.342  1.00  0.00     0.026 A 
ATOM     28  C   UNL A   1      28.360  32.366  23.110  1.00  0.00     0.002 A 
ATOM     29  C   UNL A   1      28.143  31.542  20.855  1.00  0.00     0.002 A 
ATOM     30  C   UNL A   1      28.341  32.601  21.739  1.00  0.00     0.000 A 
ENDBRANCH  23  25
ENDBRANCH  20  21
ENDBRANCH  18  20
ENDBRANCH  12  14
ENDBRANCH   5   7
ENDBRANCH   1   5
BRANCH   3  31
ATOM     31  C   UNL A   1      33.972  35.334  27.701  1.00  0.00     0.117 C 
BRANCH  31  32
ATOM     32  C   UNL A   1      33.778  36.028  29.047  1.00  0.00     0.042 C 
BRANCH  32  33
ATOM     33  C   UNL A   1      32.797  35.319  29.976  1.00  0.00     0.118 C 
BRANCH  33  34
ATOM     34  N   UNL A   1      32.499  36.093  31.170  1.00  0.00    -0.352 N 
ATOM     35  C   UNL A   1      33.033  36.010  32.431  1.00  0.00     0.251 C 
ATOM     36  H   UNL A   1      31.808  36.785  31.055  1.00  0.00     0.163 HD
ATOM     37  O   UNL A   1      32.509  36.630  33.353  1.00  0.00    -0.269 OA
BRANCH  35  38
ATOM     38  C   UNL A   1      34.220  35.169  32.694  1.00  0.00     0.039 A 
ATOM     39  C   UNL A   1      35.478  35.651  32.319  1.00  0.00     0.014 A 
ATOM     40  C   UNL A   1      34.100  33.902  33.272  1.00  0.00     0.014 A 
ATOM     41  C   UNL A   1      36.619  34.887  32.577  1.00  0.00     0.010 A 
ATOM     42  C   UNL A   1      35.244  33.174  33.592  1.00  0.00     0.010 A 
ATOM     43  C   UNL A   1      36.515  33.658  33.245  1.00  0.00    -0.014 A 
BRANCH  43  44
ATOM     44  C   UNL A   1      37.723  32.866  33.590  1.00  0.00     0.031 A 
ATOM     45  C   UNL A   1      38.457  33.124  34.876  1.00  0.00     0.074 A 
ATOM     46  C   UNL A   1      38.194  31.958  32.714  1.00  0.00     0.049 A 
ATOM     47  N   UNL A   1      39.568  32.590  35.318  1.00  0.00    -0.248 NA
ATOM     48  C   UNL A   1      37.880  34.136  35.775  1.00  0.00     0.031 C 
ATOM     49  C   UNL A   1      37.597  31.647  31.415  1.00  0.00     0.029 A 
ATOM     50  N   UNL A   1      39.293  31.138  32.779  1.00  0.00    -0.354 N 
ATOM     51  C   UNL A   1      39.830  33.210  36.532  1.00  0.00     0.074 A 
ATOM     52  C   UNL A   1      38.790  34.194  36.737  1.00  0.00     0.031 C 
ATOM     53  C   UNL A   1      38.323  30.693  30.813  1.00  0.00     0.029 A 
ATOM     54  C   UNL A   1      39.460  30.351  31.665  1.00  0.00     0.049 A 
ATOM     55  H   UNL A   1      39.904  31.115  33.550  1.00  0.00     0.167 HD
ATOM     56  C   UNL A   1      40.835  32.965  37.406  1.00  0.00     0.037 A 
ATOM     57  C   UNL A   1      40.424  29.463  31.360  1.00  0.00     0.037 A 
ATOM     58  C   UNL A   1      41.854  31.968  37.211  1.00  0.00     0.049 A 
ATOM     59  C   UNL A   1      41.531  29.212  32.348  1.00  0.00     0.074 A 
ATOM     60  C   UNL A   1      42.880  31.602  38.066  1.00  0.00     0.029 A 
ATOM     61  N   UNL A   1      41.978  31.176  36.079  1.00  0.00    -0.354 N 
ATOM     62  N   UNL A   1      41.731  29.757  33.523  1.00  0.00    -0.248 NA
ATOM     63  C   UNL A   1      42.544  28.218  31.969  1.00  0.00     0.031 C 
ATOM     64  C   UNL A   1      43.649  30.620  37.433  1.00  0.00     0.029 A 
ATOM     65  C   UNL A   1      43.074  30.338  36.205  1.00  0.00     0.049 A 
ATOM     66  H   UNL A   1      41.375  31.205  35.301  1.00  0.00     0.167 HD
ATOM     67  C   UNL A   1      42.871  29.153  34.035  1.00  0.00     0.074 A 
ATOM     68  C   UNL A   1      43.312  28.190  33.049  1.00  0.00     0.031 C 
ATOM     69  C   UNL A   1      43.495  29.376  35.218  1.00  0.00     0.037 A 
BRANCH  56  70
ATOM     70  C   UNL A   1      40.882  33.789  38.660  1.00  0.00     0.064 A 
ATOM     71  C   UNL A   1      40.145  33.436  39.801  1.00  0.00     0.173 A 
ATOM     72  C   UNL A   1      41.705  34.923  38.738  1.00  0.00     0.173 A 
ATOM     73  F   UNL A   1      39.334  32.367  39.776  1.00  0.00    -0.203 F 
ATOM     74  C   UNL A   1      40.208  34.203  40.962  1.00  0.00     0.198 A 
ATOM     75  C   UNL A   1      41.789  35.670  39.910  1.00  0.00     0.198 A 
ATOM     76  F   UNL A   1      42.437  35.302  37.678  1.00  0.00    -0.203 F 
ATOM     77  F   UNL A   1      39.459  33.871  42.023  1.00  0.00    -0.200 F 
ATOM     78  C   UNL A   1      41.036  35.314  41.019  1.00  0.00     0.200 A 
ATOM     79  F   UNL A   1      42.600  36.736  39.968  1.00  0.00    -0.200 F 
ATOM     80  F   UNL A   1      41.102  36.045  42.139  1.00  0.00    -0.200 F 
ENDBRANCH  56  70
BRANCH  57  81
ATOM     81  C   UNL A   1      40.373  28.726  30.071  1.00  0.00     0.064 A 
ATOM     82  C   UNL A   1      40.997  29.238  28.926  1.00  0.00     0.173 A 
ATOM     83  C   UNL A   1      39.700  27.501  29.956  1.00  0.00     0.173 A 
ATOM     84  F   UNL A   1      41.636  30.416  28.982  1.00  0.00    -0.203 F 
ATOM     85  C   UNL A   1      40.934  28.564  27.708  1.00  0.00     0.198 A 
ATOM     86  C   UNL A   1      39.661  26.813  28.744  1.00  0.00     0.198 A 
ATOM     87  F   UNL A   1      39.091  26.965  31.024  1.00  0.00    -0.203 F 
ATOM     88  F   UNL A   1      41.501  29.098  26.619  1.00  0.00    -0.200 F 
ATOM     89  C   UNL A   1      40.270  27.349  27.621  1.00  0.00     0.200 A 
ATOM     90  F   UNL A   1      39.031  25.633  28.667  1.00  0.00    -0.200 F 
ATOM     91  F   UNL A   1      40.212  26.699  26.450  1.00  0.00    -0.200 F 
ENDBRANCH  57  81
BRANCH  69  92
ATOM     92  C   UNL A   1      44.700  28.539  35.527  1.00  0.00     0.064 A 
ATOM     93  C   UNL A   1      45.995  28.956  35.187  1.00  0.00     0.173 A 
ATOM     94  C   UNL A   1      44.560  27.321  36.211  1.00  0.00     0.173 A 
ATOM     95  F   UNL A   1      46.180  30.105  34.519  1.00  0.00    -0.203 F 
ATOM     96  C   UNL A   1      47.104  28.173  35.498  1.00  0.00     0.198 A 
ATOM     97  C   UNL A   1      45.674  26.556  36.547  1.00  0.00     0.198 A 
ATOM     98  F   UNL A   1      43.344  26.880  36.564  1.00  0.00    -0.203 F 
ATOM     99  F   UNL A   1      48.328  28.569  35.122  1.00  0.00    -0.200 F 
ATOM    100  C   UNL A   1      46.943  26.978  36.184  1.00  0.00     0.200 A 
ATOM    101  F   UNL A   1      45.517  25.407  37.220  1.00  0.00    -0.200 F 
ATOM    102  F   UNL A   1      48.012  26.230  36.489  1.00  0.00    -0.200 F 
ENDBRANCH  69  92
ENDBRANCH  43  44
ENDBRANCH  35  38
ENDBRANCH  33  34
ENDBRANCH  32  33
ENDBRANCH  31  32
ENDBRANCH   3  31
TORSDOF 15
ENDMDL
