MODEL 1
REMARK VINA RESULT:     -13.4      0.000      0.000
REMARK SMILES C[C@@H](C(=O)NCCCNC(=O)c1ccc(-c2c3nc(c(-c4c(F)c(F)c(F)c(F)c4F)c4ccc([nH]4)c(-c4c(F)c(F)c(F)c(F)c4F)c4nc(c(-c5c(F)c(F)c(F)c(F)c5F)c5ccc2[nH]5)C=C4)C=C3)cc1)N1C(=O)/C(=C/c2nc3ccccc3[nH]2)SC1=S
REMARK SMILES IDX 7 1 6 2 5 3 3 4 4 5 2 7 1 8 75 9 76 10 90 11 77 12 78 13
REMARK SMILES IDX 89 14 91 15 79 16 80 17 81 18 88 19 82 20 87 21 83 23 86 24
REMARK SMILES IDX 84 25 85 26 8 27 9 28 10 29 11 31 12 32 13 33 74 34 14 35
REMARK SMILES IDX 73 36 15 37 16 38 17 39 67 40 18 41 72 42 66 43 68 44 19 45
REMARK SMILES IDX 71 46 65 47 64 48 20 50 52 51 32 52 51 53 33 54 36 55 50 56
REMARK SMILES IDX 69 57 34 58 35 59 49 61 70 62 37 63 21 64 22 65 30 66 23 67
REMARK SMILES IDX 24 68 28 69 31 70 25 71 26 72 29 73 27 74 53 75 54 76 62 77
REMARK SMILES IDX 55 78 56 79 60 80 63 81 57 82 58 83 61 84 59 85 38 86 39 87
REMARK SMILES IDX 47 88 40 89 41 90 45 91 48 92 42 93 43 94 46 95 44 96
REMARK H PARENT 5 6 88 22 9 30 68 49 36 60
REMARK Flexibility Score: inf
ROOT
ATOM      1  C   UNL A   1      31.680  31.477  26.541  1.00  0.00     0.042 C 
ENDROOT
BRANCH   1   2
ATOM      2  C   UNL A   1      31.779  29.975  26.789  1.00  0.00     0.117 C 
BRANCH   2   3
ATOM      3  N   UNL A   1      31.265  29.195  25.683  1.00  0.00    -0.354 N 
ATOM      4  C   UNL A   1      31.436  27.882  25.371  1.00  0.00     0.242 C 
ATOM      5  O   UNL A   1      30.654  27.421  24.532  1.00  0.00    -0.273 OA
ATOM      6  H   UNL A   1      30.698  29.697  25.053  1.00  0.00     0.163 HD
BRANCH   4   7
ATOM      7  C   UNL A   1      32.476  26.994  26.094  1.00  0.00     0.178 C 
ATOM      8  C   UNL A   1      33.879  27.559  26.310  1.00  0.00     0.042 C 
BRANCH   7   9
ATOM      9  N   UNL A   1      32.541  25.686  25.408  1.00  0.00    -0.281 N 
ATOM     10  C   UNL A   1      32.150  24.552  26.106  1.00  0.00     0.267 C 
ATOM     11  C   UNL A   1      33.013  25.482  24.121  1.00  0.00     0.149 C 
ATOM     12  O   UNL A   1      31.719  24.516  27.251  1.00  0.00    -0.268 OA
ATOM     13  C   UNL A   1      32.408  23.335  25.297  1.00  0.00     0.084 C 
ATOM     14  S   UNL A   1      32.831  23.797  23.693  1.00  0.00    -0.054 SA
ATOM     15  S   UNL A   1      33.693  26.562  23.041  1.00  0.00    -0.052 S 
ATOM     16  C   UNL A   1      32.366  22.097  25.815  1.00  0.00     0.068 C 
BRANCH  16  17
ATOM     17  C   UNL A   1      32.793  20.985  25.052  1.00  0.00     0.132 A 
ATOM     18  N   UNL A   1      32.153  20.339  24.101  1.00  0.00    -0.229 NA
ATOM     19  N   UNL A   1      34.002  20.384  25.314  1.00  0.00    -0.338 N 
ATOM     20  C   UNL A   1      32.854  19.188  23.893  1.00  0.00     0.089 A 
ATOM     21  C   UNL A   1      34.029  19.186  24.636  1.00  0.00     0.066 A 
ATOM     22  H   UNL A   1      34.719  20.745  25.884  1.00  0.00     0.168 HD
ATOM     23  C   UNL A   1      32.519  18.080  23.108  1.00  0.00     0.030 A 
ATOM     24  C   UNL A   1      34.926  18.117  24.626  1.00  0.00     0.028 A 
ATOM     25  C   UNL A   1      33.384  16.982  23.106  1.00  0.00     0.002 A 
ATOM     26  C   UNL A   1      34.568  17.007  23.847  1.00  0.00     0.002 A 
ENDBRANCH  16  17
ENDBRANCH   7   9
ENDBRANCH   4   7
ENDBRANCH   2   3
ENDBRANCH   1   2
BRANCH   1  27
ATOM     27  C   UNL A   1      32.876  32.279  27.048  1.00  0.00     0.118 C 
BRANCH  27  28
ATOM     28  N   UNL A   1      32.526  33.638  27.437  1.00  0.00    -0.352 N 
ATOM     29  C   UNL A   1      33.050  34.442  28.423  1.00  0.00     0.251 C 
ATOM     30  H   UNL A   1      31.801  34.046  26.912  1.00  0.00     0.163 HD
ATOM     31  O   UNL A   1      32.508  35.503  28.700  1.00  0.00    -0.269 OA
BRANCH  29  32
ATOM     32  C   UNL A   1      34.254  34.016  29.168  1.00  0.00     0.039 A 
ATOM     33  C   UNL A   1      34.097  33.250  30.328  1.00  0.00     0.014 A 
ATOM     34  C   UNL A   1      35.530  34.378  28.735  1.00  0.00     0.014 A 
ATOM     35  C   UNL A   1      35.222  32.777  31.007  1.00  0.00     0.010 A 
ATOM     36  C   UNL A   1      36.650  33.848  29.369  1.00  0.00     0.010 A 
ATOM     37  C   UNL A   1      36.507  33.038  30.507  1.00  0.00    -0.014 A 
BRANCH  37  38
ATOM     38  C   UNL A   1      37.729  32.480  31.139  1.00  0.00     0.031 A 
ATOM     39  C   UNL A   1      38.439  31.325  30.495  1.00  0.00     0.074 A 
ATOM     40  C   UNL A   1      38.120  32.924  32.348  1.00  0.00     0.049 A 
ATOM     41  N   UNL A   1      39.390  30.563  30.972  1.00  0.00    -0.248 NA
ATOM     42  C   UNL A   1      37.992  30.956  29.143  1.00  0.00     0.031 C 
ATOM     43  C   UNL A   1      37.490  34.014  33.093  1.00  0.00     0.029 A 
ATOM     44  N   UNL A   1      39.120  32.483  33.181  1.00  0.00    -0.354 N 
ATOM     45  C   UNL A   1      39.630  29.606  29.996  1.00  0.00     0.074 A 
ATOM     46  C   UNL A   1      38.698  29.860  28.916  1.00  0.00     0.031 C 
ATOM     47  C   UNL A   1      38.109  34.151  34.276  1.00  0.00     0.029 A 
ATOM     48  C   UNL A   1      39.147  33.131  34.392  1.00  0.00     0.049 A 
ATOM     49  H   UNL A   1      39.755  31.774  32.934  1.00  0.00     0.167 HD
ATOM     50  C   UNL A   1      40.551  28.612  29.996  1.00  0.00     0.037 A 
ATOM     51  C   UNL A   1      39.901  32.907  35.485  1.00  0.00     0.037 A 
ATOM     52  C   UNL A   1      41.492  28.384  31.061  1.00  0.00     0.049 A 
ATOM     53  C   UNL A   1      40.922  31.803  35.465  1.00  0.00     0.074 A 
ATOM     54  C   UNL A   1      42.511  27.451  31.127  1.00  0.00     0.029 A 
ATOM     55  N   UNL A   1      41.523  29.097  32.252  1.00  0.00    -0.354 N 
ATOM     56  N   UNL A   1      41.182  30.938  34.515  1.00  0.00    -0.248 NA
ATOM     57  C   UNL A   1      41.756  31.645  36.665  1.00  0.00     0.031 C 
ATOM     58  C   UNL A   1      43.132  27.570  32.375  1.00  0.00     0.029 A 
ATOM     59  C   UNL A   1      42.532  28.610  33.067  1.00  0.00     0.049 A 
ATOM     60  H   UNL A   1      40.919  29.839  32.481  1.00  0.00     0.167 HD
ATOM     61  C   UNL A   1      42.223  30.152  34.988  1.00  0.00     0.074 A 
ATOM     62  C   UNL A   1      42.551  30.644  36.310  1.00  0.00     0.031 C 
ATOM     63  C   UNL A   1      42.853  29.119  34.377  1.00  0.00     0.037 A 
BRANCH  50  64
ATOM     64  C   UNL A   1      40.570  27.691  28.811  1.00  0.00     0.064 A 
ATOM     65  C   UNL A   1      41.372  27.947  27.688  1.00  0.00     0.173 A 
ATOM     66  C   UNL A   1      39.777  26.534  28.798  1.00  0.00     0.173 A 
ATOM     67  F   UNL A   1      42.141  29.045  27.646  1.00  0.00    -0.203 F 
ATOM     68  C   UNL A   1      41.346  27.105  26.581  1.00  0.00     0.198 A 
ATOM     69  C   UNL A   1      39.778  25.676  27.702  1.00  0.00     0.198 A 
ATOM     70  F   UNL A   1      38.997  26.236  29.848  1.00  0.00    -0.203 F 
ATOM     71  F   UNL A   1      42.071  27.406  25.494  1.00  0.00    -0.200 F 
ATOM     72  C   UNL A   1      40.552  25.968  26.589  1.00  0.00     0.200 A 
ATOM     73  F   UNL A   1      39.020  24.570  27.718  1.00  0.00    -0.200 F 
ATOM     74  F   UNL A   1      40.525  25.159  25.521  1.00  0.00    -0.200 F 
ENDBRANCH  50  64
BRANCH  51  75
ATOM     75  C   UNL A   1      39.712  33.760  36.687  1.00  0.00     0.064 A 
ATOM     76  C   UNL A   1      40.352  35.001  36.796  1.00  0.00     0.173 A 
ATOM     77  C   UNL A   1      38.854  33.371  37.727  1.00  0.00     0.173 A 
ATOM     78  F   UNL A   1      41.193  35.406  35.834  1.00  0.00    -0.203 F 
ATOM     79  C   UNL A   1      40.145  35.821  37.903  1.00  0.00     0.198 A 
ATOM     80  C   UNL A   1      38.630  34.203  38.823  1.00  0.00     0.198 A 
ATOM     81  F   UNL A   1      38.213  32.195  37.665  1.00  0.00    -0.203 F 
ATOM     82  F   UNL A   1      40.787  36.993  37.995  1.00  0.00    -0.200 F 
ATOM     83  C   UNL A   1      39.278  35.425  38.911  1.00  0.00     0.200 A 
ATOM     84  F   UNL A   1      37.779  33.824  39.785  1.00  0.00    -0.200 F 
ATOM     85  F   UNL A   1      39.067  36.222  39.968  1.00  0.00    -0.200 F 
ENDBRANCH  51  75
BRANCH  63  86
ATOM     86  C   UNL A   1      43.991  28.469  35.107  1.00  0.00     0.064 A 
ATOM     87  C   UNL A   1      43.787  27.385  35.973  1.00  0.00     0.173 A 
ATOM     88  C   UNL A   1      45.310  28.887  34.873  1.00  0.00     0.173 A 
ATOM     89  F   UNL A   1      42.543  26.959  36.240  1.00  0.00    -0.203 F 
ATOM     90  C   UNL A   1      44.864  26.747  36.583  1.00  0.00     0.198 A 
ATOM     91  C   UNL A   1      46.385  28.230  35.464  1.00  0.00     0.198 A 
ATOM     92  F   UNL A   1      45.556  29.916  34.049  1.00  0.00    -0.203 F 
ATOM     93  F   UNL A   1      44.646  25.729  37.427  1.00  0.00    -0.200 F 
ATOM     94  C   UNL A   1      46.161  27.163  36.319  1.00  0.00     0.200 A 
ATOM     95  F   UNL A   1      47.638  28.626  35.199  1.00  0.00    -0.200 F 
ATOM     96  F   UNL A   1      47.197  26.534  36.893  1.00  0.00    -0.200 F 
ENDBRANCH  63  86
ENDBRANCH  37  38
ENDBRANCH  29  32
ENDBRANCH  27  28
ENDBRANCH   1  27
TORSDOF 12
ENDMDL
MODEL 2
REMARK VINA RESULT:     -13.4      0.912      1.216
REMARK SMILES C[C@@H](C(=O)NCCCNC(=O)c1ccc(-c2c3nc(c(-c4c(F)c(F)c(F)c(F)c4F)c4ccc([nH]4)c(-c4c(F)c(F)c(F)c(F)c4F)c4nc(c(-c5c(F)c(F)c(F)c(F)c5F)c5ccc2[nH]5)C=C4)C=C3)cc1)N1C(=O)/C(=C/c2nc3ccccc3[nH]2)SC1=S
REMARK SMILES IDX 7 1 6 2 5 3 3 4 4 5 2 7 1 8 75 9 76 10 90 11 77 12 78 13
REMARK SMILES IDX 89 14 91 15 79 16 80 17 81 18 88 19 82 20 87 21 83 23 86 24
REMARK SMILES IDX 84 25 85 26 8 27 9 28 10 29 11 31 12 32 13 33 74 34 14 35
REMARK SMILES IDX 73 36 15 37 16 38 17 39 67 40 18 41 72 42 66 43 68 44 19 45
REMARK SMILES IDX 71 46 65 47 64 48 20 50 52 51 32 52 51 53 33 54 36 55 50 56
REMARK SMILES IDX 69 57 34 58 35 59 49 61 70 62 37 63 21 64 22 65 30 66 23 67
REMARK SMILES IDX 24 68 28 69 31 70 25 71 26 72 29 73 27 74 53 75 54 76 62 77
REMARK SMILES IDX 55 78 56 79 60 80 63 81 57 82 58 83 61 84 59 85 38 86 39 87
REMARK SMILES IDX 47 88 40 89 41 90 45 91 48 92 42 93 43 94 46 95 44 96
REMARK H PARENT 5 6 88 22 9 30 68 49 36 60
REMARK Flexibility Score: inf
ROOT
ATOM      1  C   UNL A   1      31.599  31.752  26.503  1.00  0.00     0.042 C 
ENDROOT
BRANCH   1   2
ATOM      2  C   UNL A   1      31.844  30.276  26.212  1.00  0.00     0.117 C 
BRANCH   2   3
ATOM      3  N   UNL A   1      31.233  29.845  24.973  1.00  0.00    -0.354 N 
ATOM      4  C   UNL A   1      31.673  28.975  24.023  1.00  0.00     0.242 C 
ATOM      5  O   UNL A   1      30.823  28.583  23.217  1.00  0.00    -0.273 OA
ATOM      6  H   UNL A   1      30.354  30.246  24.786  1.00  0.00     0.163 HD
BRANCH   4   7
ATOM      7  C   UNL A   1      33.122  28.432  24.015  1.00  0.00     0.178 C 
ATOM      8  C   UNL A   1      34.037  28.841  22.862  1.00  0.00     0.042 C 
BRANCH   7   9
ATOM      9  N   UNL A   1      33.077  26.960  24.147  1.00  0.00    -0.281 N 
ATOM     10  C   UNL A   1      33.258  26.402  25.405  1.00  0.00     0.267 C 
ATOM     11  C   UNL A   1      32.914  26.069  23.098  1.00  0.00     0.149 C 
ATOM     12  O   UNL A   1      33.431  27.012  26.453  1.00  0.00    -0.268 OA
ATOM     13  C   UNL A   1      33.307  24.923  25.310  1.00  0.00     0.084 C 
ATOM     14  S   UNL A   1      32.841  24.438  23.724  1.00  0.00    -0.054 SA
ATOM     15  S   UNL A   1      32.812  26.350  21.454  1.00  0.00    -0.052 S 
ATOM     16  C   UNL A   1      33.724  24.144  26.321  1.00  0.00     0.068 C 
BRANCH  16  17
ATOM     17  C   UNL A   1      33.923  22.757  26.123  1.00  0.00     0.132 A 
ATOM     18  N   UNL A   1      35.033  22.115  25.828  1.00  0.00    -0.229 NA
ATOM     19  N   UNL A   1      32.858  21.889  26.155  1.00  0.00    -0.338 N 
ATOM     20  C   UNL A   1      34.652  20.859  25.456  1.00  0.00     0.089 A 
ATOM     21  C   UNL A   1      33.288  20.679  25.657  1.00  0.00     0.066 A 
ATOM     22  H   UNL A   1      31.951  22.094  26.477  1.00  0.00     0.168 HD
ATOM     23  C   UNL A   1      35.420  19.832  24.898  1.00  0.00     0.030 A 
ATOM     24  C   UNL A   1      32.629  19.491  25.341  1.00  0.00     0.028 A 
ATOM     25  C   UNL A   1      34.778  18.643  24.542  1.00  0.00     0.002 A 
ATOM     26  C   UNL A   1      33.409  18.477  24.766  1.00  0.00     0.002 A 
ENDBRANCH  16  17
ENDBRANCH   7   9
ENDBRANCH   4   7
ENDBRANCH   2   3
ENDBRANCH   1   2
BRANCH   1  27
ATOM     27  C   UNL A   1      32.745  32.449  27.233  1.00  0.00     0.118 C 
BRANCH  27  28
ATOM     28  N   UNL A   1      32.449  33.836  27.564  1.00  0.00    -0.352 N 
ATOM     29  C   UNL A   1      33.025  34.670  28.495  1.00  0.00     0.251 C 
ATOM     30  H   UNL A   1      31.721  34.242  27.040  1.00  0.00     0.163 HD
ATOM     31  O   UNL A   1      32.524  35.760  28.733  1.00  0.00    -0.269 OA
BRANCH  29  32
ATOM     32  C   UNL A   1      34.236  34.241  29.227  1.00  0.00     0.039 A 
ATOM     33  C   UNL A   1      34.089  33.537  30.426  1.00  0.00     0.014 A 
ATOM     34  C   UNL A   1      35.510  34.542  28.742  1.00  0.00     0.014 A 
ATOM     35  C   UNL A   1      35.218  33.062  31.097  1.00  0.00     0.010 A 
ATOM     36  C   UNL A   1      36.631  34.008  29.371  1.00  0.00     0.010 A 
ATOM     37  C   UNL A   1      36.495  33.258  30.550  1.00  0.00    -0.014 A 
BRANCH  37  38
ATOM     38  C   UNL A   1      37.717  32.692  31.176  1.00  0.00     0.031 A 
ATOM     39  C   UNL A   1      38.438  31.556  30.508  1.00  0.00     0.074 A 
ATOM     40  C   UNL A   1      38.100  33.109  32.397  1.00  0.00     0.049 A 
ATOM     41  N   UNL A   1      39.390  30.789  30.973  1.00  0.00    -0.248 NA
ATOM     42  C   UNL A   1      37.999  31.217  29.146  1.00  0.00     0.031 C 
ATOM     43  C   UNL A   1      37.460  34.178  33.164  1.00  0.00     0.029 A 
ATOM     44  N   UNL A   1      39.097  32.655  33.225  1.00  0.00    -0.354 N 
ATOM     45  C   UNL A   1      39.641  29.856  29.976  1.00  0.00     0.074 A 
ATOM     46  C   UNL A   1      38.714  30.130  28.897  1.00  0.00     0.031 C 
ATOM     47  C   UNL A   1      38.071  34.290  34.353  1.00  0.00     0.029 A 
ATOM     48  C   UNL A   1      39.114  33.274  34.451  1.00  0.00     0.049 A 
ATOM     49  H   UNL A   1      39.738  31.955  32.965  1.00  0.00     0.167 HD
ATOM     50  C   UNL A   1      40.567  28.868  29.958  1.00  0.00     0.037 A 
ATOM     51  C   UNL A   1      39.863  33.029  35.543  1.00  0.00     0.037 A 
ATOM     52  C   UNL A   1      41.504  28.620  31.022  1.00  0.00     0.049 A 
ATOM     53  C   UNL A   1      40.891  31.931  35.502  1.00  0.00     0.074 A 
ATOM     54  C   UNL A   1      42.529  27.692  31.071  1.00  0.00     0.029 A 
ATOM     55  N   UNL A   1      41.525  29.305  32.229  1.00  0.00    -0.354 N 
ATOM     56  N   UNL A   1      41.161  31.091  34.533  1.00  0.00    -0.248 NA
ATOM     57  C   UNL A   1      41.720  31.750  36.702  1.00  0.00     0.031 C 
ATOM     58  C   UNL A   1      43.142  27.785  32.325  1.00  0.00     0.029 A 
ATOM     59  C   UNL A   1      42.532  28.805  33.038  1.00  0.00     0.049 A 
ATOM     60  H   UNL A   1      40.915  30.038  32.473  1.00  0.00     0.167 HD
ATOM     61  C   UNL A   1      42.204  30.299  34.993  1.00  0.00     0.074 A 
ATOM     62  C   UNL A   1      42.522  30.762  36.328  1.00  0.00     0.031 C 
ATOM     63  C   UNL A   1      42.844  29.284  34.361  1.00  0.00     0.037 A 
BRANCH  50  64
ATOM     64  C   UNL A   1      40.598  27.975  28.751  1.00  0.00     0.064 A 
ATOM     65  C   UNL A   1      41.371  28.285  27.621  1.00  0.00     0.173 A 
ATOM     66  C   UNL A   1      39.847  26.791  28.724  1.00  0.00     0.173 A 
ATOM     67  F   UNL A   1      42.100  29.411  27.591  1.00  0.00    -0.203 F 
ATOM     68  C   UNL A   1      41.355  27.467  26.495  1.00  0.00     0.198 A 
ATOM     69  C   UNL A   1      39.858  25.958  27.610  1.00  0.00     0.198 A 
ATOM     70  F   UNL A   1      39.096  26.442  29.780  1.00  0.00    -0.203 F 
ATOM     71  F   UNL A   1      42.049  27.819  25.404  1.00  0.00    -0.200 F 
ATOM     72  C   UNL A   1      40.602  26.303  26.490  1.00  0.00     0.200 A 
ATOM     73  F   UNL A   1      39.141  24.826  27.612  1.00  0.00    -0.200 F 
ATOM     74  F   UNL A   1      40.585  25.519  25.405  1.00  0.00    -0.200 F 
ENDBRANCH  50  64
BRANCH  51  75
ATOM     75  C   UNL A   1      39.663  33.852  36.762  1.00  0.00     0.064 A 
ATOM     76  C   UNL A   1      40.260  35.113  36.885  1.00  0.00     0.173 A 
ATOM     77  C   UNL A   1      38.838  33.413  37.809  1.00  0.00     0.173 A 
ATOM     78  F   UNL A   1      41.070  35.566  35.918  1.00  0.00    -0.203 F 
ATOM     79  C   UNL A   1      40.041  35.905  38.011  1.00  0.00     0.198 A 
ATOM     80  C   UNL A   1      38.601  34.216  38.923  1.00  0.00     0.198 A 
ATOM     81  F   UNL A   1      38.238  32.215  37.734  1.00  0.00    -0.203 F 
ATOM     82  F   UNL A   1      40.642  37.097  38.115  1.00  0.00    -0.200 F 
ATOM     83  C   UNL A   1      39.205  35.459  39.024  1.00  0.00     0.200 A 
ATOM     84  F   UNL A   1      37.780  33.788  39.891  1.00  0.00    -0.200 F 
ATOM     85  F   UNL A   1      38.983  36.228  40.099  1.00  0.00    -0.200 F 
ENDBRANCH  51  75
BRANCH  63  86
ATOM     86  C   UNL A   1      43.981  28.624  35.082  1.00  0.00     0.064 A 
ATOM     87  C   UNL A   1      43.778  27.523  35.926  1.00  0.00     0.173 A 
ATOM     88  C   UNL A   1      45.300  29.051  34.859  1.00  0.00     0.173 A 
ATOM     89  F   UNL A   1      42.535  27.089  36.181  1.00  0.00    -0.203 F 
ATOM     90  C   UNL A   1      44.856  26.876  36.527  1.00  0.00     0.198 A 
ATOM     91  C   UNL A   1      46.375  28.386  35.441  1.00  0.00     0.198 A 
ATOM     92  F   UNL A   1      45.546  30.096  34.056  1.00  0.00    -0.203 F 
ATOM     93  F   UNL A   1      44.638  25.842  37.351  1.00  0.00    -0.200 F 
ATOM     94  C   UNL A   1      46.152  27.301  36.275  1.00  0.00     0.200 A 
ATOM     95  F   UNL A   1      47.627  28.790  35.188  1.00  0.00    -0.200 F 
ATOM     96  F   UNL A   1      47.188  26.665  36.840  1.00  0.00    -0.200 F 
ENDBRANCH  63  86
ENDBRANCH  37  38
ENDBRANCH  29  32
ENDBRANCH  27  28
ENDBRANCH   1  27
TORSDOF 12
ENDMDL
MODEL 3
REMARK VINA RESULT:     -13.4      0.376      1.618
REMARK SMILES C[C@@H](C(=O)NCCCNC(=O)c1ccc(-c2c3nc(c(-c4c(F)c(F)c(F)c(F)c4F)c4ccc([nH]4)c(-c4c(F)c(F)c(F)c(F)c4F)c4nc(c(-c5c(F)c(F)c(F)c(F)c5F)c5ccc2[nH]5)C=C4)C=C3)cc1)N1C(=O)/C(=C/c2nc3ccccc3[nH]2)SC1=S
REMARK SMILES IDX 7 1 6 2 5 3 3 4 4 5 2 7 1 8 75 9 76 10 90 11 77 12 78 13
REMARK SMILES IDX 89 14 91 15 79 16 80 17 81 18 88 19 82 20 87 21 83 23 86 24
REMARK SMILES IDX 84 25 85 26 8 27 9 28 10 29 11 31 12 32 13 33 74 34 14 35
REMARK SMILES IDX 73 36 15 37 16 38 17 39 67 40 18 41 72 42 66 43 68 44 19 45
REMARK SMILES IDX 71 46 65 47 64 48 20 50 52 51 32 52 51 53 33 54 36 55 50 56
REMARK SMILES IDX 69 57 34 58 35 59 49 61 70 62 37 63 21 64 22 65 30 66 23 67
REMARK SMILES IDX 24 68 28 69 31 70 25 71 26 72 29 73 27 74 53 75 54 76 62 77
REMARK SMILES IDX 55 78 56 79 60 80 63 81 57 82 58 83 61 84 59 85 38 86 39 87
REMARK SMILES IDX 47 88 40 89 41 90 45 91 48 92 42 93 43 94 46 95 44 96
REMARK H PARENT 5 6 88 22 9 30 68 49 36 60
REMARK Flexibility Score: inf
ROOT
ATOM      1  C   UNL A   1      31.682  31.673  26.600  1.00  0.00     0.042 C 
ENDROOT
BRANCH   1   2
ATOM      2  C   UNL A   1      31.772  30.164  26.794  1.00  0.00     0.117 C 
BRANCH   2   3
ATOM      3  N   UNL A   1      31.322  29.426  25.634  1.00  0.00    -0.354 N 
ATOM      4  C   UNL A   1      31.554  28.139  25.257  1.00  0.00     0.242 C 
ATOM      5  O   UNL A   1      30.815  27.695  24.371  1.00  0.00    -0.273 OA
ATOM      6  H   UNL A   1      30.753  29.939  25.015  1.00  0.00     0.163 HD
BRANCH   4   7
ATOM      7  C   UNL A   1      32.608  27.254  25.963  1.00  0.00     0.178 C 
ATOM      8  C   UNL A   1      34.021  27.811  26.127  1.00  0.00     0.042 C 
BRANCH   7   9
ATOM      9  N   UNL A   1      32.643  25.935  25.296  1.00  0.00    -0.281 N 
ATOM     10  C   UNL A   1      32.223  24.821  26.010  1.00  0.00     0.267 C 
ATOM     11  C   UNL A   1      33.111  25.701  24.012  1.00  0.00     0.149 C 
ATOM     12  O   UNL A   1      31.790  24.812  27.155  1.00  0.00    -0.268 OA
ATOM     13  C   UNL A   1      32.452  23.587  25.219  1.00  0.00     0.084 C 
ATOM     14  S   UNL A   1      32.889  24.014  23.609  1.00  0.00    -0.054 SA
ATOM     15  S   UNL A   1      33.819  26.748  22.918  1.00  0.00    -0.052 S 
ATOM     16  C   UNL A   1      32.379  22.358  25.755  1.00  0.00     0.068 C 
BRANCH  16  17
ATOM     17  C   UNL A   1      32.780  21.225  25.009  1.00  0.00     0.132 A 
ATOM     18  N   UNL A   1      32.125  20.580  24.068  1.00  0.00    -0.229 NA
ATOM     19  N   UNL A   1      33.974  20.599  25.281  1.00  0.00    -0.338 N 
ATOM     20  C   UNL A   1      32.799  19.410  23.877  1.00  0.00     0.089 A 
ATOM     21  C   UNL A   1      33.973  19.391  24.620  1.00  0.00     0.066 A 
ATOM     22  H   UNL A   1      34.699  20.951  25.846  1.00  0.00     0.168 HD
ATOM     23  C   UNL A   1      32.438  18.298  23.109  1.00  0.00     0.030 A 
ATOM     24  C   UNL A   1      34.845  18.301  24.627  1.00  0.00     0.028 A 
ATOM     25  C   UNL A   1      33.276  17.180  23.123  1.00  0.00     0.002 A 
ATOM     26  C   UNL A   1      34.460  17.188  23.865  1.00  0.00     0.002 A 
ENDBRANCH  16  17
ENDBRANCH   7   9
ENDBRANCH   4   7
ENDBRANCH   2   3
ENDBRANCH   1   2
BRANCH   1  27
ATOM     27  C   UNL A   1      32.872  32.452  27.155  1.00  0.00     0.118 C 
BRANCH  27  28
ATOM     28  N   UNL A   1      32.536  33.823  27.518  1.00  0.00    -0.352 N 
ATOM     29  C   UNL A   1      33.055  34.634  28.500  1.00  0.00     0.251 C 
ATOM     30  H   UNL A   1      31.825  34.233  26.975  1.00  0.00     0.163 HD
ATOM     31  O   UNL A   1      32.524  35.707  28.751  1.00  0.00    -0.269 OA
BRANCH  29  32
ATOM     32  C   UNL A   1      34.240  34.202  29.271  1.00  0.00     0.039 A 
ATOM     33  C   UNL A   1      34.052  33.489  30.460  1.00  0.00     0.014 A 
ATOM     34  C   UNL A   1      35.530  34.507  28.834  1.00  0.00     0.014 A 
ATOM     35  C   UNL A   1      35.157  33.011  31.166  1.00  0.00     0.010 A 
ATOM     36  C   UNL A   1      36.628  33.971  29.498  1.00  0.00     0.010 A 
ATOM     37  C   UNL A   1      36.453  33.212  30.666  1.00  0.00    -0.014 A 
BRANCH  37  38
ATOM     38  C   UNL A   1      37.653  32.643  31.331  1.00  0.00     0.031 A 
ATOM     39  C   UNL A   1      38.364  31.475  30.710  1.00  0.00     0.074 A 
ATOM     40  C   UNL A   1      38.021  33.091  32.545  1.00  0.00     0.049 A 
ATOM     41  N   UNL A   1      39.294  30.706  31.214  1.00  0.00    -0.248 NA
ATOM     42  C   UNL A   1      37.943  31.103  29.351  1.00  0.00     0.031 C 
ATOM     43  C   UNL A   1      37.387  34.193  33.269  1.00  0.00     0.029 A 
ATOM     44  N   UNL A   1      38.995  32.643  33.405  1.00  0.00    -0.354 N 
ATOM     45  C   UNL A   1      39.545  29.739  30.250  1.00  0.00     0.074 A 
ATOM     46  C   UNL A   1      38.642  29.998  29.147  1.00  0.00     0.031 C 
ATOM     47  C   UNL A   1      37.980  34.330  34.465  1.00  0.00     0.029 A 
ATOM     48  C   UNL A   1      39.002  33.298  34.612  1.00  0.00     0.049 A 
ATOM     49  H   UNL A   1      39.627  31.924  33.177  1.00  0.00     0.167 HD
ATOM     50  C   UNL A   1      40.453  28.735  30.278  1.00  0.00     0.037 A 
ATOM     51  C   UNL A   1      39.727  33.072  35.724  1.00  0.00     0.037 A 
ATOM     52  C   UNL A   1      41.366  28.502  31.366  1.00  0.00     0.049 A 
ATOM     53  C   UNL A   1      40.735  31.956  35.735  1.00  0.00     0.074 A 
ATOM     54  C   UNL A   1      42.373  27.557  31.461  1.00  0.00     0.029 A 
ATOM     55  N   UNL A   1      41.378  29.222  32.553  1.00  0.00    -0.354 N 
ATOM     56  N   UNL A   1      41.007  31.082  34.796  1.00  0.00    -0.248 NA
ATOM     57  C   UNL A   1      41.539  31.796  36.954  1.00  0.00     0.031 C 
ATOM     58  C   UNL A   1      42.965  27.677  32.723  1.00  0.00     0.029 A 
ATOM     59  C   UNL A   1      42.362  28.728  33.395  1.00  0.00     0.049 A 
ATOM     60  H   UNL A   1      40.778  29.973  32.764  1.00  0.00     0.167 HD
ATOM     61  C   UNL A   1      42.027  30.286  35.298  1.00  0.00     0.074 A 
ATOM     62  C   UNL A   1      42.330  30.783  36.624  1.00  0.00     0.031 C 
ATOM     63  C   UNL A   1      42.659  29.242  34.708  1.00  0.00     0.037 A 
BRANCH  50  64
ATOM     64  C   UNL A   1      40.489  27.806  29.099  1.00  0.00     0.064 A 
ATOM     65  C   UNL A   1      41.306  28.055  27.986  1.00  0.00     0.173 A 
ATOM     66  C   UNL A   1      39.697  26.648  29.083  1.00  0.00     0.173 A 
ATOM     67  F   UNL A   1      42.075  29.153  27.946  1.00  0.00    -0.203 F 
ATOM     68  C   UNL A   1      41.295  27.205  26.884  1.00  0.00     0.198 A 
ATOM     69  C   UNL A   1      39.712  25.782  27.994  1.00  0.00     0.198 A 
ATOM     70  F   UNL A   1      38.903  26.357  30.125  1.00  0.00    -0.203 F 
ATOM     71  F   UNL A   1      42.034  27.500  25.805  1.00  0.00    -0.200 F 
ATOM     72  C   UNL A   1      40.502  26.068  26.889  1.00  0.00     0.200 A 
ATOM     73  F   UNL A   1      38.956  24.676  28.006  1.00  0.00    -0.200 F 
ATOM     74  F   UNL A   1      40.490  25.252  25.826  1.00  0.00    -0.200 F 
ENDBRANCH  50  64
BRANCH  51  75
ATOM     75  C   UNL A   1      39.521  33.935  36.915  1.00  0.00     0.064 A 
ATOM     76  C   UNL A   1      38.723  33.507  37.984  1.00  0.00     0.173 A 
ATOM     77  C   UNL A   1      40.151  35.183  37.028  1.00  0.00     0.173 A 
ATOM     78  F   UNL A   1      38.087  32.328  37.913  1.00  0.00    -0.203 F 
ATOM     79  C   UNL A   1      38.559  34.297  39.120  1.00  0.00     0.198 A 
ATOM     80  C   UNL A   1      40.006  35.961  38.175  1.00  0.00     0.198 A 
ATOM     81  F   UNL A   1      40.932  35.634  36.034  1.00  0.00    -0.203 F 
ATOM     82  F   UNL A   1      37.772  33.875  40.118  1.00  0.00    -0.200 F 
ATOM     83  C   UNL A   1      39.208  35.519  39.218  1.00  0.00     0.200 A 
ATOM     84  F   UNL A   1      40.648  37.133  38.272  1.00  0.00    -0.200 F 
ATOM     85  F   UNL A   1      39.064  36.270  40.318  1.00  0.00    -0.200 F 
ENDBRANCH  51  75
BRANCH  63  86
ATOM     86  C   UNL A   1      43.771  28.583  35.469  1.00  0.00     0.064 A 
ATOM     87  C   UNL A   1      45.099  29.017  35.356  1.00  0.00     0.173 A 
ATOM     88  C   UNL A   1      43.487  27.556  36.384  1.00  0.00     0.173 A 
ATOM     89  F   UNL A   1      45.421  29.985  34.485  1.00  0.00    -0.203 F 
ATOM     90  C   UNL A   1      46.105  28.442  36.129  1.00  0.00     0.198 A 
ATOM     91  C   UNL A   1      44.491  27.002  37.172  1.00  0.00     0.198 A 
ATOM     92  F   UNL A   1      42.231  27.110  36.531  1.00  0.00    -0.203 F 
ATOM     93  F   UNL A   1      47.372  28.854  35.988  1.00  0.00    -0.200 F 
ATOM     94  C   UNL A   1      45.799  27.444  37.043  1.00  0.00     0.200 A 
ATOM     95  F   UNL A   1      44.192  26.047  38.062  1.00  0.00    -0.200 F 
ATOM     96  F   UNL A   1      46.766  26.906  37.798  1.00  0.00    -0.200 F 
ENDBRANCH  63  86
ENDBRANCH  37  38
ENDBRANCH  29  32
ENDBRANCH  27  28
ENDBRANCH   1  27
TORSDOF 12
ENDMDL
