MODEL 1
REMARK VINA RESULT:     -12.3      0.000      0.000
REMARK SMILES [NH3+][C@H](C(=O)NCCCNC(=O)c1ccc(-c2c3nc(c(-c4c(F)c(F)c(F)c(F)c4F)c4ccc([nH]4)c(-c4c(F)c(F)c(F)c(F)c4F)c4nc(c(-c5c(F)c(F)c(F)c(F)c5F)c5ccc2[nH]5)C=C4)C=C3)cc1)c1cc(F)c(F)c(F)c1F
REMARK SMILES IDX 7 1 6 2 5 3 3 4 4 5 2 7 1 8 75 12 76 13 83 14 77 15 81 16
REMARK SMILES IDX 84 17 78 18 79 19 82 20 80 21 8 22 9 23 10 24 11 26 12 27
REMARK SMILES IDX 13 28 74 29 14 30 73 31 15 32 16 33 17 34 67 35 18 36 72 37
REMARK SMILES IDX 66 38 68 39 19 40 71 41 65 42 64 43 20 45 52 46 32 47 51 48
REMARK SMILES IDX 33 49 36 50 50 51 69 52 34 53 35 54 49 56 70 57 37 58 21 59
REMARK SMILES IDX 22 60 30 61 23 62 24 63 28 64 31 65 25 66 26 67 29 68 27 69
REMARK SMILES IDX 53 70 54 71 62 72 55 73 56 74 60 75 63 76 57 77 58 78 61 79
REMARK SMILES IDX 59 80 38 81 39 82 47 83 40 84 41 85 45 86 48 87 42 88 43 89
REMARK SMILES IDX 46 90 44 91
REMARK H PARENT 5 6 1 9 1 10 1 11 9 25 68 44 36 55
REMARK Flexibility Score: inf
ROOT
ATOM      1  C   UNL A   1      32.986  27.707  25.608  1.00  0.00     0.042 C 
ENDROOT
BRANCH   1   2
ATOM      2  C   UNL A   1      31.754  27.961  26.475  1.00  0.00     0.118 C 
BRANCH   2   3
ATOM      3  N   UNL A   1      31.016  26.734  26.706  1.00  0.00    -0.351 N 
ATOM      4  C   UNL A   1      30.357  25.894  25.864  1.00  0.00     0.283 C 
ATOM      5  O   UNL A   1      29.729  24.974  26.409  1.00  0.00    -0.268 OA
ATOM      6  H   UNL A   1      30.987  26.457  27.650  1.00  0.00     0.163 HD
BRANCH   4   7
ATOM      7  C   UNL A   1      30.424  25.978  24.308  1.00  0.00     0.305 C 
BRANCH   7   8
ATOM      8  N   UNL A   1      30.037  24.659  23.750  1.00  0.00    -0.343 N 
ATOM      9  H   UNL A   1      29.086  24.433  24.040  1.00  0.00     0.345 HD
ATOM     10  H   UNL A   1      30.676  23.942  24.096  1.00  0.00     0.345 HD
ATOM     11  H   UNL A   1      30.084  24.692  22.732  1.00  0.00     0.345 HD
ENDBRANCH   7   8
BRANCH   7  12
ATOM     12  C   UNL A   1      29.607  27.062  23.644  1.00  0.00     0.061 A 
ATOM     13  C   UNL A   1      28.214  27.155  23.798  1.00  0.00     0.056 A 
ATOM     14  C   UNL A   1      30.255  28.040  22.870  1.00  0.00     0.171 A 
ATOM     15  C   UNL A   1      27.524  28.244  23.261  1.00  0.00     0.162 A 
ATOM     16  C   UNL A   1      29.556  29.117  22.334  1.00  0.00     0.198 A 
ATOM     17  F   UNL A   1      31.585  27.984  22.708  1.00  0.00    -0.203 F 
ATOM     18  F   UNL A   1      26.210  28.359  23.496  1.00  0.00    -0.204 F 
ATOM     19  C   UNL A   1      28.192  29.229  22.545  1.00  0.00     0.197 A 
ATOM     20  F   UNL A   1      30.215  30.072  21.663  1.00  0.00    -0.200 F 
ATOM     21  F   UNL A   1      27.526  30.299  22.090  1.00  0.00    -0.200 F 
ENDBRANCH   7  12
ENDBRANCH   4   7
ENDBRANCH   2   3
ENDBRANCH   1   2
BRANCH   1  22
ATOM     22  C   UNL A   1      33.755  28.976  25.268  1.00  0.00     0.118 C 
BRANCH  22  23
ATOM     23  N   UNL A   1      33.097  30.170  25.774  1.00  0.00    -0.352 N 
ATOM     24  C   UNL A   1      33.390  30.927  26.880  1.00  0.00     0.251 C 
ATOM     25  H   UNL A   1      32.326  30.480  25.245  1.00  0.00     0.163 HD
ATOM     26  O   UNL A   1      32.590  31.777  27.270  1.00  0.00    -0.269 OA
BRANCH  24  27
ATOM     27  C   UNL A   1      34.658  30.720  27.609  1.00  0.00     0.039 A 
ATOM     28  C   UNL A   1      35.602  31.751  27.647  1.00  0.00     0.014 A 
ATOM     29  C   UNL A   1      34.927  29.501  28.236  1.00  0.00     0.014 A 
ATOM     30  C   UNL A   1      36.791  31.578  28.360  1.00  0.00     0.010 A 
ATOM     31  C   UNL A   1      36.066  29.363  29.019  1.00  0.00     0.010 A 
ATOM     32  C   UNL A   1      37.018  30.393  29.076  1.00  0.00    -0.014 A 
BRANCH  32  33
ATOM     33  C   UNL A   1      38.258  30.171  29.860  1.00  0.00     0.031 A 
ATOM     34  C   UNL A   1      39.319  29.253  29.318  1.00  0.00     0.074 A 
ATOM     35  C   UNL A   1      38.387  30.701  31.090  1.00  0.00     0.049 A 
ATOM     36  N   UNL A   1      40.391  28.781  29.902  1.00  0.00    -0.248 NA
ATOM     37  C   UNL A   1      39.122  28.771  27.941  1.00  0.00     0.031 C 
ATOM     38  C   UNL A   1      37.414  31.581  31.738  1.00  0.00     0.029 A 
ATOM     39  N   UNL A   1      39.380  30.553  32.027  1.00  0.00    -0.354 N 
ATOM     40  C   UNL A   1      40.975  27.925  28.977  1.00  0.00     0.074 A 
ATOM     41  C   UNL A   1      40.109  27.897  27.818  1.00  0.00     0.031 C 
ATOM     42  C   UNL A   1      37.861  31.899  32.963  1.00  0.00     0.029 A 
ATOM     43  C   UNL A   1      39.123  31.207  33.206  1.00  0.00     0.049 A 
ATOM     44  H   UNL A   1      40.197  30.027  31.868  1.00  0.00     0.167 HD
ATOM     45  C   UNL A   1      42.140  27.240  29.078  1.00  0.00     0.037 A 
ATOM     46  C   UNL A   1      39.816  31.227  34.360  1.00  0.00     0.037 A 
ATOM     47  C   UNL A   1      43.004  27.293  30.227  1.00  0.00     0.049 A 
ATOM     48  C   UNL A   1      41.101  30.448  34.460  1.00  0.00     0.074 A 
ATOM     49  C   UNL A   1      44.232  26.683  30.412  1.00  0.00     0.029 A 
ATOM     50  N   UNL A   1      42.727  27.997  31.391  1.00  0.00    -0.354 N 
ATOM     51  N   UNL A   1      41.673  29.680  33.564  1.00  0.00    -0.248 NA
ATOM     52  C   UNL A   1      41.838  30.541  35.727  1.00  0.00     0.031 C 
ATOM     53  C   UNL A   1      44.669  26.970  31.710  1.00  0.00     0.029 A 
ATOM     54  C   UNL A   1      43.749  27.817  32.307  1.00  0.00     0.049 A 
ATOM     55  H   UNL A   1      41.922  28.543  31.542  1.00  0.00     0.167 HD
ATOM     56  C   UNL A   1      42.854  29.231  34.142  1.00  0.00     0.074 A 
ATOM     57  C   UNL A   1      42.915  29.812  35.467  1.00  0.00     0.031 C 
ATOM     58  C   UNL A   1      43.803  28.418  33.618  1.00  0.00     0.037 A 
BRANCH  45  59
ATOM     59  C   UNL A   1      42.529  26.367  27.918  1.00  0.00     0.064 A 
ATOM     60  C   UNL A   1      43.437  26.796  26.937  1.00  0.00     0.173 A 
ATOM     61  C   UNL A   1      41.988  25.080  27.785  1.00  0.00     0.173 A 
ATOM     62  F   UNL A   1      43.979  28.022  27.009  1.00  0.00    -0.203 F 
ATOM     63  C   UNL A   1      43.746  25.994  25.842  1.00  0.00     0.198 A 
ATOM     64  C   UNL A   1      42.330  24.263  26.710  1.00  0.00     0.198 A 
ATOM     65  F   UNL A   1      41.121  24.611  28.696  1.00  0.00    -0.203 F 
ATOM     66  F   UNL A   1      44.555  26.459  24.880  1.00  0.00    -0.200 F 
ATOM     67  C   UNL A   1      43.196  24.726  25.731  1.00  0.00     0.200 A 
ATOM     68  F   UNL A   1      41.809  23.032  26.614  1.00  0.00    -0.200 F 
ATOM     69  F   UNL A   1      43.492  23.955  24.676  1.00  0.00    -0.200 F 
ENDBRANCH  45  59
BRANCH  46  70
ATOM     70  C   UNL A   1      39.313  32.030  35.506  1.00  0.00     0.064 A 
ATOM     71  C   UNL A   1      38.480  31.456  36.476  1.00  0.00     0.173 A 
ATOM     72  C   UNL A   1      39.677  33.375  35.671  1.00  0.00     0.173 A 
ATOM     73  F   UNL A   1      38.089  30.179  36.352  1.00  0.00    -0.203 F 
ATOM     74  C   UNL A   1      38.017  32.200  37.559  1.00  0.00     0.198 A 
ATOM     75  C   UNL A   1      39.237  34.110  36.770  1.00  0.00     0.198 A 
ATOM     76  F   UNL A   1      40.478  33.969  34.775  1.00  0.00    -0.203 F 
ATOM     77  F   UNL A   1      37.191  31.638  38.451  1.00  0.00    -0.200 F 
ATOM     78  C   UNL A   1      38.403  33.524  37.710  1.00  0.00     0.200 A 
ATOM     79  F   UNL A   1      39.626  35.383  36.921  1.00  0.00    -0.200 F 
ATOM     80  F   UNL A   1      37.968  34.235  38.759  1.00  0.00    -0.200 F 
ENDBRANCH  46  70
BRANCH  58  81
ATOM     81  C   UNL A   1      45.028  28.150  34.446  1.00  0.00     0.064 A 
ATOM     82  C   UNL A   1      46.142  28.999  34.423  1.00  0.00     0.173 A 
ATOM     83  C   UNL A   1      45.048  27.062  35.334  1.00  0.00     0.173 A 
ATOM     84  F   UNL A   1      46.178  30.045  33.583  1.00  0.00    -0.203 F 
ATOM     85  C   UNL A   1      47.240  28.760  35.245  1.00  0.00     0.198 A 
ATOM     86  C   UNL A   1      46.133  26.845  36.178  1.00  0.00     0.198 A 
ATOM     87  F   UNL A   1      44.004  26.223  35.400  1.00  0.00    -0.203 F 
ATOM     88  F   UNL A   1      48.311  29.563  35.180  1.00  0.00    -0.200 F 
ATOM     89  C   UNL A   1      47.230  27.691  36.130  1.00  0.00     0.200 A 
ATOM     90  F   UNL A   1      46.113  25.822  37.043  1.00  0.00    -0.200 F 
ATOM     91  F   UNL A   1      48.279  27.475  36.935  1.00  0.00    -0.200 F 
ENDBRANCH  58  81
ENDBRANCH  32  33
ENDBRANCH  24  27
ENDBRANCH  22  23
ENDBRANCH   1  22
TORSDOF 12
ENDMDL
MODEL 2
REMARK VINA RESULT:     -12.1      4.677     10.036
REMARK SMILES [NH3+][C@H](C(=O)NCCCNC(=O)c1ccc(-c2c3nc(c(-c4c(F)c(F)c(F)c(F)c4F)c4ccc([nH]4)c(-c4c(F)c(F)c(F)c(F)c4F)c4nc(c(-c5c(F)c(F)c(F)c(F)c5F)c5ccc2[nH]5)C=C4)C=C3)cc1)c1cc(F)c(F)c(F)c1F
REMARK SMILES IDX 7 1 6 2 5 3 3 4 4 5 2 7 1 8 75 12 76 13 83 14 77 15 81 16
REMARK SMILES IDX 84 17 78 18 79 19 82 20 80 21 8 22 9 23 10 24 11 26 12 27
REMARK SMILES IDX 13 28 74 29 14 30 73 31 15 32 16 33 17 34 67 35 18 36 72 37
REMARK SMILES IDX 66 38 68 39 19 40 71 41 65 42 64 43 20 45 52 46 32 47 51 48
REMARK SMILES IDX 33 49 36 50 50 51 69 52 34 53 35 54 49 56 70 57 37 58 21 59
REMARK SMILES IDX 22 60 30 61 23 62 24 63 28 64 31 65 25 66 26 67 29 68 27 69
REMARK SMILES IDX 53 70 54 71 62 72 55 73 56 74 60 75 63 76 57 77 58 78 61 79
REMARK SMILES IDX 59 80 38 81 39 82 47 83 40 84 41 85 45 86 48 87 42 88 43 89
REMARK SMILES IDX 46 90 44 91
REMARK H PARENT 5 6 1 9 1 10 1 11 9 25 68 44 36 55
REMARK Flexibility Score: inf
ROOT
ATOM      1  C   UNL A   1      33.436  33.799  28.055  1.00  0.00     0.042 C 
ENDROOT
BRANCH   1   2
ATOM      2  C   UNL A   1      33.749  35.041  28.887  1.00  0.00     0.118 C 
BRANCH   2   3
ATOM      3  N   UNL A   1      32.868  35.136  30.035  1.00  0.00    -0.351 N 
ATOM      4  C   UNL A   1      33.105  35.404  31.348  1.00  0.00     0.283 C 
ATOM      5  O   UNL A   1      32.125  35.301  32.100  1.00  0.00    -0.268 OA
ATOM      6  H   UNL A   1      31.919  34.976  29.826  1.00  0.00     0.163 HD
BRANCH   4   7
ATOM      7  C   UNL A   1      34.472  35.901  31.910  1.00  0.00     0.305 C 
BRANCH   7   8
ATOM      8  N   UNL A   1      34.232  37.129  32.707  1.00  0.00    -0.343 N 
ATOM      9  H   UNL A   1      33.415  36.993  33.302  1.00  0.00     0.345 HD
ATOM     10  H   UNL A   1      34.068  37.916  32.079  1.00  0.00     0.345 HD
ATOM     11  H   UNL A   1      35.047  37.323  33.288  1.00  0.00     0.345 HD
ENDBRANCH   7   8
BRANCH   7  12
ATOM     12  C   UNL A   1      35.273  34.918  32.732  1.00  0.00     0.061 A 
ATOM     13  C   UNL A   1      35.245  34.914  34.137  1.00  0.00     0.056 A 
ATOM     14  C   UNL A   1      36.050  33.944  32.082  1.00  0.00     0.171 A 
ATOM     15  C   UNL A   1      35.908  33.910  34.845  1.00  0.00     0.162 A 
ATOM     16  C   UNL A   1      36.712  32.952  32.798  1.00  0.00     0.198 A 
ATOM     17  F   UNL A   1      36.093  33.916  30.743  1.00  0.00    -0.203 F 
ATOM     18  F   UNL A   1      35.795  33.873  36.179  1.00  0.00    -0.204 F 
ATOM     19  C   UNL A   1      36.627  32.924  34.181  1.00  0.00     0.197 A 
ATOM     20  F   UNL A   1      37.385  31.994  32.145  1.00  0.00    -0.200 F 
ATOM     21  F   UNL A   1      37.207  31.933  34.871  1.00  0.00    -0.200 F 
ENDBRANCH   7  12
ENDBRANCH   4   7
ENDBRANCH   2   3
ENDBRANCH   1   2
BRANCH   1  22
ATOM     22  C   UNL A   1      34.343  32.618  28.372  1.00  0.00     0.118 C 
BRANCH  22  23
ATOM     23  N   UNL A   1      33.709  31.344  28.071  1.00  0.00    -0.352 N 
ATOM     24  C   UNL A   1      34.278  30.111  27.871  1.00  0.00     0.251 C 
ATOM     25  H   UNL A   1      32.727  31.369  27.999  1.00  0.00     0.163 HD
ATOM     26  O   UNL A   1      33.601  29.192  27.413  1.00  0.00    -0.269 OA
BRANCH  24  27
ATOM     27  C   UNL A   1      35.702  29.886  28.193  1.00  0.00     0.039 A 
ATOM     28  C   UNL A   1      36.057  29.502  29.490  1.00  0.00     0.014 A 
ATOM     29  C   UNL A   1      36.689  30.078  27.224  1.00  0.00     0.014 A 
ATOM     30  C   UNL A   1      37.397  29.256  29.798  1.00  0.00     0.010 A 
ATOM     31  C   UNL A   1      38.008  29.746  27.507  1.00  0.00     0.010 A 
ATOM     32  C   UNL A   1      38.379  29.348  28.800  1.00  0.00    -0.014 A 
BRANCH  32  33
ATOM     33  C   UNL A   1      39.813  29.081  29.077  1.00  0.00     0.031 A 
ATOM     34  C   UNL A   1      40.652  30.152  29.718  1.00  0.00     0.074 A 
ATOM     35  C   UNL A   1      40.381  27.934  28.664  1.00  0.00     0.049 A 
ATOM     36  N   UNL A   1      41.948  30.203  29.890  1.00  0.00    -0.248 NA
ATOM     37  C   UNL A   1      39.934  31.346  30.192  1.00  0.00     0.031 C 
ATOM     38  C   UNL A   1      39.679  26.832  28.004  1.00  0.00     0.029 A 
ATOM     39  N   UNL A   1      41.687  27.515  28.715  1.00  0.00    -0.354 N 
ATOM     40  C   UNL A   1      42.201  31.443  30.463  1.00  0.00     0.074 A 
ATOM     41  C   UNL A   1      40.934  32.135  30.553  1.00  0.00     0.031 C 
ATOM     42  C   UNL A   1      40.561  25.862  27.716  1.00  0.00     0.029 A 
ATOM     43  C   UNL A   1      41.895  26.292  28.125  1.00  0.00     0.049 A 
ATOM     44  H   UNL A   1      42.406  28.041  29.133  1.00  0.00     0.167 HD
ATOM     45  C   UNL A   1      43.382  31.950  30.893  1.00  0.00     0.037 A 
ATOM     46  C   UNL A   1      43.036  25.608  27.917  1.00  0.00     0.037 A 
ATOM     47  C   UNL A   1      44.633  31.243  30.818  1.00  0.00     0.049 A 
ATOM     48  C   UNL A   1      44.340  26.193  28.388  1.00  0.00     0.074 A 
ATOM     49  C   UNL A   1      45.877  31.641  31.273  1.00  0.00     0.029 A 
ATOM     50  N   UNL A   1      44.797  29.989  30.245  1.00  0.00    -0.354 N 
ATOM     51  N   UNL A   1      44.566  27.345  28.974  1.00  0.00    -0.248 NA
ATOM     52  C   UNL A   1      45.548  25.383  28.175  1.00  0.00     0.031 C 
ATOM     53  C   UNL A   1      46.804  30.654  30.923  1.00  0.00     0.029 A 
ATOM     54  C   UNL A   1      46.127  29.609  30.314  1.00  0.00     0.049 A 
ATOM     55  H   UNL A   1      44.075  29.450  29.848  1.00  0.00     0.167 HD
ATOM     56  C   UNL A   1      45.930  27.381  29.234  1.00  0.00     0.074 A 
ATOM     57  C   UNL A   1      46.481  26.136  28.741  1.00  0.00     0.031 C 
ATOM     58  C   UNL A   1      46.657  28.356  29.834  1.00  0.00     0.037 A 
BRANCH  45  59
ATOM     59  C   UNL A   1      43.368  33.340  31.465  1.00  0.00     0.064 A 
ATOM     60  C   UNL A   1      43.256  33.574  32.846  1.00  0.00     0.173 A 
ATOM     61  C   UNL A   1      43.469  34.456  30.622  1.00  0.00     0.173 A 
ATOM     62  F   UNL A   1      43.147  32.543  33.698  1.00  0.00    -0.203 F 
ATOM     63  C   UNL A   1      43.193  34.868  33.353  1.00  0.00     0.198 A 
ATOM     64  C   UNL A   1      43.446  35.751  31.136  1.00  0.00     0.198 A 
ATOM     65  F   UNL A   1      43.586  34.295  29.295  1.00  0.00    -0.203 F 
ATOM     66  F   UNL A   1      43.008  35.063  34.666  1.00  0.00    -0.200 F 
ATOM     67  C   UNL A   1      43.292  35.956  32.499  1.00  0.00     0.200 A 
ATOM     68  F   UNL A   1      43.558  36.800  30.310  1.00  0.00    -0.200 F 
ATOM     69  F   UNL A   1      43.229  37.202  32.988  1.00  0.00    -0.200 F 
ENDBRANCH  45  59
BRANCH  46  70
ATOM     70  C   UNL A   1      42.986  24.283  27.246  1.00  0.00     0.064 A 
ATOM     71  C   UNL A   1      43.302  24.152  25.886  1.00  0.00     0.173 A 
ATOM     72  C   UNL A   1      42.650  23.118  27.952  1.00  0.00     0.173 A 
ATOM     73  F   UNL A   1      43.611  25.239  25.164  1.00  0.00    -0.203 F 
ATOM     74  C   UNL A   1      43.270  22.910  25.255  1.00  0.00     0.198 A 
ATOM     75  C   UNL A   1      42.647  21.873  27.327  1.00  0.00     0.198 A 
ATOM     76  F   UNL A   1      42.346  23.187  29.256  1.00  0.00    -0.203 F 
ATOM     77  F   UNL A   1      43.540  22.819  23.946  1.00  0.00    -0.200 F 
ATOM     78  C   UNL A   1      42.951  21.770  25.978  1.00  0.00     0.200 A 
ATOM     79  F   UNL A   1      42.354  20.772  28.033  1.00  0.00    -0.200 F 
ATOM     80  F   UNL A   1      42.934  20.574  25.374  1.00  0.00    -0.200 F 
ENDBRANCH  46  70
BRANCH  58  81
ATOM     81  C   UNL A   1      48.121  28.100  30.054  1.00  0.00     0.064 A 
ATOM     82  C   UNL A   1      48.598  27.443  31.196  1.00  0.00     0.173 A 
ATOM     83  C   UNL A   1      49.050  28.455  29.063  1.00  0.00     0.173 A 
ATOM     84  F   UNL A   1      47.753  27.095  32.178  1.00  0.00    -0.203 F 
ATOM     85  C   UNL A   1      49.954  27.166  31.347  1.00  0.00     0.198 A 
ATOM     86  C   UNL A   1      50.400  28.147  29.201  1.00  0.00     0.198 A 
ATOM     87  F   UNL A   1      48.644  29.080  27.947  1.00  0.00    -0.203 F 
ATOM     88  F   UNL A   1      50.394  26.570  32.464  1.00  0.00    -0.200 F 
ATOM     89  C   UNL A   1      50.852  27.506  30.345  1.00  0.00     0.200 A 
ATOM     90  F   UNL A   1      51.262  28.462  28.225  1.00  0.00    -0.200 F 
ATOM     91  F   UNL A   1      52.153  27.220  30.484  1.00  0.00    -0.200 F 
ENDBRANCH  58  81
ENDBRANCH  32  33
ENDBRANCH  24  27
ENDBRANCH  22  23
ENDBRANCH   1  22
TORSDOF 12
ENDMDL
MODEL 3
REMARK VINA RESULT:     -12.1      2.310      7.858
REMARK SMILES [NH3+][C@H](C(=O)NCCCNC(=O)c1ccc(-c2c3nc(c(-c4c(F)c(F)c(F)c(F)c4F)c4ccc([nH]4)c(-c4c(F)c(F)c(F)c(F)c4F)c4nc(c(-c5c(F)c(F)c(F)c(F)c5F)c5ccc2[nH]5)C=C4)C=C3)cc1)c1cc(F)c(F)c(F)c1F
REMARK SMILES IDX 7 1 6 2 5 3 3 4 4 5 2 7 1 8 75 12 76 13 83 14 77 15 81 16
REMARK SMILES IDX 84 17 78 18 79 19 82 20 80 21 8 22 9 23 10 24 11 26 12 27
REMARK SMILES IDX 13 28 74 29 14 30 73 31 15 32 16 33 17 34 67 35 18 36 72 37
REMARK SMILES IDX 66 38 68 39 19 40 71 41 65 42 64 43 20 45 52 46 32 47 51 48
REMARK SMILES IDX 33 49 36 50 50 51 69 52 34 53 35 54 49 56 70 57 37 58 21 59
REMARK SMILES IDX 22 60 30 61 23 62 24 63 28 64 31 65 25 66 26 67 29 68 27 69
REMARK SMILES IDX 53 70 54 71 62 72 55 73 56 74 60 75 63 76 57 77 58 78 61 79
REMARK SMILES IDX 59 80 38 81 39 82 47 83 40 84 41 85 45 86 48 87 42 88 43 89
REMARK SMILES IDX 46 90 44 91
REMARK H PARENT 5 6 1 9 1 10 1 11 9 25 68 44 36 55
REMARK Flexibility Score: inf
ROOT
ATOM      1  C   UNL A   1      33.335  27.510  26.533  1.00  0.00     0.042 C 
ENDROOT
BRANCH   1   2
ATOM      2  C   UNL A   1      31.861  27.881  26.685  1.00  0.00     0.118 C 
BRANCH   2   3
ATOM      3  N   UNL A   1      31.042  26.699  26.872  1.00  0.00    -0.351 N 
ATOM      4  C   UNL A   1      30.366  25.909  25.995  1.00  0.00     0.283 C 
ATOM      5  O   UNL A   1      29.663  25.024  26.504  1.00  0.00    -0.268 OA
ATOM      6  H   UNL A   1      30.958  26.415  27.812  1.00  0.00     0.163 HD
BRANCH   4   7
ATOM      7  C   UNL A   1      30.500  26.003  24.444  1.00  0.00     0.305 C 
BRANCH   7   8
ATOM      8  N   UNL A   1      30.178  24.676  23.865  1.00  0.00    -0.343 N 
ATOM      9  H   UNL A   1      30.157  24.746  22.847  1.00  0.00     0.345 HD
ATOM     10  H   UNL A   1      29.266  24.369  24.203  1.00  0.00     0.345 HD
ATOM     11  H   UNL A   1      30.889  24.000  24.144  1.00  0.00     0.345 HD
ENDBRANCH   7   8
BRANCH   7  12
ATOM     12  C   UNL A   1      29.682  27.066  23.749  1.00  0.00     0.061 A 
ATOM     13  C   UNL A   1      28.283  27.137  23.869  1.00  0.00     0.056 A 
ATOM     14  C   UNL A   1      30.331  28.046  22.980  1.00  0.00     0.171 A 
ATOM     15  C   UNL A   1      27.588  28.208  23.303  1.00  0.00     0.162 A 
ATOM     16  C   UNL A   1      29.627  29.106  22.416  1.00  0.00     0.198 A 
ATOM     17  F   UNL A   1      31.665  28.012  22.851  1.00  0.00    -0.203 F 
ATOM     18  F   UNL A   1      26.268  28.303  23.505  1.00  0.00    -0.204 F 
ATOM     19  C   UNL A   1      28.256  29.196  22.592  1.00  0.00     0.197 A 
ATOM     20  F   UNL A   1      30.286  30.065  21.750  1.00  0.00    -0.200 F 
ATOM     21  F   UNL A   1      27.583  30.250  22.109  1.00  0.00    -0.200 F 
ENDBRANCH   7  12
ENDBRANCH   4   7
ENDBRANCH   2   3
ENDBRANCH   1   2
BRANCH   1  22
ATOM     22  C   UNL A   1      34.168  28.606  25.885  1.00  0.00     0.118 C 
BRANCH  22  23
ATOM     23  N   UNL A   1      33.829  29.927  26.391  1.00  0.00    -0.352 N 
ATOM     24  C   UNL A   1      34.413  30.653  27.398  1.00  0.00     0.251 C 
ATOM     25  H   UNL A   1      33.067  30.364  25.946  1.00  0.00     0.163 HD
ATOM     26  O   UNL A   1      33.853  31.660  27.831  1.00  0.00    -0.269 OA
BRANCH  24  27
ATOM     27  C   UNL A   1      35.705  30.225  27.972  1.00  0.00     0.039 A 
ATOM     28  C   UNL A   1      35.738  29.701  29.268  1.00  0.00     0.014 A 
ATOM     29  C   UNL A   1      36.888  30.363  27.242  1.00  0.00     0.014 A 
ATOM     30  C   UNL A   1      36.950  29.265  29.810  1.00  0.00     0.010 A 
ATOM     31  C   UNL A   1      38.075  29.846  27.745  1.00  0.00     0.010 A 
ATOM     32  C   UNL A   1      38.122  29.307  29.040  1.00  0.00    -0.014 A 
BRANCH  32  33
ATOM     33  C   UNL A   1      39.429  28.840  29.567  1.00  0.00     0.031 A 
ATOM     34  C   UNL A   1      40.193  29.713  30.523  1.00  0.00     0.074 A 
ATOM     35  C   UNL A   1      39.973  27.696  29.114  1.00  0.00     0.049 A 
ATOM     36  N   UNL A   1      41.417  29.589  30.969  1.00  0.00    -0.248 NA
ATOM     37  C   UNL A   1      39.494  30.913  31.012  1.00  0.00     0.031 C 
ATOM     38  C   UNL A   1      39.344  26.778  28.163  1.00  0.00     0.029 A 
ATOM     39  N   UNL A   1      41.194  27.123  29.373  1.00  0.00    -0.354 N 
ATOM     40  C   UNL A   1      41.642  30.707  31.762  1.00  0.00     0.074 A 
ATOM     41  C   UNL A   1      40.452  31.526  31.689  1.00  0.00     0.031 C 
ATOM     42  C   UNL A   1      40.181  25.757  27.924  1.00  0.00     0.029 A 
ATOM     43  C   UNL A   1      41.421  25.971  28.662  1.00  0.00     0.049 A 
ATOM     44  H   UNL A   1      41.843  27.504  30.008  1.00  0.00     0.167 HD
ATOM     45  C   UNL A   1      42.736  31.012  32.502  1.00  0.00     0.037 A 
ATOM     46  C   UNL A   1      42.516  25.190  28.597  1.00  0.00     0.037 A 
ATOM     47  C   UNL A   1      43.906  30.179  32.584  1.00  0.00     0.049 A 
ATOM     48  C   UNL A   1      43.727  25.552  29.414  1.00  0.00     0.074 A 
ATOM     49  C   UNL A   1      45.046  30.366  33.345  1.00  0.00     0.029 A 
ATOM     50  N   UNL A   1      44.085  28.998  31.876  1.00  0.00    -0.354 N 
ATOM     51  N   UNL A   1      43.916  26.584  30.201  1.00  0.00    -0.248 NA
ATOM     52  C   UNL A   1      44.877  24.640  29.338  1.00  0.00     0.031 C 
ATOM     53  C   UNL A   1      45.939  29.330  33.051  1.00  0.00     0.029 A 
ATOM     54  C   UNL A   1      45.327  28.459  32.163  1.00  0.00     0.049 A 
ATOM     55  H   UNL A   1      43.426  28.604  31.260  1.00  0.00     0.167 HD
ATOM     56  C   UNL A   1      45.185  26.427  30.743  1.00  0.00     0.074 A 
ATOM     57  C   UNL A   1      45.722  25.199  30.194  1.00  0.00     0.031 C 
ATOM     58  C   UNL A   1      45.840  27.224  31.622  1.00  0.00     0.037 A 
BRANCH  45  59
ATOM     59  C   UNL A   1      42.715  32.309  33.261  1.00  0.00     0.064 A 
ATOM     60  C   UNL A   1      42.234  32.391  34.578  1.00  0.00     0.173 A 
ATOM     61  C   UNL A   1      43.183  33.490  32.665  1.00  0.00     0.173 A 
ATOM     62  F   UNL A   1      41.765  31.295  35.194  1.00  0.00    -0.203 F 
ATOM     63  C   UNL A   1      42.174  33.610  35.248  1.00  0.00     0.198 A 
ATOM     64  C   UNL A   1      43.160  34.701  33.352  1.00  0.00     0.198 A 
ATOM     65  F   UNL A   1      43.663  33.472  31.412  1.00  0.00    -0.203 F 
ATOM     66  F   UNL A   1      41.639  33.673  36.474  1.00  0.00    -0.200 F 
ATOM     67  C   UNL A   1      42.641  34.763  34.636  1.00  0.00     0.200 A 
ATOM     68  F   UNL A   1      43.627  35.812  32.765  1.00  0.00    -0.200 F 
ATOM     69  F   UNL A   1      42.581  35.937  35.280  1.00  0.00    -0.200 F 
ENDBRANCH  45  59
BRANCH  46  70
ATOM     70  C   UNL A   1      42.502  23.976  27.738  1.00  0.00     0.064 A 
ATOM     71  C   UNL A   1      42.817  24.057  26.375  1.00  0.00     0.173 A 
ATOM     72  C   UNL A   1      42.204  22.711  28.266  1.00  0.00     0.173 A 
ATOM     73  F   UNL A   1      43.090  25.247  25.820  1.00  0.00    -0.203 F 
ATOM     74  C   UNL A   1      42.819  22.921  25.568  1.00  0.00     0.198 A 
ATOM     75  C   UNL A   1      42.236  21.572  27.464  1.00  0.00     0.198 A 
ATOM     76  F   UNL A   1      41.904  22.579  29.566  1.00  0.00    -0.203 F 
ATOM     77  F   UNL A   1      43.086  23.032  24.260  1.00  0.00    -0.200 F 
ATOM     78  C   UNL A   1      42.538  21.678  26.115  1.00  0.00     0.200 A 
ATOM     79  F   UNL A   1      41.979  20.371  28.001  1.00  0.00    -0.200 F 
ATOM     80  F   UNL A   1      42.553  20.584  25.341  1.00  0.00    -0.200 F 
ENDBRANCH  46  70
BRANCH  58  81
ATOM     81  C   UNL A   1      47.190  26.771  32.101  1.00  0.00     0.064 A 
ATOM     82  C   UNL A   1      47.338  25.870  33.164  1.00  0.00     0.173 A 
ATOM     83  C   UNL A   1      48.350  27.195  31.432  1.00  0.00     0.173 A 
ATOM     84  F   UNL A   1      46.263  25.445  33.844  1.00  0.00    -0.203 F 
ATOM     85  C   UNL A   1      48.599  25.421  33.550  1.00  0.00     0.198 A 
ATOM     86  C   UNL A   1      49.605  26.720  31.799  1.00  0.00     0.198 A 
ATOM     87  F   UNL A   1      48.262  28.053  30.404  1.00  0.00    -0.203 F 
ATOM     88  F   UNL A   1      48.721  24.588  34.593  1.00  0.00    -0.200 F 
ATOM     89  C   UNL A   1      49.729  25.836  32.861  1.00  0.00     0.200 A 
ATOM     90  F   UNL A   1      50.693  27.109  31.121  1.00  0.00    -0.200 F 
ATOM     91  F   UNL A   1      50.939  25.387  33.221  1.00  0.00    -0.200 F 
ENDBRANCH  58  81
ENDBRANCH  32  33
ENDBRANCH  24  27
ENDBRANCH  22  23
ENDBRANCH   1  22
TORSDOF 12
ENDMDL
