MODEL 1
REMARK VINA RESULT:     -10.7      0.000      0.000
REMARK SMILES C[C@H]1CCC[C@H](C(C)(C)C(=O)NCCCNC(=O)c2ccc(-c3c4nc(c(-c5c(F)c(F)c(F)c(F)c5F)c5ccc([nH]5)c(-c5c(F)c(F)c(F)c(F)c5F)c5nc(c(-c6c(F)c(F)c(F)c(F)c6F)c6ccc3[nH]6)C=C5)C=C4)cc2)C1
REMARK SMILES IDX 14 1 13 2 12 3 10 4 11 5 7 7 8 8 9 9 6 10 1 11 2 12 3 13
REMARK SMILES IDX 82 14 4 15 5 16 15 17 16 18 17 19 18 21 19 22 20 23 81 24
REMARK SMILES IDX 21 25 80 26 22 27 23 28 24 29 74 30 25 31 79 32 73 33 75 34
REMARK SMILES IDX 26 35 78 36 72 37 71 38 27 40 59 41 39 42 58 43 40 44 43 45
REMARK SMILES IDX 57 46 76 47 41 48 42 49 56 51 77 52 44 53 28 54 29 55 37 56
REMARK SMILES IDX 30 57 31 58 35 59 38 60 32 61 33 62 36 63 34 64 60 65 61 66
REMARK SMILES IDX 69 67 62 68 63 69 67 70 70 71 64 72 65 73 68 74 66 75 45 76
REMARK SMILES IDX 46 77 54 78 47 79 48 80 52 81 55 82 49 83 50 84 53 85 51 86
REMARK H PARENT 12 6 16 20 75 39 43 50
REMARK Flexibility Score: inf
ROOT
ATOM      1  C   UNL A   1      31.320  32.269  26.501  1.00  0.00     0.042 C 
ENDROOT
BRANCH   1   2
ATOM      2  C   UNL A   1      31.476  30.821  26.046  1.00  0.00     0.117 C 
BRANCH   2   3
ATOM      3  N   UNL A   1      32.631  30.199  26.661  1.00  0.00    -0.356 N 
ATOM      4  C   UNL A   1      33.222  28.984  26.578  1.00  0.00     0.225 C 
ATOM      5  O   UNL A   1      34.039  28.797  27.480  1.00  0.00    -0.275 OA
ATOM      6  H   UNL A   1      33.095  30.802  27.285  1.00  0.00     0.163 HD
BRANCH   4   7
ATOM      7  C   UNL A   1      32.938  27.954  25.463  1.00  0.00     0.046 C 
ATOM      8  C   UNL A   1      33.776  26.688  25.772  1.00  0.00     0.022 C 
ATOM      9  C   UNL A   1      33.372  28.526  24.097  1.00  0.00     0.022 C 
BRANCH   7  10
ATOM     10  C   UNL A   1      31.413  27.494  25.340  1.00  0.00     0.004 C 
ATOM     11  C   UNL A   1      30.687  23.753  26.261  1.00  0.00     0.007 C 
ATOM     12  C   UNL A   1      31.244  24.915  25.434  1.00  0.00    -0.014 C 
ATOM     13  C   UNL A   1      30.645  24.890  24.020  1.00  0.00     0.003 C 
ATOM     14  C   UNL A   1      30.968  26.245  26.132  1.00  0.00     0.008 C 
ATOM     15  C   UNL A   1      30.911  26.133  23.172  1.00  0.00     0.001 C 
ATOM     16  C   UNL A   1      30.786  27.452  23.929  1.00  0.00     0.005 C 
ENDBRANCH   7  10
ENDBRANCH   4   7
ENDBRANCH   2   3
ENDBRANCH   1   2
BRANCH   1  17
ATOM     17  C   UNL A   1      32.530  32.824  27.253  1.00  0.00     0.118 C 
BRANCH  17  18
ATOM     18  N   UNL A   1      32.370  34.223  27.627  1.00  0.00    -0.352 N 
ATOM     19  C   UNL A   1      32.979  34.956  28.610  1.00  0.00     0.251 C 
ATOM     20  H   UNL A   1      31.717  34.723  27.085  1.00  0.00     0.163 HD
ATOM     21  O   UNL A   1      32.553  36.079  28.886  1.00  0.00    -0.269 OA
BRANCH  19  22
ATOM     22  C   UNL A   1      34.128  34.409  29.357  1.00  0.00     0.039 A 
ATOM     23  C   UNL A   1      33.891  33.752  30.568  1.00  0.00     0.014 A 
ATOM     24  C   UNL A   1      35.435  34.567  28.890  1.00  0.00     0.014 A 
ATOM     25  C   UNL A   1      34.958  33.192  31.272  1.00  0.00     0.010 A 
ATOM     26  C   UNL A   1      36.488  33.941  29.552  1.00  0.00     0.010 A 
ATOM     27  C   UNL A   1      36.261  33.250  30.750  1.00  0.00    -0.014 A 
BRANCH  27  28
ATOM     28  C   UNL A   1      37.393  32.586  31.445  1.00  0.00     0.031 A 
ATOM     29  C   UNL A   1      38.105  31.429  30.803  1.00  0.00     0.074 A 
ATOM     30  C   UNL A   1      37.736  32.989  32.684  1.00  0.00     0.049 A 
ATOM     31  N   UNL A   1      39.080  30.692  31.274  1.00  0.00    -0.248 NA
ATOM     32  C   UNL A   1      37.644  31.028  29.465  1.00  0.00     0.031 C 
ATOM     33  C   UNL A   1      37.082  34.062  33.435  1.00  0.00     0.029 A 
ATOM     34  N   UNL A   1      38.715  32.538  33.532  1.00  0.00    -0.354 N 
ATOM     35  C   UNL A   1      39.336  29.737  30.301  1.00  0.00     0.074 A 
ATOM     36  C   UNL A   1      38.381  29.952  29.235  1.00  0.00     0.031 C 
ATOM     37  C   UNL A   1      37.695  34.204  34.621  1.00  0.00     0.029 A 
ATOM     38  C   UNL A   1      38.759  33.211  34.729  1.00  0.00     0.049 A 
ATOM     39  H   UNL A   1      39.329  31.803  33.306  1.00  0.00     0.167 HD
ATOM     40  C   UNL A   1      40.296  28.781  30.286  1.00  0.00     0.037 A 
ATOM     41  C   UNL A   1      39.566  33.045  35.794  1.00  0.00     0.037 A 
ATOM     42  C   UNL A   1      41.263  28.589  31.335  1.00  0.00     0.049 A 
ATOM     43  C   UNL A   1      40.632  31.984  35.747  1.00  0.00     0.074 A 
ATOM     44  C   UNL A   1      42.317  27.693  31.385  1.00  0.00     0.029 A 
ATOM     45  N   UNL A   1      41.290  29.305  32.523  1.00  0.00    -0.354 N 
ATOM     46  N   UNL A   1      40.912  31.135  34.789  1.00  0.00    -0.248 NA
ATOM     47  C   UNL A   1      41.498  31.866  36.927  1.00  0.00     0.031 C 
ATOM     48  C   UNL A   1      42.956  27.839  32.622  1.00  0.00     0.029 A 
ATOM     49  C   UNL A   1      42.330  28.858  33.322  1.00  0.00     0.049 A 
ATOM     50  H   UNL A   1      40.662  30.026  32.764  1.00  0.00     0.167 HD
ATOM     51  C   UNL A   1      42.000  30.399  35.238  1.00  0.00     0.074 A 
ATOM     52  C   UNL A   1      42.340  30.916  36.547  1.00  0.00     0.031 C 
ATOM     53  C   UNL A   1      42.656  29.384  34.622  1.00  0.00     0.037 A 
BRANCH  40  54
ATOM     54  C   UNL A   1      40.353  27.873  29.091  1.00  0.00     0.064 A 
ATOM     55  C   UNL A   1      39.633  26.671  29.046  1.00  0.00     0.173 A 
ATOM     56  C   UNL A   1      41.109  28.227  27.963  1.00  0.00     0.173 A 
ATOM     57  F   UNL A   1      38.904  26.280  30.103  1.00  0.00    -0.203 F 
ATOM     58  C   UNL A   1      39.691  25.841  27.929  1.00  0.00     0.198 A 
ATOM     59  C   UNL A   1      41.141  27.409  26.836  1.00  0.00     0.198 A 
ATOM     60  F   UNL A   1      41.812  29.369  27.950  1.00  0.00    -0.203 F 
ATOM     61  F   UNL A   1      39.034  24.672  27.929  1.00  0.00    -0.200 F 
ATOM     62  C   UNL A   1      40.439  26.213  26.823  1.00  0.00     0.200 A 
ATOM     63  F   UNL A   1      41.854  27.777  25.763  1.00  0.00    -0.200 F 
ATOM     64  F   UNL A   1      40.488  25.418  25.746  1.00  0.00    -0.200 F 
ENDBRANCH  40  54
BRANCH  41  65
ATOM     65  C   UNL A   1      39.417  33.924  36.982  1.00  0.00     0.064 A 
ATOM     66  C   UNL A   1      40.022  35.187  37.021  1.00  0.00     0.173 A 
ATOM     67  C   UNL A   1      38.670  33.522  38.100  1.00  0.00     0.173 A 
ATOM     68  F   UNL A   1      40.763  35.606  35.985  1.00  0.00    -0.203 F 
ATOM     69  C   UNL A   1      39.904  36.008  38.141  1.00  0.00     0.198 A 
ATOM     70  C   UNL A   1      38.529  34.356  39.207  1.00  0.00     0.198 A 
ATOM     71  F   UNL A   1      38.064  32.326  38.109  1.00  0.00    -0.203 F 
ATOM     72  F   UNL A   1      40.531  37.192  38.170  1.00  0.00    -0.200 F 
ATOM     73  C   UNL A   1      39.153  35.594  39.231  1.00  0.00     0.200 A 
ATOM     74  F   UNL A   1      37.790  33.959  40.252  1.00  0.00    -0.200 F 
ATOM     75  F   UNL A   1      39.036  36.385  40.306  1.00  0.00    -0.200 F 
ENDBRANCH  41  65
BRANCH  53  76
ATOM     76  C   UNL A   1      43.825  28.786  35.349  1.00  0.00     0.064 A 
ATOM     77  C   UNL A   1      45.130  29.262  35.159  1.00  0.00     0.173 A 
ATOM     78  C   UNL A   1      43.632  27.742  36.266  1.00  0.00     0.173 A 
ATOM     79  F   UNL A   1      45.368  30.248  34.280  1.00  0.00    -0.203 F 
ATOM     80  C   UNL A   1      46.204  28.695  35.840  1.00  0.00     0.198 A 
ATOM     81  C   UNL A   1      44.704  27.198  36.968  1.00  0.00     0.198 A 
ATOM     82  F   UNL A   1      42.402  27.254  36.488  1.00  0.00    -0.203 F 
ATOM     83  F   UNL A   1      47.450  29.131  35.604  1.00  0.00    -0.200 F 
ATOM     84  C   UNL A   1      45.990  27.669  36.747  1.00  0.00     0.200 A 
ATOM     85  F   UNL A   1      44.494  26.214  37.853  1.00  0.00    -0.200 F 
ATOM     86  F   UNL A   1      47.025  27.127  37.403  1.00  0.00    -0.200 F 
ENDBRANCH  53  76
ENDBRANCH  27  28
ENDBRANCH  19  22
ENDBRANCH  17  18
ENDBRANCH   1  17
TORSDOF 11
ENDMDL
MODEL 2
REMARK VINA RESULT:     -10.7      0.551      2.185
REMARK SMILES C[C@H]1CCC[C@H](C(C)(C)C(=O)NCCCNC(=O)c2ccc(-c3c4nc(c(-c5c(F)c(F)c(F)c(F)c5F)c5ccc([nH]5)c(-c5c(F)c(F)c(F)c(F)c5F)c5nc(c(-c6c(F)c(F)c(F)c(F)c6F)c6ccc3[nH]6)C=C5)C=C4)cc2)C1
REMARK SMILES IDX 14 1 13 2 12 3 10 4 11 5 7 7 8 8 9 9 6 10 1 11 2 12 3 13
REMARK SMILES IDX 82 14 4 15 5 16 15 17 16 18 17 19 18 21 19 22 20 23 81 24
REMARK SMILES IDX 21 25 80 26 22 27 23 28 24 29 74 30 25 31 79 32 73 33 75 34
REMARK SMILES IDX 26 35 78 36 72 37 71 38 27 40 59 41 39 42 58 43 40 44 43 45
REMARK SMILES IDX 57 46 76 47 41 48 42 49 56 51 77 52 44 53 28 54 29 55 37 56
REMARK SMILES IDX 30 57 31 58 35 59 38 60 32 61 33 62 36 63 34 64 60 65 61 66
REMARK SMILES IDX 69 67 62 68 63 69 67 70 70 71 64 72 65 73 68 74 66 75 45 76
REMARK SMILES IDX 46 77 54 78 47 79 48 80 52 81 55 82 49 83 50 84 53 85 51 86
REMARK H PARENT 12 6 16 20 75 39 43 50
REMARK Flexibility Score: inf
ROOT
ATOM      1  C   UNL A   1      31.322  32.310  26.496  1.00  0.00     0.042 C 
ENDROOT
BRANCH   1   2
ATOM      2  C   UNL A   1      31.438  30.836  26.119  1.00  0.00     0.117 C 
BRANCH   2   3
ATOM      3  N   UNL A   1      32.808  30.375  26.218  1.00  0.00    -0.356 N 
ATOM      4  C   UNL A   1      33.409  29.164  26.269  1.00  0.00     0.225 C 
ATOM      5  O   UNL A   1      34.587  29.239  26.617  1.00  0.00    -0.275 OA
ATOM      6  H   UNL A   1      33.453  31.118  26.258  1.00  0.00     0.163 HD
BRANCH   4   7
ATOM      7  C   UNL A   1      32.716  27.833  25.900  1.00  0.00     0.046 C 
ATOM      8  C   UNL A   1      31.697  27.511  27.022  1.00  0.00     0.022 C 
ATOM      9  C   UNL A   1      33.761  26.699  25.827  1.00  0.00     0.022 C 
BRANCH   7  10
ATOM     10  C   UNL A   1      31.912  27.849  24.519  1.00  0.00     0.004 C 
ATOM     11  C   UNL A   1      30.544  24.381  23.310  1.00  0.00     0.007 C 
ATOM     12  C   UNL A   1      31.601  25.440  23.635  1.00  0.00    -0.014 C 
ATOM     13  C   UNL A   1      32.407  25.785  22.374  1.00  0.00     0.003 C 
ATOM     14  C   UNL A   1      30.944  26.681  24.234  1.00  0.00     0.008 C 
ATOM     15  C   UNL A   1      33.317  27.007  22.490  1.00  0.00     0.001 C 
ATOM     16  C   UNL A   1      32.698  28.186  23.233  1.00  0.00     0.005 C 
ENDBRANCH   7  10
ENDBRANCH   4   7
ENDBRANCH   2   3
ENDBRANCH   1   2
BRANCH   1  17
ATOM     17  C   UNL A   1      32.536  32.864  27.242  1.00  0.00     0.118 C 
BRANCH  17  18
ATOM     18  N   UNL A   1      32.372  34.258  27.631  1.00  0.00    -0.352 N 
ATOM     19  C   UNL A   1      32.989  34.987  28.613  1.00  0.00     0.251 C 
ATOM     20  H   UNL A   1      31.709  34.759  27.103  1.00  0.00     0.163 HD
ATOM     21  O   UNL A   1      32.561  36.104  28.905  1.00  0.00    -0.269 OA
BRANCH  19  22
ATOM     22  C   UNL A   1      34.152  34.440  29.340  1.00  0.00     0.039 A 
ATOM     23  C   UNL A   1      33.938  33.791  30.559  1.00  0.00     0.014 A 
ATOM     24  C   UNL A   1      35.450  34.591  28.845  1.00  0.00     0.014 A 
ATOM     25  C   UNL A   1      35.018  33.232  31.244  1.00  0.00     0.010 A 
ATOM     26  C   UNL A   1      36.514  33.965  29.488  1.00  0.00     0.010 A 
ATOM     27  C   UNL A   1      36.310  33.282  30.695  1.00  0.00    -0.014 A 
BRANCH  27  28
ATOM     28  C   UNL A   1      37.453  32.619  31.371  1.00  0.00     0.031 A 
ATOM     29  C   UNL A   1      38.164  31.471  30.710  1.00  0.00     0.074 A 
ATOM     30  C   UNL A   1      37.810  33.013  32.609  1.00  0.00     0.049 A 
ATOM     31  N   UNL A   1      39.149  30.736  31.162  1.00  0.00    -0.248 NA
ATOM     32  C   UNL A   1      37.689  31.080  29.374  1.00  0.00     0.031 C 
ATOM     33  C   UNL A   1      37.159  34.076  33.377  1.00  0.00     0.029 A 
ATOM     34  N   UNL A   1      38.802  32.560  33.441  1.00  0.00    -0.354 N 
ATOM     35  C   UNL A   1      39.398  29.790  30.178  1.00  0.00     0.074 A 
ATOM     36  C   UNL A   1      38.429  30.009  29.125  1.00  0.00     0.031 C 
ATOM     37  C   UNL A   1      37.785  34.211  34.556  1.00  0.00     0.029 A 
ATOM     38  C   UNL A   1      38.856  33.223  34.643  1.00  0.00     0.049 A 
ATOM     39  H   UNL A   1      39.416  31.830  33.201  1.00  0.00     0.167 HD
ATOM     40  C   UNL A   1      40.363  28.840  30.143  1.00  0.00     0.037 A 
ATOM     41  C   UNL A   1      39.677  33.052  35.697  1.00  0.00     0.037 A 
ATOM     42  C   UNL A   1      41.344  28.644  31.179  1.00  0.00     0.049 A 
ATOM     43  C   UNL A   1      40.748  31.998  35.627  1.00  0.00     0.074 A 
ATOM     44  C   UNL A   1      42.403  27.754  31.208  1.00  0.00     0.029 A 
ATOM     45  N   UNL A   1      41.381  29.350  32.373  1.00  0.00    -0.354 N 
ATOM     46  N   UNL A   1      41.021  31.158  34.658  1.00  0.00    -0.248 NA
ATOM     47  C   UNL A   1      41.629  31.874  36.795  1.00  0.00     0.031 C 
ATOM     48  C   UNL A   1      43.057  27.893  32.438  1.00  0.00     0.029 A 
ATOM     49  C   UNL A   1      42.433  28.902  33.155  1.00  0.00     0.049 A 
ATOM     50  H   UNL A   1      40.753  30.065  32.627  1.00  0.00     0.167 HD
ATOM     51  C   UNL A   1      42.119  30.424  35.088  1.00  0.00     0.074 A 
ATOM     52  C   UNL A   1      42.471  30.932  36.397  1.00  0.00     0.031 C 
ATOM     53  C   UNL A   1      42.773  29.419  34.455  1.00  0.00     0.037 A 
BRANCH  40  54
ATOM     54  C   UNL A   1      40.411  27.943  28.940  1.00  0.00     0.064 A 
ATOM     55  C   UNL A   1      41.179  28.266  27.812  1.00  0.00     0.173 A 
ATOM     56  C   UNL A   1      39.708  26.728  28.928  1.00  0.00     0.173 A 
ATOM     57  F   UNL A   1      41.861  29.421  27.767  1.00  0.00    -0.203 F 
ATOM     58  C   UNL A   1      41.219  27.422  26.705  1.00  0.00     0.198 A 
ATOM     59  C   UNL A   1      39.774  25.873  27.831  1.00  0.00     0.198 A 
ATOM     60  F   UNL A   1      38.963  26.367  29.983  1.00  0.00    -0.203 F 
ATOM     61  F   UNL A   1      41.921  27.776  25.618  1.00  0.00    -0.200 F 
ATOM     62  C   UNL A   1      40.522  26.224  26.718  1.00  0.00     0.200 A 
ATOM     63  F   UNL A   1      39.111  24.708  27.851  1.00  0.00    -0.200 F 
ATOM     64  F   UNL A   1      40.567  25.409  25.655  1.00  0.00    -0.200 F 
ENDBRANCH  40  54
BRANCH  41  65
ATOM     65  C   UNL A   1      39.537  33.920  36.894  1.00  0.00     0.064 A 
ATOM     66  C   UNL A   1      38.778  33.506  37.996  1.00  0.00     0.173 A 
ATOM     67  C   UNL A   1      40.156  35.177  36.962  1.00  0.00     0.173 A 
ATOM     68  F   UNL A   1      38.151  32.321  37.970  1.00  0.00    -0.203 F 
ATOM     69  C   UNL A   1      38.626  34.324  39.114  1.00  0.00     0.198 A 
ATOM     70  C   UNL A   1      40.026  35.982  38.092  1.00  0.00     0.198 A 
ATOM     71  F   UNL A   1      40.900  35.616  35.936  1.00  0.00    -0.203 F 
ATOM     72  F   UNL A   1      37.857  33.922  40.136  1.00  0.00    -0.200 F 
ATOM     73  C   UNL A   1      39.254  35.559  39.163  1.00  0.00     0.200 A 
ATOM     74  F   UNL A   1      40.648  37.168  38.142  1.00  0.00    -0.200 F 
ATOM     75  F   UNL A   1      39.111  36.343  40.240  1.00  0.00    -0.200 F 
ENDBRANCH  41  65
BRANCH  53  76
ATOM     76  C   UNL A   1      43.954  28.821  35.163  1.00  0.00     0.064 A 
ATOM     77  C   UNL A   1      43.813  27.738  36.042  1.00  0.00     0.173 A 
ATOM     78  C   UNL A   1      45.245  29.324  34.938  1.00  0.00     0.173 A 
ATOM     79  F   UNL A   1      42.597  27.233  36.302  1.00  0.00    -0.203 F 
ATOM     80  C   UNL A   1      44.919  27.197  36.692  1.00  0.00     0.198 A 
ATOM     81  C   UNL A   1      46.351  28.760  35.566  1.00  0.00     0.198 A 
ATOM     82  F   UNL A   1      45.433  30.356  34.102  1.00  0.00    -0.203 F 
ATOM     83  F   UNL A   1      44.755  26.194  37.567  1.00  0.00    -0.200 F 
ATOM     84  C   UNL A   1      46.186  27.703  36.449  1.00  0.00     0.200 A 
ATOM     85  F   UNL A   1      47.577  29.244  35.321  1.00  0.00    -0.200 F 
ATOM     86  F   UNL A   1      47.250  27.179  37.074  1.00  0.00    -0.200 F 
ENDBRANCH  53  76
ENDBRANCH  27  28
ENDBRANCH  19  22
ENDBRANCH  17  18
ENDBRANCH   1  17
TORSDOF 11
ENDMDL
MODEL 3
REMARK VINA RESULT:     -10.7      3.622     10.110
REMARK SMILES C[C@H]1CCC[C@H](C(C)(C)C(=O)NCCCNC(=O)c2ccc(-c3c4nc(c(-c5c(F)c(F)c(F)c(F)c5F)c5ccc([nH]5)c(-c5c(F)c(F)c(F)c(F)c5F)c5nc(c(-c6c(F)c(F)c(F)c(F)c6F)c6ccc3[nH]6)C=C5)C=C4)cc2)C1
REMARK SMILES IDX 14 1 13 2 12 3 10 4 11 5 7 7 8 8 9 9 6 10 1 11 2 12 3 13
REMARK SMILES IDX 82 14 4 15 5 16 15 17 16 18 17 19 18 21 19 22 20 23 81 24
REMARK SMILES IDX 21 25 80 26 22 27 23 28 24 29 74 30 25 31 79 32 73 33 75 34
REMARK SMILES IDX 26 35 78 36 72 37 71 38 27 40 59 41 39 42 58 43 40 44 43 45
REMARK SMILES IDX 57 46 76 47 41 48 42 49 56 51 77 52 44 53 28 54 29 55 37 56
REMARK SMILES IDX 30 57 31 58 35 59 38 60 32 61 33 62 36 63 34 64 60 65 61 66
REMARK SMILES IDX 69 67 62 68 63 69 67 70 70 71 64 72 65 73 68 74 66 75 45 76
REMARK SMILES IDX 46 77 54 78 47 79 48 80 52 81 55 82 49 83 50 84 53 85 51 86
REMARK H PARENT 12 6 16 20 75 39 43 50
REMARK Flexibility Score: inf
ROOT
ATOM      1  C   UNL A   1      35.465  33.723  29.516  1.00  0.00     0.042 C 
ENDROOT
BRANCH   1   2
ATOM      2  C   UNL A   1      34.208  34.261  30.194  1.00  0.00     0.117 C 
BRANCH   2   3
ATOM      3  N   UNL A   1      34.531  35.304  31.146  1.00  0.00    -0.356 N 
ATOM      4  C   UNL A   1      34.836  35.336  32.464  1.00  0.00     0.225 C 
ATOM      5  O   UNL A   1      34.783  36.474  32.931  1.00  0.00    -0.275 OA
ATOM      6  H   UNL A   1      34.527  36.200  30.739  1.00  0.00     0.163 HD
BRANCH   4   7
ATOM      7  C   UNL A   1      35.241  34.097  33.293  1.00  0.00     0.046 C 
ATOM      8  C   UNL A   1      34.084  33.071  33.195  1.00  0.00     0.022 C 
ATOM      9  C   UNL A   1      35.439  34.495  34.771  1.00  0.00     0.022 C 
BRANCH   7  10
ATOM     10  C   UNL A   1      36.571  33.360  32.802  1.00  0.00     0.004 C 
ATOM     11  C   UNL A   1      38.265  30.987  35.422  1.00  0.00     0.007 C 
ATOM     12  C   UNL A   1      37.815  32.319  34.815  1.00  0.00    -0.014 C 
ATOM     13  C   UNL A   1      39.034  33.211  34.539  1.00  0.00     0.003 C 
ATOM     14  C   UNL A   1      37.003  32.077  33.545  1.00  0.00     0.008 C 
ATOM     15  C   UNL A   1      38.759  34.458  33.700  1.00  0.00     0.001 C 
ATOM     16  C   UNL A   1      37.816  34.231  32.523  1.00  0.00     0.005 C 
ENDBRANCH   7  10
ENDBRANCH   4   7
ENDBRANCH   2   3
ENDBRANCH   1   2
BRANCH   1  17
ATOM     17  C   UNL A   1      35.266  33.318  28.055  1.00  0.00     0.118 C 
BRANCH  17  18
ATOM     18  N   UNL A   1      34.329  32.214  27.898  1.00  0.00    -0.352 N 
ATOM     19  C   UNL A   1      34.537  30.860  27.922  1.00  0.00     0.251 C 
ATOM     20  H   UNL A   1      33.394  32.484  27.750  1.00  0.00     0.163 HD
ATOM     21  O   UNL A   1      33.636  30.098  27.570  1.00  0.00    -0.269 OA
BRANCH  19  22
ATOM     22  C   UNL A   1      35.837  30.304  28.347  1.00  0.00     0.039 A 
ATOM     23  C   UNL A   1      36.882  30.254  27.420  1.00  0.00     0.014 A 
ATOM     24  C   UNL A   1      36.022  29.805  29.638  1.00  0.00     0.014 A 
ATOM     25  C   UNL A   1      38.131  29.768  27.810  1.00  0.00     0.010 A 
ATOM     26  C   UNL A   1      37.287  29.395  30.049  1.00  0.00     0.010 A 
ATOM     27  C   UNL A   1      38.354  29.370  29.139  1.00  0.00    -0.014 A 
BRANCH  27  28
ATOM     28  C   UNL A   1      39.699  28.932  29.589  1.00  0.00     0.031 A 
ATOM     29  C   UNL A   1      40.489  29.773  30.552  1.00  0.00     0.074 A 
ATOM     30  C   UNL A   1      40.232  27.804  29.081  1.00  0.00     0.049 A 
ATOM     31  N   UNL A   1      41.697  29.582  31.021  1.00  0.00    -0.248 NA
ATOM     32  C   UNL A   1      39.849  31.008  31.031  1.00  0.00     0.031 C 
ATOM     33  C   UNL A   1      39.586  26.933  28.097  1.00  0.00     0.029 A 
ATOM     34  N   UNL A   1      41.441  27.201  29.316  1.00  0.00    -0.354 N 
ATOM     35  C   UNL A   1      41.965  30.675  31.832  1.00  0.00     0.074 A 
ATOM     36  C   UNL A   1      40.817  31.553  31.754  1.00  0.00     0.031 C 
ATOM     37  C   UNL A   1      40.395  25.895  27.832  1.00  0.00     0.029 A 
ATOM     38  C   UNL A   1      41.628  26.044  28.599  1.00  0.00     0.049 A 
ATOM     39  H   UNL A   1      42.112  27.562  29.939  1.00  0.00     0.167 HD
ATOM     40  C   UNL A   1      43.059  30.914  32.595  1.00  0.00     0.037 A 
ATOM     41  C   UNL A   1      42.676  25.200  28.563  1.00  0.00     0.037 A 
ATOM     42  C   UNL A   1      44.186  30.024  32.693  1.00  0.00     0.049 A 
ATOM     43  C   UNL A   1      43.874  25.482  29.428  1.00  0.00     0.074 A 
ATOM     44  C   UNL A   1      45.313  30.143  33.488  1.00  0.00     0.029 A 
ATOM     45  N   UNL A   1      44.330  28.850  31.969  1.00  0.00    -0.354 N 
ATOM     46  N   UNL A   1      44.084  26.482  30.250  1.00  0.00    -0.248 NA
ATOM     47  C   UNL A   1      44.976  24.514  29.366  1.00  0.00     0.031 C 
ATOM     48  C   UNL A   1      46.158  29.061  33.213  1.00  0.00     0.029 A 
ATOM     49  C   UNL A   1      45.536  28.245  32.282  1.00  0.00     0.049 A 
ATOM     50  H   UNL A   1      43.671  28.498  31.326  1.00  0.00     0.167 HD
ATOM     51  C   UNL A   1      45.328  26.251  30.820  1.00  0.00     0.074 A 
ATOM     52  C   UNL A   1      45.817  25.006  30.264  1.00  0.00     0.031 C 
ATOM     53  C   UNL A   1      46.007  27.004  31.721  1.00  0.00     0.037 A 
BRANCH  40  54
ATOM     54  C   UNL A   1      43.086  32.187  33.391  1.00  0.00     0.064 A 
ATOM     55  C   UNL A   1      43.570  33.385  32.845  1.00  0.00     0.173 A 
ATOM     56  C   UNL A   1      42.589  32.218  34.703  1.00  0.00     0.173 A 
ATOM     57  F   UNL A   1      44.068  33.407  31.599  1.00  0.00    -0.203 F 
ATOM     58  C   UNL A   1      43.585  34.560  33.593  1.00  0.00     0.198 A 
ATOM     59  C   UNL A   1      42.577  33.402  35.437  1.00  0.00     0.198 A 
ATOM     60  F   UNL A   1      42.108  31.102  35.271  1.00  0.00    -0.203 F 
ATOM     61  F   UNL A   1      44.099  35.681  33.067  1.00  0.00    -0.200 F 
ATOM     62  C   UNL A   1      43.082  34.569  34.885  1.00  0.00     0.200 A 
ATOM     63  F   UNL A   1      42.078  33.412  36.681  1.00  0.00    -0.200 F 
ATOM     64  F   UNL A   1      43.089  35.702  35.600  1.00  0.00    -0.200 F 
ENDBRANCH  40  54
BRANCH  41  65
ATOM     65  C   UNL A   1      42.626  23.992  27.700  1.00  0.00     0.064 A 
ATOM     66  C   UNL A   1      42.246  22.750  28.224  1.00  0.00     0.173 A 
ATOM     67  C   UNL A   1      42.957  24.053  26.338  1.00  0.00     0.173 A 
ATOM     68  F   UNL A   1      41.940  22.639  29.525  1.00  0.00    -0.203 F 
ATOM     69  C   UNL A   1      42.218  21.608  27.426  1.00  0.00     0.198 A 
ATOM     70  C   UNL A   1      42.901  22.916  25.534  1.00  0.00     0.198 A 
ATOM     71  F   UNL A   1      43.320  25.219  25.786  1.00  0.00    -0.203 F 
ATOM     72  F   UNL A   1      41.894  20.425  27.964  1.00  0.00    -0.200 F 
ATOM     73  C   UNL A   1      42.540  21.693  26.080  1.00  0.00     0.200 A 
ATOM     74  F   UNL A   1      43.198  23.005  24.230  1.00  0.00    -0.200 F 
ATOM     75  F   UNL A   1      42.509  20.597  25.311  1.00  0.00    -0.200 F 
ENDBRANCH  41  65
BRANCH  53  76
ATOM     76  C   UNL A   1      47.337  26.486  32.181  1.00  0.00     0.064 A 
ATOM     77  C   UNL A   1      47.443  25.553  33.223  1.00  0.00     0.173 A 
ATOM     78  C   UNL A   1      48.519  26.908  31.553  1.00  0.00     0.173 A 
ATOM     79  F   UNL A   1      46.343  25.131  33.865  1.00  0.00    -0.203 F 
ATOM     80  C   UNL A   1      48.686  25.083  33.639  1.00  0.00     0.198 A 
ATOM     81  C   UNL A   1      49.758  26.413  31.952  1.00  0.00     0.198 A 
ATOM     82  F   UNL A   1      48.473  27.795  30.548  1.00  0.00    -0.203 F 
ATOM     83  F   UNL A   1      48.767  24.231  34.671  1.00  0.00    -0.200 F 
ATOM     84  C   UNL A   1      49.840  25.508  33.000  1.00  0.00     0.200 A 
ATOM     85  F   UNL A   1      50.872  26.816  31.325  1.00  0.00    -0.200 F 
ATOM     86  F   UNL A   1      51.036  25.052  33.400  1.00  0.00    -0.200 F 
ENDBRANCH  53  76
ENDBRANCH  27  28
ENDBRANCH  19  22
ENDBRANCH  17  18
ENDBRANCH   1  17
TORSDOF 11
ENDMDL
