MODEL 1
REMARK VINA RESULT:     -12.1      0.000      0.000
REMARK SMILES O=C(C[C@H]1C[N@@H+]([C@@H]2CC(=O)NC2=O)CCO1)NCCCNC(=O)c1ccc(-c2c3nc(c(-c4c(F)c(F)c(F)c(F)c4F)c4ccc([nH]4)c(-c4c(F)c(F)c(F)c(F)c4F)c4nc(c(-c5c(F)c(F)c(F)c(F)c5F)c5ccc2[nH]5)C=C4)C=C3)cc1
REMARK SMILES IDX 19 1 18 2 17 3 1 4 2 5 3 7 4 8 5 9 16 10 6 11 15 12 14 13
REMARK SMILES IDX 7 15 8 16 12 17 9 18 11 19 13 20 10 21 20 23 21 24 22 25
REMARK SMILES IDX 23 27 24 28 25 29 86 30 26 31 85 32 27 33 28 34 29 35 79 36
REMARK SMILES IDX 30 37 84 38 78 39 80 40 31 41 83 42 77 43 76 44 32 46 64 47
REMARK SMILES IDX 44 48 63 49 45 50 48 51 62 52 81 53 46 54 47 55 61 57 82 58
REMARK SMILES IDX 49 59 33 60 34 61 42 62 35 63 36 64 40 65 43 66 37 67 38 68
REMARK SMILES IDX 41 69 39 70 65 71 66 72 74 73 67 74 68 75 72 76 75 77 69 78
REMARK SMILES IDX 70 79 73 80 71 81 50 82 51 83 59 84 52 85 53 86 57 87 60 88
REMARK SMILES IDX 54 89 55 90 58 91 56 92
REMARK H PARENT 17 6 6 14 11 22 21 26 80 45 48 56
REMARK Flexibility Score: inf
ROOT
ATOM      1  C   UNL A   1      38.114  19.803  24.661  1.00  0.00     0.042 C 
ENDROOT
BRANCH   1   2
ATOM      2  C   UNL A   1      36.757  19.203  25.001  1.00  0.00     0.117 C 
BRANCH   2   3
ATOM      3  N   UNL A   1      35.682  20.170  24.986  1.00  0.00    -0.356 N 
ATOM      4  O   UNL A   1      34.043  18.658  24.512  1.00  0.00    -0.275 OA
ATOM      5  C   UNL A   1      34.375  19.801  24.806  1.00  0.00     0.222 C 
ATOM      6  H   UNL A   1      35.897  21.122  25.109  1.00  0.00     0.163 HD
BRANCH   5   7
ATOM      7  C   UNL A   1      33.368  20.919  24.916  1.00  0.00     0.138 C 
BRANCH   7   8
ATOM      8  C   UNL A   1      33.267  21.940  23.770  1.00  0.00     0.182 C 
ATOM      9  C   UNL A   1      32.057  22.900  23.864  1.00  0.00     0.295 C 
ATOM     10  O   UNL A   1      34.488  22.617  23.435  1.00  0.00    -0.366 OA
ATOM     11  N   UNL A   1      32.270  24.168  24.555  1.00  0.00    -0.320 N 
ATOM     12  C   UNL A   1      34.723  23.814  24.193  1.00  0.00     0.222 C 
ATOM     13  C   UNL A   1      33.541  24.786  24.190  1.00  0.00     0.291 C 
ATOM     14  H   UNL A   1      31.526  24.746  24.163  1.00  0.00     0.348 HD
BRANCH  11  15
ATOM     15  C   UNL A   1      31.787  24.369  25.926  1.00  0.00     0.284 C 
ATOM     16  C   UNL A   1      31.383  23.151  26.754  1.00  0.00     0.176 C 
ATOM     17  C   UNL A   1      30.541  25.250  25.963  1.00  0.00     0.285 C 
ATOM     18  C   UNL A   1      29.917  23.342  27.013  1.00  0.00     0.233 C 
ATOM     19  N   UNL A   1      29.528  24.541  26.523  1.00  0.00    -0.291 N 
ATOM     20  O   UNL A   1      30.435  26.389  25.541  1.00  0.00    -0.268 OA
ATOM     21  O   UNL A   1      29.187  22.578  27.625  1.00  0.00    -0.274 OA
ATOM     22  H   UNL A   1      28.600  24.867  26.567  1.00  0.00     0.173 HD
ENDBRANCH  11  15
ENDBRANCH   7   8
ENDBRANCH   5   7
ENDBRANCH   2   3
ENDBRANCH   1   2
BRANCH   1  23
ATOM     23  C   UNL A   1      38.997  20.054  25.873  1.00  0.00     0.118 C 
BRANCH  23  24
ATOM     24  N   UNL A   1      40.152  19.169  25.925  1.00  0.00    -0.352 N 
ATOM     25  C   UNL A   1      41.482  19.462  26.066  1.00  0.00     0.251 C 
ATOM     26  H   UNL A   1      39.944  18.211  25.846  1.00  0.00     0.163 HD
ATOM     27  O   UNL A   1      42.320  18.577  25.923  1.00  0.00    -0.269 OA
BRANCH  25  28
ATOM     28  C   UNL A   1      41.912  20.840  26.379  1.00  0.00     0.039 A 
ATOM     29  C   UNL A   1      42.133  21.182  27.716  1.00  0.00     0.014 A 
ATOM     30  C   UNL A   1      42.063  21.800  25.376  1.00  0.00     0.014 A 
ATOM     31  C   UNL A   1      42.531  22.478  28.039  1.00  0.00     0.010 A 
ATOM     32  C   UNL A   1      42.554  23.063  25.690  1.00  0.00     0.010 A 
ATOM     33  C   UNL A   1      42.762  23.425  27.028  1.00  0.00    -0.014 A 
BRANCH  33  34
ATOM     34  C   UNL A   1      43.172  24.809  27.370  1.00  0.00     0.031 A 
ATOM     35  C   UNL A   1      44.572  25.276  27.079  1.00  0.00     0.074 A 
ATOM     36  C   UNL A   1      42.286  25.639  27.952  1.00  0.00     0.049 A 
ATOM     37  N   UNL A   1      45.110  26.454  27.276  1.00  0.00    -0.248 NA
ATOM     38  C   UNL A   1      45.502  24.283  26.517  1.00  0.00     0.031 C 
ATOM     39  C   UNL A   1      40.919  25.284  28.334  1.00  0.00     0.029 A 
ATOM     40  N   UNL A   1      42.401  26.957  28.317  1.00  0.00    -0.354 N 
ATOM     41  C   UNL A   1      46.434  26.338  26.870  1.00  0.00     0.074 A 
ATOM     42  C   UNL A   1      46.639  24.959  26.484  1.00  0.00     0.031 C 
ATOM     43  C   UNL A   1      40.309  26.366  28.841  1.00  0.00     0.029 A 
ATOM     44  C   UNL A   1      41.250  27.481  28.853  1.00  0.00     0.049 A 
ATOM     45  H   UNL A   1      43.230  27.476  28.207  1.00  0.00     0.167 HD
ATOM     46  C   UNL A   1      47.384  27.299  26.793  1.00  0.00     0.037 A 
ATOM     47  C   UNL A   1      40.986  28.725  29.294  1.00  0.00     0.037 A 
ATOM     48  C   UNL A   1      47.168  28.673  27.164  1.00  0.00     0.049 A 
ATOM     49  C   UNL A   1      42.058  29.777  29.194  1.00  0.00     0.074 A 
ATOM     50  C   UNL A   1      48.049  29.738  27.086  1.00  0.00     0.029 A 
ATOM     51  N   UNL A   1      45.984  29.172  27.690  1.00  0.00    -0.354 N 
ATOM     52  N   UNL A   1      43.283  29.674  28.737  1.00  0.00    -0.248 NA
ATOM     53  C   UNL A   1      41.701  31.126  29.654  1.00  0.00     0.031 C 
ATOM     54  C   UNL A   1      47.416  30.868  27.615  1.00  0.00     0.029 A 
ATOM     55  C   UNL A   1      46.117  30.525  27.956  1.00  0.00     0.049 A 
ATOM     56  H   UNL A   1      45.171  28.642  27.849  1.00  0.00     0.167 HD
ATOM     57  C   UNL A   1      43.829  30.949  28.817  1.00  0.00     0.074 A 
ATOM     58  C   UNL A   1      42.794  31.809  29.350  1.00  0.00     0.031 C 
ATOM     59  C   UNL A   1      45.074  31.370  28.477  1.00  0.00     0.037 A 
BRANCH  46  60
ATOM     60  C   UNL A   1      48.741  26.896  26.289  1.00  0.00     0.064 A 
ATOM     61  C   UNL A   1      49.095  27.020  24.935  1.00  0.00     0.173 A 
ATOM     62  C   UNL A   1      49.712  26.401  27.174  1.00  0.00     0.173 A 
ATOM     63  F   UNL A   1      48.202  27.476  24.044  1.00  0.00    -0.203 F 
ATOM     64  C   UNL A   1      50.353  26.632  24.482  1.00  0.00     0.198 A 
ATOM     65  C   UNL A   1      50.982  26.047  26.722  1.00  0.00     0.198 A 
ATOM     66  F   UNL A   1      49.433  26.263  28.478  1.00  0.00    -0.203 F 
ATOM     67  F   UNL A   1      50.644  26.705  23.176  1.00  0.00    -0.200 F 
ATOM     68  C   UNL A   1      51.298  26.153  25.377  1.00  0.00     0.200 A 
ATOM     69  F   UNL A   1      51.899  25.600  27.590  1.00  0.00    -0.200 F 
ATOM     70  F   UNL A   1      52.511  25.787  24.940  1.00  0.00    -0.200 F 
ENDBRANCH  46  60
BRANCH  47  71
ATOM     71  C   UNL A   1      39.639  29.055  29.831  1.00  0.00     0.064 A 
ATOM     72  C   UNL A   1      38.627  29.545  28.993  1.00  0.00     0.173 A 
ATOM     73  C   UNL A   1      39.339  28.900  31.192  1.00  0.00     0.173 A 
ATOM     74  F   UNL A   1      38.868  29.727  27.686  1.00  0.00    -0.203 F 
ATOM     75  C   UNL A   1      37.378  29.898  29.501  1.00  0.00     0.198 A 
ATOM     76  C   UNL A   1      38.079  29.222  31.693  1.00  0.00     0.198 A 
ATOM     77  F   UNL A   1      40.268  28.427  32.035  1.00  0.00    -0.203 F 
ATOM     78  F   UNL A   1      36.449  30.420  28.688  1.00  0.00    -0.200 F 
ATOM     79  C   UNL A   1      37.104  29.732  30.849  1.00  0.00     0.200 A 
ATOM     80  F   UNL A   1      37.813  29.043  32.994  1.00  0.00    -0.200 F 
ATOM     81  F   UNL A   1      35.903  30.071  31.338  1.00  0.00    -0.200 F 
ENDBRANCH  47  71
BRANCH  59  82
ATOM     82  C   UNL A   1      45.360  32.840  28.615  1.00  0.00     0.064 A 
ATOM     83  C   UNL A   1      45.916  33.384  29.782  1.00  0.00     0.173 A 
ATOM     84  C   UNL A   1      45.081  33.714  27.553  1.00  0.00     0.173 A 
ATOM     85  F   UNL A   1      46.193  32.595  30.831  1.00  0.00    -0.203 F 
ATOM     86  C   UNL A   1      46.134  34.755  29.900  1.00  0.00     0.198 A 
ATOM     87  C   UNL A   1      45.338  35.077  27.659  1.00  0.00     0.198 A 
ATOM     88  F   UNL A   1      44.561  33.246  26.408  1.00  0.00    -0.203 F 
ATOM     89  F   UNL A   1      46.595  35.262  31.051  1.00  0.00    -0.200 F 
ATOM     90  C   UNL A   1      45.850  35.599  28.836  1.00  0.00     0.200 A 
ATOM     91  F   UNL A   1      45.081  35.889  26.623  1.00  0.00    -0.200 F 
ATOM     92  F   UNL A   1      46.058  36.918  28.952  1.00  0.00    -0.200 F 
ENDBRANCH  59  82
ENDBRANCH  33  34
ENDBRANCH  25  28
ENDBRANCH  23  24
ENDBRANCH   1  23
TORSDOF 12
ENDMDL
MODEL 2
REMARK VINA RESULT:     -12.0      3.917      7.791
REMARK SMILES O=C(C[C@H]1C[N@@H+]([C@@H]2CC(=O)NC2=O)CCO1)NCCCNC(=O)c1ccc(-c2c3nc(c(-c4c(F)c(F)c(F)c(F)c4F)c4ccc([nH]4)c(-c4c(F)c(F)c(F)c(F)c4F)c4nc(c(-c5c(F)c(F)c(F)c(F)c5F)c5ccc2[nH]5)C=C4)C=C3)cc1
REMARK SMILES IDX 19 1 18 2 17 3 1 4 2 5 3 7 4 8 5 9 16 10 6 11 15 12 14 13
REMARK SMILES IDX 7 15 8 16 12 17 9 18 11 19 13 20 10 21 20 23 21 24 22 25
REMARK SMILES IDX 23 27 24 28 25 29 86 30 26 31 85 32 27 33 28 34 29 35 79 36
REMARK SMILES IDX 30 37 84 38 78 39 80 40 31 41 83 42 77 43 76 44 32 46 64 47
REMARK SMILES IDX 44 48 63 49 45 50 48 51 62 52 81 53 46 54 47 55 61 57 82 58
REMARK SMILES IDX 49 59 33 60 34 61 42 62 35 63 36 64 40 65 43 66 37 67 38 68
REMARK SMILES IDX 41 69 39 70 65 71 66 72 74 73 67 74 68 75 72 76 75 77 69 78
REMARK SMILES IDX 70 79 73 80 71 81 50 82 51 83 59 84 52 85 53 86 57 87 60 88
REMARK SMILES IDX 54 89 55 90 58 91 56 92
REMARK H PARENT 17 6 6 14 11 22 21 26 80 45 48 56
REMARK Flexibility Score: inf
ROOT
ATOM      1  C   UNL A   1      41.450  20.259  26.440  1.00  0.00     0.042 C 
ENDROOT
BRANCH   1   2
ATOM      2  C   UNL A   1      42.811  20.032  25.797  1.00  0.00     0.117 C 
BRANCH   2   3
ATOM      3  N   UNL A   1      43.773  21.064  26.112  1.00  0.00    -0.356 N 
ATOM      4  O   UNL A   1      44.606  21.234  23.996  1.00  0.00    -0.275 OA
ATOM      5  C   UNL A   1      44.562  21.641  25.152  1.00  0.00     0.222 C 
ATOM      6  H   UNL A   1      43.864  21.361  27.046  1.00  0.00     0.163 HD
BRANCH   5   7
ATOM      7  C   UNL A   1      45.441  22.771  25.631  1.00  0.00     0.138 C 
BRANCH   7   8
ATOM      8  C   UNL A   1      44.808  23.898  26.465  1.00  0.00     0.182 C 
ATOM      9  C   UNL A   1      45.725  25.123  26.697  1.00  0.00     0.295 C 
ATOM     10  O   UNL A   1      43.472  24.269  26.093  1.00  0.00    -0.366 OA
ATOM     11  N   UNL A   1      45.633  26.212  25.730  1.00  0.00    -0.320 N 
ATOM     12  C   UNL A   1      43.404  25.277  25.072  1.00  0.00     0.222 C 
ATOM     13  C   UNL A   1      44.249  26.516  25.376  1.00  0.00     0.291 C 
ATOM     14  H   UNL A   1      45.988  27.001  26.271  1.00  0.00     0.348 HD
BRANCH  11  15
ATOM     15  C   UNL A   1      46.652  26.385  24.690  1.00  0.00     0.284 C 
ATOM     16  C   UNL A   1      47.903  25.507  24.726  1.00  0.00     0.176 C 
ATOM     17  C   UNL A   1      47.219  27.803  24.683  1.00  0.00     0.285 C 
ATOM     18  C   UNL A   1      49.033  26.471  24.938  1.00  0.00     0.233 C 
ATOM     19  N   UNL A   1      48.554  27.736  24.912  1.00  0.00    -0.291 N 
ATOM     20  O   UNL A   1      46.595  28.841  24.532  1.00  0.00    -0.268 OA
ATOM     21  O   UNL A   1      50.214  26.184  25.051  1.00  0.00    -0.274 OA
ATOM     22  H   UNL A   1      49.120  28.531  25.047  1.00  0.00     0.173 HD
ENDBRANCH  11  15
ENDBRANCH   7   8
ENDBRANCH   5   7
ENDBRANCH   2   3
ENDBRANCH   1   2
BRANCH   1  23
ATOM     23  C   UNL A   1      41.004  21.712  26.441  1.00  0.00     0.118 C 
BRANCH  23  24
ATOM     24  N   UNL A   1      39.642  21.887  25.955  1.00  0.00    -0.352 N 
ATOM     25  C   UNL A   1      38.774  22.932  26.122  1.00  0.00     0.251 C 
ATOM     26  H   UNL A   1      39.292  21.136  25.424  1.00  0.00     0.163 HD
ATOM     27  O   UNL A   1      37.604  22.816  25.768  1.00  0.00    -0.269 OA
BRANCH  25  28
ATOM     28  C   UNL A   1      39.236  24.194  26.736  1.00  0.00     0.039 A 
ATOM     29  C   UNL A   1      38.961  24.418  28.087  1.00  0.00     0.014 A 
ATOM     30  C   UNL A   1      39.902  25.165  25.986  1.00  0.00     0.014 A 
ATOM     31  C   UNL A   1      39.378  25.605  28.687  1.00  0.00     0.010 A 
ATOM     32  C   UNL A   1      40.403  26.304  26.608  1.00  0.00     0.010 A 
ATOM     33  C   UNL A   1      40.118  26.550  27.959  1.00  0.00    -0.014 A 
BRANCH  33  34
ATOM     34  C   UNL A   1      40.551  27.820  28.591  1.00  0.00     0.031 A 
ATOM     35  C   UNL A   1      41.997  28.029  28.954  1.00  0.00     0.074 A 
ATOM     36  C   UNL A   1      39.641  28.778  28.848  1.00  0.00     0.049 A 
ATOM     37  N   UNL A   1      42.574  29.078  29.484  1.00  0.00    -0.248 NA
ATOM     38  C   UNL A   1      42.912  26.902  28.713  1.00  0.00     0.031 C 
ATOM     39  C   UNL A   1      38.204  28.669  28.595  1.00  0.00     0.029 A 
ATOM     40  N   UNL A   1      39.791  30.036  29.374  1.00  0.00    -0.354 N 
ATOM     41  C   UNL A   1      43.911  28.732  29.645  1.00  0.00     0.074 A 
ATOM     42  C   UNL A   1      44.046  27.355  29.226  1.00  0.00     0.031 C 
ATOM     43  C   UNL A   1      37.610  29.826  28.926  1.00  0.00     0.029 A 
ATOM     44  C   UNL A   1      38.617  30.745  29.447  1.00  0.00     0.049 A 
ATOM     45  H   UNL A   1      40.658  30.397  29.672  1.00  0.00     0.167 HD
ATOM     46  C   UNL A   1      44.939  29.503  30.073  1.00  0.00     0.037 A 
ATOM     47  C   UNL A   1      38.385  31.999  29.877  1.00  0.00     0.037 A 
ATOM     48  C   UNL A   1      44.799  30.878  30.474  1.00  0.00     0.049 A 
ATOM     49  C   UNL A   1      39.545  32.836  30.344  1.00  0.00     0.074 A 
ATOM     50  C   UNL A   1      45.782  31.763  30.884  1.00  0.00     0.029 A 
ATOM     51  N   UNL A   1      43.596  31.568  30.521  1.00  0.00    -0.354 N 
ATOM     52  N   UNL A   1      40.817  32.525  30.420  1.00  0.00    -0.248 NA
ATOM     53  C   UNL A   1      39.239  34.210  30.765  1.00  0.00     0.031 C 
ATOM     54  C   UNL A   1      45.166  32.970  31.230  1.00  0.00     0.029 A 
ATOM     55  C   UNL A   1      43.809  32.862  30.969  1.00  0.00     0.049 A 
ATOM     56  H   UNL A   1      42.721  31.193  30.273  1.00  0.00     0.167 HD
ATOM     57  C   UNL A   1      41.466  33.672  30.859  1.00  0.00     0.074 A 
ATOM     58  C   UNL A   1      40.448  34.689  31.014  1.00  0.00     0.031 C 
ATOM     59  C   UNL A   1      42.786  33.866  31.108  1.00  0.00     0.037 A 
BRANCH  46  60
ATOM     60  C   UNL A   1      46.302  28.873  30.127  1.00  0.00     0.064 A 
ATOM     61  C   UNL A   1      46.784  28.252  31.292  1.00  0.00     0.173 A 
ATOM     62  C   UNL A   1      47.131  28.867  28.994  1.00  0.00     0.173 A 
ATOM     63  F   UNL A   1      46.039  28.241  32.408  1.00  0.00    -0.203 F 
ATOM     64  C   UNL A   1      48.054  27.682  31.330  1.00  0.00     0.198 A 
ATOM     65  C   UNL A   1      48.387  28.264  29.026  1.00  0.00     0.198 A 
ATOM     66  F   UNL A   1      46.723  29.442  27.853  1.00  0.00    -0.203 F 
ATOM     67  F   UNL A   1      48.513  27.150  32.471  1.00  0.00    -0.200 F 
ATOM     68  C   UNL A   1      48.851  27.682  30.195  1.00  0.00     0.200 A 
ATOM     69  F   UNL A   1      49.149  28.250  27.925  1.00  0.00    -0.200 F 
ATOM     70  F   UNL A   1      50.070  27.126  30.231  1.00  0.00    -0.200 F 
ENDBRANCH  46  60
BRANCH  47  71
ATOM     71  C   UNL A   1      37.005  32.553  29.849  1.00  0.00     0.064 A 
ATOM     72  C   UNL A   1      36.534  33.263  28.735  1.00  0.00     0.173 A 
ATOM     73  C   UNL A   1      36.135  32.398  30.938  1.00  0.00     0.173 A 
ATOM     74  F   UNL A   1      37.333  33.453  27.675  1.00  0.00    -0.203 F 
ATOM     75  C   UNL A   1      35.258  33.823  28.724  1.00  0.00     0.198 A 
ATOM     76  C   UNL A   1      34.847  32.929  30.912  1.00  0.00     0.198 A 
ATOM     77  F   UNL A   1      36.532  31.720  32.025  1.00  0.00    -0.203 F 
ATOM     78  F   UNL A   1      34.855  34.546  27.670  1.00  0.00    -0.200 F 
ATOM     79  C   UNL A   1      34.414  33.652  29.809  1.00  0.00     0.200 A 
ATOM     80  F   UNL A   1      34.028  32.746  31.956  1.00  0.00    -0.200 F 
ATOM     81  F   UNL A   1      33.186  34.190  29.799  1.00  0.00    -0.200 F 
ENDBRANCH  47  71
BRANCH  59  82
ATOM     82  C   UNL A   1      43.209  35.251  31.515  1.00  0.00     0.064 A 
ATOM     83  C   UNL A   1      43.662  36.196  30.584  1.00  0.00     0.173 A 
ATOM     84  C   UNL A   1      43.147  35.637  32.864  1.00  0.00     0.173 A 
ATOM     85  F   UNL A   1      43.750  35.876  29.284  1.00  0.00    -0.203 F 
ATOM     86  C   UNL A   1      44.087  37.458  30.993  1.00  0.00     0.198 A 
ATOM     87  C   UNL A   1      43.534  36.912  33.264  1.00  0.00     0.198 A 
ATOM     88  F   UNL A   1      42.709  34.777  33.797  1.00  0.00    -0.203 F 
ATOM     89  F   UNL A   1      44.586  38.319  30.096  1.00  0.00    -0.200 F 
ATOM     90  C   UNL A   1      44.017  37.817  32.332  1.00  0.00     0.200 A 
ATOM     91  F   UNL A   1      43.447  37.263  34.555  1.00  0.00    -0.200 F 
ATOM     92  F   UNL A   1      44.427  39.031  32.723  1.00  0.00    -0.200 F 
ENDBRANCH  59  82
ENDBRANCH  33  34
ENDBRANCH  25  28
ENDBRANCH  23  24
ENDBRANCH   1  23
TORSDOF 12
ENDMDL
MODEL 3
REMARK VINA RESULT:     -12.0      5.106     10.734
REMARK SMILES O=C(C[C@H]1C[N@@H+]([C@@H]2CC(=O)NC2=O)CCO1)NCCCNC(=O)c1ccc(-c2c3nc(c(-c4c(F)c(F)c(F)c(F)c4F)c4ccc([nH]4)c(-c4c(F)c(F)c(F)c(F)c4F)c4nc(c(-c5c(F)c(F)c(F)c(F)c5F)c5ccc2[nH]5)C=C4)C=C3)cc1
REMARK SMILES IDX 19 1 18 2 17 3 1 4 2 5 3 7 4 8 5 9 16 10 6 11 15 12 14 13
REMARK SMILES IDX 7 15 8 16 12 17 9 18 11 19 13 20 10 21 20 23 21 24 22 25
REMARK SMILES IDX 23 27 24 28 25 29 86 30 26 31 85 32 27 33 28 34 29 35 79 36
REMARK SMILES IDX 30 37 84 38 78 39 80 40 31 41 83 42 77 43 76 44 32 46 64 47
REMARK SMILES IDX 44 48 63 49 45 50 48 51 62 52 81 53 46 54 47 55 61 57 82 58
REMARK SMILES IDX 49 59 33 60 34 61 42 62 35 63 36 64 40 65 43 66 37 67 38 68
REMARK SMILES IDX 41 69 39 70 65 71 66 72 74 73 67 74 68 75 72 76 75 77 69 78
REMARK SMILES IDX 70 79 73 80 71 81 50 82 51 83 59 84 52 85 53 86 57 87 60 88
REMARK SMILES IDX 54 89 55 90 58 91 56 92
REMARK H PARENT 17 6 6 14 11 22 21 26 80 45 48 56
REMARK Flexibility Score: inf
ROOT
ATOM      1  C   UNL A   1      33.927  33.810  28.966  1.00  0.00     0.042 C 
ENDROOT
BRANCH   1   2
ATOM      2  C   UNL A   1      33.899  34.539  30.303  1.00  0.00     0.117 C 
BRANCH   2   3
ATOM      3  N   UNL A   1      34.961  34.137  31.197  1.00  0.00    -0.356 N 
ATOM      4  O   UNL A   1      33.616  32.958  32.610  1.00  0.00    -0.275 OA
ATOM      5  C   UNL A   1      34.739  33.305  32.263  1.00  0.00     0.222 C 
ATOM      6  H   UNL A   1      35.873  34.471  31.035  1.00  0.00     0.163 HD
BRANCH   5   7
ATOM      7  C   UNL A   1      35.971  32.904  33.037  1.00  0.00     0.138 C 
BRANCH   7   8
ATOM      8  C   UNL A   1      36.927  34.004  33.527  1.00  0.00     0.182 C 
ATOM      9  C   UNL A   1      37.918  33.555  34.629  1.00  0.00     0.295 C 
ATOM     10  O   UNL A   1      37.559  34.780  32.498  1.00  0.00    -0.366 OA
ATOM     11  N   UNL A   1      39.217  33.058  34.190  1.00  0.00    -0.320 N 
ATOM     12  C   UNL A   1      38.791  34.223  32.014  1.00  0.00     0.222 C 
ATOM     13  C   UNL A   1      39.787  33.876  33.124  1.00  0.00     0.291 C 
ATOM     14  H   UNL A   1      39.788  33.203  35.023  1.00  0.00     0.348 HD
BRANCH  11  15
ATOM     15  C   UNL A   1      39.505  31.620  34.168  1.00  0.00     0.284 C 
ATOM     16  C   UNL A   1      38.905  30.762  33.054  1.00  0.00     0.176 C 
ATOM     17  C   UNL A   1      39.028  30.927  35.442  1.00  0.00     0.285 C 
ATOM     18  C   UNL A   1      37.996  29.804  33.767  1.00  0.00     0.233 C 
ATOM     19  N   UNL A   1      38.121  29.977  35.103  1.00  0.00    -0.291 N 
ATOM     20  O   UNL A   1      39.363  31.184  36.586  1.00  0.00    -0.268 OA
ATOM     21  O   UNL A   1      37.296  28.951  33.245  1.00  0.00    -0.274 OA
ATOM     22  H   UNL A   1      37.602  29.464  35.765  1.00  0.00     0.173 HD
ENDBRANCH  11  15
ENDBRANCH   7   8
ENDBRANCH   5   7
ENDBRANCH   2   3
ENDBRANCH   1   2
BRANCH   1  23
ATOM     23  C   UNL A   1      34.817  32.577  28.956  1.00  0.00     0.118 C 
BRANCH  23  24
ATOM     24  N   UNL A   1      34.130  31.388  28.471  1.00  0.00    -0.352 N 
ATOM     25  C   UNL A   1      34.635  30.180  28.071  1.00  0.00     0.251 C 
ATOM     26  H   UNL A   1      33.151  31.465  28.423  1.00  0.00     0.163 HD
ATOM     27  O   UNL A   1      33.897  29.356  27.539  1.00  0.00    -0.269 OA
BRANCH  25  28
ATOM     28  C   UNL A   1      36.066  29.868  28.270  1.00  0.00     0.039 A 
ATOM     29  C   UNL A   1      36.473  29.362  29.506  1.00  0.00     0.014 A 
ATOM     30  C   UNL A   1      37.007  30.103  27.264  1.00  0.00     0.014 A 
ATOM     31  C   UNL A   1      37.818  29.068  29.721  1.00  0.00     0.010 A 
ATOM     32  C   UNL A   1      38.331  29.718  27.446  1.00  0.00     0.010 A 
ATOM     33  C   UNL A   1      38.756  29.226  28.688  1.00  0.00    -0.014 A 
BRANCH  33  34
ATOM     34  C   UNL A   1      40.191  28.928  28.919  1.00  0.00     0.031 A 
ATOM     35  C   UNL A   1      41.057  29.911  29.660  1.00  0.00     0.074 A 
ATOM     36  C   UNL A   1      40.714  27.779  28.452  1.00  0.00     0.049 A 
ATOM     37  N   UNL A   1      42.322  29.819  29.987  1.00  0.00    -0.248 NA
ATOM     38  C   UNL A   1      40.427  31.178  30.066  1.00  0.00     0.031 C 
ATOM     39  C   UNL A   1      39.989  26.775  27.671  1.00  0.00     0.029 A 
ATOM     40  N   UNL A   1      41.978  27.258  28.572  1.00  0.00    -0.354 N 
ATOM     41  C   UNL A   1      42.635  31.012  30.626  1.00  0.00     0.074 A 
ATOM     42  C   UNL A   1      41.452  31.842  30.577  1.00  0.00     0.031 C 
ATOM     43  C   UNL A   1      40.807  25.741  27.418  1.00  0.00     0.029 A 
ATOM     44  C   UNL A   1      42.121  26.024  27.987  1.00  0.00     0.049 A 
ATOM     45  H   UNL A   1      42.712  27.724  29.034  1.00  0.00     0.167 HD
ATOM     46  C   UNL A   1      43.794  31.371  31.228  1.00  0.00     0.037 A 
ATOM     47  C   UNL A   1      43.191  25.209  27.927  1.00  0.00     0.037 A 
ATOM     48  C   UNL A   1      44.963  30.534  31.285  1.00  0.00     0.049 A 
ATOM     49  C   UNL A   1      44.466  25.631  28.607  1.00  0.00     0.074 A 
ATOM     50  C   UNL A   1      46.174  30.782  31.906  1.00  0.00     0.029 A 
ATOM     51  N   UNL A   1      45.066  29.283  30.693  1.00  0.00    -0.354 N 
ATOM     52  N   UNL A   1      44.728  26.729  29.275  1.00  0.00    -0.248 NA
ATOM     53  C   UNL A   1      45.589  24.686  28.543  1.00  0.00     0.031 C 
ATOM     54  C   UNL A   1      47.028  29.706  31.643  1.00  0.00     0.029 A 
ATOM     55  C   UNL A   1      46.327  28.755  30.919  1.00  0.00     0.049 A 
ATOM     56  H   UNL A   1      44.350  28.837  30.187  1.00  0.00     0.167 HD
ATOM     57  C   UNL A   1      46.029  26.591  29.742  1.00  0.00     0.074 A 
ATOM     58  C   UNL A   1      46.493  25.294  29.295  1.00  0.00     0.031 C 
ATOM     59  C   UNL A   1      46.771  27.458  30.477  1.00  0.00     0.037 A 
BRANCH  46  60
ATOM     60  C   UNL A   1      43.850  32.729  31.870  1.00  0.00     0.064 A 
ATOM     61  C   UNL A   1      44.295  33.861  31.168  1.00  0.00     0.173 A 
ATOM     62  C   UNL A   1      43.431  32.908  33.198  1.00  0.00     0.173 A 
ATOM     63  F   UNL A   1      44.721  33.746  29.901  1.00  0.00    -0.203 F 
ATOM     64  C   UNL A   1      44.352  35.110  31.781  1.00  0.00     0.198 A 
ATOM     65  C   UNL A   1      43.455  34.166  33.795  1.00  0.00     0.198 A 
ATOM     66  F   UNL A   1      42.992  31.863  33.916  1.00  0.00    -0.203 F 
ATOM     67  F   UNL A   1      44.837  36.163  31.108  1.00  0.00    -0.200 F 
ATOM     68  C   UNL A   1      43.924  35.263  33.091  1.00  0.00     0.200 A 
ATOM     69  F   UNL A   1      43.026  34.315  35.056  1.00  0.00    -0.200 F 
ATOM     70  F   UNL A   1      43.972  36.468  33.676  1.00  0.00    -0.200 F 
ENDBRANCH  46  60
BRANCH  47  71
ATOM     71  C   UNL A   1      43.093  23.898  27.232  1.00  0.00     0.064 A 
ATOM     72  C   UNL A   1      42.605  22.764  27.896  1.00  0.00     0.173 A 
ATOM     73  C   UNL A   1      43.496  23.749  25.897  1.00  0.00     0.173 A 
ATOM     74  F   UNL A   1      42.221  22.851  29.178  1.00  0.00    -0.203 F 
ATOM     75  C   UNL A   1      42.553  21.524  27.262  1.00  0.00     0.198 A 
ATOM     76  C   UNL A   1      43.413  22.516  25.254  1.00  0.00     0.198 A 
ATOM     77  F   UNL A   1      43.962  24.804  25.214  1.00  0.00    -0.203 F 
ATOM     78  F   UNL A   1      42.137  20.444  27.938  1.00  0.00    -0.200 F 
ATOM     79  C   UNL A   1      42.953  21.402  25.940  1.00  0.00     0.200 A 
ATOM     80  F   UNL A   1      43.784  22.406  23.971  1.00  0.00    -0.200 F 
ATOM     81  F   UNL A   1      42.904  20.209  25.330  1.00  0.00    -0.200 F 
ENDBRANCH  47  71
BRANCH  59  82
ATOM     82  C   UNL A   1      48.142  27.002  30.895  1.00  0.00     0.064 A 
ATOM     83  C   UNL A   1      49.288  27.300  30.143  1.00  0.00     0.173 A 
ATOM     84  C   UNL A   1      48.307  26.261  32.076  1.00  0.00     0.173 A 
ATOM     85  F   UNL A   1      49.185  27.996  29.001  1.00  0.00    -0.203 F 
ATOM     86  C   UNL A   1      50.541  26.830  30.530  1.00  0.00     0.198 A 
ATOM     87  C   UNL A   1      49.566  25.828  32.481  1.00  0.00     0.198 A 
ATOM     88  F   UNL A   1      47.247  25.958  32.840  1.00  0.00    -0.203 F 
ATOM     89  F   UNL A   1      51.610  27.063  29.758  1.00  0.00    -0.200 F 
ATOM     90  C   UNL A   1      50.679  26.100  31.702  1.00  0.00     0.200 A 
ATOM     91  F   UNL A   1      49.700  25.139  33.623  1.00  0.00    -0.200 F 
ATOM     92  F   UNL A   1      51.885  25.648  32.072  1.00  0.00    -0.200 F 
ENDBRANCH  59  82
ENDBRANCH  33  34
ENDBRANCH  25  28
ENDBRANCH  23  24
ENDBRANCH   1  23
TORSDOF 12
ENDMDL
