MODEL 1
REMARK VINA RESULT:     -13.5      0.000      0.000
REMARK SMILES O=C(CCN1C(=O)/C(=C2\C(=O)N(Cc3ccc(Cl)cc3)c3ccccc32)SC1=S)NCCCNC(=O)c1ccc(-c2c3nc(c(-c4c(F)c(F)c(F)c(F)c4F)c4ccc([nH]4)c(-c4c(F)c(F)c(F)c(F)c4F)c4nc(c(-c5c(F)c(F)c(F)c(F)c5F)c5ccc2[nH]5)C=C4)C=C3)cc1
REMARK SMILES IDX 31 1 30 2 1 3 2 4 3 6 4 7 5 8 6 9 28 10 7 11 8 12 27 13
REMARK SMILES IDX 29 14 9 15 10 16 26 17 11 18 12 19 21 20 25 21 22 22 24 23
REMARK SMILES IDX 23 24 13 25 14 26 15 27 20 28 16 29 19 30 17 31 18 32 32 33
REMARK SMILES IDX 33 34 34 35 35 36 36 38 37 39 38 40 99 41 39 42 98 43 40 44
REMARK SMILES IDX 41 45 42 46 92 47 43 48 97 49 91 50 93 51 44 52 96 53 90 54
REMARK SMILES IDX 89 55 45 57 77 58 57 59 76 60 58 61 61 62 75 63 94 64 59 65
REMARK SMILES IDX 60 66 74 68 95 69 62 70 46 71 47 72 55 73 48 74 49 75 53 76
REMARK SMILES IDX 56 77 50 78 51 79 54 80 52 81 78 82 79 83 87 84 80 85 81 86
REMARK SMILES IDX 85 87 88 88 82 89 83 90 86 91 84 92 63 93 64 94 72 95 65 96
REMARK SMILES IDX 66 97 70 98 73 99 67 100 68 101 71 102 69 103
REMARK H PARENT 30 5 34 37 93 56 61 67
REMARK Flexibility Score: inf
ROOT
ATOM      1  C   UNL A   1      41.968  39.134  28.257  1.00  0.00     0.117 C 
ENDROOT
BRANCH   1   2
ATOM      2  N   UNL A   1      42.512  39.897  27.160  1.00  0.00    -0.356 N 
ATOM      3  O   UNL A   1      40.649  39.722  25.811  1.00  0.00    -0.275 OA
ATOM      4  C   UNL A   1      41.737  40.227  26.070  1.00  0.00     0.221 C 
ATOM      5  H   UNL A   1      43.453  40.186  27.191  1.00  0.00     0.163 HD
BRANCH   4   6
ATOM      6  C   UNL A   1      42.336  41.331  25.222  1.00  0.00     0.122 C 
BRANCH   6   7
ATOM      7  C   UNL A   1      43.471  42.078  25.930  1.00  0.00     0.137 C 
BRANCH   7   8
ATOM      8  N   UNL A   1      44.170  43.208  25.268  1.00  0.00    -0.292 N 
ATOM      9  C   UNL A   1      43.844  43.677  24.012  1.00  0.00     0.267 C 
ATOM     10  C   UNL A   1      45.226  43.881  25.851  1.00  0.00     0.148 C 
ATOM     11  O   UNL A   1      42.705  43.744  23.576  1.00  0.00    -0.268 OA
ATOM     12  C   UNL A   1      44.981  44.417  23.384  1.00  0.00     0.093 C 
ATOM     13  S   UNL A   1      45.930  45.011  24.700  1.00  0.00    -0.053 SA
ATOM     14  S   UNL A   1      45.837  43.723  27.396  1.00  0.00    -0.052 S 
ATOM     15  C   UNL A   1      45.236  44.570  22.070  1.00  0.00     0.069 C 
ATOM     16  C   UNL A   1      44.497  43.853  20.956  1.00  0.00     0.260 C 
ATOM     17  C   UNL A   1      46.273  45.360  21.390  1.00  0.00     0.012 A 
ATOM     18  O   UNL A   1      43.696  42.954  21.105  1.00  0.00    -0.269 OA
ATOM     19  N   UNL A   1      44.991  44.358  19.749  1.00  0.00    -0.303 N 
ATOM     20  C   UNL A   1      46.142  45.120  20.012  1.00  0.00     0.052 A 
ATOM     21  C   UNL A   1      47.235  46.244  21.849  1.00  0.00     0.011 A 
ATOM     22  C   UNL A   1      47.077  45.595  19.111  1.00  0.00     0.027 A 
ATOM     23  C   UNL A   1      48.113  46.819  20.930  1.00  0.00     0.001 A 
ATOM     24  C   UNL A   1      48.054  46.473  19.575  1.00  0.00     0.002 A 
BRANCH  19  25
ATOM     25  C   UNL A   1      44.417  44.048  18.441  1.00  0.00     0.161 C 
BRANCH  25  26
ATOM     26  C   UNL A   1      43.634  45.126  17.666  1.00  0.00    -0.028 A 
ATOM     27  C   UNL A   1      42.684  44.842  16.671  1.00  0.00     0.007 A 
ATOM     28  C   UNL A   1      43.747  46.481  18.049  1.00  0.00     0.007 A 
ATOM     29  C   UNL A   1      41.875  45.833  16.095  1.00  0.00     0.021 A 
ATOM     30  C   UNL A   1      42.952  47.485  17.462  1.00  0.00     0.021 A 
ATOM     31  C   UNL A   1      42.015  47.154  16.489  1.00  0.00     0.041 A 
ATOM     32  Cl  UNL A   1      41.058  48.374  15.746  1.00  0.00    -0.084 Cl
ENDBRANCH  25  26
ENDBRANCH  19  25
ENDBRANCH   7   8
ENDBRANCH   6   7
ENDBRANCH   4   6
ENDBRANCH   1   2
BRANCH   1  33
ATOM     33  C   UNL A   1      42.675  37.810  28.568  1.00  0.00     0.042 C 
BRANCH  33  34
ATOM     34  C   UNL A   1      44.061  37.793  29.218  1.00  0.00     0.118 C 
BRANCH  34  35
ATOM     35  N   UNL A   1      45.190  38.074  28.347  1.00  0.00    -0.352 N 
ATOM     36  C   UNL A   1      46.028  37.236  27.644  1.00  0.00     0.251 C 
ATOM     37  H   UNL A   1      45.392  39.031  28.241  1.00  0.00     0.163 HD
ATOM     38  O   UNL A   1      46.932  37.641  26.924  1.00  0.00    -0.269 OA
BRANCH  36  39
ATOM     39  C   UNL A   1      45.821  35.793  27.786  1.00  0.00     0.039 A 
ATOM     40  C   UNL A   1      44.985  35.163  26.874  1.00  0.00     0.014 A 
ATOM     41  C   UNL A   1      46.368  35.106  28.872  1.00  0.00     0.014 A 
ATOM     42  C   UNL A   1      44.506  33.910  27.177  1.00  0.00     0.010 A 
ATOM     43  C   UNL A   1      45.942  33.812  29.143  1.00  0.00     0.010 A 
ATOM     44  C   UNL A   1      44.972  33.236  28.320  1.00  0.00    -0.014 A 
BRANCH  44  45
ATOM     45  C   UNL A   1      44.505  31.857  28.502  1.00  0.00     0.031 A 
ATOM     46  C   UNL A   1      43.183  31.570  29.125  1.00  0.00     0.074 A 
ATOM     47  C   UNL A   1      45.258  30.914  27.912  1.00  0.00     0.049 A 
ATOM     48  N   UNL A   1      42.492  30.463  29.093  1.00  0.00    -0.248 NA
ATOM     49  C   UNL A   1      42.544  32.662  29.879  1.00  0.00     0.031 C 
ATOM     50  C   UNL A   1      46.563  31.169  27.291  1.00  0.00     0.029 A 
ATOM     51  N   UNL A   1      45.016  29.596  27.665  1.00  0.00    -0.354 N 
ATOM     52  C   UNL A   1      41.330  30.723  29.804  1.00  0.00     0.074 A 
ATOM     53  C   UNL A   1      41.424  32.082  30.294  1.00  0.00     0.031 C 
ATOM     54  C   UNL A   1      46.969  30.062  26.662  1.00  0.00     0.029 A 
ATOM     55  C   UNL A   1      45.977  29.016  26.875  1.00  0.00     0.049 A 
ATOM     56  H   UNL A   1      44.236  29.110  28.016  1.00  0.00     0.167 HD
ATOM     57  C   UNL A   1      40.285  29.886  30.002  1.00  0.00     0.037 A 
ATOM     58  C   UNL A   1      46.033  27.775  26.362  1.00  0.00     0.037 A 
ATOM     59  C   UNL A   1      40.254  28.535  29.499  1.00  0.00     0.049 A 
ATOM     60  C   UNL A   1      44.869  26.867  26.622  1.00  0.00     0.074 A 
ATOM     61  C   UNL A   1      39.254  27.589  29.621  1.00  0.00     0.029 A 
ATOM     62  N   UNL A   1      41.286  27.940  28.779  1.00  0.00    -0.354 N 
ATOM     63  N   UNL A   1      43.745  27.130  27.245  1.00  0.00    -0.248 NA
ATOM     64  C   UNL A   1      44.974  25.498  26.112  1.00  0.00     0.031 C 
ATOM     65  C   UNL A   1      39.703  26.405  29.027  1.00  0.00     0.029 A 
ATOM     66  C   UNL A   1      40.960  26.627  28.481  1.00  0.00     0.049 A 
ATOM     67  H   UNL A   1      42.124  28.385  28.521  1.00  0.00     0.167 HD
ATOM     68  C   UNL A   1      43.004  25.962  27.207  1.00  0.00     0.074 A 
ATOM     69  C   UNL A   1      43.797  24.998  26.464  1.00  0.00     0.031 C 
ATOM     70  C   UNL A   1      41.787  25.700  27.746  1.00  0.00     0.037 A 
BRANCH  57  71
ATOM     71  C   UNL A   1      39.107  30.387  30.788  1.00  0.00     0.064 A 
ATOM     72  C   UNL A   1      38.037  31.053  30.169  1.00  0.00     0.173 A 
ATOM     73  C   UNL A   1      39.004  30.132  32.166  1.00  0.00     0.173 A 
ATOM     74  F   UNL A   1      38.084  31.331  28.858  1.00  0.00    -0.203 F 
ATOM     75  C   UNL A   1      36.919  31.452  30.898  1.00  0.00     0.198 A 
ATOM     76  C   UNL A   1      37.873  30.510  32.886  1.00  0.00     0.198 A 
ATOM     77  F   UNL A   1      39.994  29.498  32.811  1.00  0.00    -0.203 F 
ATOM     78  F   UNL A   1      35.922  32.110  30.289  1.00  0.00    -0.200 F 
ATOM     79  C   UNL A   1      36.832  31.171  32.253  1.00  0.00     0.200 A 
ATOM     80  F   UNL A   1      37.787  30.225  34.194  1.00  0.00    -0.200 F 
ATOM     81  F   UNL A   1      35.748  31.540  32.949  1.00  0.00    -0.200 F 
ENDBRANCH  57  71
BRANCH  58  82
ATOM     82  C   UNL A   1      47.205  27.381  25.543  1.00  0.00     0.064 A 
ATOM     83  C   UNL A   1      47.249  27.636  24.167  1.00  0.00     0.173 A 
ATOM     84  C   UNL A   1      48.346  26.818  26.138  1.00  0.00     0.173 A 
ATOM     85  F   UNL A   1      46.186  28.169  23.549  1.00  0.00    -0.203 F 
ATOM     86  C   UNL A   1      48.388  27.342  23.418  1.00  0.00     0.198 A 
ATOM     87  C   UNL A   1      49.494  26.556  25.397  1.00  0.00     0.198 A 
ATOM     88  F   UNL A   1      48.362  26.571  27.457  1.00  0.00    -0.203 F 
ATOM     89  F   UNL A   1      48.398  27.577  22.099  1.00  0.00    -0.200 F 
ATOM     90  C   UNL A   1      49.513  26.813  24.035  1.00  0.00     0.200 A 
ATOM     91  F   UNL A   1      50.587  26.074  26.005  1.00  0.00    -0.200 F 
ATOM     92  F   UNL A   1      50.615  26.556  23.319  1.00  0.00    -0.200 F 
ENDBRANCH  58  82
BRANCH  70  93
ATOM     93  C   UNL A   1      41.253  24.312  27.561  1.00  0.00     0.064 A 
ATOM     94  C   UNL A   1      40.188  24.055  26.686  1.00  0.00     0.173 A 
ATOM     95  C   UNL A   1      41.862  23.223  28.203  1.00  0.00     0.173 A 
ATOM     96  F   UNL A   1      39.566  25.067  26.064  1.00  0.00    -0.203 F 
ATOM     97  C   UNL A   1      39.743  22.756  26.469  1.00  0.00     0.198 A 
ATOM     98  C   UNL A   1      41.436  21.924  27.957  1.00  0.00     0.198 A 
ATOM     99  F   UNL A   1      42.890  23.421  29.042  1.00  0.00    -0.203 F 
ATOM    100  F   UNL A   1      38.700  22.534  25.657  1.00  0.00    -0.200 F 
ATOM    101  C   UNL A   1      40.375  21.690  27.094  1.00  0.00     0.200 A 
ATOM    102  F   UNL A   1      42.059  20.893  28.547  1.00  0.00    -0.200 F 
ATOM    103  F   UNL A   1      39.959  20.437  26.866  1.00  0.00    -0.200 F 
ENDBRANCH  70  93
ENDBRANCH  44  45
ENDBRANCH  36  39
ENDBRANCH  34  35
ENDBRANCH  33  34
ENDBRANCH   1  33
TORSDOF 14
ENDMDL
MODEL 2
REMARK VINA RESULT:     -13.3      9.102     14.621
REMARK SMILES O=C(CCN1C(=O)/C(=C2\C(=O)N(Cc3ccc(Cl)cc3)c3ccccc32)SC1=S)NCCCNC(=O)c1ccc(-c2c3nc(c(-c4c(F)c(F)c(F)c(F)c4F)c4ccc([nH]4)c(-c4c(F)c(F)c(F)c(F)c4F)c4nc(c(-c5c(F)c(F)c(F)c(F)c5F)c5ccc2[nH]5)C=C4)C=C3)cc1
REMARK SMILES IDX 31 1 30 2 1 3 2 4 3 6 4 7 5 8 6 9 28 10 7 11 8 12 27 13
REMARK SMILES IDX 29 14 9 15 10 16 26 17 11 18 12 19 21 20 25 21 22 22 24 23
REMARK SMILES IDX 23 24 13 25 14 26 15 27 20 28 16 29 19 30 17 31 18 32 32 33
REMARK SMILES IDX 33 34 34 35 35 36 36 38 37 39 38 40 99 41 39 42 98 43 40 44
REMARK SMILES IDX 41 45 42 46 92 47 43 48 97 49 91 50 93 51 44 52 96 53 90 54
REMARK SMILES IDX 89 55 45 57 77 58 57 59 76 60 58 61 61 62 75 63 94 64 59 65
REMARK SMILES IDX 60 66 74 68 95 69 62 70 46 71 47 72 55 73 48 74 49 75 53 76
REMARK SMILES IDX 56 77 50 78 51 79 54 80 52 81 78 82 79 83 87 84 80 85 81 86
REMARK SMILES IDX 85 87 88 88 82 89 83 90 86 91 84 92 63 93 64 94 72 95 65 96
REMARK SMILES IDX 66 97 70 98 73 99 67 100 68 101 71 102 69 103
REMARK H PARENT 30 5 34 37 93 56 61 67
REMARK Flexibility Score: inf
ROOT
ATOM      1  C   UNL A   1      37.065  19.218  25.087  1.00  0.00     0.117 C 
ENDROOT
BRANCH   1   2
ATOM      2  N   UNL A   1      35.902  19.984  24.709  1.00  0.00    -0.356 N 
ATOM      3  O   UNL A   1      34.442  18.199  24.708  1.00  0.00    -0.275 OA
ATOM      4  C   UNL A   1      34.651  19.407  24.676  1.00  0.00     0.221 C 
ATOM      5  H   UNL A   1      36.004  20.934  24.471  1.00  0.00     0.163 HD
BRANCH   4   6
ATOM      6  C   UNL A   1      33.526  20.421  24.642  1.00  0.00     0.122 C 
BRANCH   6   7
ATOM      7  C   UNL A   1      33.955  21.770  24.058  1.00  0.00     0.137 C 
BRANCH   7   8
ATOM      8  N   UNL A   1      33.816  23.022  24.845  1.00  0.00    -0.292 N 
ATOM      9  C   UNL A   1      32.633  23.722  24.962  1.00  0.00     0.267 C 
ATOM     10  C   UNL A   1      34.871  23.605  25.519  1.00  0.00     0.148 C 
ATOM     11  O   UNL A   1      31.530  23.203  25.043  1.00  0.00    -0.268 OA
ATOM     12  C   UNL A   1      32.869  25.151  25.332  1.00  0.00     0.093 C 
ATOM     13  S   UNL A   1      34.385  25.170  26.161  1.00  0.00    -0.053 SA
ATOM     14  S   UNL A   1      36.416  23.017  25.745  1.00  0.00    -0.052 S 
ATOM     15  C   UNL A   1      32.084  26.212  25.059  1.00  0.00     0.069 C 
ATOM     16  C   UNL A   1      30.872  26.179  24.146  1.00  0.00     0.260 C 
ATOM     17  C   UNL A   1      32.208  27.617  25.475  1.00  0.00     0.012 A 
ATOM     18  O   UNL A   1      30.545  25.248  23.440  1.00  0.00    -0.269 OA
ATOM     19  N   UNL A   1      30.284  27.446  24.207  1.00  0.00    -0.303 N 
ATOM     20  C   UNL A   1      31.163  28.326  24.859  1.00  0.00     0.052 A 
ATOM     21  C   UNL A   1      33.083  28.273  26.324  1.00  0.00     0.011 A 
ATOM     22  C   UNL A   1      31.100  29.706  24.924  1.00  0.00     0.027 A 
ATOM     23  C   UNL A   1      32.954  29.653  26.486  1.00  0.00     0.001 A 
ATOM     24  C   UNL A   1      31.989  30.368  25.768  1.00  0.00     0.002 A 
BRANCH  19  25
ATOM     25  C   UNL A   1      28.994  27.773  23.602  1.00  0.00     0.161 C 
BRANCH  25  26
ATOM     26  C   UNL A   1      28.783  29.143  22.927  1.00  0.00    -0.028 A 
ATOM     27  C   UNL A   1      29.509  29.587  21.810  1.00  0.00     0.007 A 
ATOM     28  C   UNL A   1      27.711  29.966  23.339  1.00  0.00     0.007 A 
ATOM     29  C   UNL A   1      29.189  30.767  21.122  1.00  0.00     0.021 A 
ATOM     30  C   UNL A   1      27.395  31.163  22.666  1.00  0.00     0.021 A 
ATOM     31  C   UNL A   1      28.135  31.555  21.555  1.00  0.00     0.041 A 
ATOM     32  Cl  UNL A   1      27.776  33.027  20.742  1.00  0.00    -0.084 Cl
ENDBRANCH  25  26
ENDBRANCH  19  25
ENDBRANCH   7   8
ENDBRANCH   6   7
ENDBRANCH   4   6
ENDBRANCH   1   2
BRANCH   1  33
ATOM     33  C   UNL A   1      38.421  19.857  24.764  1.00  0.00     0.042 C 
BRANCH  33  34
ATOM     34  C   UNL A   1      39.421  20.183  25.876  1.00  0.00     0.118 C 
BRANCH  34  35
ATOM     35  N   UNL A   1      40.445  19.185  26.140  1.00  0.00    -0.352 N 
ATOM     36  C   UNL A   1      41.786  19.310  26.429  1.00  0.00     0.251 C 
ATOM     37  H   UNL A   1      40.123  18.255  26.105  1.00  0.00     0.163 HD
ATOM     38  O   UNL A   1      42.517  18.353  26.653  1.00  0.00    -0.269 OA
BRANCH  36  39
ATOM     39  C   UNL A   1      42.352  20.660  26.454  1.00  0.00     0.039 A 
ATOM     40  C   UNL A   1      42.430  21.311  27.679  1.00  0.00     0.014 A 
ATOM     41  C   UNL A   1      42.698  21.302  25.263  1.00  0.00     0.014 A 
ATOM     42  C   UNL A   1      42.627  22.672  27.690  1.00  0.00     0.010 A 
ATOM     43  C   UNL A   1      42.970  22.664  25.277  1.00  0.00     0.010 A 
ATOM     44  C   UNL A   1      42.884  23.355  26.488  1.00  0.00    -0.014 A 
BRANCH  44  45
ATOM     45  C   UNL A   1      43.206  24.782  26.602  1.00  0.00     0.031 A 
ATOM     46  C   UNL A   1      42.253  25.736  27.235  1.00  0.00     0.074 A 
ATOM     47  C   UNL A   1      44.465  25.114  26.270  1.00  0.00     0.049 A 
ATOM     48  N   UNL A   1      42.485  26.940  27.684  1.00  0.00    -0.248 NA
ATOM     49  C   UNL A   1      40.859  25.288  27.394  1.00  0.00     0.031 C 
ATOM     50  C   UNL A   1      45.423  24.195  25.646  1.00  0.00     0.029 A 
ATOM     51  N   UNL A   1      45.175  26.259  26.474  1.00  0.00    -0.354 N 
ATOM     52  C   UNL A   1      41.277  27.391  28.195  1.00  0.00     0.074 A 
ATOM     53  C   UNL A   1      40.300  26.349  27.964  1.00  0.00     0.031 C 
ATOM     54  C   UNL A   1      46.621  24.785  25.594  1.00  0.00     0.029 A 
ATOM     55  C   UNL A   1      46.500  26.132  26.137  1.00  0.00     0.049 A 
ATOM     56  H   UNL A   1      44.781  27.089  26.825  1.00  0.00     0.167 HD
ATOM     57  C   UNL A   1      41.037  28.572  28.811  1.00  0.00     0.037 A 
ATOM     58  C   UNL A   1      47.509  27.008  26.277  1.00  0.00     0.037 A 
ATOM     59  C   UNL A   1      42.052  29.579  29.002  1.00  0.00     0.049 A 
ATOM     60  C   UNL A   1      47.201  28.316  26.942  1.00  0.00     0.074 A 
ATOM     61  C   UNL A   1      41.942  30.812  29.617  1.00  0.00     0.029 A 
ATOM     62  N   UNL A   1      43.368  29.463  28.564  1.00  0.00    -0.354 N 
ATOM     63  N   UNL A   1      46.073  28.721  27.476  1.00  0.00    -0.248 NA
ATOM     64  C   UNL A   1      48.295  29.286  27.027  1.00  0.00     0.031 C 
ATOM     65  C   UNL A   1      43.174  31.464  29.502  1.00  0.00     0.029 A 
ATOM     66  C   UNL A   1      44.071  30.617  28.867  1.00  0.00     0.049 A 
ATOM     67  H   UNL A   1      43.744  28.677  28.107  1.00  0.00     0.167 HD
ATOM     68  C   UNL A   1      46.316  29.994  27.961  1.00  0.00     0.074 A 
ATOM     69  C   UNL A   1      47.714  30.278  27.688  1.00  0.00     0.031 C 
ATOM     70  C   UNL A   1      45.463  30.858  28.566  1.00  0.00     0.037 A 
BRANCH  57  71
ATOM     71  C   UNL A   1      39.648  28.847  29.313  1.00  0.00     0.064 A 
ATOM     72  C   UNL A   1      38.643  29.338  28.466  1.00  0.00     0.173 A 
ATOM     73  C   UNL A   1      39.292  28.545  30.638  1.00  0.00     0.173 A 
ATOM     74  F   UNL A   1      38.926  29.653  27.194  1.00  0.00    -0.203 F 
ATOM     75  C   UNL A   1      37.341  29.525  28.926  1.00  0.00     0.198 A 
ATOM     76  C   UNL A   1      37.984  28.708  31.088  1.00  0.00     0.198 A 
ATOM     77  F   UNL A   1      40.211  28.070  31.492  1.00  0.00    -0.203 F 
ATOM     78  F   UNL A   1      36.405  30.021  28.105  1.00  0.00    -0.200 F 
ATOM     79  C   UNL A   1      37.010  29.200  30.233  1.00  0.00     0.200 A 
ATOM     80  F   UNL A   1      37.664  28.381  32.348  1.00  0.00    -0.200 F 
ATOM     81  F   UNL A   1      35.753  29.363  30.669  1.00  0.00    -0.200 F 
ENDBRANCH  57  71
BRANCH  58  82
ATOM     82  C   UNL A   1      48.865  26.632  25.810  1.00  0.00     0.064 A 
ATOM     83  C   UNL A   1      49.325  27.003  24.540  1.00  0.00     0.173 A 
ATOM     84  C   UNL A   1      49.765  25.968  26.661  1.00  0.00     0.173 A 
ATOM     85  F   UNL A   1      48.507  27.636  23.689  1.00  0.00    -0.203 F 
ATOM     86  C   UNL A   1      50.631  26.722  24.139  1.00  0.00     0.198 A 
ATOM     87  C   UNL A   1      51.077  25.717  26.272  1.00  0.00     0.198 A 
ATOM     88  F   UNL A   1      49.379  25.607  27.894  1.00  0.00    -0.203 F 
ATOM     89  F   UNL A   1      51.041  27.070  22.912  1.00  0.00    -0.200 F 
ATOM     90  C   UNL A   1      51.509  26.091  25.009  1.00  0.00     0.200 A 
ATOM     91  F   UNL A   1      51.928  25.135  27.128  1.00  0.00    -0.200 F 
ATOM     92  F   UNL A   1      52.770  25.846  24.632  1.00  0.00    -0.200 F 
ENDBRANCH  58  82
BRANCH  70  93
ATOM     93  C   UNL A   1      46.020  32.194  28.955  1.00  0.00     0.064 A 
ATOM     94  C   UNL A   1      45.914  33.300  28.101  1.00  0.00     0.173 A 
ATOM     95  C   UNL A   1      46.593  32.385  30.221  1.00  0.00     0.173 A 
ATOM     96  F   UNL A   1      45.389  33.160  26.875  1.00  0.00    -0.203 F 
ATOM     97  C   UNL A   1      46.373  34.552  28.498  1.00  0.00     0.198 A 
ATOM     98  C   UNL A   1      47.019  33.644  30.626  1.00  0.00     0.198 A 
ATOM     99  F   UNL A   1      46.707  31.356  31.075  1.00  0.00    -0.203 F 
ATOM    100  F   UNL A   1      46.296  35.590  27.653  1.00  0.00    -0.200 F 
ATOM    101  C   UNL A   1      46.914  34.725  29.764  1.00  0.00     0.200 A 
ATOM    102  F   UNL A   1      47.524  33.815  31.856  1.00  0.00    -0.200 F 
ATOM    103  F   UNL A   1      47.334  35.937  30.152  1.00  0.00    -0.200 F 
ENDBRANCH  70  93
ENDBRANCH  44  45
ENDBRANCH  36  39
ENDBRANCH  34  35
ENDBRANCH  33  34
ENDBRANCH   1  33
TORSDOF 14
ENDMDL
MODEL 3
REMARK VINA RESULT:     -13.3     10.609     15.577
REMARK SMILES O=C(CCN1C(=O)/C(=C2\C(=O)N(Cc3ccc(Cl)cc3)c3ccccc32)SC1=S)NCCCNC(=O)c1ccc(-c2c3nc(c(-c4c(F)c(F)c(F)c(F)c4F)c4ccc([nH]4)c(-c4c(F)c(F)c(F)c(F)c4F)c4nc(c(-c5c(F)c(F)c(F)c(F)c5F)c5ccc2[nH]5)C=C4)C=C3)cc1
REMARK SMILES IDX 31 1 30 2 1 3 2 4 3 6 4 7 5 8 6 9 28 10 7 11 8 12 27 13
REMARK SMILES IDX 29 14 9 15 10 16 26 17 11 18 12 19 21 20 25 21 22 22 24 23
REMARK SMILES IDX 23 24 13 25 14 26 15 27 20 28 16 29 19 30 17 31 18 32 32 33
REMARK SMILES IDX 33 34 34 35 35 36 36 38 37 39 38 40 99 41 39 42 98 43 40 44
REMARK SMILES IDX 41 45 42 46 92 47 43 48 97 49 91 50 93 51 44 52 96 53 90 54
REMARK SMILES IDX 89 55 45 57 77 58 57 59 76 60 58 61 61 62 75 63 94 64 59 65
REMARK SMILES IDX 60 66 74 68 95 69 62 70 46 71 47 72 55 73 48 74 49 75 53 76
REMARK SMILES IDX 56 77 50 78 51 79 54 80 52 81 78 82 79 83 87 84 80 85 81 86
REMARK SMILES IDX 85 87 88 88 82 89 83 90 86 91 84 92 63 93 64 94 72 95 65 96
REMARK SMILES IDX 66 97 70 98 73 99 67 100 68 101 71 102 69 103
REMARK H PARENT 30 5 34 37 93 56 61 67
REMARK Flexibility Score: inf
ROOT
ATOM      1  C   UNL A   1      31.401  27.588  26.830  1.00  0.00     0.117 C 
ENDROOT
BRANCH   1   2
ATOM      2  N   UNL A   1      31.048  27.755  25.441  1.00  0.00    -0.356 N 
ATOM      3  O   UNL A   1      29.715  25.877  25.315  1.00  0.00    -0.275 OA
ATOM      4  C   UNL A   1      30.120  26.932  24.839  1.00  0.00     0.221 C 
ATOM      5  H   UNL A   1      31.476  28.469  24.915  1.00  0.00     0.163 HD
BRANCH   4   6
ATOM      6  C   UNL A   1      29.595  27.482  23.528  1.00  0.00     0.122 C 
BRANCH   6   7
ATOM      7  C   UNL A   1      30.669  27.558  22.440  1.00  0.00     0.137 C 
BRANCH   7   8
ATOM      8  N   UNL A   1      31.932  26.786  22.557  1.00  0.00    -0.292 N 
ATOM      9  C   UNL A   1      31.983  25.408  22.596  1.00  0.00     0.267 C 
ATOM     10  C   UNL A   1      33.171  27.387  22.655  1.00  0.00     0.148 C 
ATOM     11  O   UNL A   1      31.252  24.673  21.950  1.00  0.00    -0.268 OA
ATOM     12  C   UNL A   1      33.245  24.918  23.229  1.00  0.00     0.093 C 
ATOM     13  S   UNL A   1      34.404  26.176  22.985  1.00  0.00    -0.053 SA
ATOM     14  S   UNL A   1      33.561  29.003  22.512  1.00  0.00    -0.052 S 
ATOM     15  C   UNL A   1      33.440  23.753  23.879  1.00  0.00     0.069 C 
ATOM     16  C   UNL A   1      32.340  22.777  24.254  1.00  0.00     0.260 C 
ATOM     17  C   UNL A   1      34.670  23.171  24.436  1.00  0.00     0.012 A 
ATOM     18  O   UNL A   1      31.149  22.982  24.152  1.00  0.00    -0.269 OA
ATOM     19  N   UNL A   1      32.964  21.662  24.822  1.00  0.00    -0.303 N 
ATOM     20  C   UNL A   1      34.312  21.971  25.072  1.00  0.00     0.052 A 
ATOM     21  C   UNL A   1      35.997  23.566  24.400  1.00  0.00     0.011 A 
ATOM     22  C   UNL A   1      35.224  21.265  25.834  1.00  0.00     0.027 A 
ATOM     23  C   UNL A   1      36.945  22.793  25.072  1.00  0.00     0.001 A 
ATOM     24  C   UNL A   1      36.557  21.668  25.809  1.00  0.00     0.002 A 
BRANCH  19  25
ATOM     25  C   UNL A   1      32.265  20.423  25.160  1.00  0.00     0.161 C 
BRANCH  25  26
ATOM     26  C   UNL A   1      32.982  19.067  25.013  1.00  0.00    -0.028 A 
ATOM     27  C   UNL A   1      34.145  18.873  24.251  1.00  0.00     0.007 A 
ATOM     28  C   UNL A   1      32.557  17.965  25.789  1.00  0.00     0.007 A 
ATOM     29  C   UNL A   1      34.864  17.668  24.262  1.00  0.00     0.021 A 
ATOM     30  C   UNL A   1      33.262  16.745  25.791  1.00  0.00     0.021 A 
ATOM     31  C   UNL A   1      34.417  16.604  25.030  1.00  0.00     0.041 A 
ATOM     32  Cl  UNL A   1      35.270  15.112  25.004  1.00  0.00    -0.084 Cl
ENDBRANCH  25  26
ENDBRANCH  19  25
ENDBRANCH   7   8
ENDBRANCH   6   7
ENDBRANCH   4   6
ENDBRANCH   1   2
BRANCH   1  33
ATOM     33  C   UNL A   1      32.732  28.216  27.262  1.00  0.00     0.042 C 
BRANCH  33  34
ATOM     34  C   UNL A   1      33.355  29.364  26.463  1.00  0.00     0.118 C 
BRANCH  34  35
ATOM     35  N   UNL A   1      32.965  30.710  26.848  1.00  0.00    -0.352 N 
ATOM     36  C   UNL A   1      33.655  31.704  27.506  1.00  0.00     0.251 C 
ATOM     37  H   UNL A   1      32.045  30.953  26.596  1.00  0.00     0.163 HD
ATOM     38  O   UNL A   1      33.181  32.810  27.737  1.00  0.00    -0.269 OA
BRANCH  36  39
ATOM     39  C   UNL A   1      35.016  31.403  27.956  1.00  0.00     0.039 A 
ATOM     40  C   UNL A   1      35.260  30.147  28.495  1.00  0.00     0.014 A 
ATOM     41  C   UNL A   1      36.000  32.394  27.938  1.00  0.00     0.014 A 
ATOM     42  C   UNL A   1      36.409  29.956  29.227  1.00  0.00     0.010 A 
ATOM     43  C   UNL A   1      37.194  32.181  28.614  1.00  0.00     0.010 A 
ATOM     44  C   UNL A   1      37.373  30.978  29.301  1.00  0.00    -0.014 A 
BRANCH  44  45
ATOM     45  C   UNL A   1      38.623  30.649  29.996  1.00  0.00     0.031 A 
ATOM     46  C   UNL A   1      38.846  31.065  31.409  1.00  0.00     0.074 A 
ATOM     47  C   UNL A   1      39.441  29.810  29.340  1.00  0.00     0.049 A 
ATOM     48  N   UNL A   1      39.732  30.618  32.258  1.00  0.00    -0.248 NA
ATOM     49  C   UNL A   1      37.966  32.114  31.949  1.00  0.00     0.031 C 
ATOM     50  C   UNL A   1      39.243  29.385  27.950  1.00  0.00     0.029 A 
ATOM     51  N   UNL A   1      40.535  29.112  29.757  1.00  0.00    -0.354 N 
ATOM     52  C   UNL A   1      39.509  31.312  33.437  1.00  0.00     0.074 A 
ATOM     53  C   UNL A   1      38.431  32.245  33.186  1.00  0.00     0.031 C 
ATOM     54  C   UNL A   1      40.136  28.435  27.655  1.00  0.00     0.029 A 
ATOM     55  C   UNL A   1      40.990  28.222  28.816  1.00  0.00     0.049 A 
ATOM     56  H   UNL A   1      40.954  29.233  30.639  1.00  0.00     0.167 HD
ATOM     57  C   UNL A   1      40.154  31.155  34.617  1.00  0.00     0.037 A 
ATOM     58  C   UNL A   1      41.979  27.317  28.899  1.00  0.00     0.037 A 
ATOM     59  C   UNL A   1      41.233  30.216  34.803  1.00  0.00     0.049 A 
ATOM     60  C   UNL A   1      42.688  27.187  30.214  1.00  0.00     0.074 A 
ATOM     61  C   UNL A   1      41.962  29.952  35.947  1.00  0.00     0.029 A 
ATOM     62  N   UNL A   1      41.739  29.391  33.803  1.00  0.00    -0.354 N 
ATOM     63  N   UNL A   1      42.441  27.803  31.346  1.00  0.00    -0.248 NA
ATOM     64  C   UNL A   1      43.807  26.243  30.269  1.00  0.00     0.031 C 
ATOM     65  C   UNL A   1      42.945  29.011  35.626  1.00  0.00     0.029 A 
ATOM     66  C   UNL A   1      42.794  28.642  34.296  1.00  0.00     0.049 A 
ATOM     67  H   UNL A   1      41.398  29.346  32.881  1.00  0.00     0.167 HD
ATOM     68  C   UNL A   1      43.372  27.326  32.252  1.00  0.00     0.074 A 
ATOM     69  C   UNL A   1      44.167  26.339  31.542  1.00  0.00     0.031 C 
ATOM     70  C   UNL A   1      43.564  27.676  33.548  1.00  0.00     0.037 A 
BRANCH  57  71
ATOM     71  C   UNL A   1      39.730  32.003  35.782  1.00  0.00     0.064 A 
ATOM     72  C   UNL A   1      40.330  33.244  36.046  1.00  0.00     0.173 A 
ATOM     73  C   UNL A   1      38.659  31.610  36.602  1.00  0.00     0.173 A 
ATOM     74  F   UNL A   1      41.362  33.667  35.303  1.00  0.00    -0.203 F 
ATOM     75  C   UNL A   1      39.882  34.052  37.089  1.00  0.00     0.198 A 
ATOM     76  C   UNL A   1      38.197  32.432  37.627  1.00  0.00     0.198 A 
ATOM     77  F   UNL A   1      38.046  30.435  36.395  1.00  0.00    -0.203 F 
ATOM     78  F   UNL A   1      40.488  35.221  37.339  1.00  0.00    -0.200 F 
ATOM     79  C   UNL A   1      38.809  33.651  37.872  1.00  0.00     0.200 A 
ATOM     80  F   UNL A   1      37.152  32.047  38.374  1.00  0.00    -0.200 F 
ATOM     81  F   UNL A   1      38.368  34.439  38.863  1.00  0.00    -0.200 F 
ENDBRANCH  57  71
BRANCH  58  82
ATOM     82  C   UNL A   1      42.293  26.475  27.719  1.00  0.00     0.064 A 
ATOM     83  C   UNL A   1      43.314  26.827  26.827  1.00  0.00     0.173 A 
ATOM     84  C   UNL A   1      41.634  25.253  27.507  1.00  0.00     0.173 A 
ATOM     85  F   UNL A   1      43.971  27.984  26.983  1.00  0.00    -0.203 F 
ATOM     86  C   UNL A   1      43.662  25.988  25.768  1.00  0.00     0.198 A 
ATOM     87  C   UNL A   1      42.005  24.402  26.470  1.00  0.00     0.198 A 
ATOM     88  F   UNL A   1      40.662  24.861  28.344  1.00  0.00    -0.203 F 
ATOM     89  F   UNL A   1      44.629  26.356  24.917  1.00  0.00    -0.200 F 
ATOM     90  C   UNL A   1      43.016  24.772  25.598  1.00  0.00     0.200 A 
ATOM     91  F   UNL A   1      41.397  23.215  26.330  1.00  0.00    -0.200 F 
ATOM     92  F   UNL A   1      43.370  23.957  24.596  1.00  0.00    -0.200 F 
ENDBRANCH  58  82
BRANCH  70  93
ATOM     93  C   UNL A   1      44.688  26.997  34.269  1.00  0.00     0.064 A 
ATOM     94  C   UNL A   1      45.962  27.578  34.337  1.00  0.00     0.173 A 
ATOM     95  C   UNL A   1      44.468  25.798  34.964  1.00  0.00     0.173 A 
ATOM     96  F   UNL A   1      46.223  28.715  33.675  1.00  0.00    -0.203 F 
ATOM     97  C   UNL A   1      46.982  26.975  35.065  1.00  0.00     0.198 A 
ATOM     98  C   UNL A   1      45.480  25.217  35.718  1.00  0.00     0.198 A 
ATOM     99  F   UNL A   1      43.262  25.211  34.934  1.00  0.00    -0.203 F 
ATOM    100  F   UNL A   1      48.203  27.526  35.088  1.00  0.00    -0.200 F 
ATOM    101  C   UNL A   1      46.737  25.802  35.765  1.00  0.00     0.200 A 
ATOM    102  F   UNL A   1      45.237  24.094  36.409  1.00  0.00    -0.200 F 
ATOM    103  F   UNL A   1      47.714  25.235  36.485  1.00  0.00    -0.200 F 
ENDBRANCH  70  93
ENDBRANCH  44  45
ENDBRANCH  36  39
ENDBRANCH  34  35
ENDBRANCH  33  34
ENDBRANCH   1  33
TORSDOF 14
ENDMDL
