MODEL 1
REMARK VINA RESULT:     -11.3      0.000      0.000
REMARK SMILES CCCC1(C(=O)N2CCO[C@@H](CC(=O)NCCCNC(=O)c3ccc(-c4c5nc(c(-c6c(F)c(F)c(F)c(F)c6F)c6ccc([nH]6)c(-c6c(F)c(F)c(F)c(F)c6F)c6nc(c(-c7c(F)c(F)c(F)c(F)c7F)c7ccc4[nH]7)C=C6)C=C5)cc3)C2)CC[NH2+]CC1
REMARK SMILES IDX 13 1 14 2 15 3 12 5 11 6 7 7 8 8 85 9 9 10 10 11 5 12 6 13
REMARK SMILES IDX 4 14 86 15 90 16 87 17 89 18 88 19 3 22 2 23 1 24 16 25
REMARK SMILES IDX 17 26 18 27 19 28 20 29 21 31 22 32 23 33 84 34 24 35 83 36
REMARK SMILES IDX 25 37 26 38 27 39 77 40 28 41 82 42 76 43 78 44 29 45 81 46
REMARK SMILES IDX 75 47 74 48 30 50 62 51 42 52 61 53 43 54 46 55 60 56 79 57
REMARK SMILES IDX 44 58 45 59 59 61 80 62 47 63 31 64 32 65 40 66 33 67 34 68
REMARK SMILES IDX 38 69 41 70 35 71 36 72 39 73 37 74 63 75 64 76 72 77 65 78
REMARK SMILES IDX 66 79 70 80 73 81 67 82 68 83 71 84 69 85 48 86 49 87 57 88
REMARK SMILES IDX 50 89 51 90 55 91 58 92 52 93 53 94 56 95 54 96
REMARK H PARENT 15 4 88 20 88 21 19 30 78 49 46 60
REMARK Flexibility Score: inf
ROOT
ATOM      1  C   UNL A   1      36.585  22.750  23.925  1.00  0.00     0.222 C 
ATOM      2  O   UNL A   1      36.628  23.336  22.842  1.00  0.00    -0.275 OA
ATOM      3  N   UNL A   1      36.768  21.398  23.926  1.00  0.00    -0.356 N 
ATOM      4  H   UNL A   1      36.953  21.014  23.039  1.00  0.00     0.163 HD
ENDROOT
BRANCH   1   5
ATOM      5  C   UNL A   1      36.278  23.506  25.200  1.00  0.00     0.133 C 
BRANCH   5   6
ATOM      6  C   UNL A   1      34.802  23.901  25.288  1.00  0.00     0.147 C 
ATOM      7  N   UNL A   1      33.150  25.522  24.361  1.00  0.00    -0.337 N 
ATOM      8  C   UNL A   1      32.377  24.406  23.829  1.00  0.00     0.148 C 
ATOM      9  C   UNL A   1      34.553  25.194  24.509  1.00  0.00     0.152 C 
ATOM     10  C   UNL A   1      32.615  23.161  24.690  1.00  0.00     0.182 C 
ATOM     11  O   UNL A   1      34.016  22.824  24.727  1.00  0.00    -0.374 OA
BRANCH   7  12
ATOM     12  C   UNL A   1      32.898  26.824  23.940  1.00  0.00     0.229 C 
ATOM     13  O   UNL A   1      33.368  27.232  22.879  1.00  0.00    -0.274 OA
BRANCH  12  14
ATOM     14  C   UNL A   1      32.204  27.745  24.975  1.00  0.00     0.060 C 
ATOM     15  C   UNL A   1      32.101  27.056  26.350  1.00  0.00     0.078 C 
ATOM     16  C   UNL A   1      33.120  28.999  25.172  1.00  0.00     0.078 C 
ATOM     17  C   UNL A   1      31.667  28.002  27.465  1.00  0.00     0.261 C 
ATOM     18  C   UNL A   1      32.694  29.884  26.343  1.00  0.00     0.261 C 
ATOM     19  N   UNL A   1      32.603  29.117  27.582  1.00  0.00    -0.346 N 
ATOM     20  H   UNL A   1      33.526  28.750  27.811  1.00  0.00     0.346 HD
ATOM     21  H   UNL A   1      32.263  29.740  28.315  1.00  0.00     0.346 HD
BRANCH  14  22
ATOM     22  C   UNL A   1      30.831  28.259  24.420  1.00  0.00     0.017 C 
BRANCH  22  23
ATOM     23  C   UNL A   1      29.978  27.418  23.454  1.00  0.00    -0.002 C 
ATOM     24  C   UNL A   1      28.974  26.473  24.082  1.00  0.00     0.004 C 
ENDBRANCH  22  23
ENDBRANCH  14  22
ENDBRANCH  12  14
ENDBRANCH   7  12
ENDBRANCH   5   6
ENDBRANCH   1   5
BRANCH   3  25
ATOM     25  C   UNL A   1      36.741  20.419  25.010  1.00  0.00     0.117 C 
BRANCH  25  26
ATOM     26  C   UNL A   1      37.999  19.546  25.052  1.00  0.00     0.042 C 
BRANCH  26  27
ATOM     27  C   UNL A   1      39.166  20.135  25.833  1.00  0.00     0.118 C 
BRANCH  27  28
ATOM     28  N   UNL A   1      40.276  19.206  25.933  1.00  0.00    -0.352 N 
ATOM     29  C   UNL A   1      41.623  19.436  26.077  1.00  0.00     0.251 C 
ATOM     30  H   UNL A   1      40.023  18.255  25.890  1.00  0.00     0.163 HD
ATOM     31  O   UNL A   1      42.402  18.505  25.888  1.00  0.00    -0.269 OA
BRANCH  29  32
ATOM     32  C   UNL A   1      42.167  20.768  26.454  1.00  0.00     0.039 A 
ATOM     33  C   UNL A   1      42.169  21.122  27.810  1.00  0.00     0.014 A 
ATOM     34  C   UNL A   1      42.567  21.715  25.506  1.00  0.00     0.014 A 
ATOM     35  C   UNL A   1      42.589  22.395  28.212  1.00  0.00     0.010 A 
ATOM     36  C   UNL A   1      43.057  22.961  25.912  1.00  0.00     0.010 A 
ATOM     37  C   UNL A   1      43.051  23.324  27.268  1.00  0.00    -0.014 A 
BRANCH  37  38
ATOM     38  C   UNL A   1      43.481  24.688  27.683  1.00  0.00     0.031 A 
ATOM     39  C   UNL A   1      42.460  25.735  28.044  1.00  0.00     0.074 A 
ATOM     40  C   UNL A   1      44.791  25.002  27.712  1.00  0.00     0.049 A 
ATOM     41  N   UNL A   1      42.641  26.984  28.400  1.00  0.00    -0.248 NA
ATOM     42  C   UNL A   1      41.047  25.334  27.975  1.00  0.00     0.031 C 
ATOM     43  C   UNL A   1      45.884  24.100  27.351  1.00  0.00     0.029 A 
ATOM     44  N   UNL A   1      45.424  26.171  28.061  1.00  0.00    -0.354 N 
ATOM     45  C   UNL A   1      41.370  27.519  28.572  1.00  0.00     0.074 A 
ATOM     46  C   UNL A   1      40.425  26.472  28.244  1.00  0.00     0.031 C 
ATOM     47  C   UNL A   1      47.053  24.738  27.521  1.00  0.00     0.029 A 
ATOM     48  C   UNL A   1      46.793  26.102  27.976  1.00  0.00     0.049 A 
ATOM     49  H   UNL A   1      44.942  26.981  28.344  1.00  0.00     0.167 HD
ATOM     50  C   UNL A   1      41.019  28.762  28.983  1.00  0.00     0.037 A 
ATOM     51  C   UNL A   1      47.732  27.032  28.235  1.00  0.00     0.037 A 
ATOM     52  C   UNL A   1      41.952  29.793  29.356  1.00  0.00     0.049 A 
ATOM     53  C   UNL A   1      47.318  28.397  28.714  1.00  0.00     0.074 A 
ATOM     54  C   UNL A   1      41.688  31.056  29.856  1.00  0.00     0.029 A 
ATOM     55  N   UNL A   1      43.331  29.677  29.274  1.00  0.00    -0.354 N 
ATOM     56  N   UNL A   1      46.114  28.868  28.931  1.00  0.00    -0.248 NA
ATOM     57  C   UNL A   1      48.397  29.358  28.990  1.00  0.00     0.031 C 
ATOM     58  C   UNL A   1      42.906  31.719  30.044  1.00  0.00     0.029 A 
ATOM     59  C   UNL A   1      43.930  30.853  29.695  1.00  0.00     0.049 A 
ATOM     60  H   UNL A   1      43.812  28.877  28.961  1.00  0.00     0.167 HD
ATOM     61  C   UNL A   1      46.290  30.167  29.390  1.00  0.00     0.074 A 
ATOM     62  C   UNL A   1      47.716  30.406  29.435  1.00  0.00     0.031 C 
ATOM     63  C   UNL A   1      45.351  31.078  29.741  1.00  0.00     0.037 A 
BRANCH  50  64
ATOM     64  C   UNL A   1      39.554  29.081  29.057  1.00  0.00     0.064 A 
ATOM     65  C   UNL A   1      38.818  29.430  27.915  1.00  0.00     0.173 A 
ATOM     66  C   UNL A   1      38.870  28.994  30.279  1.00  0.00     0.173 A 
ATOM     67  F   UNL A   1      39.429  29.536  26.725  1.00  0.00    -0.203 F 
ATOM     68  C   UNL A   1      37.456  29.708  27.998  1.00  0.00     0.198 A 
ATOM     69  C   UNL A   1      37.503  29.247  30.353  1.00  0.00     0.198 A 
ATOM     70  F   UNL A   1      39.526  28.656  31.399  1.00  0.00    -0.203 F 
ATOM     71  F   UNL A   1      36.782  30.083  26.903  1.00  0.00    -0.200 F 
ATOM     72  C   UNL A   1      36.798  29.610  29.215  1.00  0.00     0.200 A 
ATOM     73  F   UNL A   1      36.866  29.141  31.529  1.00  0.00    -0.200 F 
ATOM     74  F   UNL A   1      35.486  29.872  29.292  1.00  0.00    -0.200 F 
ENDBRANCH  50  64
BRANCH  51  75
ATOM     75  C   UNL A   1      49.169  26.691  28.079  1.00  0.00     0.064 A 
ATOM     76  C   UNL A   1      49.951  26.361  29.194  1.00  0.00     0.173 A 
ATOM     77  C   UNL A   1      49.788  26.688  26.821  1.00  0.00     0.173 A 
ATOM     78  F   UNL A   1      49.408  26.375  30.420  1.00  0.00    -0.203 F 
ATOM     79  C   UNL A   1      51.304  26.058  29.060  1.00  0.00     0.198 A 
ATOM     80  C   UNL A   1      51.134  26.360  26.684  1.00  0.00     0.198 A 
ATOM     81  F   UNL A   1      49.080  26.995  25.723  1.00  0.00    -0.203 F 
ATOM     82  F   UNL A   1      52.040  25.787  30.146  1.00  0.00    -0.200 F 
ATOM     83  C   UNL A   1      51.893  26.052  27.804  1.00  0.00     0.200 A 
ATOM     84  F   UNL A   1      51.697  26.346  25.468  1.00  0.00    -0.200 F 
ATOM     85  F   UNL A   1      53.193  25.758  27.673  1.00  0.00    -0.200 F 
ENDBRANCH  51  75
BRANCH  63  86
ATOM     86  C   UNL A   1      45.836  32.411  30.229  1.00  0.00     0.064 A 
ATOM     87  C   UNL A   1      46.014  33.492  29.354  1.00  0.00     0.173 A 
ATOM     88  C   UNL A   1      46.093  32.619  31.593  1.00  0.00     0.173 A 
ATOM     89  F   UNL A   1      45.796  33.338  28.039  1.00  0.00    -0.203 F 
ATOM     90  C   UNL A   1      46.455  34.726  29.822  1.00  0.00     0.198 A 
ATOM     91  C   UNL A   1      46.509  33.862  32.062  1.00  0.00     0.198 A 
ATOM     92  F   UNL A   1      45.931  31.618  32.472  1.00  0.00    -0.203 F 
ATOM     93  F   UNL A   1      46.659  35.734  28.963  1.00  0.00    -0.200 F 
ATOM     94  C   UNL A   1      46.696  34.912  31.176  1.00  0.00     0.200 A 
ATOM     95  F   UNL A   1      46.734  34.043  33.371  1.00  0.00    -0.200 F 
ATOM     96  F   UNL A   1      47.117  36.103  31.625  1.00  0.00    -0.200 F 
ENDBRANCH  63  86
ENDBRANCH  37  38
ENDBRANCH  29  32
ENDBRANCH  27  28
ENDBRANCH  26  27
ENDBRANCH  25  26
ENDBRANCH   3  25
TORSDOF 15
ENDMDL
MODEL 2
REMARK VINA RESULT:     -11.3      4.465      8.313
REMARK SMILES CCCC1(C(=O)N2CCO[C@@H](CC(=O)NCCCNC(=O)c3ccc(-c4c5nc(c(-c6c(F)c(F)c(F)c(F)c6F)c6ccc([nH]6)c(-c6c(F)c(F)c(F)c(F)c6F)c6nc(c(-c7c(F)c(F)c(F)c(F)c7F)c7ccc4[nH]7)C=C6)C=C5)cc3)C2)CC[NH2+]CC1
REMARK SMILES IDX 13 1 14 2 15 3 12 5 11 6 7 7 8 8 85 9 9 10 10 11 5 12 6 13
REMARK SMILES IDX 4 14 86 15 90 16 87 17 89 18 88 19 3 22 2 23 1 24 16 25
REMARK SMILES IDX 17 26 18 27 19 28 20 29 21 31 22 32 23 33 84 34 24 35 83 36
REMARK SMILES IDX 25 37 26 38 27 39 77 40 28 41 82 42 76 43 78 44 29 45 81 46
REMARK SMILES IDX 75 47 74 48 30 50 62 51 42 52 61 53 43 54 46 55 60 56 79 57
REMARK SMILES IDX 44 58 45 59 59 61 80 62 47 63 31 64 32 65 40 66 33 67 34 68
REMARK SMILES IDX 38 69 41 70 35 71 36 72 39 73 37 74 63 75 64 76 72 77 65 78
REMARK SMILES IDX 66 79 70 80 73 81 67 82 68 83 71 84 69 85 48 86 49 87 57 88
REMARK SMILES IDX 50 89 51 90 55 91 58 92 52 93 53 94 56 95 54 96
REMARK H PARENT 15 4 88 20 88 21 19 30 78 49 46 60
REMARK Flexibility Score: inf
ROOT
ATOM      1  C   UNL A   1      33.490  26.584  21.987  1.00  0.00     0.222 C 
ATOM      2  O   UNL A   1      33.281  26.023  20.909  1.00  0.00    -0.275 OA
ATOM      3  N   UNL A   1      33.501  27.949  22.003  1.00  0.00    -0.356 N 
ATOM      4  H   UNL A   1      33.305  28.365  21.132  1.00  0.00     0.163 HD
ENDROOT
BRANCH   1   5
ATOM      5  C   UNL A   1      33.782  25.778  23.234  1.00  0.00     0.133 C 
BRANCH   5   6
ATOM      6  C   UNL A   1      32.845  24.575  23.368  1.00  0.00     0.147 C 
ATOM      7  N   UNL A   1      32.337  22.647  24.865  1.00  0.00    -0.337 N 
ATOM      8  C   UNL A   1      30.991  23.174  25.061  1.00  0.00     0.148 C 
ATOM      9  C   UNL A   1      33.289  23.687  24.533  1.00  0.00     0.152 C 
ATOM     10  C   UNL A   1      30.580  23.995  23.835  1.00  0.00     0.182 C 
ATOM     11  O   UNL A   1      31.508  25.074  23.605  1.00  0.00    -0.374 OA
BRANCH   7  12
ATOM     12  C   UNL A   1      32.835  21.647  25.694  1.00  0.00     0.229 C 
ATOM     13  O   UNL A   1      33.098  21.892  26.870  1.00  0.00    -0.274 OA
BRANCH  12  14
ATOM     14  C   UNL A   1      33.229  20.323  24.991  1.00  0.00     0.060 C 
ATOM     15  C   UNL A   1      32.962  19.109  25.904  1.00  0.00     0.078 C 
ATOM     16  C   UNL A   1      32.295  20.159  23.746  1.00  0.00     0.078 C 
ATOM     17  C   UNL A   1      33.086  17.773  25.178  1.00  0.00     0.261 C 
ATOM     18  C   UNL A   1      32.395  18.782  23.090  1.00  0.00     0.261 C 
ATOM     19  N   UNL A   1      32.152  17.715  24.056  1.00  0.00    -0.346 N 
ATOM     20  H   UNL A   1      31.201  17.803  24.412  1.00  0.00     0.346 HD
ATOM     21  H   UNL A   1      32.286  16.822  23.580  1.00  0.00     0.346 HD
BRANCH  14  22
ATOM     22  C   UNL A   1      34.701  20.402  24.456  1.00  0.00     0.017 C 
BRANCH  22  23
ATOM     23  C   UNL A   1      35.877  20.796  25.365  1.00  0.00    -0.002 C 
ATOM     24  C   UNL A   1      37.235  20.232  25.002  1.00  0.00     0.004 C 
ENDBRANCH  22  23
ENDBRANCH  14  22
ENDBRANCH  12  14
ENDBRANCH   7  12
ENDBRANCH   5   6
ENDBRANCH   1   5
BRANCH   3  25
ATOM     25  C   UNL A   1      33.750  28.901  23.081  1.00  0.00     0.117 C 
BRANCH  25  26
ATOM     26  C   UNL A   1      32.559  29.042  24.035  1.00  0.00     0.042 C 
BRANCH  26  27
ATOM     27  C   UNL A   1      32.928  29.271  25.495  1.00  0.00     0.118 C 
BRANCH  27  28
ATOM     28  N   UNL A   1      32.644  30.629  25.920  1.00  0.00    -0.352 N 
ATOM     29  C   UNL A   1      33.213  31.392  26.911  1.00  0.00     0.251 C 
ATOM     30  H   UNL A   1      31.926  31.077  25.416  1.00  0.00     0.163 HD
ATOM     31  O   UNL A   1      32.645  32.425  27.256  1.00  0.00    -0.269 OA
BRANCH  29  32
ATOM     32  C   UNL A   1      34.489  31.012  27.574  1.00  0.00     0.039 A 
ATOM     33  C   UNL A   1      34.603  29.715  28.092  1.00  0.00     0.014 A 
ATOM     34  C   UNL A   1      35.523  31.925  27.798  1.00  0.00     0.014 A 
ATOM     35  C   UNL A   1      35.748  29.332  28.801  1.00  0.00     0.010 A 
ATOM     36  C   UNL A   1      36.698  31.521  28.441  1.00  0.00     0.010 A 
ATOM     37  C   UNL A   1      36.814  30.227  28.972  1.00  0.00    -0.014 A 
BRANCH  37  38
ATOM     38  C   UNL A   1      38.027  29.835  29.742  1.00  0.00     0.031 A 
ATOM     39  C   UNL A   1      38.242  30.347  31.142  1.00  0.00     0.074 A 
ATOM     40  C   UNL A   1      38.956  29.039  29.177  1.00  0.00     0.049 A 
ATOM     41  N   UNL A   1      39.249  30.141  31.957  1.00  0.00    -0.248 NA
ATOM     42  C   UNL A   1      37.199  31.226  31.694  1.00  0.00     0.031 C 
ATOM     43  C   UNL A   1      38.896  28.503  27.818  1.00  0.00     0.029 A 
ATOM     44  N   UNL A   1      40.135  28.543  29.679  1.00  0.00    -0.354 N 
ATOM     45  C   UNL A   1      38.971  30.880  33.100  1.00  0.00     0.074 A 
ATOM     46  C   UNL A   1      37.722  31.571  32.861  1.00  0.00     0.031 C 
ATOM     47  C   UNL A   1      39.974  27.733  27.602  1.00  0.00     0.029 A 
ATOM     48  C   UNL A   1      40.816  27.744  28.796  1.00  0.00     0.049 A 
ATOM     49  H   UNL A   1      40.461  28.744  30.586  1.00  0.00     0.167 HD
ATOM     50  C   UNL A   1      39.680  30.963  34.252  1.00  0.00     0.037 A 
ATOM     51  C   UNL A   1      41.987  27.091  28.931  1.00  0.00     0.037 A 
ATOM     52  C   UNL A   1      40.898  30.241  34.516  1.00  0.00     0.049 A 
ATOM     53  C   UNL A   1      42.743  27.179  30.229  1.00  0.00     0.074 A 
ATOM     54  C   UNL A   1      41.645  30.204  35.681  1.00  0.00     0.029 A 
ATOM     55  N   UNL A   1      41.545  29.426  33.601  1.00  0.00    -0.354 N 
ATOM     56  N   UNL A   1      42.437  27.832  31.324  1.00  0.00    -0.248 NA
ATOM     57  C   UNL A   1      44.007  26.430  30.312  1.00  0.00     0.031 C 
ATOM     58  C   UNL A   1      42.764  29.394  35.460  1.00  0.00     0.029 A 
ATOM     59  C   UNL A   1      42.693  28.897  34.169  1.00  0.00     0.049 A 
ATOM     60  H   UNL A   1      41.236  29.250  32.683  1.00  0.00     0.167 HD
ATOM     61  C   UNL A   1      43.453  27.557  32.229  1.00  0.00     0.074 A 
ATOM     62  C   UNL A   1      44.378  26.665  31.563  1.00  0.00     0.031 C 
ATOM     63  C   UNL A   1      43.604  28.006  33.499  1.00  0.00     0.037 A 
BRANCH  50  64
ATOM     64  C   UNL A   1      39.154  31.867  35.328  1.00  0.00     0.064 A 
ATOM     65  C   UNL A   1      38.379  31.375  36.389  1.00  0.00     0.173 A 
ATOM     66  C   UNL A   1      39.463  33.236  35.319  1.00  0.00     0.173 A 
ATOM     67  F   UNL A   1      38.048  30.075  36.437  1.00  0.00    -0.203 F 
ATOM     68  C   UNL A   1      37.910  32.224  37.388  1.00  0.00     0.198 A 
ATOM     69  C   UNL A   1      39.015  34.077  36.335  1.00  0.00     0.198 A 
ATOM     70  F   UNL A   1      40.207  33.755  34.332  1.00  0.00    -0.203 F 
ATOM     71  F   UNL A   1      37.136  31.740  38.368  1.00  0.00    -0.200 F 
ATOM     72  C   UNL A   1      38.234  33.573  37.364  1.00  0.00     0.200 A 
ATOM     73  F   UNL A   1      39.337  35.378  36.316  1.00  0.00    -0.200 F 
ATOM     74  F   UNL A   1      37.787  34.388  38.329  1.00  0.00    -0.200 F 
ENDBRANCH  50  64
BRANCH  51  75
ATOM     75  C   UNL A   1      42.503  26.264  27.812  1.00  0.00     0.064 A 
ATOM     76  C   UNL A   1      43.457  26.780  26.922  1.00  0.00     0.173 A 
ATOM     77  C   UNL A   1      42.059  24.950  27.606  1.00  0.00     0.173 A 
ATOM     78  F   UNL A   1      43.893  28.040  27.066  1.00  0.00    -0.203 F 
ATOM     79  C   UNL A   1      43.934  26.018  25.858  1.00  0.00     0.198 A 
ATOM     80  C   UNL A   1      42.555  24.180  26.557  1.00  0.00     0.198 A 
ATOM     81  F   UNL A   1      41.149  24.412  28.431  1.00  0.00    -0.203 F 
ATOM     82  F   UNL A   1      44.813  26.548  24.998  1.00  0.00    -0.200 F 
ATOM     83  C   UNL A   1      43.487  24.717  25.680  1.00  0.00     0.200 A 
ATOM     84  F   UNL A   1      42.128  22.921  26.393  1.00  0.00    -0.200 F 
ATOM     85  F   UNL A   1      43.947  23.983  24.658  1.00  0.00    -0.200 F 
ENDBRANCH  51  75
BRANCH  63  86
ATOM     86  C   UNL A   1      44.800  27.520  34.262  1.00  0.00     0.064 A 
ATOM     87  C   UNL A   1      46.010  28.230  34.260  1.00  0.00     0.173 A 
ATOM     88  C   UNL A   1      44.727  26.347  35.030  1.00  0.00     0.173 A 
ATOM     89  F   UNL A   1      46.134  29.349  33.529  1.00  0.00    -0.203 F 
ATOM     90  C   UNL A   1      47.109  27.773  34.981  1.00  0.00     0.198 A 
ATOM     91  C   UNL A   1      45.821  25.906  35.769  1.00  0.00     0.198 A 
ATOM     92  F   UNL A   1      43.591  25.635  35.069  1.00  0.00    -0.203 F 
ATOM     93  F   UNL A   1      48.267  28.445  34.932  1.00  0.00    -0.200 F 
ATOM     94  C   UNL A   1      47.012  26.615  35.739  1.00  0.00     0.200 A 
ATOM     95  F   UNL A   1      45.723  24.792  36.509  1.00  0.00    -0.200 F 
ATOM     96  F   UNL A   1      48.071  26.179  36.435  1.00  0.00    -0.200 F 
ENDBRANCH  63  86
ENDBRANCH  37  38
ENDBRANCH  29  32
ENDBRANCH  27  28
ENDBRANCH  26  27
ENDBRANCH  25  26
ENDBRANCH   3  25
TORSDOF 15
ENDMDL
MODEL 3
REMARK VINA RESULT:     -11.2      1.040      1.940
REMARK SMILES CCCC1(C(=O)N2CCO[C@@H](CC(=O)NCCCNC(=O)c3ccc(-c4c5nc(c(-c6c(F)c(F)c(F)c(F)c6F)c6ccc([nH]6)c(-c6c(F)c(F)c(F)c(F)c6F)c6nc(c(-c7c(F)c(F)c(F)c(F)c7F)c7ccc4[nH]7)C=C6)C=C5)cc3)C2)CC[NH2+]CC1
REMARK SMILES IDX 13 1 14 2 15 3 12 5 11 6 7 7 8 8 85 9 9 10 10 11 5 12 6 13
REMARK SMILES IDX 4 14 86 15 90 16 87 17 89 18 88 19 3 22 2 23 1 24 16 25
REMARK SMILES IDX 17 26 18 27 19 28 20 29 21 31 22 32 23 33 84 34 24 35 83 36
REMARK SMILES IDX 25 37 26 38 27 39 77 40 28 41 82 42 76 43 78 44 29 45 81 46
REMARK SMILES IDX 75 47 74 48 30 50 62 51 42 52 61 53 43 54 46 55 60 56 79 57
REMARK SMILES IDX 44 58 45 59 59 61 80 62 47 63 31 64 32 65 40 66 33 67 34 68
REMARK SMILES IDX 38 69 41 70 35 71 36 72 39 73 37 74 63 75 64 76 72 77 65 78
REMARK SMILES IDX 66 79 70 80 73 81 67 82 68 83 71 84 69 85 48 86 49 87 57 88
REMARK SMILES IDX 50 89 51 90 55 91 58 92 52 93 53 94 56 95 54 96
REMARK H PARENT 15 4 88 20 88 21 19 30 78 49 46 60
REMARK Flexibility Score: inf
ROOT
ATOM      1  C   UNL A   1      36.040  22.550  26.105  1.00  0.00     0.222 C 
ATOM      2  O   UNL A   1      36.430  23.704  26.293  1.00  0.00    -0.275 OA
ATOM      3  N   UNL A   1      36.822  21.729  25.346  1.00  0.00    -0.356 N 
ATOM      4  H   UNL A   1      37.661  22.141  25.038  1.00  0.00     0.163 HD
ENDROOT
BRANCH   1   5
ATOM      5  C   UNL A   1      34.708  22.086  26.653  1.00  0.00     0.133 C 
BRANCH   5   6
ATOM      6  C   UNL A   1      33.631  23.167  26.526  1.00  0.00     0.147 C 
ATOM      7  N   UNL A   1      32.391  24.506  24.828  1.00  0.00    -0.337 N 
ATOM      8  C   UNL A   1      31.142  23.922  25.302  1.00  0.00     0.148 C 
ATOM      9  C   UNL A   1      33.527  23.643  25.076  1.00  0.00     0.152 C 
ATOM     10  C   UNL A   1      31.287  23.529  26.776  1.00  0.00     0.182 C 
ATOM     11  O   UNL A   1      32.373  22.597  26.953  1.00  0.00    -0.374 OA
BRANCH   7  12
ATOM     12  C   UNL A   1      32.438  25.197  23.621  1.00  0.00     0.229 C 
ATOM     13  O   UNL A   1      32.676  24.596  22.574  1.00  0.00    -0.274 OA
BRANCH  12  14
ATOM     14  C   UNL A   1      32.398  26.742  23.727  1.00  0.00     0.060 C 
ATOM     15  C   UNL A   1      33.466  27.388  22.822  1.00  0.00     0.078 C 
ATOM     16  C   UNL A   1      31.007  27.212  23.181  1.00  0.00     0.078 C 
ATOM     17  C   UNL A   1      33.304  28.899  22.687  1.00  0.00     0.261 C 
ATOM     18  C   UNL A   1      30.909  28.725  22.992  1.00  0.00     0.261 C 
ATOM     19  N   UNL A   1      31.987  29.224  22.143  1.00  0.00    -0.346 N 
ATOM     20  H   UNL A   1      31.899  28.805  21.218  1.00  0.00     0.346 HD
ATOM     21  H   UNL A   1      31.907  30.240  22.096  1.00  0.00     0.346 HD
BRANCH  14  22
ATOM     22  C   UNL A   1      32.481  27.193  25.227  1.00  0.00     0.017 C 
BRANCH  22  23
ATOM     23  C   UNL A   1      33.801  27.655  25.866  1.00  0.00    -0.002 C 
ATOM     24  C   UNL A   1      33.690  28.499  27.119  1.00  0.00     0.004 C 
ENDBRANCH  22  23
ENDBRANCH  14  22
ENDBRANCH  12  14
ENDBRANCH   7  12
ENDBRANCH   5   6
ENDBRANCH   1   5
BRANCH   3  25
ATOM     25  C   UNL A   1      36.636  20.347  24.910  1.00  0.00     0.117 C 
BRANCH  25  26
ATOM     26  C   UNL A   1      37.946  19.554  24.878  1.00  0.00     0.042 C 
BRANCH  26  27
ATOM     27  C   UNL A   1      39.056  20.109  25.760  1.00  0.00     0.118 C 
BRANCH  27  28
ATOM     28  N   UNL A   1      40.154  19.170  25.905  1.00  0.00    -0.352 N 
ATOM     29  C   UNL A   1      41.499  19.390  26.079  1.00  0.00     0.251 C 
ATOM     30  H   UNL A   1      39.892  18.221  25.873  1.00  0.00     0.163 HD
ATOM     31  O   UNL A   1      42.273  18.447  25.928  1.00  0.00    -0.269 OA
BRANCH  29  32
ATOM     32  C   UNL A   1      42.047  20.723  26.445  1.00  0.00     0.039 A 
ATOM     33  C   UNL A   1      42.112  21.060  27.804  1.00  0.00     0.014 A 
ATOM     34  C   UNL A   1      42.391  21.685  25.491  1.00  0.00     0.014 A 
ATOM     35  C   UNL A   1      42.539  22.333  28.201  1.00  0.00     0.010 A 
ATOM     36  C   UNL A   1      42.888  22.931  25.889  1.00  0.00     0.010 A 
ATOM     37  C   UNL A   1      42.944  23.278  27.247  1.00  0.00    -0.014 A 
BRANCH  37  38
ATOM     38  C   UNL A   1      43.381  24.641  27.658  1.00  0.00     0.031 A 
ATOM     39  C   UNL A   1      42.365  25.688  28.034  1.00  0.00     0.074 A 
ATOM     40  C   UNL A   1      44.691  24.955  27.668  1.00  0.00     0.049 A 
ATOM     41  N   UNL A   1      42.551  26.937  28.389  1.00  0.00    -0.248 NA
ATOM     42  C   UNL A   1      40.951  25.287  27.986  1.00  0.00     0.031 C 
ATOM     43  C   UNL A   1      45.778  24.054  27.290  1.00  0.00     0.029 A 
ATOM     44  N   UNL A   1      45.329  26.124  28.009  1.00  0.00    -0.354 N 
ATOM     45  C   UNL A   1      41.283  27.472  28.580  1.00  0.00     0.074 A 
ATOM     46  C   UNL A   1      40.333  26.425  28.265  1.00  0.00     0.031 C 
ATOM     47  C   UNL A   1      46.950  24.692  27.444  1.00  0.00     0.029 A 
ATOM     48  C   UNL A   1      46.696  26.055  27.904  1.00  0.00     0.049 A 
ATOM     49  H   UNL A   1      44.851  26.933  28.300  1.00  0.00     0.167 HD
ATOM     50  C   UNL A   1      40.938  28.714  28.997  1.00  0.00     0.037 A 
ATOM     51  C   UNL A   1      47.640  26.984  28.151  1.00  0.00     0.037 A 
ATOM     52  C   UNL A   1      41.877  29.744  29.359  1.00  0.00     0.049 A 
ATOM     53  C   UNL A   1      47.232  28.349  28.637  1.00  0.00     0.074 A 
ATOM     54  C   UNL A   1      41.620  31.007  29.864  1.00  0.00     0.029 A 
ATOM     55  N   UNL A   1      43.254  29.628  29.256  1.00  0.00    -0.354 N 
ATOM     56  N   UNL A   1      46.032  28.820  28.872  1.00  0.00    -0.248 NA
ATOM     57  C   UNL A   1      48.315  29.309  28.899  1.00  0.00     0.031 C 
ATOM     58  C   UNL A   1      42.840  31.669  30.034  1.00  0.00     0.029 A 
ATOM     59  C   UNL A   1      43.859  30.804  29.670  1.00  0.00     0.049 A 
ATOM     60  H   UNL A   1      43.731  28.829  28.935  1.00  0.00     0.167 HD
ATOM     61  C   UNL A   1      46.215  30.118  29.330  1.00  0.00     0.074 A 
ATOM     62  C   UNL A   1      47.641  30.357  29.354  1.00  0.00     0.031 C 
ATOM     63  C   UNL A   1      45.281  31.029  29.695  1.00  0.00     0.037 A 
BRANCH  50  64
ATOM     64  C   UNL A   1      39.474  29.033  29.093  1.00  0.00     0.064 A 
ATOM     65  C   UNL A   1      38.792  28.993  30.318  1.00  0.00     0.173 A 
ATOM     66  C   UNL A   1      38.757  29.423  27.953  1.00  0.00     0.173 A 
ATOM     67  F   UNL A   1      39.431  28.616  31.436  1.00  0.00    -0.203 F 
ATOM     68  C   UNL A   1      37.437  29.306  30.394  1.00  0.00     0.198 A 
ATOM     69  C   UNL A   1      37.408  29.761  28.037  1.00  0.00     0.198 A 
ATOM     70  F   UNL A   1      39.365  29.485  26.759  1.00  0.00    -0.203 F 
ATOM     71  F   UNL A   1      36.795  29.219  31.566  1.00  0.00    -0.200 F 
ATOM     72  C   UNL A   1      36.748  29.696  29.255  1.00  0.00     0.200 A 
ATOM     73  F   UNL A   1      36.746  30.149  26.937  1.00  0.00    -0.200 F 
ATOM     74  F   UNL A   1      35.446  30.003  29.330  1.00  0.00    -0.200 F 
ENDBRANCH  50  64
BRANCH  51  75
ATOM     75  C   UNL A   1      49.074  26.643  27.973  1.00  0.00     0.064 A 
ATOM     76  C   UNL A   1      49.871  26.306  29.076  1.00  0.00     0.173 A 
ATOM     77  C   UNL A   1      49.676  26.648  26.707  1.00  0.00     0.173 A 
ATOM     78  F   UNL A   1      49.343  26.312  30.310  1.00  0.00    -0.203 F 
ATOM     79  C   UNL A   1      51.222  26.002  28.922  1.00  0.00     0.198 A 
ATOM     80  C   UNL A   1      51.020  26.320  26.550  1.00  0.00     0.198 A 
ATOM     81  F   UNL A   1      48.954  26.963  25.621  1.00  0.00    -0.203 F 
ATOM     82  F   UNL A   1      51.971  25.724  29.996  1.00  0.00    -0.200 F 
ATOM     83  C   UNL A   1      51.794  26.004  27.658  1.00  0.00     0.200 A 
ATOM     84  F   UNL A   1      51.567  26.314  25.328  1.00  0.00    -0.200 F 
ATOM     85  F   UNL A   1      53.092  25.711  27.509  1.00  0.00    -0.200 F 
ENDBRANCH  51  75
BRANCH  63  86
ATOM     86  C   UNL A   1      45.773  32.361  30.178  1.00  0.00     0.064 A 
ATOM     87  C   UNL A   1      45.943  33.442  29.301  1.00  0.00     0.173 A 
ATOM     88  C   UNL A   1      46.045  32.569  31.539  1.00  0.00     0.173 A 
ATOM     89  F   UNL A   1      45.710  33.289  27.988  1.00  0.00    -0.203 F 
ATOM     90  C   UNL A   1      46.390  34.676  29.764  1.00  0.00     0.198 A 
ATOM     91  C   UNL A   1      46.469  33.811  32.003  1.00  0.00     0.198 A 
ATOM     92  F   UNL A   1      45.893  31.568  32.420  1.00  0.00    -0.203 F 
ATOM     93  F   UNL A   1      46.586  35.683  28.903  1.00  0.00    -0.200 F 
ATOM     94  C   UNL A   1      46.647  34.862  31.115  1.00  0.00     0.200 A 
ATOM     95  F   UNL A   1      46.708  33.992  33.310  1.00  0.00    -0.200 F 
ATOM     96  F   UNL A   1      47.075  36.052  31.560  1.00  0.00    -0.200 F 
ENDBRANCH  63  86
ENDBRANCH  37  38
ENDBRANCH  29  32
ENDBRANCH  27  28
ENDBRANCH  26  27
ENDBRANCH  25  26
ENDBRANCH   3  25
TORSDOF 15
ENDMDL
