MODEL 1
REMARK VINA RESULT:     -13.3      0.000      0.000
REMARK SMILES C=CC[C@@]1(C(=O)NCCCNC(=O)c2ccc(-c3c4nc(c(-c5c(F)c(F)c(F)c(F)c5F)c5ccc([nH]5)c(-c5c(F)c(F)c(F)c(F)c5F)c5nc(c(-c6c(F)c(F)c(F)c(F)c6F)c6ccc3[nH]6)C=C5)C=C4)cc2)CCCN(C(=O)c2ccc3c(c2)OCO3)C1
REMARK SMILES IDX 9 1 8 2 7 3 5 4 6 5 4 7 77 8 92 9 78 10 80 11 79 12 3 13
REMARK SMILES IDX 2 14 1 15 81 16 82 17 83 18 84 19 88 20 85 21 87 22 86 23
REMARK SMILES IDX 89 24 91 25 90 26 10 27 11 28 12 29 13 31 14 32 15 33 76 34
REMARK SMILES IDX 16 35 75 36 17 37 18 38 19 39 69 40 20 41 74 42 68 43 70 44
REMARK SMILES IDX 21 45 73 46 67 47 66 48 22 50 54 51 34 52 53 53 35 54 38 55
REMARK SMILES IDX 52 56 71 57 36 58 37 59 51 61 72 62 39 63 23 64 24 65 32 66
REMARK SMILES IDX 25 67 26 68 30 69 33 70 27 71 28 72 31 73 29 74 55 75 56 76
REMARK SMILES IDX 64 77 57 78 58 79 62 80 65 81 59 82 60 83 63 84 61 85 40 86
REMARK SMILES IDX 41 87 49 88 42 89 43 90 47 91 50 92 44 93 45 94 48 95 46 96
REMARK H PARENT 7 6 11 30 70 49 38 60
REMARK Flexibility Score: inf
ROOT
ATOM      1  C   UNL A   1      31.579  31.635  26.501  1.00  0.00     0.042 C 
ENDROOT
BRANCH   1   2
ATOM      2  C   UNL A   1      31.883  30.195  26.181  1.00  0.00     0.117 C 
BRANCH   2   3
ATOM      3  N   UNL A   1      32.974  29.982  25.268  1.00  0.00    -0.355 N 
ATOM      4  C   UNL A   1      33.060  29.023  24.307  1.00  0.00     0.228 C 
ATOM      5  O   UNL A   1      33.653  29.385  23.281  1.00  0.00    -0.274 OA
ATOM      6  H   UNL A   1      33.739  30.596  25.347  1.00  0.00     0.163 HD
BRANCH   4   7
ATOM      7  C   UNL A   1      32.612  27.538  24.478  1.00  0.00     0.070 C 
ATOM      8  C   UNL A   1      33.228  26.733  23.301  1.00  0.00     0.021 C 
ATOM      9  C   UNL A   1      31.112  27.165  24.483  1.00  0.00     0.137 C 
ATOM     10  C   UNL A   1      32.543  27.107  21.977  1.00  0.00     0.023 C 
ATOM     11  N   UNL A   1      30.418  27.462  23.229  1.00  0.00    -0.338 N 
ATOM     12  C   UNL A   1      31.030  26.910  22.020  1.00  0.00     0.120 C 
BRANCH   7  13
ATOM     13  C   UNL A   1      33.155  27.081  25.868  1.00  0.00     0.045 C 
BRANCH  13  14
ATOM     14  C   UNL A   1      34.021  25.852  25.897  1.00  0.00    -0.034 C 
ATOM     15  C   UNL A   1      33.556  24.617  26.126  1.00  0.00     0.004 C 
ENDBRANCH  13  14
ENDBRANCH   7  13
BRANCH  11  16
ATOM     16  C   UNL A   1      29.095  27.917  23.298  1.00  0.00     0.254 C 
ATOM     17  O   UNL A   1      28.138  27.215  23.615  1.00  0.00    -0.269 OA
BRANCH  16  18
ATOM     18  C   UNL A   1      28.824  29.331  23.004  1.00  0.00     0.043 A 
ATOM     19  C   UNL A   1      29.280  30.343  23.876  1.00  0.00     0.018 A 
ATOM     20  C   UNL A   1      28.139  29.628  21.826  1.00  0.00     0.064 A 
ATOM     21  C   UNL A   1      29.112  31.685  23.530  1.00  0.00     0.051 A 
ATOM     22  C   UNL A   1      28.029  30.957  21.499  1.00  0.00     0.166 A 
ATOM     23  C   UNL A   1      28.512  31.956  22.318  1.00  0.00     0.165 A 
ATOM     24  O   UNL A   1      27.501  31.444  20.344  1.00  0.00    -0.454 OA
ATOM     25  O   UNL A   1      28.355  33.189  21.766  1.00  0.00    -0.454 OA
ATOM     26  C   UNL A   1      27.892  32.828  20.448  1.00  0.00     0.468 C 
ENDBRANCH  16  18
ENDBRANCH  11  16
ENDBRANCH   4   7
ENDBRANCH   2   3
ENDBRANCH   1   2
BRANCH   1  27
ATOM     27  C   UNL A   1      32.702  32.320  27.249  1.00  0.00     0.118 C 
BRANCH  27  28
ATOM     28  N   UNL A   1      32.457  33.742  27.500  1.00  0.00    -0.352 N 
ATOM     29  C   UNL A   1      33.003  34.628  28.403  1.00  0.00     0.251 C 
ATOM     30  H   UNL A   1      31.772  34.140  26.913  1.00  0.00     0.163 HD
ATOM     31  O   UNL A   1      32.528  35.745  28.522  1.00  0.00    -0.269 OA
BRANCH  29  32
ATOM     32  C   UNL A   1      34.152  34.218  29.240  1.00  0.00     0.039 A 
ATOM     33  C   UNL A   1      33.928  33.589  30.468  1.00  0.00     0.014 A 
ATOM     34  C   UNL A   1      35.455  34.446  28.808  1.00  0.00     0.014 A 
ATOM     35  C   UNL A   1      35.012  33.096  31.200  1.00  0.00     0.010 A 
ATOM     36  C   UNL A   1      36.511  33.822  29.449  1.00  0.00     0.010 A 
ATOM     37  C   UNL A   1      36.309  33.157  30.665  1.00  0.00    -0.014 A 
BRANCH  37  38
ATOM     38  C   UNL A   1      37.488  32.574  31.353  1.00  0.00     0.031 A 
ATOM     39  C   UNL A   1      38.239  31.441  30.699  1.00  0.00     0.074 A 
ATOM     40  C   UNL A   1      37.809  32.973  32.599  1.00  0.00     0.049 A 
ATOM     41  N   UNL A   1      39.171  30.667  31.193  1.00  0.00    -0.248 NA
ATOM     42  C   UNL A   1      37.845  31.093  29.322  1.00  0.00     0.031 C 
ATOM     43  C   UNL A   1      37.115  34.009  33.367  1.00  0.00     0.029 A 
ATOM     44  N   UNL A   1      38.795  32.539  33.450  1.00  0.00    -0.354 N 
ATOM     45  C   UNL A   1      39.430  29.718  30.212  1.00  0.00     0.074 A 
ATOM     46  C   UNL A   1      38.517  29.970  29.121  1.00  0.00     0.031 C 
ATOM     47  C   UNL A   1      37.719  34.155  34.558  1.00  0.00     0.029 A 
ATOM     48  C   UNL A   1      38.811  33.193  34.657  1.00  0.00     0.049 A 
ATOM     49  H   UNL A   1      39.431  31.825  33.215  1.00  0.00     0.167 HD
ATOM     50  C   UNL A   1      40.368  28.742  30.207  1.00  0.00     0.037 A 
ATOM     51  C   UNL A   1      39.615  33.028  35.724  1.00  0.00     0.037 A 
ATOM     52  C   UNL A   1      41.328  28.554  31.259  1.00  0.00     0.049 A 
ATOM     53  C   UNL A   1      40.690  31.976  35.667  1.00  0.00     0.074 A 
ATOM     54  C   UNL A   1      42.388  27.667  31.312  1.00  0.00     0.029 A 
ATOM     55  N   UNL A   1      41.353  29.283  32.439  1.00  0.00    -0.354 N 
ATOM     56  N   UNL A   1      40.972  31.131  34.705  1.00  0.00    -0.248 NA
ATOM     57  C   UNL A   1      41.562  31.857  36.843  1.00  0.00     0.031 C 
ATOM     58  C   UNL A   1      43.036  27.837  32.539  1.00  0.00     0.029 A 
ATOM     59  C   UNL A   1      42.405  28.858  33.232  1.00  0.00     0.049 A 
ATOM     60  H   UNL A   1      40.719  29.997  32.677  1.00  0.00     0.167 HD
ATOM     61  C   UNL A   1      42.071  30.406  35.144  1.00  0.00     0.074 A 
ATOM     62  C   UNL A   1      42.413  30.919  36.455  1.00  0.00     0.031 C 
ATOM     63  C   UNL A   1      42.737  29.403  34.522  1.00  0.00     0.037 A 
BRANCH  50  64
ATOM     64  C   UNL A   1      40.418  27.823  29.021  1.00  0.00     0.064 A 
ATOM     65  C   UNL A   1      39.661  26.643  28.971  1.00  0.00     0.173 A 
ATOM     66  C   UNL A   1      41.204  28.146  27.905  1.00  0.00     0.173 A 
ATOM     67  F   UNL A   1      38.903  26.280  30.017  1.00  0.00    -0.203 F 
ATOM     68  C   UNL A   1      39.712  25.805  27.860  1.00  0.00     0.198 A 
ATOM     69  C   UNL A   1      41.227  27.323  26.782  1.00  0.00     0.198 A 
ATOM     70  F   UNL A   1      41.944  29.264  27.900  1.00  0.00    -0.203 F 
ATOM     71  F   UNL A   1      39.020  24.657  27.857  1.00  0.00    -0.200 F 
ATOM     72  C   UNL A   1      40.488  26.150  26.764  1.00  0.00     0.200 A 
ATOM     73  F   UNL A   1      41.967  27.663  25.718  1.00  0.00    -0.200 F 
ATOM     74  F   UNL A   1      40.527  25.348  25.690  1.00  0.00    -0.200 F 
ENDBRANCH  50  64
BRANCH  51  75
ATOM     75  C   UNL A   1      39.468  33.901  36.918  1.00  0.00     0.064 A 
ATOM     76  C   UNL A   1      38.722  33.475  38.027  1.00  0.00     0.173 A 
ATOM     77  C   UNL A   1      40.047  35.177  36.973  1.00  0.00     0.173 A 
ATOM     78  F   UNL A   1      38.134  32.270  38.012  1.00  0.00    -0.203 F 
ATOM     79  C   UNL A   1      38.537  34.302  39.132  1.00  0.00     0.198 A 
ATOM     80  C   UNL A   1      39.884  35.992  38.093  1.00  0.00     0.198 A 
ATOM     81  F   UNL A   1      40.775  35.631  35.943  1.00  0.00    -0.203 F 
ATOM     82  F   UNL A   1      37.774  33.888  40.153  1.00  0.00    -0.200 F 
ATOM     83  C   UNL A   1      39.120  35.558  39.167  1.00  0.00     0.200 A 
ATOM     84  F   UNL A   1      40.459  37.203  38.127  1.00  0.00    -0.200 F 
ATOM     85  F   UNL A   1      38.938  36.355  40.228  1.00  0.00    -0.200 F 
ENDBRANCH  51  75
BRANCH  63  86
ATOM     86  C   UNL A   1      43.929  28.830  35.228  1.00  0.00     0.064 A 
ATOM     87  C   UNL A   1      45.216  29.350  35.037  1.00  0.00     0.173 A 
ATOM     88  C   UNL A   1      43.769  27.778  36.142  1.00  0.00     0.173 A 
ATOM     89  F   UNL A   1      45.419  30.347  34.163  1.00  0.00    -0.203 F 
ATOM     90  C   UNL A   1      46.307  28.822  35.721  1.00  0.00     0.198 A 
ATOM     91  C   UNL A   1      44.858  27.272  36.846  1.00  0.00     0.198 A 
ATOM     92  F   UNL A   1      42.555  27.252  36.364  1.00  0.00    -0.203 F 
ATOM     93  F   UNL A   1      47.536  29.305  35.492  1.00  0.00    -0.200 F 
ATOM     94  C   UNL A   1      46.126  27.789  36.629  1.00  0.00     0.200 A 
ATOM     95  F   UNL A   1      44.679  26.284  37.735  1.00  0.00    -0.200 F 
ATOM     96  F   UNL A   1      47.177  27.289  37.294  1.00  0.00    -0.200 F 
ENDBRANCH  63  86
ENDBRANCH  37  38
ENDBRANCH  29  32
ENDBRANCH  27  28
ENDBRANCH   1  27
TORSDOF 14
ENDMDL
MODEL 2
REMARK VINA RESULT:     -13.2      2.165      4.243
REMARK SMILES C=CC[C@@]1(C(=O)NCCCNC(=O)c2ccc(-c3c4nc(c(-c5c(F)c(F)c(F)c(F)c5F)c5ccc([nH]5)c(-c5c(F)c(F)c(F)c(F)c5F)c5nc(c(-c6c(F)c(F)c(F)c(F)c6F)c6ccc3[nH]6)C=C5)C=C4)cc2)CCCN(C(=O)c2ccc3c(c2)OCO3)C1
REMARK SMILES IDX 9 1 8 2 7 3 5 4 6 5 4 7 77 8 92 9 78 10 80 11 79 12 3 13
REMARK SMILES IDX 2 14 1 15 81 16 82 17 83 18 84 19 88 20 85 21 87 22 86 23
REMARK SMILES IDX 89 24 91 25 90 26 10 27 11 28 12 29 13 31 14 32 15 33 76 34
REMARK SMILES IDX 16 35 75 36 17 37 18 38 19 39 69 40 20 41 74 42 68 43 70 44
REMARK SMILES IDX 21 45 73 46 67 47 66 48 22 50 54 51 34 52 53 53 35 54 38 55
REMARK SMILES IDX 52 56 71 57 36 58 37 59 51 61 72 62 39 63 23 64 24 65 32 66
REMARK SMILES IDX 25 67 26 68 30 69 33 70 27 71 28 72 31 73 29 74 55 75 56 76
REMARK SMILES IDX 64 77 57 78 58 79 62 80 65 81 59 82 60 83 63 84 61 85 40 86
REMARK SMILES IDX 41 87 49 88 42 89 43 90 47 91 50 92 44 93 45 94 48 95 46 96
REMARK H PARENT 7 6 11 30 70 49 38 60
REMARK Flexibility Score: inf
ROOT
ATOM      1  C   UNL A   1      31.518  31.992  26.912  1.00  0.00     0.042 C 
ENDROOT
BRANCH   1   2
ATOM      2  C   UNL A   1      31.847  30.753  26.122  1.00  0.00     0.117 C 
BRANCH   2   3
ATOM      3  N   UNL A   1      31.260  29.535  26.611  1.00  0.00    -0.355 N 
ATOM      4  C   UNL A   1      31.868  28.323  26.726  1.00  0.00     0.228 C 
ATOM      5  O   UNL A   1      31.495  27.659  27.703  1.00  0.00    -0.274 OA
ATOM      6  H   UNL A   1      30.318  29.582  26.893  1.00  0.00     0.163 HD
BRANCH   4   7
ATOM      7  C   UNL A   1      32.839  27.702  25.674  1.00  0.00     0.070 C 
ATOM      8  C   UNL A   1      32.192  27.902  24.276  1.00  0.00     0.021 C 
ATOM      9  C   UNL A   1      33.212  26.203  25.737  1.00  0.00     0.137 C 
ATOM     10  C   UNL A   1      30.957  27.000  24.120  1.00  0.00     0.023 C 
ATOM     11  N   UNL A   1      32.078  25.296  25.552  1.00  0.00    -0.338 N 
ATOM     12  C   UNL A   1      31.273  25.524  24.352  1.00  0.00     0.120 C 
BRANCH   7  13
ATOM     13  C   UNL A   1      34.189  28.469  25.828  1.00  0.00     0.045 C 
BRANCH  13  14
ATOM     14  C   UNL A   1      34.631  28.807  27.226  1.00  0.00    -0.034 C 
ATOM     15  C   UNL A   1      35.172  29.982  27.573  1.00  0.00     0.004 C 
ENDBRANCH  13  14
ENDBRANCH   7  13
BRANCH  11  16
ATOM     16  C   UNL A   1      32.054  24.110  26.297  1.00  0.00     0.254 C 
ATOM     17  O   UNL A   1      31.514  23.992  27.393  1.00  0.00    -0.269 OA
BRANCH  16  18
ATOM     18  C   UNL A   1      32.687  22.912  25.727  1.00  0.00     0.043 A 
ATOM     19  C   UNL A   1      34.055  22.923  25.379  1.00  0.00     0.018 A 
ATOM     20  C   UNL A   1      31.900  21.770  25.581  1.00  0.00     0.064 A 
ATOM     21  C   UNL A   1      34.670  21.749  24.942  1.00  0.00     0.051 A 
ATOM     22  C   UNL A   1      32.547  20.625  25.188  1.00  0.00     0.166 A 
ATOM     23  C   UNL A   1      33.894  20.610  24.890  1.00  0.00     0.165 A 
ATOM     24  O   UNL A   1      31.983  19.391  25.098  1.00  0.00    -0.454 OA
ATOM     25  O   UNL A   1      34.336  19.359  24.590  1.00  0.00    -0.454 OA
ATOM     26  C   UNL A   1      33.163  18.583  24.911  1.00  0.00     0.468 C 
ENDBRANCH  16  18
ENDBRANCH  11  16
ENDBRANCH   4   7
ENDBRANCH   2   3
ENDBRANCH   1   2
BRANCH   1  27
ATOM     27  C   UNL A   1      32.749  32.767  27.329  1.00  0.00     0.118 C 
BRANCH  27  28
ATOM     28  N   UNL A   1      32.474  34.164  27.673  1.00  0.00    -0.352 N 
ATOM     29  C   UNL A   1      33.005  35.000  28.630  1.00  0.00     0.251 C 
ATOM     30  H   UNL A   1      31.778  34.584  27.116  1.00  0.00     0.163 HD
ATOM     31  O   UNL A   1      32.505  36.096  28.824  1.00  0.00    -0.269 OA
BRANCH  29  32
ATOM     32  C   UNL A   1      34.167  34.563  29.435  1.00  0.00     0.039 A 
ATOM     33  C   UNL A   1      33.967  34.026  30.709  1.00  0.00     0.014 A 
ATOM     34  C   UNL A   1      35.457  34.672  28.926  1.00  0.00     0.014 A 
ATOM     35  C   UNL A   1      35.053  33.504  31.418  1.00  0.00     0.010 A 
ATOM     36  C   UNL A   1      36.502  34.016  29.552  1.00  0.00     0.010 A 
ATOM     37  C   UNL A   1      36.320  33.441  30.818  1.00  0.00    -0.014 A 
BRANCH  37  38
ATOM     38  C   UNL A   1      37.494  32.820  31.482  1.00  0.00     0.031 A 
ATOM     39  C   UNL A   1      38.218  31.689  30.796  1.00  0.00     0.074 A 
ATOM     40  C   UNL A   1      37.830  33.183  32.735  1.00  0.00     0.049 A 
ATOM     41  N   UNL A   1      39.138  30.886  31.264  1.00  0.00    -0.248 NA
ATOM     42  C   UNL A   1      37.809  31.382  29.414  1.00  0.00     0.031 C 
ATOM     43  C   UNL A   1      37.161  34.213  33.533  1.00  0.00     0.029 A 
ATOM     44  N   UNL A   1      38.813  32.710  33.568  1.00  0.00    -0.354 N 
ATOM     45  C   UNL A   1      39.373  29.956  30.259  1.00  0.00     0.074 A 
ATOM     46  C   UNL A   1      38.458  30.252  29.181  1.00  0.00     0.031 C 
ATOM     47  C   UNL A   1      37.775  34.319  34.723  1.00  0.00     0.029 A 
ATOM     48  C   UNL A   1      38.850  33.334  34.791  1.00  0.00     0.049 A 
ATOM     49  H   UNL A   1      39.435  31.989  33.312  1.00  0.00     0.167 HD
ATOM     50  C   UNL A   1      40.292  28.964  30.225  1.00  0.00     0.037 A 
ATOM     51  C   UNL A   1      39.658  33.128  35.847  1.00  0.00     0.037 A 
ATOM     52  C   UNL A   1      41.256  28.732  31.265  1.00  0.00     0.049 A 
ATOM     53  C   UNL A   1      40.712  32.058  35.757  1.00  0.00     0.074 A 
ATOM     54  C   UNL A   1      42.299  27.824  31.288  1.00  0.00     0.029 A 
ATOM     55  N   UNL A   1      41.302  29.432  32.462  1.00  0.00    -0.354 N 
ATOM     56  N   UNL A   1      40.972  31.232  34.774  1.00  0.00    -0.248 NA
ATOM     57  C   UNL A   1      41.589  31.895  36.924  1.00  0.00     0.031 C 
ATOM     58  C   UNL A   1      42.958  27.952  32.515  1.00  0.00     0.029 A 
ATOM     59  C   UNL A   1      42.351  28.968  33.236  1.00  0.00     0.049 A 
ATOM     60  H   UNL A   1      40.683  30.152  32.721  1.00  0.00     0.167 HD
ATOM     61  C   UNL A   1      42.060  30.476  35.187  1.00  0.00     0.074 A 
ATOM     62  C   UNL A   1      42.420  30.950  36.507  1.00  0.00     0.031 C 
ATOM     63  C   UNL A   1      42.703  29.476  34.537  1.00  0.00     0.037 A 
BRANCH  50  64
ATOM     64  C   UNL A   1      40.317  28.073  29.017  1.00  0.00     0.064 A 
ATOM     65  C   UNL A   1      41.070  28.396  27.877  1.00  0.00     0.173 A 
ATOM     66  C   UNL A   1      39.609  26.861  29.012  1.00  0.00     0.173 A 
ATOM     67  F   UNL A   1      41.754  29.549  27.824  1.00  0.00    -0.203 F 
ATOM     68  C   UNL A   1      41.089  27.555  26.768  1.00  0.00     0.198 A 
ATOM     69  C   UNL A   1      39.658  26.007  27.914  1.00  0.00     0.198 A 
ATOM     70  F   UNL A   1      38.876  26.502  30.076  1.00  0.00    -0.203 F 
ATOM     71  F   UNL A   1      41.774  27.911  25.672  1.00  0.00    -0.200 F 
ATOM     72  C   UNL A   1      40.390  26.358  26.790  1.00  0.00     0.200 A 
ATOM     73  F   UNL A   1      38.992  24.844  27.941  1.00  0.00    -0.200 F 
ATOM     74  F   UNL A   1      40.419  25.544  25.725  1.00  0.00    -0.200 F 
ENDBRANCH  50  64
BRANCH  51  75
ATOM     75  C   UNL A   1      39.536  33.975  37.063  1.00  0.00     0.064 A 
ATOM     76  C   UNL A   1      38.799  33.532  38.171  1.00  0.00     0.173 A 
ATOM     77  C   UNL A   1      40.130  35.243  37.141  1.00  0.00     0.173 A 
ATOM     78  F   UNL A   1      38.196  32.334  38.136  1.00  0.00    -0.203 F 
ATOM     79  C   UNL A   1      38.636  34.335  39.298  1.00  0.00     0.198 A 
ATOM     80  C   UNL A   1      39.990  36.034  38.280  1.00  0.00     0.198 A 
ATOM     81  F   UNL A   1      40.850  35.713  36.112  1.00  0.00    -0.203 F 
ATOM     82  F   UNL A   1      37.881  33.906  40.318  1.00  0.00    -0.200 F 
ATOM     83  C   UNL A   1      39.234  35.583  39.354  1.00  0.00     0.200 A 
ATOM     84  F   UNL A   1      40.579  37.236  38.336  1.00  0.00    -0.200 F 
ATOM     85  F   UNL A   1      39.074  36.357  40.436  1.00  0.00    -0.200 F 
ENDBRANCH  51  75
BRANCH  63  86
ATOM     86  C   UNL A   1      43.888  28.863  35.220  1.00  0.00     0.064 A 
ATOM     87  C   UNL A   1      45.188  29.341  35.005  1.00  0.00     0.173 A 
ATOM     88  C   UNL A   1      43.711  27.817  36.137  1.00  0.00     0.173 A 
ATOM     89  F   UNL A   1      45.406  30.332  34.127  1.00  0.00    -0.203 F 
ATOM     90  C   UNL A   1      46.273  28.777  35.668  1.00  0.00     0.198 A 
ATOM     91  C   UNL A   1      44.795  27.275  36.820  1.00  0.00     0.198 A 
ATOM     92  F   UNL A   1      42.485  27.331  36.382  1.00  0.00    -0.203 F 
ATOM     93  F   UNL A   1      47.513  29.219  35.416  1.00  0.00    -0.200 F 
ATOM     94  C   UNL A   1      46.075  27.750  36.580  1.00  0.00     0.200 A 
ATOM     95  F   UNL A   1      44.601  26.293  37.712  1.00  0.00    -0.200 F 
ATOM     96  F   UNL A   1      47.122  27.215  37.225  1.00  0.00    -0.200 F 
ENDBRANCH  63  86
ENDBRANCH  37  38
ENDBRANCH  29  32
ENDBRANCH  27  28
ENDBRANCH   1  27
TORSDOF 14
ENDMDL
MODEL 3
REMARK VINA RESULT:     -13.2      2.168      4.522
REMARK SMILES C=CC[C@@]1(C(=O)NCCCNC(=O)c2ccc(-c3c4nc(c(-c5c(F)c(F)c(F)c(F)c5F)c5ccc([nH]5)c(-c5c(F)c(F)c(F)c(F)c5F)c5nc(c(-c6c(F)c(F)c(F)c(F)c6F)c6ccc3[nH]6)C=C5)C=C4)cc2)CCCN(C(=O)c2ccc3c(c2)OCO3)C1
REMARK SMILES IDX 9 1 8 2 7 3 5 4 6 5 4 7 77 8 92 9 78 10 80 11 79 12 3 13
REMARK SMILES IDX 2 14 1 15 81 16 82 17 83 18 84 19 88 20 85 21 87 22 86 23
REMARK SMILES IDX 89 24 91 25 90 26 10 27 11 28 12 29 13 31 14 32 15 33 76 34
REMARK SMILES IDX 16 35 75 36 17 37 18 38 19 39 69 40 20 41 74 42 68 43 70 44
REMARK SMILES IDX 21 45 73 46 67 47 66 48 22 50 54 51 34 52 53 53 35 54 38 55
REMARK SMILES IDX 52 56 71 57 36 58 37 59 51 61 72 62 39 63 23 64 24 65 32 66
REMARK SMILES IDX 25 67 26 68 30 69 33 70 27 71 28 72 31 73 29 74 55 75 56 76
REMARK SMILES IDX 64 77 57 78 58 79 62 80 65 81 59 82 60 83 63 84 61 85 40 86
REMARK SMILES IDX 41 87 49 88 42 89 43 90 47 91 50 92 44 93 45 94 48 95 46 96
REMARK H PARENT 7 6 11 30 70 49 38 60
REMARK Flexibility Score: inf
ROOT
ATOM      1  C   UNL A   1      31.507  32.010  26.909  1.00  0.00     0.042 C 
ENDROOT
BRANCH   1   2
ATOM      2  C   UNL A   1      31.820  30.765  26.122  1.00  0.00     0.117 C 
BRANCH   2   3
ATOM      3  N   UNL A   1      31.247  29.550  26.635  1.00  0.00    -0.355 N 
ATOM      4  C   UNL A   1      31.856  28.337  26.734  1.00  0.00     0.228 C 
ATOM      5  O   UNL A   1      31.513  27.677  27.726  1.00  0.00    -0.274 OA
ATOM      6  H   UNL A   1      30.315  29.600  26.947  1.00  0.00     0.163 HD
BRANCH   4   7
ATOM      7  C   UNL A   1      32.791  27.710  25.654  1.00  0.00     0.070 C 
ATOM      8  C   UNL A   1      32.093  27.894  24.278  1.00  0.00     0.021 C 
ATOM      9  C   UNL A   1      33.172  26.214  25.717  1.00  0.00     0.137 C 
ATOM     10  C   UNL A   1      30.858  26.986  24.176  1.00  0.00     0.023 C 
ATOM     11  N   UNL A   1      32.037  25.300  25.582  1.00  0.00    -0.338 N 
ATOM     12  C   UNL A   1      31.188  25.514  24.410  1.00  0.00     0.120 C 
BRANCH   7  13
ATOM     13  C   UNL A   1      34.142  28.485  25.751  1.00  0.00     0.045 C 
BRANCH  13  14
ATOM     14  C   UNL A   1      34.680  28.755  27.130  1.00  0.00    -0.034 C 
ATOM     15  C   UNL A   1      35.132  29.950  27.534  1.00  0.00     0.004 C 
ENDBRANCH  13  14
ENDBRANCH   7  13
BRANCH  11  16
ATOM     16  C   UNL A   1      32.045  24.121  26.338  1.00  0.00     0.254 C 
ATOM     17  O   UNL A   1      31.520  24.003  27.442  1.00  0.00    -0.269 OA
BRANCH  16  18
ATOM     18  C   UNL A   1      32.695  22.931  25.772  1.00  0.00     0.043 A 
ATOM     19  C   UNL A   1      34.074  22.944  25.469  1.00  0.00     0.018 A 
ATOM     20  C   UNL A   1      31.911  21.792  25.583  1.00  0.00     0.064 A 
ATOM     21  C   UNL A   1      34.701  21.775  25.035  1.00  0.00     0.051 A 
ATOM     22  C   UNL A   1      32.569  20.651  25.195  1.00  0.00     0.166 A 
ATOM     23  C   UNL A   1      33.925  20.638  24.941  1.00  0.00     0.165 A 
ATOM     24  O   UNL A   1      32.006  19.420  25.069  1.00  0.00    -0.454 OA
ATOM     25  O   UNL A   1      34.375  19.390  24.638  1.00  0.00    -0.454 OA
ATOM     26  C   UNL A   1      33.191  18.612  24.909  1.00  0.00     0.468 C 
ENDBRANCH  16  18
ENDBRANCH  11  16
ENDBRANCH   4   7
ENDBRANCH   2   3
ENDBRANCH   1   2
BRANCH   1  27
ATOM     27  C   UNL A   1      32.748  32.777  27.314  1.00  0.00     0.118 C 
BRANCH  27  28
ATOM     28  N   UNL A   1      32.486  34.177  27.655  1.00  0.00    -0.352 N 
ATOM     29  C   UNL A   1      33.015  35.005  28.621  1.00  0.00     0.251 C 
ATOM     30  H   UNL A   1      31.803  34.606  27.090  1.00  0.00     0.163 HD
ATOM     31  O   UNL A   1      32.527  36.107  28.809  1.00  0.00    -0.269 OA
BRANCH  29  32
ATOM     32  C   UNL A   1      34.159  34.552  29.441  1.00  0.00     0.039 A 
ATOM     33  C   UNL A   1      33.929  33.847  30.626  1.00  0.00     0.014 A 
ATOM     34  C   UNL A   1      35.465  34.812  29.035  1.00  0.00     0.014 A 
ATOM     35  C   UNL A   1      35.011  33.316  31.336  1.00  0.00     0.010 A 
ATOM     36  C   UNL A   1      36.519  34.156  29.645  1.00  0.00     0.010 A 
ATOM     37  C   UNL A   1      36.311  33.417  30.817  1.00  0.00    -0.014 A 
BRANCH  37  38
ATOM     38  C   UNL A   1      37.489  32.799  31.477  1.00  0.00     0.031 A 
ATOM     39  C   UNL A   1      38.208  31.664  30.793  1.00  0.00     0.074 A 
ATOM     40  C   UNL A   1      37.834  33.170  32.725  1.00  0.00     0.049 A 
ATOM     41  N   UNL A   1      39.132  30.865  31.259  1.00  0.00    -0.248 NA
ATOM     42  C   UNL A   1      37.789  31.348  29.416  1.00  0.00     0.031 C 
ATOM     43  C   UNL A   1      37.171  34.206  33.521  1.00  0.00     0.029 A 
ATOM     44  N   UNL A   1      38.824  32.702  33.554  1.00  0.00    -0.354 N 
ATOM     45  C   UNL A   1      39.359  29.928  30.258  1.00  0.00     0.074 A 
ATOM     46  C   UNL A   1      38.437  30.217  29.185  1.00  0.00     0.031 C 
ATOM     47  C   UNL A   1      37.794  34.319  34.706  1.00  0.00     0.029 A 
ATOM     48  C   UNL A   1      38.869  33.334  34.773  1.00  0.00     0.049 A 
ATOM     49  H   UNL A   1      39.443  31.980  33.298  1.00  0.00     0.167 HD
ATOM     50  C   UNL A   1      40.278  28.935  30.224  1.00  0.00     0.037 A 
ATOM     51  C   UNL A   1      39.685  33.135  35.824  1.00  0.00     0.037 A 
ATOM     52  C   UNL A   1      41.249  28.710  31.258  1.00  0.00     0.049 A 
ATOM     53  C   UNL A   1      40.738  32.064  35.734  1.00  0.00     0.074 A 
ATOM     54  C   UNL A   1      42.292  27.802  31.280  1.00  0.00     0.029 A 
ATOM     55  N   UNL A   1      41.304  29.417  32.450  1.00  0.00    -0.354 N 
ATOM     56  N   UNL A   1      40.991  31.232  34.754  1.00  0.00    -0.248 NA
ATOM     57  C   UNL A   1      41.624  31.908  36.895  1.00  0.00     0.031 C 
ATOM     58  C   UNL A   1      42.960  27.937  32.501  1.00  0.00     0.029 A 
ATOM     59  C   UNL A   1      42.359  28.958  33.220  1.00  0.00     0.049 A 
ATOM     60  H   UNL A   1      40.687  30.139  32.710  1.00  0.00     0.167 HD
ATOM     61  C   UNL A   1      42.081  30.478  35.164  1.00  0.00     0.074 A 
ATOM     62  C   UNL A   1      42.451  30.961  36.478  1.00  0.00     0.031 C 
ATOM     63  C   UNL A   1      42.720  29.474  34.515  1.00  0.00     0.037 A 
BRANCH  50  64
ATOM     64  C   UNL A   1      40.294  28.037  29.021  1.00  0.00     0.064 A 
ATOM     65  C   UNL A   1      41.033  28.357  27.871  1.00  0.00     0.173 A 
ATOM     66  C   UNL A   1      39.593  26.821  29.032  1.00  0.00     0.173 A 
ATOM     67  F   UNL A   1      41.710  29.513  27.803  1.00  0.00    -0.203 F 
ATOM     68  C   UNL A   1      41.044  27.509  26.768  1.00  0.00     0.198 A 
ATOM     69  C   UNL A   1      39.634  25.960  27.939  1.00  0.00     0.198 A 
ATOM     70  F   UNL A   1      38.874  26.465  30.107  1.00  0.00    -0.203 F 
ATOM     71  F   UNL A   1      41.715  27.861  25.662  1.00  0.00    -0.200 F 
ATOM     72  C   UNL A   1      40.352  26.308  26.805  1.00  0.00     0.200 A 
ATOM     73  F   UNL A   1      38.974  24.794  27.981  1.00  0.00    -0.200 F 
ATOM     74  F   UNL A   1      40.373  25.487  25.745  1.00  0.00    -0.200 F 
ENDBRANCH  50  64
BRANCH  51  75
ATOM     75  C   UNL A   1      39.571  33.990  37.036  1.00  0.00     0.064 A 
ATOM     76  C   UNL A   1      40.237  35.222  37.105  1.00  0.00     0.173 A 
ATOM     77  C   UNL A   1      38.817  33.593  38.150  1.00  0.00     0.173 A 
ATOM     78  F   UNL A   1      40.986  35.635  36.072  1.00  0.00    -0.203 F 
ATOM     79  C   UNL A   1      40.178  36.011  38.252  1.00  0.00     0.198 A 
ATOM     80  C   UNL A   1      38.735  34.397  39.286  1.00  0.00     0.198 A 
ATOM     81  F   UNL A   1      38.155  32.427  38.134  1.00  0.00    -0.203 F 
ATOM     82  F   UNL A   1      40.869  37.157  38.308  1.00  0.00    -0.200 F 
ATOM     83  C   UNL A   1      39.424  35.600  39.340  1.00  0.00     0.200 A 
ATOM     84  F   UNL A   1      37.996  34.002  40.332  1.00  0.00    -0.200 F 
ATOM     85  F   UNL A   1      39.371  36.357  40.444  1.00  0.00    -0.200 F 
ENDBRANCH  51  75
BRANCH  63  86
ATOM     86  C   UNL A   1      43.909  28.866  35.194  1.00  0.00     0.064 A 
ATOM     87  C   UNL A   1      43.782  27.766  36.054  1.00  0.00     0.173 A 
ATOM     88  C   UNL A   1      45.197  29.362  34.940  1.00  0.00     0.173 A 
ATOM     89  F   UNL A   1      42.569  27.266  36.336  1.00  0.00    -0.203 F 
ATOM     90  C   UNL A   1      44.902  27.198  36.654  1.00  0.00     0.198 A 
ATOM     91  C   UNL A   1      46.316  28.773  35.520  1.00  0.00     0.198 A 
ATOM     92  F   UNL A   1      45.370  30.408  34.118  1.00  0.00    -0.203 F 
ATOM     93  F   UNL A   1      44.755  26.174  37.507  1.00  0.00    -0.200 F 
ATOM     94  C   UNL A   1      46.167  27.696  36.381  1.00  0.00     0.200 A 
ATOM     95  F   UNL A   1      47.540  29.246  35.243  1.00  0.00    -0.200 F 
ATOM     96  F   UNL A   1      47.244  27.141  36.953  1.00  0.00    -0.200 F 
ENDBRANCH  63  86
ENDBRANCH  37  38
ENDBRANCH  29  32
ENDBRANCH  27  28
ENDBRANCH   1  27
TORSDOF 14
ENDMDL
