MODEL 1
REMARK VINA RESULT:     -14.6      0.000      0.000
REMARK SMILES COc1cc([C@@H]2CC(=O)Nc3c(C(=O)NCCCNC(=O)c4ccc(-c5c6nc(c(-c7c(F)c(F)c(F)c(F)c7F)c7ccc([nH]7)c(-c7c(F)c(F)c(F)c(F)c7F)c7nc(c(-c8c(F)c(F)c(F)c(F)c8F)c8ccc5[nH]8)C=C7)C=C6)cc4)cn(-c4ccccc4)c32)ccc1O
REMARK SMILES IDX 17 1 16 2 15 3 13 4 14 5 12 7 6 8 7 9 93 10 8 11 11 12 86 13
REMARK SMILES IDX 9 14 10 15 85 16 5 18 3 19 4 20 96 21 95 22 94 23 2 24 1 25
REMARK SMILES IDX 97 26 87 28 88 29 92 30 89 31 91 32 90 33 18 34 19 35 20 36
REMARK SMILES IDX 21 38 22 39 23 40 84 41 24 42 83 43 25 44 26 45 27 46 77 47
REMARK SMILES IDX 28 48 82 49 76 50 78 51 29 52 81 53 75 54 74 55 30 57 62 58
REMARK SMILES IDX 42 59 61 60 43 61 46 62 60 63 79 64 44 65 45 66 59 68 80 69
REMARK SMILES IDX 47 70 31 71 32 72 40 73 33 74 34 75 38 76 41 77 35 78 36 79
REMARK SMILES IDX 39 80 37 81 63 82 64 83 72 84 65 85 66 86 70 87 73 88 67 89
REMARK SMILES IDX 68 90 71 91 69 92 48 93 49 94 57 95 50 96 51 97 55 98 58 99
REMARK SMILES IDX 52 100 53 101 56 102 54 103
REMARK H PARENT 15 6 10 17 97 27 19 37 78 56 46 67
REMARK Flexibility Score: inf
ROOT
ATOM      1  C   UNL A   1      37.448  22.354  24.886  1.00  0.00     0.042 C 
ENDROOT
BRANCH   1   2
ATOM      2  C   UNL A   1      36.168  23.067  24.409  1.00  0.00     0.118 C 
BRANCH   2   3
ATOM      3  N   UNL A   1      35.034  22.781  25.257  1.00  0.00    -0.352 N 
ATOM      4  C   UNL A   1      33.909  23.490  25.589  1.00  0.00     0.254 C 
ATOM      5  O   UNL A   1      33.094  22.871  26.280  1.00  0.00    -0.269 OA
ATOM      6  H   UNL A   1      35.078  21.895  25.686  1.00  0.00     0.163 HD
BRANCH   4   7
ATOM      7  C   UNL A   1      33.632  24.872  25.172  1.00  0.00     0.081 A 
ATOM      8  C   UNL A   1      32.817  27.931  23.198  1.00  0.00     0.078 C 
ATOM      9  C   UNL A   1      33.426  27.492  21.859  1.00  0.00     0.115 C 
ATOM     10  C   UNL A   1      33.150  26.903  24.240  1.00  0.00     0.055 A 
ATOM     11  C   UNL A   1      33.123  26.041  21.585  1.00  0.00     0.225 C 
ATOM     12  C   UNL A   1      33.322  25.566  23.964  1.00  0.00     0.076 A 
ATOM     13  N   UNL A   1      33.379  27.108  25.575  1.00  0.00    -0.317 N 
ATOM     14  O   UNL A   1      32.953  25.594  20.452  1.00  0.00    -0.275 OA
ATOM     15  N   UNL A   1      33.141  25.190  22.658  1.00  0.00    -0.324 N 
ATOM     16  C   UNL A   1      33.740  25.898  26.118  1.00  0.00     0.107 A 
ATOM     17  H   UNL A   1      33.013  24.231  22.477  1.00  0.00     0.170 HD
BRANCH   8  18
ATOM     18  C   UNL A   1      31.317  28.160  23.053  1.00  0.00    -0.034 A 
ATOM     19  C   UNL A   1      29.525  29.606  22.212  1.00  0.00     0.160 A 
ATOM     20  C   UNL A   1      30.883  29.292  22.349  1.00  0.00     0.054 A 
ATOM     21  C   UNL A   1      28.584  28.731  22.755  1.00  0.00     0.157 A 
ATOM     22  C   UNL A   1      28.990  27.598  23.457  1.00  0.00     0.050 A 
ATOM     23  C   UNL A   1      30.346  27.313  23.604  1.00  0.00     0.008 A 
BRANCH  19  24
ATOM     24  O   UNL A   1      29.349  30.791  21.562  1.00  0.00    -0.493 OA
ATOM     25  C   UNL A   1      28.902  31.932  22.265  1.00  0.00     0.278 C 
ENDBRANCH  19  24
BRANCH  21  26
ATOM     26  O   UNL A   1      27.233  28.879  22.640  1.00  0.00    -0.504 OA
ATOM     27  H   UNL A   1      26.880  29.504  22.037  1.00  0.00     0.293 HD
ENDBRANCH  21  26
ENDBRANCH   8  18
BRANCH  13  28
ATOM     28  C   UNL A   1      33.312  28.333  26.268  1.00  0.00     0.045 A 
ATOM     29  C   UNL A   1      32.081  28.976  26.417  1.00  0.00     0.026 A 
ATOM     30  C   UNL A   1      34.484  28.918  26.753  1.00  0.00     0.026 A 
ATOM     31  C   UNL A   1      32.025  30.244  26.986  1.00  0.00     0.002 A 
ATOM     32  C   UNL A   1      34.421  30.194  27.313  1.00  0.00     0.002 A 
ATOM     33  C   UNL A   1      33.197  30.861  27.418  1.00  0.00     0.000 A 
ENDBRANCH  13  28
ENDBRANCH   4   7
ENDBRANCH   2   3
ENDBRANCH   1   2
BRANCH   1  34
ATOM     34  C   UNL A   1      38.030  22.942  26.144  1.00  0.00     0.118 C 
BRANCH  34  35
ATOM     35  N   UNL A   1      39.266  22.231  26.531  1.00  0.00    -0.352 N 
ATOM     36  C   UNL A   1      40.540  22.719  26.744  1.00  0.00     0.251 C 
ATOM     37  H   UNL A   1      39.165  21.260  26.659  1.00  0.00     0.163 HD
ATOM     38  O   UNL A   1      41.520  21.971  26.714  1.00  0.00    -0.269 OA
BRANCH  36  39
ATOM     39  C   UNL A   1      40.707  24.149  27.010  1.00  0.00     0.039 A 
ATOM     40  C   UNL A   1      40.356  25.169  26.122  1.00  0.00     0.014 A 
ATOM     41  C   UNL A   1      41.121  24.455  28.287  1.00  0.00     0.014 A 
ATOM     42  C   UNL A   1      40.429  26.482  26.585  1.00  0.00     0.010 A 
ATOM     43  C   UNL A   1      40.621  25.594  28.807  1.00  0.00     0.010 A 
ATOM     44  C   UNL A   1      40.598  26.672  27.958  1.00  0.00    -0.014 A 
BRANCH  44  45
ATOM     45  C   UNL A   1      40.712  27.947  28.632  1.00  0.00     0.031 A 
ATOM     46  C   UNL A   1      41.788  28.803  28.107  1.00  0.00     0.074 A 
ATOM     47  C   UNL A   1      39.710  28.435  29.399  1.00  0.00     0.049 A 
ATOM     48  N   UNL A   1      42.927  29.044  28.658  1.00  0.00    -0.248 NA
ATOM     49  C   UNL A   1      41.673  29.289  26.723  1.00  0.00     0.031 C 
ATOM     50  C   UNL A   1      38.377  27.872  29.667  1.00  0.00     0.029 A 
ATOM     51  N   UNL A   1      39.645  29.641  30.021  1.00  0.00    -0.354 N 
ATOM     52  C   UNL A   1      43.581  29.907  27.789  1.00  0.00     0.074 A 
ATOM     53  C   UNL A   1      42.894  29.794  26.532  1.00  0.00     0.031 C 
ATOM     54  C   UNL A   1      37.578  28.826  30.198  1.00  0.00     0.029 A 
ATOM     55  C   UNL A   1      38.374  30.010  30.450  1.00  0.00     0.049 A 
ATOM     56  H   UNL A   1      40.437  30.210  30.158  1.00  0.00     0.167 HD
ATOM     57  C   UNL A   1      44.434  30.857  28.269  1.00  0.00     0.037 A 
ATOM     58  C   UNL A   1      38.032  31.242  30.905  1.00  0.00     0.037 A 
ATOM     59  C   UNL A   1      44.735  30.606  29.664  1.00  0.00     0.049 A 
ATOM     60  C   UNL A   1      39.303  31.925  31.292  1.00  0.00     0.074 A 
ATOM     61  C   UNL A   1      45.242  29.523  30.361  1.00  0.00     0.029 A 
ATOM     62  N   UNL A   1      44.105  31.386  30.608  1.00  0.00    -0.354 N 
ATOM     63  N   UNL A   1      40.058  31.534  32.286  1.00  0.00    -0.248 NA
ATOM     64  C   UNL A   1      39.989  32.693  30.260  1.00  0.00     0.031 C 
ATOM     65  C   UNL A   1      44.445  29.446  31.545  1.00  0.00     0.029 A 
ATOM     66  C   UNL A   1      43.576  30.537  31.548  1.00  0.00     0.049 A 
ATOM     67  H   UNL A   1      44.046  32.367  30.610  1.00  0.00     0.167 HD
ATOM     68  C   UNL A   1      41.360  31.632  31.810  1.00  0.00     0.074 A 
ATOM     69  C   UNL A   1      41.257  32.411  30.578  1.00  0.00     0.031 C 
ATOM     70  C   UNL A   1      42.354  30.813  32.272  1.00  0.00     0.037 A 
BRANCH  57  71
ATOM     71  C   UNL A   1      44.672  32.211  27.639  1.00  0.00     0.064 A 
ATOM     72  C   UNL A   1      45.845  32.389  26.876  1.00  0.00     0.173 A 
ATOM     73  C   UNL A   1      43.989  33.399  27.976  1.00  0.00     0.173 A 
ATOM     74  F   UNL A   1      46.570  31.333  26.479  1.00  0.00    -0.203 F 
ATOM     75  C   UNL A   1      46.357  33.656  26.589  1.00  0.00     0.198 A 
ATOM     76  C   UNL A   1      44.475  34.662  27.639  1.00  0.00     0.198 A 
ATOM     77  F   UNL A   1      42.888  33.416  28.731  1.00  0.00    -0.203 F 
ATOM     78  F   UNL A   1      47.550  33.769  25.992  1.00  0.00    -0.200 F 
ATOM     79  C   UNL A   1      45.678  34.792  26.983  1.00  0.00     0.200 A 
ATOM     80  F   UNL A   1      43.801  35.751  28.036  1.00  0.00    -0.200 F 
ATOM     81  F   UNL A   1      46.202  36.007  26.777  1.00  0.00    -0.200 F 
ENDBRANCH  57  71
BRANCH  58  82
ATOM     82  C   UNL A   1      36.748  31.958  30.699  1.00  0.00     0.064 A 
ATOM     83  C   UNL A   1      35.927  32.316  31.781  1.00  0.00     0.173 A 
ATOM     84  C   UNL A   1      36.414  32.530  29.453  1.00  0.00     0.173 A 
ATOM     85  F   UNL A   1      36.200  31.860  33.012  1.00  0.00    -0.203 F 
ATOM     86  C   UNL A   1      34.851  33.201  31.628  1.00  0.00     0.198 A 
ATOM     87  C   UNL A   1      35.337  33.404  29.300  1.00  0.00     0.198 A 
ATOM     88  F   UNL A   1      37.182  32.326  28.374  1.00  0.00    -0.203 F 
ATOM     89  F   UNL A   1      34.125  33.562  32.696  1.00  0.00    -0.200 F 
ATOM     90  C   UNL A   1      34.561  33.749  30.389  1.00  0.00     0.200 A 
ATOM     91  F   UNL A   1      35.093  33.954  28.102  1.00  0.00    -0.200 F 
ATOM     92  F   UNL A   1      33.566  34.636  30.254  1.00  0.00    -0.200 F 
ENDBRANCH  58  82
BRANCH  70  93
ATOM     93  C   UNL A   1      42.084  29.952  33.476  1.00  0.00     0.064 A 
ATOM     94  C   UNL A   1      41.641  28.619  33.411  1.00  0.00     0.173 A 
ATOM     95  C   UNL A   1      42.469  30.435  34.735  1.00  0.00     0.173 A 
ATOM     96  F   UNL A   1      41.356  28.044  32.238  1.00  0.00    -0.203 F 
ATOM     97  C   UNL A   1      41.553  27.824  34.553  1.00  0.00     0.198 A 
ATOM     98  C   UNL A   1      42.416  29.628  35.869  1.00  0.00     0.198 A 
ATOM     99  F   UNL A   1      42.956  31.680  34.856  1.00  0.00    -0.203 F 
ATOM    100  F   UNL A   1      41.124  26.557  34.459  1.00  0.00    -0.200 F 
ATOM    101  C   UNL A   1      41.950  28.327  35.780  1.00  0.00     0.200 A 
ATOM    102  F   UNL A   1      42.852  30.104  37.044  1.00  0.00    -0.200 F 
ATOM    103  F   UNL A   1      41.912  27.550  36.872  1.00  0.00    -0.200 F 
ENDBRANCH  70  93
ENDBRANCH  44  45
ENDBRANCH  36  39
ENDBRANCH  34  35
ENDBRANCH   1  34
TORSDOF 14
ENDMDL
MODEL 2
REMARK VINA RESULT:     -14.3      0.880      1.439
REMARK SMILES COc1cc([C@@H]2CC(=O)Nc3c(C(=O)NCCCNC(=O)c4ccc(-c5c6nc(c(-c7c(F)c(F)c(F)c(F)c7F)c7ccc([nH]7)c(-c7c(F)c(F)c(F)c(F)c7F)c7nc(c(-c8c(F)c(F)c(F)c(F)c8F)c8ccc5[nH]8)C=C7)C=C6)cc4)cn(-c4ccccc4)c32)ccc1O
REMARK SMILES IDX 17 1 16 2 15 3 13 4 14 5 12 7 6 8 7 9 93 10 8 11 11 12 86 13
REMARK SMILES IDX 9 14 10 15 85 16 5 18 3 19 4 20 96 21 95 22 94 23 2 24 1 25
REMARK SMILES IDX 97 26 87 28 88 29 92 30 89 31 91 32 90 33 18 34 19 35 20 36
REMARK SMILES IDX 21 38 22 39 23 40 84 41 24 42 83 43 25 44 26 45 27 46 77 47
REMARK SMILES IDX 28 48 82 49 76 50 78 51 29 52 81 53 75 54 74 55 30 57 62 58
REMARK SMILES IDX 42 59 61 60 43 61 46 62 60 63 79 64 44 65 45 66 59 68 80 69
REMARK SMILES IDX 47 70 31 71 32 72 40 73 33 74 34 75 38 76 41 77 35 78 36 79
REMARK SMILES IDX 39 80 37 81 63 82 64 83 72 84 65 85 66 86 70 87 73 88 67 89
REMARK SMILES IDX 68 90 71 91 69 92 48 93 49 94 57 95 50 96 51 97 55 98 58 99
REMARK SMILES IDX 52 100 53 101 56 102 54 103
REMARK H PARENT 15 6 10 17 97 27 19 37 78 56 46 67
REMARK Flexibility Score: inf
ROOT
ATOM      1  C   UNL A   1      37.556  22.081  25.398  1.00  0.00     0.042 C 
ENDROOT
BRANCH   1   2
ATOM      2  C   UNL A   1      36.459  23.138  25.160  1.00  0.00     0.118 C 
BRANCH   2   3
ATOM      3  N   UNL A   1      35.134  22.610  25.390  1.00  0.00    -0.352 N 
ATOM      4  C   UNL A   1      33.879  23.149  25.277  1.00  0.00     0.254 C 
ATOM      5  O   UNL A   1      32.956  22.350  25.468  1.00  0.00    -0.269 OA
ATOM      6  H   UNL A   1      35.131  21.673  25.691  1.00  0.00     0.163 HD
BRANCH   4   7
ATOM      7  C   UNL A   1      33.592  24.551  24.941  1.00  0.00     0.081 A 
ATOM      8  C   UNL A   1      32.742  27.712  23.151  1.00  0.00     0.078 C 
ATOM      9  C   UNL A   1      33.338  27.351  21.783  1.00  0.00     0.115 C 
ATOM     10  C   UNL A   1      33.092  26.628  24.130  1.00  0.00     0.055 A 
ATOM     11  C   UNL A   1      33.038  25.916  21.431  1.00  0.00     0.225 C 
ATOM     12  C   UNL A   1      33.266  25.310  23.778  1.00  0.00     0.076 A 
ATOM     13  N   UNL A   1      33.335  26.759  25.472  1.00  0.00    -0.317 N 
ATOM     14  O   UNL A   1      32.856  25.533  20.277  1.00  0.00    -0.275 OA
ATOM     15  N   UNL A   1      33.071  25.007  22.455  1.00  0.00    -0.324 N 
ATOM     16  C   UNL A   1      33.707  25.522  25.942  1.00  0.00     0.107 A 
ATOM     17  H   UNL A   1      32.945  24.059  22.222  1.00  0.00     0.170 HD
BRANCH   8  18
ATOM     18  C   UNL A   1      31.240  27.942  23.036  1.00  0.00    -0.034 A 
ATOM     19  C   UNL A   1      29.432  29.367  22.193  1.00  0.00     0.160 A 
ATOM     20  C   UNL A   1      30.792  29.052  22.307  1.00  0.00     0.054 A 
ATOM     21  C   UNL A   1      28.502  28.514  22.788  1.00  0.00     0.157 A 
ATOM     22  C   UNL A   1      28.922  27.403  23.516  1.00  0.00     0.050 A 
ATOM     23  C   UNL A   1      30.280  27.117  23.638  1.00  0.00     0.008 A 
BRANCH  19  24
ATOM     24  O   UNL A   1      29.243  30.530  21.509  1.00  0.00    -0.493 OA
ATOM     25  C   UNL A   1      28.544  31.604  22.105  1.00  0.00     0.278 C 
ENDBRANCH  19  24
BRANCH  21  26
ATOM     26  O   UNL A   1      27.149  28.664  22.701  1.00  0.00    -0.504 OA
ATOM     27  H   UNL A   1      26.788  29.419  22.281  1.00  0.00     0.293 HD
ENDBRANCH  21  26
ENDBRANCH   8  18
BRANCH  13  28
ATOM     28  C   UNL A   1      33.271  27.943  26.233  1.00  0.00     0.045 A 
ATOM     29  C   UNL A   1      32.029  28.443  26.630  1.00  0.00     0.026 A 
ATOM     30  C   UNL A   1      34.446  28.633  26.538  1.00  0.00     0.026 A 
ATOM     31  C   UNL A   1      31.949  29.676  27.270  1.00  0.00     0.002 A 
ATOM     32  C   UNL A   1      34.358  29.874  27.171  1.00  0.00     0.002 A 
ATOM     33  C   UNL A   1      33.113  30.399  27.525  1.00  0.00     0.000 A 
ENDBRANCH  13  28
ENDBRANCH   4   7
ENDBRANCH   2   3
ENDBRANCH   1   2
BRANCH   1  34
ATOM     34  C   UNL A   1      38.617  22.524  26.369  1.00  0.00     0.118 C 
BRANCH  34  35
ATOM     35  N   UNL A   1      39.942  22.007  25.971  1.00  0.00    -0.352 N 
ATOM     36  C   UNL A   1      41.191  22.584  26.085  1.00  0.00     0.251 C 
ATOM     37  H   UNL A   1      39.933  21.111  25.561  1.00  0.00     0.163 HD
ATOM     38  O   UNL A   1      42.138  22.192  25.399  1.00  0.00    -0.269 OA
BRANCH  36  39
ATOM     39  C   UNL A   1      41.373  23.676  27.044  1.00  0.00     0.039 A 
ATOM     40  C   UNL A   1      42.432  23.769  27.951  1.00  0.00     0.014 A 
ATOM     41  C   UNL A   1      40.482  24.717  26.911  1.00  0.00     0.014 A 
ATOM     42  C   UNL A   1      42.549  24.946  28.688  1.00  0.00     0.010 A 
ATOM     43  C   UNL A   1      40.972  25.945  27.178  1.00  0.00     0.010 A 
ATOM     44  C   UNL A   1      41.768  26.034  28.293  1.00  0.00    -0.014 A 
BRANCH  44  45
ATOM     45  C   UNL A   1      41.733  27.331  28.931  1.00  0.00     0.031 A 
ATOM     46  C   UNL A   1      42.783  28.252  28.464  1.00  0.00     0.074 A 
ATOM     47  C   UNL A   1      40.639  27.763  29.600  1.00  0.00     0.049 A 
ATOM     48  N   UNL A   1      43.853  28.593  29.094  1.00  0.00    -0.248 NA
ATOM     49  C   UNL A   1      42.745  28.690  27.060  1.00  0.00     0.031 C 
ATOM     50  C   UNL A   1      39.334  27.108  29.781  1.00  0.00     0.029 A 
ATOM     51  N   UNL A   1      40.436  28.977  30.175  1.00  0.00    -0.354 N 
ATOM     52  C   UNL A   1      44.510  29.480  28.251  1.00  0.00     0.074 A 
ATOM     53  C   UNL A   1      43.936  29.280  26.949  1.00  0.00     0.031 C 
ATOM     54  C   UNL A   1      38.426  28.013  30.216  1.00  0.00     0.029 A 
ATOM     55  C   UNL A   1      39.111  29.260  30.489  1.00  0.00     0.049 A 
ATOM     56  H   UNL A   1      41.170  29.608  30.354  1.00  0.00     0.167 HD
ATOM     57  C   UNL A   1      45.249  30.504  28.765  1.00  0.00     0.037 A 
ATOM     58  C   UNL A   1      38.643  30.475  30.874  1.00  0.00     0.037 A 
ATOM     59  C   UNL A   1      45.454  30.316  30.187  1.00  0.00     0.049 A 
ATOM     60  C   UNL A   1      39.825  31.263  31.337  1.00  0.00     0.074 A 
ATOM     61  C   UNL A   1      45.981  29.294  30.958  1.00  0.00     0.029 A 
ATOM     62  N   UNL A   1      44.694  31.071  31.052  1.00  0.00    -0.354 N 
ATOM     63  N   UNL A   1      40.524  30.958  32.400  1.00  0.00    -0.248 NA
ATOM     64  C   UNL A   1      40.535  32.052  30.337  1.00  0.00     0.031 C 
ATOM     65  C   UNL A   1      45.098  29.189  32.077  1.00  0.00     0.029 A 
ATOM     66  C   UNL A   1      44.153  30.211  31.975  1.00  0.00     0.049 A 
ATOM     67  H   UNL A   1      44.562  32.045  31.016  1.00  0.00     0.167 HD
ATOM     68  C   UNL A   1      41.850  31.141  32.025  1.00  0.00     0.074 A 
ATOM     69  C   UNL A   1      41.789  31.876  30.763  1.00  0.00     0.031 C 
ATOM     70  C   UNL A   1      42.860  30.413  32.591  1.00  0.00     0.037 A 
BRANCH  57  71
ATOM     71  C   UNL A   1      45.437  31.855  28.110  1.00  0.00     0.064 A 
ATOM     72  C   UNL A   1      44.286  32.616  27.820  1.00  0.00     0.173 A 
ATOM     73  C   UNL A   1      46.626  32.304  27.495  1.00  0.00     0.173 A 
ATOM     74  F   UNL A   1      43.101  32.299  28.361  1.00  0.00    -0.203 F 
ATOM     75  C   UNL A   1      44.302  33.659  26.890  1.00  0.00     0.198 A 
ATOM     76  C   UNL A   1      46.648  33.380  26.609  1.00  0.00     0.198 A 
ATOM     77  F   UNL A   1      47.796  31.674  27.626  1.00  0.00    -0.203 F 
ATOM     78  F   UNL A   1      43.154  34.251  26.540  1.00  0.00    -0.200 F 
ATOM     79  C   UNL A   1      45.481  34.030  26.274  1.00  0.00     0.200 A 
ATOM     80  F   UNL A   1      47.803  33.721  26.020  1.00  0.00    -0.200 F 
ATOM     81  F   UNL A   1      45.488  34.977  25.329  1.00  0.00    -0.200 F 
ENDBRANCH  57  71
BRANCH  58  82
ATOM     82  C   UNL A   1      37.331  31.085  30.544  1.00  0.00     0.064 A 
ATOM     83  C   UNL A   1      36.394  31.393  31.544  1.00  0.00     0.173 A 
ATOM     84  C   UNL A   1      37.064  31.612  29.262  1.00  0.00     0.173 A 
ATOM     85  F   UNL A   1      36.592  30.977  32.803  1.00  0.00    -0.203 F 
ATOM     86  C   UNL A   1      35.271  32.189  31.281  1.00  0.00     0.198 A 
ATOM     87  C   UNL A   1      35.941  32.398  29.000  1.00  0.00     0.198 A 
ATOM     88  F   UNL A   1      37.937  31.454  28.258  1.00  0.00    -0.203 F 
ATOM     89  F   UNL A   1      34.429  32.507  32.275  1.00  0.00    -0.200 F 
ATOM     90  C   UNL A   1      35.049  32.696  30.011  1.00  0.00     0.200 A 
ATOM     91  F   UNL A   1      35.761  32.911  27.774  1.00  0.00    -0.200 F 
ATOM     92  F   UNL A   1      34.004  33.501  29.772  1.00  0.00    -0.200 F 
ENDBRANCH  58  82
BRANCH  70  93
ATOM     93  C   UNL A   1      42.557  29.567  33.799  1.00  0.00     0.064 A 
ATOM     94  C   UNL A   1      42.060  28.254  33.738  1.00  0.00     0.173 A 
ATOM     95  C   UNL A   1      42.966  30.038  35.055  1.00  0.00     0.173 A 
ATOM     96  F   UNL A   1      41.748  27.688  32.568  1.00  0.00    -0.203 F 
ATOM     97  C   UNL A   1      41.941  27.466  34.883  1.00  0.00     0.198 A 
ATOM     98  C   UNL A   1      42.882  29.237  36.191  1.00  0.00     0.198 A 
ATOM     99  F   UNL A   1      43.504  31.261  35.171  1.00  0.00    -0.203 F 
ATOM    100  F   UNL A   1      41.459  26.218  34.793  1.00  0.00    -0.200 F 
ATOM    101  C   UNL A   1      42.362  27.957  36.107  1.00  0.00     0.200 A 
ATOM    102  F   UNL A   1      43.340  29.698  37.363  1.00  0.00    -0.200 F 
ATOM    103  F   UNL A   1      42.294  27.184  37.201  1.00  0.00    -0.200 F 
ENDBRANCH  70  93
ENDBRANCH  44  45
ENDBRANCH  36  39
ENDBRANCH  34  35
ENDBRANCH   1  34
TORSDOF 14
ENDMDL
MODEL 3
REMARK VINA RESULT:     -14.2      0.915      1.807
REMARK SMILES COc1cc([C@@H]2CC(=O)Nc3c(C(=O)NCCCNC(=O)c4ccc(-c5c6nc(c(-c7c(F)c(F)c(F)c(F)c7F)c7ccc([nH]7)c(-c7c(F)c(F)c(F)c(F)c7F)c7nc(c(-c8c(F)c(F)c(F)c(F)c8F)c8ccc5[nH]8)C=C7)C=C6)cc4)cn(-c4ccccc4)c32)ccc1O
REMARK SMILES IDX 17 1 16 2 15 3 13 4 14 5 12 7 6 8 7 9 93 10 8 11 11 12 86 13
REMARK SMILES IDX 9 14 10 15 85 16 5 18 3 19 4 20 96 21 95 22 94 23 2 24 1 25
REMARK SMILES IDX 97 26 87 28 88 29 92 30 89 31 91 32 90 33 18 34 19 35 20 36
REMARK SMILES IDX 21 38 22 39 23 40 84 41 24 42 83 43 25 44 26 45 27 46 77 47
REMARK SMILES IDX 28 48 82 49 76 50 78 51 29 52 81 53 75 54 74 55 30 57 62 58
REMARK SMILES IDX 42 59 61 60 43 61 46 62 60 63 79 64 44 65 45 66 59 68 80 69
REMARK SMILES IDX 47 70 31 71 32 72 40 73 33 74 34 75 38 76 41 77 35 78 36 79
REMARK SMILES IDX 39 80 37 81 63 82 64 83 72 84 65 85 66 86 70 87 73 88 67 89
REMARK SMILES IDX 68 90 71 91 69 92 48 93 49 94 57 95 50 96 51 97 55 98 58 99
REMARK SMILES IDX 52 100 53 101 56 102 54 103
REMARK H PARENT 15 6 10 17 97 27 19 37 78 56 46 67
REMARK Flexibility Score: inf
ROOT
ATOM      1  C   UNL A   1      36.946  21.790  24.704  1.00  0.00     0.042 C 
ENDROOT
BRANCH   1   2
ATOM      2  C   UNL A   1      35.729  22.464  24.040  1.00  0.00     0.118 C 
BRANCH   2   3
ATOM      3  N   UNL A   1      34.487  22.103  24.684  1.00  0.00    -0.352 N 
ATOM      4  C   UNL A   1      33.333  22.794  24.947  1.00  0.00     0.254 C 
ATOM      5  O   UNL A   1      32.425  22.115  25.438  1.00  0.00    -0.269 OA
ATOM      6  H   UNL A   1      34.465  21.170  24.999  1.00  0.00     0.163 HD
BRANCH   4   7
ATOM      7  C   UNL A   1      33.127  24.224  24.674  1.00  0.00     0.081 A 
ATOM      8  C   UNL A   1      32.441  27.502  23.032  1.00  0.00     0.078 C 
ATOM      9  C   UNL A   1      32.986  27.162  21.637  1.00  0.00     0.115 C 
ATOM     10  C   UNL A   1      32.742  26.360  23.958  1.00  0.00     0.055 A 
ATOM     11  C   UNL A   1      32.589  25.764  21.235  1.00  0.00     0.225 C 
ATOM     12  C   UNL A   1      32.826  25.049  23.550  1.00  0.00     0.076 A 
ATOM     13  N   UNL A   1      33.020  26.420  25.299  1.00  0.00    -0.317 N 
ATOM     14  O   UNL A   1      32.360  25.441  20.071  1.00  0.00    -0.275 OA
ATOM     15  N   UNL A   1      32.586  24.813  22.221  1.00  0.00    -0.324 N 
ATOM     16  C   UNL A   1      33.323  25.144  25.710  1.00  0.00     0.107 A 
ATOM     17  H   UNL A   1      32.396  23.885  21.953  1.00  0.00     0.170 HD
BRANCH   8  18
ATOM     18  C   UNL A   1      30.954  27.829  22.960  1.00  0.00    -0.034 A 
ATOM     19  C   UNL A   1      29.219  29.373  22.177  1.00  0.00     0.160 A 
ATOM     20  C   UNL A   1      30.558  28.971  22.250  1.00  0.00     0.054 A 
ATOM     21  C   UNL A   1      28.253  28.577  22.793  1.00  0.00     0.157 A 
ATOM     22  C   UNL A   1      28.621  27.436  23.502  1.00  0.00     0.050 A 
ATOM     23  C   UNL A   1      29.960  27.063  23.585  1.00  0.00     0.008 A 
BRANCH  19  24
ATOM     24  O   UNL A   1      29.086  30.551  21.504  1.00  0.00    -0.493 OA
ATOM     25  C   UNL A   1      28.778  31.741  22.202  1.00  0.00     0.278 C 
ENDBRANCH  19  24
BRANCH  21  26
ATOM     26  O   UNL A   1      26.910  28.814  22.745  1.00  0.00    -0.504 OA
ATOM     27  H   UNL A   1      26.446  28.716  21.937  1.00  0.00     0.293 HD
ENDBRANCH  21  26
ENDBRANCH   8  18
BRANCH  13  28
ATOM     28  C   UNL A   1      33.046  27.573  26.108  1.00  0.00     0.045 A 
ATOM     29  C   UNL A   1      31.846  28.126  26.561  1.00  0.00     0.026 A 
ATOM     30  C   UNL A   1      34.267  28.182  26.406  1.00  0.00     0.026 A 
ATOM     31  C   UNL A   1      31.855  29.334  27.251  1.00  0.00     0.002 A 
ATOM     32  C   UNL A   1      34.268  29.398  27.090  1.00  0.00     0.002 A 
ATOM     33  C   UNL A   1      33.065  29.979  27.500  1.00  0.00     0.000 A 
ENDBRANCH  13  28
ENDBRANCH   4   7
ENDBRANCH   2   3
ENDBRANCH   1   2
BRANCH   1  34
ATOM     34  C   UNL A   1      37.677  22.686  25.669  1.00  0.00     0.118 C 
BRANCH  34  35
ATOM     35  N   UNL A   1      38.790  21.962  26.316  1.00  0.00    -0.352 N 
ATOM     36  C   UNL A   1      39.976  22.441  26.838  1.00  0.00     0.251 C 
ATOM     37  H   UNL A   1      38.668  20.987  26.386  1.00  0.00     0.163 HD
ATOM     38  O   UNL A   1      40.939  21.693  27.017  1.00  0.00    -0.269 OA
BRANCH  36  39
ATOM     39  C   UNL A   1      40.066  23.862  27.180  1.00  0.00     0.039 A 
ATOM     40  C   UNL A   1      39.007  24.769  27.092  1.00  0.00     0.014 A 
ATOM     41  C   UNL A   1      41.262  24.246  27.742  1.00  0.00     0.014 A 
ATOM     42  C   UNL A   1      39.210  26.050  27.602  1.00  0.00     0.010 A 
ATOM     43  C   UNL A   1      41.184  25.212  28.681  1.00  0.00     0.010 A 
ATOM     44  C   UNL A   1      40.347  26.259  28.384  1.00  0.00    -0.014 A 
BRANCH  44  45
ATOM     45  C   UNL A   1      40.745  27.510  28.991  1.00  0.00     0.031 A 
ATOM     46  C   UNL A   1      41.846  28.188  28.288  1.00  0.00     0.074 A 
ATOM     47  C   UNL A   1      39.948  28.154  29.876  1.00  0.00     0.049 A 
ATOM     48  N   UNL A   1      43.077  28.262  28.662  1.00  0.00    -0.248 NA
ATOM     49  C   UNL A   1      41.603  28.669  26.920  1.00  0.00     0.031 C 
ATOM     50  C   UNL A   1      38.601  27.800  30.351  1.00  0.00     0.029 A 
ATOM     51  N   UNL A   1      40.153  29.363  30.459  1.00  0.00    -0.354 N 
ATOM     52  C   UNL A   1      43.716  29.006  27.680  1.00  0.00     0.074 A 
ATOM     53  C   UNL A   1      42.843  28.981  26.539  1.00  0.00     0.031 C 
ATOM     54  C   UNL A   1      38.037  28.870  30.958  1.00  0.00     0.029 A 
ATOM     55  C   UNL A   1      39.027  29.924  31.052  1.00  0.00     0.049 A 
ATOM     56  H   UNL A   1      41.031  29.808  30.462  1.00  0.00     0.167 HD
ATOM     57  C   UNL A   1      44.760  29.823  28.001  1.00  0.00     0.037 A 
ATOM     58  C   UNL A   1      38.939  31.199  31.508  1.00  0.00     0.037 A 
ATOM     59  C   UNL A   1      45.222  29.548  29.346  1.00  0.00     0.049 A 
ATOM     60  C   UNL A   1      40.340  31.689  31.686  1.00  0.00     0.074 A 
ATOM     61  C   UNL A   1      45.661  28.410  30.000  1.00  0.00     0.029 A 
ATOM     62  N   UNL A   1      44.859  30.425  30.343  1.00  0.00    -0.354 N 
ATOM     63  N   UNL A   1      41.167  31.201  32.575  1.00  0.00    -0.248 NA
ATOM     64  C   UNL A   1      40.973  32.331  30.540  1.00  0.00     0.031 C 
ATOM     65  C   UNL A   1      45.043  28.469  31.287  1.00  0.00     0.029 A 
ATOM     66  C   UNL A   1      44.353  29.678  31.378  1.00  0.00     0.049 A 
ATOM     67  H   UNL A   1      44.945  31.404  30.319  1.00  0.00     0.167 HD
ATOM     68  C   UNL A   1      42.385  31.096  31.915  1.00  0.00     0.074 A 
ATOM     69  C   UNL A   1      42.218  31.866  30.684  1.00  0.00     0.031 C 
ATOM     70  C   UNL A   1      43.305  30.143  32.258  1.00  0.00     0.037 A 
BRANCH  57  71
ATOM     71  C   UNL A   1      45.100  31.118  27.296  1.00  0.00     0.064 A 
ATOM     72  C   UNL A   1      46.425  31.301  26.849  1.00  0.00     0.173 A 
ATOM     73  C   UNL A   1      44.301  32.282  27.298  1.00  0.00     0.173 A 
ATOM     74  F   UNL A   1      47.275  30.265  26.785  1.00  0.00    -0.203 F 
ATOM     75  C   UNL A   1      46.940  32.565  26.555  1.00  0.00     0.198 A 
ATOM     76  C   UNL A   1      44.804  33.534  26.951  1.00  0.00     0.198 A 
ATOM     77  F   UNL A   1      43.038  32.296  27.733  1.00  0.00    -0.203 F 
ATOM     78  F   UNL A   1      48.244  32.702  26.281  1.00  0.00    -0.200 F 
ATOM     79  C   UNL A   1      46.133  33.683  26.621  1.00  0.00     0.200 A 
ATOM     80  F   UNL A   1      44.003  34.606  27.025  1.00  0.00    -0.200 F 
ATOM     81  F   UNL A   1      46.639  34.904  26.413  1.00  0.00    -0.200 F 
ENDBRANCH  57  71
BRANCH  58  82
ATOM     82  C   UNL A   1      37.758  32.098  31.463  1.00  0.00     0.064 A 
ATOM     83  C   UNL A   1      37.317  32.669  30.259  1.00  0.00     0.173 A 
ATOM     84  C   UNL A   1      36.882  32.219  32.564  1.00  0.00     0.173 A 
ATOM     85  F   UNL A   1      38.062  32.559  29.150  1.00  0.00    -0.203 F 
ATOM     86  C   UNL A   1      36.074  33.308  30.158  1.00  0.00     0.198 A 
ATOM     87  C   UNL A   1      35.648  32.863  32.464  1.00  0.00     0.198 A 
ATOM     88  F   UNL A   1      37.164  31.633  33.736  1.00  0.00    -0.203 F 
ATOM     89  F   UNL A   1      35.665  33.792  28.977  1.00  0.00    -0.200 F 
ATOM     90  C   UNL A   1      35.238  33.398  31.259  1.00  0.00     0.200 A 
ATOM     91  F   UNL A   1      34.835  32.908  33.529  1.00  0.00    -0.200 F 
ATOM     92  F   UNL A   1      34.026  33.961  31.150  1.00  0.00    -0.200 F 
ENDBRANCH  58  82
BRANCH  70  93
ATOM     93  C   UNL A   1      43.090  29.348  33.518  1.00  0.00     0.064 A 
ATOM     94  C   UNL A   1      43.443  29.793  34.803  1.00  0.00     0.173 A 
ATOM     95  C   UNL A   1      42.326  28.175  33.436  1.00  0.00     0.173 A 
ATOM     96  F   UNL A   1      44.078  30.956  34.980  1.00  0.00    -0.203 F 
ATOM     97  C   UNL A   1      43.083  29.079  35.946  1.00  0.00     0.198 A 
ATOM     98  C   UNL A   1      41.935  27.483  34.580  1.00  0.00     0.198 A 
ATOM     99  F   UNL A   1      41.907  27.728  32.243  1.00  0.00    -0.203 F 
ATOM    100  F   UNL A   1      43.438  29.528  37.159  1.00  0.00    -0.200 F 
ATOM    101  C   UNL A   1      42.321  27.930  35.833  1.00  0.00     0.200 A 
ATOM    102  F   UNL A   1      41.153  26.401  34.467  1.00  0.00    -0.200 F 
ATOM    103  F   UNL A   1      41.932  27.268  36.933  1.00  0.00    -0.200 F 
ENDBRANCH  70  93
ENDBRANCH  44  45
ENDBRANCH  36  39
ENDBRANCH  34  35
ENDBRANCH   1  34
TORSDOF 14
ENDMDL
