MODEL 1
REMARK VINA RESULT:     -11.5      0.000      0.000
REMARK SMILES [NH3+][C@H](Cc1ccc2nsnc2c1)C(=O)NCCCNC(=O)c1ccc(-c2c3nc(c(-c4c(F)c(F)c(F)c(F)c4F)c4ccc([nH]4)c(-c4c(F)c(F)c(F)c(F)c4F)c4nc(c(-c5c(F)c(F)c(F)c(F)c5F)c5ccc2[nH]5)C=C4)C=C3)cc1
REMARK SMILES IDX 17 1 16 2 15 3 13 4 14 5 2 7 1 8 3 12 4 13 5 14 12 15 6 16
REMARK SMILES IDX 11 17 7 18 10 19 8 20 9 21 18 22 19 23 20 24 21 26 22 27
REMARK SMILES IDX 23 28 84 29 24 30 83 31 25 32 26 33 27 34 77 35 28 36 82 37
REMARK SMILES IDX 76 38 78 39 29 40 81 41 75 42 74 43 30 45 62 46 42 47 61 48
REMARK SMILES IDX 43 49 46 50 60 51 79 52 44 53 45 54 59 56 80 57 47 58 31 59
REMARK SMILES IDX 32 60 40 61 33 62 34 63 38 64 41 65 35 66 36 67 39 68 37 69
REMARK SMILES IDX 63 70 64 71 72 72 65 73 66 74 70 75 73 76 67 77 68 78 71 79
REMARK SMILES IDX 69 80 48 81 49 82 57 83 50 84 51 85 55 86 58 87 52 88 53 89
REMARK SMILES IDX 56 90 54 91
REMARK H PARENT 15 6 1 9 1 10 1 11 19 25 78 44 46 55
REMARK Flexibility Score: inf
ROOT
ATOM      1  C   UNL A   1      41.307  20.025  27.085  1.00  0.00     0.042 C 
ENDROOT
BRANCH   1   2
ATOM      2  C   UNL A   1      42.026  19.706  25.790  1.00  0.00     0.118 C 
BRANCH   2   3
ATOM      3  N   UNL A   1      43.191  18.870  26.016  1.00  0.00    -0.351 N 
ATOM      4  C   UNL A   1      44.391  18.838  25.372  1.00  0.00     0.278 C 
ATOM      5  O   UNL A   1      45.180  17.943  25.683  1.00  0.00    -0.268 OA
ATOM      6  H   UNL A   1      43.099  18.223  26.752  1.00  0.00     0.163 HD
BRANCH   4   7
ATOM      7  C   UNL A   1      44.744  19.886  24.302  1.00  0.00     0.275 C 
BRANCH   7   8
ATOM      8  N   UNL A   1      45.101  19.213  23.029  1.00  0.00    -0.347 N 
ATOM      9  H   UNL A   1      46.013  19.543  22.714  1.00  0.00     0.345 HD
ATOM     10  H   UNL A   1      44.398  19.429  22.321  1.00  0.00     0.345 HD
ATOM     11  H   UNL A   1      45.136  18.204  23.176  1.00  0.00     0.345 HD
ENDBRANCH   7   8
BRANCH   7  12
ATOM     12  C   UNL A   1      45.797  20.875  24.850  1.00  0.00     0.111 C 
BRANCH  12  13
ATOM     13  C   UNL A   1      45.385  22.332  25.036  1.00  0.00    -0.039 A 
ATOM     14  C   UNL A   1      44.061  22.700  25.407  1.00  0.00     0.006 A 
ATOM     15  C   UNL A   1      46.367  23.319  24.770  1.00  0.00     0.035 A 
ATOM     16  C   UNL A   1      43.608  24.026  25.543  1.00  0.00     0.032 A 
ATOM     17  C   UNL A   1      45.971  24.674  24.905  1.00  0.00     0.105 A 
ATOM     18  C   UNL A   1      44.564  25.030  25.297  1.00  0.00     0.104 A 
ATOM     19  N   UNL A   1      46.752  25.747  24.710  1.00  0.00    -0.173 NA
ATOM     20  N   UNL A   1      44.352  26.352  25.376  1.00  0.00    -0.173 NA
ATOM     21  S   UNL A   1      45.800  27.078  25.004  1.00  0.00     0.069 S 
ENDBRANCH  12  13
ENDBRANCH   7  12
ENDBRANCH   4   7
ENDBRANCH   2   3
ENDBRANCH   1   2
BRANCH   1  22
ATOM     22  C   UNL A   1      40.815  21.458  27.164  1.00  0.00     0.118 C 
BRANCH  22  23
ATOM     23  N   UNL A   1      39.606  21.686  26.385  1.00  0.00    -0.352 N 
ATOM     24  C   UNL A   1      38.856  22.831  26.266  1.00  0.00     0.251 C 
ATOM     25  H   UNL A   1      39.282  20.910  25.872  1.00  0.00     0.163 HD
ATOM     26  O   UNL A   1      37.764  22.805  25.719  1.00  0.00    -0.269 OA
BRANCH  24  27
ATOM     27  C   UNL A   1      39.382  24.090  26.831  1.00  0.00     0.039 A 
ATOM     28  C   UNL A   1      40.020  25.002  25.989  1.00  0.00     0.014 A 
ATOM     29  C   UNL A   1      39.210  24.377  28.187  1.00  0.00     0.014 A 
ATOM     30  C   UNL A   1      40.436  26.230  26.504  1.00  0.00     0.010 A 
ATOM     31  C   UNL A   1      39.511  25.643  28.665  1.00  0.00     0.010 A 
ATOM     32  C   UNL A   1      40.156  26.572  27.837  1.00  0.00    -0.014 A 
BRANCH  32  33
ATOM     33  C   UNL A   1      40.581  27.871  28.410  1.00  0.00     0.031 A 
ATOM     34  C   UNL A   1      42.032  28.092  28.745  1.00  0.00     0.074 A 
ATOM     35  C   UNL A   1      39.665  28.820  28.682  1.00  0.00     0.049 A 
ATOM     36  N   UNL A   1      42.606  29.122  29.311  1.00  0.00    -0.248 NA
ATOM     37  C   UNL A   1      42.959  26.989  28.437  1.00  0.00     0.031 C 
ATOM     38  C   UNL A   1      38.224  28.698  28.455  1.00  0.00     0.029 A 
ATOM     39  N   UNL A   1      39.812  30.076  29.212  1.00  0.00    -0.354 N 
ATOM     40  C   UNL A   1      43.945  28.781  29.443  1.00  0.00     0.074 A 
ATOM     41  C   UNL A   1      44.089  27.423  28.973  1.00  0.00     0.031 C 
ATOM     42  C   UNL A   1      37.624  29.844  28.811  1.00  0.00     0.029 A 
ATOM     43  C   UNL A   1      38.631  30.768  29.327  1.00  0.00     0.049 A 
ATOM     44  H   UNL A   1      40.682  30.447  29.485  1.00  0.00     0.167 HD
ATOM     45  C   UNL A   1      44.973  29.544  29.883  1.00  0.00     0.037 A 
ATOM     46  C   UNL A   1      38.392  32.006  29.796  1.00  0.00     0.037 A 
ATOM     47  C   UNL A   1      44.828  30.908  30.313  1.00  0.00     0.049 A 
ATOM     48  C   UNL A   1      39.554  32.839  30.274  1.00  0.00     0.074 A 
ATOM     49  C   UNL A   1      45.809  31.794  30.720  1.00  0.00     0.029 A 
ATOM     50  N   UNL A   1      43.618  31.584  30.391  1.00  0.00    -0.354 N 
ATOM     51  N   UNL A   1      40.828  32.532  30.325  1.00  0.00    -0.248 NA
ATOM     52  C   UNL A   1      39.243  34.193  30.750  1.00  0.00     0.031 C 
ATOM     53  C   UNL A   1      45.187  32.989  31.093  1.00  0.00     0.029 A 
ATOM     54  C   UNL A   1      43.826  32.870  30.860  1.00  0.00     0.049 A 
ATOM     55  H   UNL A   1      42.742  31.204  30.149  1.00  0.00     0.167 HD
ATOM     56  C   UNL A   1      41.474  33.665  30.803  1.00  0.00     0.074 A 
ATOM     57  C   UNL A   1      40.451  34.669  31.014  1.00  0.00     0.031 C 
ATOM     58  C   UNL A   1      42.794  33.858  31.047  1.00  0.00     0.037 A 
BRANCH  45  59
ATOM     59  C   UNL A   1      46.340  28.921  29.908  1.00  0.00     0.064 A 
ATOM     60  C   UNL A   1      47.186  28.950  28.787  1.00  0.00     0.173 A 
ATOM     61  C   UNL A   1      46.820  28.304  31.073  1.00  0.00     0.173 A 
ATOM     62  F   UNL A   1      46.771  29.515  27.642  1.00  0.00    -0.203 F 
ATOM     63  C   UNL A   1      48.443  28.354  28.820  1.00  0.00     0.198 A 
ATOM     64  C   UNL A   1      48.092  27.740  31.113  1.00  0.00     0.198 A 
ATOM     65  F   UNL A   1      46.056  28.250  32.174  1.00  0.00    -0.203 F 
ATOM     66  F   UNL A   1      49.205  28.341  27.718  1.00  0.00    -0.200 F 
ATOM     67  C   UNL A   1      48.899  27.757  29.986  1.00  0.00     0.200 A 
ATOM     68  F   UNL A   1      48.537  27.176  32.245  1.00  0.00    -0.200 F 
ATOM     69  F   UNL A   1      50.112  27.189  30.018  1.00  0.00    -0.200 F 
ENDBRANCH  45  59
BRANCH  46  70
ATOM     70  C   UNL A   1      37.009  32.549  29.802  1.00  0.00     0.064 A 
ATOM     71  C   UNL A   1      36.506  33.257  28.701  1.00  0.00     0.173 A 
ATOM     72  C   UNL A   1      36.162  32.382  30.909  1.00  0.00     0.173 A 
ATOM     73  F   UNL A   1      37.282  33.459  27.626  1.00  0.00    -0.203 F 
ATOM     74  C   UNL A   1      35.223  33.800  28.717  1.00  0.00     0.198 A 
ATOM     75  C   UNL A   1      34.868  32.897  30.911  1.00  0.00     0.198 A 
ATOM     76  F   UNL A   1      36.589  31.704  31.985  1.00  0.00    -0.203 F 
ATOM     77  F   UNL A   1      34.789  34.517  27.672  1.00  0.00    -0.200 F 
ATOM     78  C   UNL A   1      34.403  33.615  29.820  1.00  0.00     0.200 A 
ATOM     79  F   UNL A   1      34.073  32.701  31.971  1.00  0.00    -0.200 F 
ATOM     80  F   UNL A   1      33.168  34.135  29.834  1.00  0.00    -0.200 F 
ENDBRANCH  46  70
BRANCH  58  81
ATOM     81  C   UNL A   1      43.215  35.219  31.522  1.00  0.00     0.064 A 
ATOM     82  C   UNL A   1      43.676  36.202  30.635  1.00  0.00     0.173 A 
ATOM     83  C   UNL A   1      43.114  35.554  32.881  1.00  0.00     0.173 A 
ATOM     84  F   UNL A   1      43.803  35.926  29.328  1.00  0.00    -0.203 F 
ATOM     85  C   UNL A   1      44.050  37.462  31.095  1.00  0.00     0.198 A 
ATOM     86  C   UNL A   1      43.455  36.825  33.332  1.00  0.00     0.198 A 
ATOM     87  F   UNL A   1      42.669  34.654  33.770  1.00  0.00    -0.203 F 
ATOM     88  F   UNL A   1      44.539  38.368  30.238  1.00  0.00    -0.200 F 
ATOM     89  C   UNL A   1      43.931  37.775  32.441  1.00  0.00     0.200 A 
ATOM     90  F   UNL A   1      43.322  37.132  34.630  1.00  0.00    -0.200 F 
ATOM     91  F   UNL A   1      44.282  38.991  32.881  1.00  0.00    -0.200 F 
ENDBRANCH  58  81
ENDBRANCH  32  33
ENDBRANCH  24  27
ENDBRANCH  22  23
ENDBRANCH   1  22
TORSDOF 13
ENDMDL
MODEL 2
REMARK VINA RESULT:     -11.4      4.431     11.685
REMARK SMILES [NH3+][C@H](Cc1ccc2nsnc2c1)C(=O)NCCCNC(=O)c1ccc(-c2c3nc(c(-c4c(F)c(F)c(F)c(F)c4F)c4ccc([nH]4)c(-c4c(F)c(F)c(F)c(F)c4F)c4nc(c(-c5c(F)c(F)c(F)c(F)c5F)c5ccc2[nH]5)C=C4)C=C3)cc1
REMARK SMILES IDX 17 1 16 2 15 3 13 4 14 5 2 7 1 8 3 12 4 13 5 14 12 15 6 16
REMARK SMILES IDX 11 17 7 18 10 19 8 20 9 21 18 22 19 23 20 24 21 26 22 27
REMARK SMILES IDX 23 28 84 29 24 30 83 31 25 32 26 33 27 34 77 35 28 36 82 37
REMARK SMILES IDX 76 38 78 39 29 40 81 41 75 42 74 43 30 45 62 46 42 47 61 48
REMARK SMILES IDX 43 49 46 50 60 51 79 52 44 53 45 54 59 56 80 57 47 58 31 59
REMARK SMILES IDX 32 60 40 61 33 62 34 63 38 64 41 65 35 66 36 67 39 68 37 69
REMARK SMILES IDX 63 70 64 71 72 72 65 73 66 74 70 75 73 76 67 77 68 78 71 79
REMARK SMILES IDX 69 80 48 81 49 82 57 83 50 84 51 85 55 86 58 87 52 88 53 89
REMARK SMILES IDX 56 90 54 91
REMARK H PARENT 15 6 1 9 1 10 1 11 19 25 78 44 46 55
REMARK Flexibility Score: inf
ROOT
ATOM      1  C   UNL A   1      34.484  34.437  28.216  1.00  0.00     0.042 C 
ENDROOT
BRANCH   1   2
ATOM      2  C   UNL A   1      33.278  34.630  29.114  1.00  0.00     0.118 C 
BRANCH   2   3
ATOM      3  N   UNL A   1      33.232  35.971  29.668  1.00  0.00    -0.351 N 
ATOM      4  C   UNL A   1      33.010  36.390  30.945  1.00  0.00     0.278 C 
ATOM      5  O   UNL A   1      32.903  37.604  31.135  1.00  0.00    -0.268 OA
ATOM      6  H   UNL A   1      33.386  36.693  29.017  1.00  0.00     0.163 HD
BRANCH   4   7
ATOM      7  C   UNL A   1      32.903  35.381  32.102  1.00  0.00     0.275 C 
BRANCH   7   8
ATOM      8  N   UNL A   1      31.592  35.523  32.781  1.00  0.00    -0.347 N 
ATOM      9  H   UNL A   1      30.921  35.946  32.140  1.00  0.00     0.345 HD
ATOM     10  H   UNL A   1      31.697  36.118  33.603  1.00  0.00     0.345 HD
ATOM     11  H   UNL A   1      31.256  34.604  33.068  1.00  0.00     0.345 HD
ENDBRANCH   7   8
BRANCH   7  12
ATOM     12  C   UNL A   1      34.142  35.487  33.018  1.00  0.00     0.111 C 
BRANCH  12  13
ATOM     13  C   UNL A   1      35.056  34.270  33.132  1.00  0.00    -0.039 A 
ATOM     14  C   UNL A   1      35.121  33.278  32.114  1.00  0.00     0.006 A 
ATOM     15  C   UNL A   1      35.807  34.138  34.326  1.00  0.00     0.035 A 
ATOM     16  C   UNL A   1      35.904  32.110  32.185  1.00  0.00     0.032 A 
ATOM     17  C   UNL A   1      36.627  32.986  34.448  1.00  0.00     0.105 A 
ATOM     18  C   UNL A   1      36.672  31.955  33.356  1.00  0.00     0.104 A 
ATOM     19  N   UNL A   1      37.417  32.687  35.490  1.00  0.00    -0.173 NA
ATOM     20  N   UNL A   1      37.490  30.928  33.627  1.00  0.00    -0.173 NA
ATOM     21  S   UNL A   1      38.153  31.243  35.118  1.00  0.00     0.069 S 
ENDBRANCH  12  13
ENDBRANCH   7  12
ENDBRANCH   4   7
ENDBRANCH   2   3
ENDBRANCH   1   2
BRANCH   1  22
ATOM     22  C   UNL A   1      35.100  33.055  28.325  1.00  0.00     0.118 C 
BRANCH  22  23
ATOM     23  N   UNL A   1      34.189  31.994  27.920  1.00  0.00    -0.352 N 
ATOM     24  C   UNL A   1      34.444  30.657  27.733  1.00  0.00     0.251 C 
ATOM     25  H   UNL A   1      33.258  32.275  27.758  1.00  0.00     0.163 HD
ATOM     26  O   UNL A   1      33.612  29.931  27.212  1.00  0.00    -0.269 OA
BRANCH  24  27
ATOM     27  C   UNL A   1      35.753  30.116  28.153  1.00  0.00     0.039 A 
ATOM     28  C   UNL A   1      36.817  30.129  27.251  1.00  0.00     0.014 A 
ATOM     29  C   UNL A   1      35.929  29.631  29.450  1.00  0.00     0.014 A 
ATOM     30  C   UNL A   1      38.076  29.703  27.674  1.00  0.00     0.010 A 
ATOM     31  C   UNL A   1      37.204  29.328  29.904  1.00  0.00     0.010 A 
ATOM     32  C   UNL A   1      38.285  29.330  29.012  1.00  0.00    -0.014 A 
BRANCH  32  33
ATOM     33  C   UNL A   1      39.613  28.878  29.493  1.00  0.00     0.031 A 
ATOM     34  C   UNL A   1      40.360  29.714  30.497  1.00  0.00     0.074 A 
ATOM     35  C   UNL A   1      40.166  27.759  28.989  1.00  0.00     0.049 A 
ATOM     36  N   UNL A   1      41.556  29.539  30.997  1.00  0.00    -0.248 NA
ATOM     37  C   UNL A   1      39.688  30.936  30.972  1.00  0.00     0.031 C 
ATOM     38  C   UNL A   1      39.563  26.898  27.970  1.00  0.00     0.029 A 
ATOM     39  N   UNL A   1      41.365  27.154  29.265  1.00  0.00    -0.354 N 
ATOM     40  C   UNL A   1      41.781  30.632  31.823  1.00  0.00     0.074 A 
ATOM     41  C   UNL A   1      40.638  31.505  31.699  1.00  0.00     0.031 C 
ATOM     42  C   UNL A   1      40.378  25.859  27.732  1.00  0.00     0.029 A 
ATOM     43  C   UNL A   1      41.578  25.999  28.552  1.00  0.00     0.049 A 
ATOM     44  H   UNL A   1      42.013  27.513  29.914  1.00  0.00     0.167 HD
ATOM     45  C   UNL A   1      42.832  30.870  32.642  1.00  0.00     0.037 A 
ATOM     46  C   UNL A   1      42.625  25.154  28.562  1.00  0.00     0.037 A 
ATOM     47  C   UNL A   1      43.949  29.977  32.789  1.00  0.00     0.049 A 
ATOM     48  C   UNL A   1      43.781  25.437  29.486  1.00  0.00     0.074 A 
ATOM     49  C   UNL A   1      45.038  30.088  33.634  1.00  0.00     0.029 A 
ATOM     50  N   UNL A   1      44.117  28.803  32.068  1.00  0.00    -0.354 N 
ATOM     51  N   UNL A   1      43.950  26.436  30.319  1.00  0.00    -0.248 NA
ATOM     52  C   UNL A   1      44.885  24.469  29.478  1.00  0.00     0.031 C 
ATOM     53  C   UNL A   1      45.891  29.008  33.388  1.00  0.00     0.029 A 
ATOM     54  C   UNL A   1      45.304  28.191  32.435  1.00  0.00     0.049 A 
ATOM     55  H   UNL A   1      43.487  28.457  31.395  1.00  0.00     0.167 HD
ATOM     56  C   UNL A   1      45.159  26.198  30.959  1.00  0.00     0.074 A 
ATOM     57  C   UNL A   1      45.673  24.953  30.427  1.00  0.00     0.031 C 
ATOM     58  C   UNL A   1      45.789  26.943  31.902  1.00  0.00     0.037 A 
BRANCH  45  59
ATOM     59  C   UNL A   1      42.813  32.139  33.447  1.00  0.00     0.064 A 
ATOM     60  C   UNL A   1      43.393  33.326  32.969  1.00  0.00     0.173 A 
ATOM     61  C   UNL A   1      42.191  32.176  34.704  1.00  0.00     0.173 A 
ATOM     62  F   UNL A   1      44.014  33.342  31.779  1.00  0.00    -0.203 F 
ATOM     63  C   UNL A   1      43.382  34.488  33.733  1.00  0.00     0.198 A 
ATOM     64  C   UNL A   1      42.152  33.351  35.450  1.00  0.00     0.198 A 
ATOM     65  F   UNL A   1      41.619  31.073  35.208  1.00  0.00    -0.203 F 
ATOM     66  F   UNL A   1      43.997  35.590  33.281  1.00  0.00    -0.200 F 
ATOM     67  C   UNL A   1      42.754  34.503  34.969  1.00  0.00     0.200 A 
ATOM     68  F   UNL A   1      41.532  33.366  36.639  1.00  0.00    -0.200 F 
ATOM     69  F   UNL A   1      42.740  35.625  35.701  1.00  0.00    -0.200 F 
ENDBRANCH  45  59
BRANCH  46  70
ATOM     70  C   UNL A   1      42.616  23.943  27.699  1.00  0.00     0.064 A 
ATOM     71  C   UNL A   1      42.243  22.693  28.214  1.00  0.00     0.173 A 
ATOM     72  C   UNL A   1      42.987  24.005  26.347  1.00  0.00     0.173 A 
ATOM     73  F   UNL A   1      41.896  22.578  29.504  1.00  0.00    -0.203 F 
ATOM     74  C   UNL A   1      42.268  21.549  27.419  1.00  0.00     0.198 A 
ATOM     75  C   UNL A   1      42.981  22.866  25.545  1.00  0.00     0.198 A 
ATOM     76  F   UNL A   1      43.344  25.177  25.801  1.00  0.00    -0.203 F 
ATOM     77  F   UNL A   1      41.957  20.360  27.952  1.00  0.00    -0.200 F 
ATOM     78  C   UNL A   1      42.632  21.637  26.083  1.00  0.00     0.200 A 
ATOM     79  F   UNL A   1      43.316  22.958  24.251  1.00  0.00    -0.200 F 
ATOM     80  F   UNL A   1      42.653  20.537  25.319  1.00  0.00    -0.200 F 
ENDBRANCH  46  70
BRANCH  58  81
ATOM     81  C   UNL A   1      47.078  26.407  32.455  1.00  0.00     0.064 A 
ATOM     82  C   UNL A   1      48.322  26.780  31.927  1.00  0.00     0.173 A 
ATOM     83  C   UNL A   1      47.065  25.539  33.558  1.00  0.00     0.173 A 
ATOM     84  F   UNL A   1      48.387  27.597  30.865  1.00  0.00    -0.203 F 
ATOM     85  C   UNL A   1      49.505  26.281  32.463  1.00  0.00     0.198 A 
ATOM     86  C   UNL A   1      48.251  25.070  34.114  1.00  0.00     0.198 A 
ATOM     87  F   UNL A   1      45.902  25.159  34.108  1.00  0.00    -0.203 F 
ATOM     88  F   UNL A   1      50.680  26.608  31.909  1.00  0.00    -0.200 F 
ATOM     89  C   UNL A   1      49.469  25.433  33.561  1.00  0.00     0.200 A 
ATOM     90  F   UNL A   1      48.215  24.266  35.186  1.00  0.00    -0.200 F 
ATOM     91  F   UNL A   1      50.610  24.961  34.082  1.00  0.00    -0.200 F 
ENDBRANCH  58  81
ENDBRANCH  32  33
ENDBRANCH  24  27
ENDBRANCH  22  23
ENDBRANCH   1  22
TORSDOF 13
ENDMDL
MODEL 3
REMARK VINA RESULT:     -11.2      4.475     11.846
REMARK SMILES [NH3+][C@H](Cc1ccc2nsnc2c1)C(=O)NCCCNC(=O)c1ccc(-c2c3nc(c(-c4c(F)c(F)c(F)c(F)c4F)c4ccc([nH]4)c(-c4c(F)c(F)c(F)c(F)c4F)c4nc(c(-c5c(F)c(F)c(F)c(F)c5F)c5ccc2[nH]5)C=C4)C=C3)cc1
REMARK SMILES IDX 17 1 16 2 15 3 13 4 14 5 2 7 1 8 3 12 4 13 5 14 12 15 6 16
REMARK SMILES IDX 11 17 7 18 10 19 8 20 9 21 18 22 19 23 20 24 21 26 22 27
REMARK SMILES IDX 23 28 84 29 24 30 83 31 25 32 26 33 27 34 77 35 28 36 82 37
REMARK SMILES IDX 76 38 78 39 29 40 81 41 75 42 74 43 30 45 62 46 42 47 61 48
REMARK SMILES IDX 43 49 46 50 60 51 79 52 44 53 45 54 59 56 80 57 47 58 31 59
REMARK SMILES IDX 32 60 40 61 33 62 34 63 38 64 41 65 35 66 36 67 39 68 37 69
REMARK SMILES IDX 63 70 64 71 72 72 65 73 66 74 70 75 73 76 67 77 68 78 71 79
REMARK SMILES IDX 69 80 48 81 49 82 57 83 50 84 51 85 55 86 58 87 52 88 53 89
REMARK SMILES IDX 56 90 54 91
REMARK H PARENT 15 6 1 9 1 10 1 11 19 25 78 44 46 55
REMARK Flexibility Score: inf
ROOT
ATOM      1  C   UNL A   1      34.745  34.460  28.163  1.00  0.00     0.042 C 
ENDROOT
BRANCH   1   2
ATOM      2  C   UNL A   1      33.730  34.523  29.288  1.00  0.00     0.118 C 
BRANCH   2   3
ATOM      3  N   UNL A   1      33.540  35.882  29.761  1.00  0.00    -0.351 N 
ATOM      4  C   UNL A   1      33.195  36.346  30.995  1.00  0.00     0.278 C 
ATOM      5  O   UNL A   1      32.979  37.554  31.108  1.00  0.00    -0.268 OA
ATOM      6  H   UNL A   1      33.681  36.580  29.081  1.00  0.00     0.163 HD
BRANCH   4   7
ATOM      7  C   UNL A   1      33.088  35.392  32.197  1.00  0.00     0.275 C 
BRANCH   7   8
ATOM      8  N   UNL A   1      31.744  35.500  32.814  1.00  0.00    -0.347 N 
ATOM      9  H   UNL A   1      31.306  34.579  32.841  1.00  0.00     0.345 HD
ATOM     10  H   UNL A   1      31.166  36.135  32.262  1.00  0.00     0.345 HD
ATOM     11  H   UNL A   1      31.833  35.862  33.763  1.00  0.00     0.345 HD
ENDBRANCH   7   8
BRANCH   7  12
ATOM     12  C   UNL A   1      34.280  35.606  33.157  1.00  0.00     0.111 C 
BRANCH  12  13
ATOM     13  C   UNL A   1      35.275  34.463  33.331  1.00  0.00    -0.039 A 
ATOM     14  C   UNL A   1      35.682  33.644  32.241  1.00  0.00     0.006 A 
ATOM     15  C   UNL A   1      35.745  34.212  34.644  1.00  0.00     0.035 A 
ATOM     16  C   UNL A   1      36.555  32.545  32.348  1.00  0.00     0.032 A 
ATOM     17  C   UNL A   1      36.641  33.124  34.811  1.00  0.00     0.105 A 
ATOM     18  C   UNL A   1      37.049  32.276  33.640  1.00  0.00     0.104 A 
ATOM     19  N   UNL A   1      37.201  32.734  35.966  1.00  0.00    -0.173 NA
ATOM     20  N   UNL A   1      37.895  31.288  33.967  1.00  0.00    -0.173 NA
ATOM     21  S   UNL A   1      38.161  31.427  35.601  1.00  0.00     0.069 S 
ENDBRANCH  12  13
ENDBRANCH   7  12
ENDBRANCH   4   7
ENDBRANCH   2   3
ENDBRANCH   1   2
BRANCH   1  22
ATOM     22  C   UNL A   1      35.362  33.085  27.985  1.00  0.00     0.118 C 
BRANCH  22  23
ATOM     23  N   UNL A   1      34.371  32.047  27.738  1.00  0.00    -0.352 N 
ATOM     24  C   UNL A   1      34.538  30.684  27.686  1.00  0.00     0.251 C 
ATOM     25  H   UNL A   1      33.451  32.368  27.587  1.00  0.00     0.163 HD
ATOM     26  O   UNL A   1      33.640  29.962  27.284  1.00  0.00    -0.269 OA
BRANCH  24  27
ATOM     27  C   UNL A   1      35.833  30.109  28.103  1.00  0.00     0.039 A 
ATOM     28  C   UNL A   1      36.925  30.188  27.238  1.00  0.00     0.014 A 
ATOM     29  C   UNL A   1      35.969  29.527  29.365  1.00  0.00     0.014 A 
ATOM     30  C   UNL A   1      38.171  29.727  27.667  1.00  0.00     0.010 A 
ATOM     31  C   UNL A   1      37.229  29.186  29.833  1.00  0.00     0.010 A 
ATOM     32  C   UNL A   1      38.338  29.253  28.978  1.00  0.00    -0.014 A 
BRANCH  32  33
ATOM     33  C   UNL A   1      39.649  28.762  29.464  1.00  0.00     0.031 A 
ATOM     34  C   UNL A   1      40.419  29.577  30.469  1.00  0.00     0.074 A 
ATOM     35  C   UNL A   1      40.170  27.626  28.964  1.00  0.00     0.049 A 
ATOM     36  N   UNL A   1      41.607  29.366  30.974  1.00  0.00    -0.248 NA
ATOM     37  C   UNL A   1      39.782  30.819  30.941  1.00  0.00     0.031 C 
ATOM     38  C   UNL A   1      39.545  26.782  27.944  1.00  0.00     0.029 A 
ATOM     39  N   UNL A   1      41.350  26.986  29.245  1.00  0.00    -0.354 N 
ATOM     40  C   UNL A   1      41.862  30.454  31.799  1.00  0.00     0.074 A 
ATOM     41  C   UNL A   1      40.746  31.360  31.669  1.00  0.00     0.031 C 
ATOM     42  C   UNL A   1      40.329  25.718  27.710  1.00  0.00     0.029 A 
ATOM     43  C   UNL A   1      41.531  25.824  28.534  1.00  0.00     0.049 A 
ATOM     44  H   UNL A   1      42.006  27.326  29.895  1.00  0.00     0.167 HD
ATOM     45  C   UNL A   1      42.917  30.661  32.621  1.00  0.00     0.037 A 
ATOM     46  C   UNL A   1      42.551  24.947  28.548  1.00  0.00     0.037 A 
ATOM     47  C   UNL A   1      44.006  29.735  32.773  1.00  0.00     0.049 A 
ATOM     48  C   UNL A   1      43.712  25.198  29.476  1.00  0.00     0.074 A 
ATOM     49  C   UNL A   1      45.095  29.815  33.621  1.00  0.00     0.029 A 
ATOM     50  N   UNL A   1      44.141  28.555  32.054  1.00  0.00    -0.354 N 
ATOM     51  N   UNL A   1      43.909  26.192  30.308  1.00  0.00    -0.248 NA
ATOM     52  C   UNL A   1      44.786  24.197  29.473  1.00  0.00     0.031 C 
ATOM     53  C   UNL A   1      45.916  28.709  33.380  1.00  0.00     0.029 A 
ATOM     54  C   UNL A   1      45.308  27.908  32.425  1.00  0.00     0.049 A 
ATOM     55  H   UNL A   1      43.503  28.228  31.380  1.00  0.00     0.167 HD
ATOM     56  C   UNL A   1      45.108  25.919  30.952  1.00  0.00     0.074 A 
ATOM     57  C   UNL A   1      45.586  24.658  30.423  1.00  0.00     0.031 C 
ATOM     58  C   UNL A   1      45.757  26.645  31.896  1.00  0.00     0.037 A 
BRANCH  45  59
ATOM     59  C   UNL A   1      42.934  31.931  33.423  1.00  0.00     0.064 A 
ATOM     60  C   UNL A   1      42.346  32.009  34.697  1.00  0.00     0.173 A 
ATOM     61  C   UNL A   1      43.561  33.082  32.923  1.00  0.00     0.173 A 
ATOM     62  F   UNL A   1      41.719  30.942  35.217  1.00  0.00    -0.203 F 
ATOM     63  C   UNL A   1      42.354  33.197  35.420  1.00  0.00     0.198 A 
ATOM     64  C   UNL A   1      43.599  34.259  33.665  1.00  0.00     0.198 A 
ATOM     65  F   UNL A   1      44.141  33.064  31.713  1.00  0.00    -0.203 F 
ATOM     66  F   UNL A   1      41.732  33.262  36.606  1.00  0.00    -0.200 F 
ATOM     67  C   UNL A   1      42.988  34.319  34.908  1.00  0.00     0.200 A 
ATOM     68  F   UNL A   1      44.224  35.338  33.174  1.00  0.00    -0.200 F 
ATOM     69  F   UNL A   1      43.001  35.461  35.609  1.00  0.00    -0.200 F 
ENDBRANCH  45  59
BRANCH  46  70
ATOM     70  C   UNL A   1      42.508  23.736  27.687  1.00  0.00     0.064 A 
ATOM     71  C   UNL A   1      41.962  22.534  28.160  1.00  0.00     0.173 A 
ATOM     72  C   UNL A   1      43.018  23.749  26.380  1.00  0.00     0.173 A 
ATOM     73  F   UNL A   1      41.477  22.466  29.407  1.00  0.00    -0.203 F 
ATOM     74  C   UNL A   1      41.953  21.386  27.369  1.00  0.00     0.198 A 
ATOM     75  C   UNL A   1      42.980  22.609  25.580  1.00  0.00     0.198 A 
ATOM     76  F   UNL A   1      43.544  24.875  25.874  1.00  0.00    -0.203 F 
ATOM     77  F   UNL A   1      41.472  20.239  27.867  1.00  0.00    -0.200 F 
ATOM     78  C   UNL A   1      42.457  21.426  26.078  1.00  0.00     0.200 A 
ATOM     79  F   UNL A   1      43.452  22.656  24.327  1.00  0.00    -0.200 F 
ATOM     80  F   UNL A   1      42.446  20.322  25.318  1.00  0.00    -0.200 F 
ENDBRANCH  46  70
BRANCH  58  81
ATOM     81  C   UNL A   1      47.027  26.072  32.454  1.00  0.00     0.064 A 
ATOM     82  C   UNL A   1      47.039  25.296  33.621  1.00  0.00     0.173 A 
ATOM     83  C   UNL A   1      48.244  26.271  31.783  1.00  0.00     0.173 A 
ATOM     84  F   UNL A   1      45.904  25.088  34.306  1.00  0.00    -0.203 F 
ATOM     85  C   UNL A   1      48.228  24.764  34.114  1.00  0.00     0.198 A 
ATOM     86  C   UNL A   1      49.424  25.708  32.259  1.00  0.00     0.198 A 
ATOM     87  F   UNL A   1      48.287  26.997  30.656  1.00  0.00    -0.203 F 
ATOM     88  F   UNL A   1      48.224  24.070  35.260  1.00  0.00    -0.200 F 
ATOM     89  C   UNL A   1      49.417  24.963  33.428  1.00  0.00     0.200 A 
ATOM     90  F   UNL A   1      50.569  25.885  31.585  1.00  0.00    -0.200 F 
ATOM     91  F   UNL A   1      50.558  24.442  33.899  1.00  0.00    -0.200 F 
ENDBRANCH  58  81
ENDBRANCH  32  33
ENDBRANCH  24  27
ENDBRANCH  22  23
ENDBRANCH   1  22
TORSDOF 13
ENDMDL
