MODEL 1
REMARK VINA RESULT:     -11.7      0.000      0.000
REMARK SMILES COc1cc(-c2nnc(S)n2-c2ccc(C(=O)NCCCNC(=O)c3ccc(-c4c5nc(c(-c6c(F)c(F)c(F)c(F)c6F)c6ccc([nH]6)c(-c6c(F)c(F)c(F)c(F)c6F)c6nc(c(-c7c(F)c(F)c(F)c(F)c7F)c7ccc4[nH]7)C=C6)C=C5)cc3)cc2)cc(OC)c1OC
REMARK SMILES IDX 19 1 18 2 16 3 17 4 15 6 12 7 13 8 89 9 14 10 88 11 11 12
REMARK SMILES IDX 6 13 7 14 8 15 9 16 5 17 3 18 4 19 94 20 91 21 90 22 2 23
REMARK SMILES IDX 1 24 95 25 96 26 92 27 93 28 10 29 20 31 21 32 22 33 23 34
REMARK SMILES IDX 24 36 25 37 26 38 87 39 27 40 86 41 28 42 29 43 30 44 80 45
REMARK SMILES IDX 31 46 85 47 79 48 81 49 32 50 84 51 78 52 77 53 33 55 65 56
REMARK SMILES IDX 45 57 64 58 46 59 49 60 63 61 82 62 47 63 48 64 62 66 83 67
REMARK SMILES IDX 50 68 34 69 35 70 43 71 36 72 37 73 41 74 44 75 38 76 39 77
REMARK SMILES IDX 42 78 40 79 66 80 67 81 75 82 68 83 69 84 73 85 76 86 70 87
REMARK SMILES IDX 71 88 74 89 72 90 51 91 52 92 60 93 53 94 54 95 58 96 61 97
REMARK SMILES IDX 55 98 56 99 59 100 57 101
REMARK H PARENT 18 5 10 30 22 35 81 54 49 65
REMARK Flexibility Score: inf
ROOT
ATOM      1  C   UNL A   1      39.664  20.048  25.992  1.00  0.00     0.118 C 
ENDROOT
BRANCH   1   2
ATOM      2  N   UNL A   1      39.936  21.471  26.148  1.00  0.00    -0.352 N 
ATOM      3  C   UNL A   1      39.118  22.574  26.070  1.00  0.00     0.251 C 
ATOM      4  O   UNL A   1      39.603  23.674  26.326  1.00  0.00    -0.269 OA
ATOM      5  H   UNL A   1      40.878  21.682  26.346  1.00  0.00     0.163 HD
BRANCH   3   6
ATOM      6  C   UNL A   1      37.670  22.480  25.730  1.00  0.00     0.039 A 
ATOM      7  C   UNL A   1      34.929  22.228  25.248  1.00  0.00     0.050 A 
ATOM      8  C   UNL A   1      35.360  22.853  26.421  1.00  0.00     0.027 A 
ATOM      9  C   UNL A   1      35.841  21.786  24.294  1.00  0.00     0.027 A 
ATOM     10  C   UNL A   1      36.734  22.959  26.665  1.00  0.00     0.016 A 
ATOM     11  C   UNL A   1      37.199  21.963  24.523  1.00  0.00     0.016 A 
BRANCH   7  12
ATOM     12  N   UNL A   1      33.558  22.054  24.967  1.00  0.00    -0.270 N 
ATOM     13  C   UNL A   1      32.647  23.058  24.642  1.00  0.00     0.169 A 
ATOM     14  N   UNL A   1      31.428  22.553  24.694  1.00  0.00    -0.129 NA
ATOM     15  N   UNL A   1      31.525  21.216  25.019  1.00  0.00    -0.123 NA
ATOM     16  C   UNL A   1      32.795  20.930  25.189  1.00  0.00     0.193 A 
BRANCH  13  17
ATOM     17  C   UNL A   1      33.013  24.428  24.263  1.00  0.00     0.027 A 
ATOM     18  C   UNL A   1      33.499  26.112  22.573  1.00  0.00     0.165 A 
ATOM     19  C   UNL A   1      33.338  24.764  22.946  1.00  0.00     0.062 A 
ATOM     20  C   UNL A   1      33.345  27.152  23.514  1.00  0.00     0.203 A 
ATOM     21  C   UNL A   1      33.100  26.801  24.856  1.00  0.00     0.165 A 
ATOM     22  C   UNL A   1      32.950  25.451  25.213  1.00  0.00     0.062 A 
BRANCH  18  23
ATOM     23  O   UNL A   1      33.600  26.368  21.227  1.00  0.00    -0.493 OA
ATOM     24  C   UNL A   1      32.599  25.687  20.466  1.00  0.00     0.278 C 
ENDBRANCH  18  23
BRANCH  20  25
ATOM     25  O   UNL A   1      33.292  28.486  23.219  1.00  0.00    -0.490 OA
ATOM     26  C   UNL A   1      32.073  29.085  22.820  1.00  0.00     0.278 C 
ENDBRANCH  20  25
BRANCH  21  27
ATOM     27  O   UNL A   1      32.932  27.622  25.944  1.00  0.00    -0.493 OA
ATOM     28  C   UNL A   1      31.631  27.826  26.472  1.00  0.00     0.278 C 
ENDBRANCH  21  27
ENDBRANCH  13  17
BRANCH  16  29
ATOM     29  S   UNL A   1      33.395  19.419  25.797  1.00  0.00    -0.103 SA
ATOM     30  H   UNL A   1      34.506  19.061  25.102  1.00  0.00     0.111 HD
ENDBRANCH  16  29
ENDBRANCH   7  12
ENDBRANCH   3   6
ENDBRANCH   1   2
BRANCH   1  31
ATOM     31  C   UNL A   1      40.946  19.207  26.086  1.00  0.00     0.042 C 
BRANCH  31  32
ATOM     32  C   UNL A   1      42.140  20.032  26.522  1.00  0.00     0.118 C 
BRANCH  32  33
ATOM     33  N   UNL A   1      43.286  19.861  25.624  1.00  0.00    -0.352 N 
ATOM     34  C   UNL A   1      44.019  20.830  24.970  1.00  0.00     0.251 C 
ATOM     35  H   UNL A   1      43.571  18.932  25.467  1.00  0.00     0.163 HD
ATOM     36  O   UNL A   1      44.715  20.548  23.995  1.00  0.00    -0.269 OA
BRANCH  34  37
ATOM     37  C   UNL A   1      43.957  22.211  25.463  1.00  0.00     0.039 A 
ATOM     38  C   UNL A   1      43.046  23.143  24.955  1.00  0.00     0.014 A 
ATOM     39  C   UNL A   1      44.820  22.546  26.498  1.00  0.00     0.014 A 
ATOM     40  C   UNL A   1      42.969  24.396  25.557  1.00  0.00     0.010 A 
ATOM     41  C   UNL A   1      44.584  23.673  27.225  1.00  0.00     0.010 A 
ATOM     42  C   UNL A   1      43.738  24.642  26.702  1.00  0.00    -0.014 A 
BRANCH  42  43
ATOM     43  C   UNL A   1      43.631  25.878  27.461  1.00  0.00     0.031 A 
ATOM     44  C   UNL A   1      44.586  26.936  27.044  1.00  0.00     0.074 A 
ATOM     45  C   UNL A   1      42.561  26.108  28.254  1.00  0.00     0.049 A 
ATOM     46  N   UNL A   1      45.516  27.483  27.754  1.00  0.00    -0.248 NA
ATOM     47  C   UNL A   1      44.613  27.334  25.625  1.00  0.00     0.031 C 
ATOM     48  C   UNL A   1      41.395  25.241  28.482  1.00  0.00     0.029 A 
ATOM     49  N   UNL A   1      42.214  27.240  28.921  1.00  0.00    -0.354 N 
ATOM     50  C   UNL A   1      46.101  28.447  26.938  1.00  0.00     0.074 A 
ATOM     51  C   UNL A   1      45.661  28.158  25.599  1.00  0.00     0.031 C 
ATOM     52  C   UNL A   1      40.386  25.963  29.012  1.00  0.00     0.029 A 
ATOM     53  C   UNL A   1      40.879  27.291  29.313  1.00  0.00     0.049 A 
ATOM     54  H   UNL A   1      42.854  27.964  29.110  1.00  0.00     0.167 HD
ATOM     55  C   UNL A   1      46.666  29.562  27.481  1.00  0.00     0.037 A 
ATOM     56  C   UNL A   1      40.228  28.379  29.797  1.00  0.00     0.037 A 
ATOM     57  C   UNL A   1      46.924  29.363  28.890  1.00  0.00     0.049 A 
ATOM     58  C   UNL A   1      41.272  29.324  30.278  1.00  0.00     0.074 A 
ATOM     59  C   UNL A   1      47.656  28.441  29.616  1.00  0.00     0.029 A 
ATOM     60  N   UNL A   1      46.064  29.940  29.794  1.00  0.00    -0.354 N 
ATOM     61  N   UNL A   1      42.053  29.075  31.295  1.00  0.00    -0.248 NA
ATOM     62  C   UNL A   1      41.783  30.299  29.323  1.00  0.00     0.031 C 
ATOM     63  C   UNL A   1      46.852  28.152  30.758  1.00  0.00     0.029 A 
ATOM     64  C   UNL A   1      45.730  28.980  30.714  1.00  0.00     0.049 A 
ATOM     65  H   UNL A   1      45.746  30.871  29.782  1.00  0.00     0.167 HD
ATOM     66  C   UNL A   1      43.308  29.508  30.891  1.00  0.00     0.074 A 
ATOM     67  C   UNL A   1      43.066  30.316  29.696  1.00  0.00     0.031 C 
ATOM     68  C   UNL A   1      44.445  28.921  31.370  1.00  0.00     0.037 A 
BRANCH  55  69
ATOM     69  C   UNL A   1      46.597  30.947  26.869  1.00  0.00     0.064 A 
ATOM     70  C   UNL A   1      47.766  31.738  26.863  1.00  0.00     0.173 A 
ATOM     71  C   UNL A   1      45.401  31.645  26.585  1.00  0.00     0.173 A 
ATOM     72  F   UNL A   1      48.965  31.186  27.104  1.00  0.00    -0.203 F 
ATOM     73  C   UNL A   1      47.722  33.126  26.718  1.00  0.00     0.198 A 
ATOM     74  C   UNL A   1      45.369  33.025  26.389  1.00  0.00     0.198 A 
ATOM     75  F   UNL A   1      44.202  31.057  26.587  1.00  0.00    -0.203 F 
ATOM     76  F   UNL A   1      48.842  33.845  26.873  1.00  0.00    -0.200 F 
ATOM     77  C   UNL A   1      46.520  33.771  26.498  1.00  0.00     0.200 A 
ATOM     78  F   UNL A   1      44.190  33.630  26.183  1.00  0.00    -0.200 F 
ATOM     79  F   UNL A   1      46.464  35.107  26.436  1.00  0.00    -0.200 F 
ENDBRANCH  55  69
BRANCH  56  80
ATOM     80  C   UNL A   1      38.820  28.784  29.555  1.00  0.00     0.064 A 
ATOM     81  C   UNL A   1      37.956  29.077  30.625  1.00  0.00     0.173 A 
ATOM     82  C   UNL A   1      38.366  29.156  28.273  1.00  0.00     0.173 A 
ATOM     83  F   UNL A   1      38.325  28.798  31.884  1.00  0.00    -0.203 F 
ATOM     84  C   UNL A   1      36.730  29.725  30.426  1.00  0.00     0.198 A 
ATOM     85  C   UNL A   1      37.140  29.796  28.076  1.00  0.00     0.198 A 
ATOM     86  F   UNL A   1      39.142  28.995  27.192  1.00  0.00    -0.203 F 
ATOM     87  F   UNL A   1      35.965  30.044  31.480  1.00  0.00    -0.200 F 
ATOM     88  C   UNL A   1      36.328  30.094  29.153  1.00  0.00     0.200 A 
ATOM     89  F   UNL A   1      36.781  30.177  26.842  1.00  0.00    -0.200 F 
ATOM     90  F   UNL A   1      35.187  30.769  28.969  1.00  0.00    -0.200 F 
ENDBRANCH  56  80
BRANCH  68  91
ATOM     91  C   UNL A   1      44.318  27.959  32.521  1.00  0.00     0.064 A 
ATOM     92  C   UNL A   1      44.158  26.569  32.377  1.00  0.00     0.173 A 
ATOM     93  C   UNL A   1      44.536  28.444  33.817  1.00  0.00     0.173 A 
ATOM     94  F   UNL A   1      44.052  26.008  31.167  1.00  0.00    -0.203 F 
ATOM     95  C   UNL A   1      44.171  25.716  33.479  1.00  0.00     0.198 A 
ATOM     96  C   UNL A   1      44.585  27.587  34.913  1.00  0.00     0.198 A 
ATOM     97  F   UNL A   1      44.755  29.754  34.014  1.00  0.00    -0.203 F 
ATOM     98  F   UNL A   1      44.007  24.396  33.309  1.00  0.00    -0.200 F 
ATOM     99  C   UNL A   1      44.393  26.226  34.746  1.00  0.00     0.200 A 
ATOM    100  F   UNL A   1      44.853  28.080  36.129  1.00  0.00    -0.200 F 
ATOM    101  F   UNL A   1      44.450  25.402  35.802  1.00  0.00    -0.200 F 
ENDBRANCH  68  91
ENDBRANCH  42  43
ENDBRANCH  34  37
ENDBRANCH  32  33
ENDBRANCH  31  32
ENDBRANCH   1  31
TORSDOF 16
ENDMDL
MODEL 2
REMARK VINA RESULT:     -11.5      3.758      9.250
REMARK SMILES COc1cc(-c2nnc(S)n2-c2ccc(C(=O)NCCCNC(=O)c3ccc(-c4c5nc(c(-c6c(F)c(F)c(F)c(F)c6F)c6ccc([nH]6)c(-c6c(F)c(F)c(F)c(F)c6F)c6nc(c(-c7c(F)c(F)c(F)c(F)c7F)c7ccc4[nH]7)C=C6)C=C5)cc3)cc2)cc(OC)c1OC
REMARK SMILES IDX 19 1 18 2 16 3 17 4 15 6 12 7 13 8 89 9 14 10 88 11 11 12
REMARK SMILES IDX 6 13 7 14 8 15 9 16 5 17 3 18 4 19 94 20 91 21 90 22 2 23
REMARK SMILES IDX 1 24 95 25 96 26 92 27 93 28 10 29 20 31 21 32 22 33 23 34
REMARK SMILES IDX 24 36 25 37 26 38 87 39 27 40 86 41 28 42 29 43 30 44 80 45
REMARK SMILES IDX 31 46 85 47 79 48 81 49 32 50 84 51 78 52 77 53 33 55 65 56
REMARK SMILES IDX 45 57 64 58 46 59 49 60 63 61 82 62 47 63 48 64 62 66 83 67
REMARK SMILES IDX 50 68 34 69 35 70 43 71 36 72 37 73 41 74 44 75 38 76 39 77
REMARK SMILES IDX 42 78 40 79 66 80 67 81 75 82 68 83 69 84 73 85 76 86 70 87
REMARK SMILES IDX 71 88 74 89 72 90 51 91 52 92 60 93 53 94 54 95 58 96 61 97
REMARK SMILES IDX 55 98 56 99 59 100 57 101
REMARK H PARENT 18 5 10 30 22 35 81 54 49 65
REMARK Flexibility Score: inf
ROOT
ATOM      1  C   UNL A   1      33.188  33.164  27.532  1.00  0.00     0.118 C 
ENDROOT
BRANCH   1   2
ATOM      2  N   UNL A   1      34.062  32.207  28.197  1.00  0.00    -0.352 N 
ATOM      3  C   UNL A   1      34.296  30.870  27.971  1.00  0.00     0.251 C 
ATOM      4  O   UNL A   1      35.160  30.311  28.644  1.00  0.00    -0.269 OA
ATOM      5  H   UNL A   1      34.580  32.585  28.945  1.00  0.00     0.163 HD
BRANCH   3   6
ATOM      6  C   UNL A   1      33.578  30.093  26.921  1.00  0.00     0.039 A 
ATOM      7  C   UNL A   1      32.187  28.523  25.074  1.00  0.00     0.050 A 
ATOM      8  C   UNL A   1      31.532  28.959  26.228  1.00  0.00     0.027 A 
ATOM      9  C   UNL A   1      33.497  28.910  24.804  1.00  0.00     0.027 A 
ATOM     10  C   UNL A   1      32.241  29.729  27.158  1.00  0.00     0.016 A 
ATOM     11  C   UNL A   1      34.160  29.731  25.705  1.00  0.00     0.016 A 
BRANCH   7  12
ATOM     12  N   UNL A   1      31.539  27.710  24.122  1.00  0.00    -0.270 N 
ATOM     13  C   UNL A   1      31.694  26.332  23.969  1.00  0.00     0.169 A 
ATOM     14  N   UNL A   1      31.127  25.970  22.833  1.00  0.00    -0.129 NA
ATOM     15  N   UNL A   1      30.570  27.088  22.248  1.00  0.00    -0.123 NA
ATOM     16  C   UNL A   1      30.829  28.120  23.017  1.00  0.00     0.193 A 
BRANCH  13  17
ATOM     17  C   UNL A   1      32.342  25.451  24.947  1.00  0.00     0.027 A 
ATOM     18  C   UNL A   1      32.224  23.787  26.720  1.00  0.00     0.165 A 
ATOM     19  C   UNL A   1      31.608  24.769  25.921  1.00  0.00     0.062 A 
ATOM     20  C   UNL A   1      33.591  23.473  26.566  1.00  0.00     0.203 A 
ATOM     21  C   UNL A   1      34.343  24.224  25.641  1.00  0.00     0.165 A 
ATOM     22  C   UNL A   1      33.715  25.205  24.857  1.00  0.00     0.062 A 
BRANCH  18  23
ATOM     23  O   UNL A   1      31.392  23.015  27.494  1.00  0.00    -0.493 OA
ATOM     24  C   UNL A   1      30.088  22.878  26.924  1.00  0.00     0.278 C 
ENDBRANCH  18  23
BRANCH  20  25
ATOM     25  O   UNL A   1      34.234  22.418  27.151  1.00  0.00    -0.490 OA
ATOM     26  C   UNL A   1      34.164  21.127  26.576  1.00  0.00     0.278 C 
ENDBRANCH  20  25
BRANCH  21  27
ATOM     27  O   UNL A   1      35.676  24.120  25.328  1.00  0.00    -0.493 OA
ATOM     28  C   UNL A   1      36.070  23.376  24.186  1.00  0.00     0.278 C 
ENDBRANCH  21  27
ENDBRANCH  13  17
BRANCH  16  29
ATOM     29  S   UNL A   1      30.498  29.771  22.598  1.00  0.00    -0.103 SA
ATOM     30  H   UNL A   1      29.907  29.818  21.375  1.00  0.00     0.111 HD
ENDBRANCH  16  29
ENDBRANCH   7  12
ENDBRANCH   3   6
ENDBRANCH   1   2
BRANCH   1  31
ATOM     31  C   UNL A   1      32.904  34.388  28.417  1.00  0.00     0.042 C 
BRANCH  31  32
ATOM     32  C   UNL A   1      34.049  34.688  29.362  1.00  0.00     0.118 C 
BRANCH  32  33
ATOM     33  N   UNL A   1      33.579  35.024  30.710  1.00  0.00    -0.352 N 
ATOM     34  C   UNL A   1      33.897  34.418  31.907  1.00  0.00     0.251 C 
ATOM     35  H   UNL A   1      32.954  35.782  30.768  1.00  0.00     0.163 HD
ATOM     36  O   UNL A   1      33.185  34.563  32.900  1.00  0.00    -0.269 OA
BRANCH  34  37
ATOM     37  C   UNL A   1      35.110  33.594  31.979  1.00  0.00     0.039 A 
ATOM     38  C   UNL A   1      35.072  32.201  31.867  1.00  0.00     0.014 A 
ATOM     39  C   UNL A   1      36.317  34.267  32.118  1.00  0.00     0.014 A 
ATOM     40  C   UNL A   1      36.276  31.503  31.826  1.00  0.00     0.010 A 
ATOM     41  C   UNL A   1      37.480  33.614  31.846  1.00  0.00     0.010 A 
ATOM     42  C   UNL A   1      37.475  32.226  31.803  1.00  0.00    -0.014 A 
BRANCH  42  43
ATOM     43  C   UNL A   1      38.770  31.585  31.641  1.00  0.00     0.031 A 
ATOM     44  C   UNL A   1      39.455  31.261  32.918  1.00  0.00     0.074 A 
ATOM     45  C   UNL A   1      39.142  31.079  30.445  1.00  0.00     0.049 A 
ATOM     46  N   UNL A   1      40.592  31.709  33.338  1.00  0.00    -0.248 NA
ATOM     47  C   UNL A   1      38.729  30.460  33.919  1.00  0.00     0.031 C 
ATOM     48  C   UNL A   1      38.382  31.069  29.185  1.00  0.00     0.029 A 
ATOM     49  N   UNL A   1      40.231  30.329  30.130  1.00  0.00    -0.354 N 
ATOM     50  C   UNL A   1      40.824  31.076  34.556  1.00  0.00     0.074 A 
ATOM     51  C   UNL A   1      39.567  30.505  34.956  1.00  0.00     0.031 C 
ATOM     52  C   UNL A   1      38.907  30.155  28.342  1.00  0.00     0.029 A 
ATOM     53  C   UNL A   1      40.126  29.637  28.926  1.00  0.00     0.049 A 
ATOM     54  H   UNL A   1      41.028  30.280  30.706  1.00  0.00     0.167 HD
ATOM     55  C   UNL A   1      42.098  30.843  34.981  1.00  0.00     0.037 A 
ATOM     56  C   UNL A   1      40.965  28.665  28.487  1.00  0.00     0.037 A 
ATOM     57  C   UNL A   1      43.033  31.674  34.257  1.00  0.00     0.049 A 
ATOM     58  C   UNL A   1      42.233  28.816  29.251  1.00  0.00     0.074 A 
ATOM     59  C   UNL A   1      43.172  33.038  34.075  1.00  0.00     0.029 A 
ATOM     60  N   UNL A   1      43.772  31.094  33.253  1.00  0.00    -0.354 N 
ATOM     61  N   UNL A   1      43.025  29.849  29.133  1.00  0.00    -0.248 NA
ATOM     62  C   UNL A   1      42.353  28.079  30.501  1.00  0.00     0.031 C 
ATOM     63  C   UNL A   1      43.536  33.189  32.703  1.00  0.00     0.029 A 
ATOM     64  C   UNL A   1      43.693  31.915  32.158  1.00  0.00     0.049 A 
ATOM     65  H   UNL A   1      44.266  30.245  33.310  1.00  0.00     0.167 HD
ATOM     66  C   UNL A   1      43.409  30.150  30.431  1.00  0.00     0.074 A 
ATOM     67  C   UNL A   1      43.020  28.984  31.224  1.00  0.00     0.031 C 
ATOM     68  C   UNL A   1      43.717  31.429  30.798  1.00  0.00     0.037 A 
BRANCH  55  69
ATOM     69  C   UNL A   1      42.541  29.598  35.724  1.00  0.00     0.064 A 
ATOM     70  C   UNL A   1      43.438  29.744  36.804  1.00  0.00     0.173 A 
ATOM     71  C   UNL A   1      42.393  28.278  35.245  1.00  0.00     0.173 A 
ATOM     72  F   UNL A   1      43.653  30.949  37.356  1.00  0.00    -0.203 F 
ATOM     73  C   UNL A   1      44.215  28.683  37.272  1.00  0.00     0.198 A 
ATOM     74  C   UNL A   1      43.133  27.210  35.751  1.00  0.00     0.198 A 
ATOM     75  F   UNL A   1      41.613  27.968  34.205  1.00  0.00    -0.203 F 
ATOM     76  F   UNL A   1      45.160  28.908  38.196  1.00  0.00    -0.200 F 
ATOM     77  C   UNL A   1      44.074  27.418  36.734  1.00  0.00     0.200 A 
ATOM     78  F   UNL A   1      42.983  25.993  35.208  1.00  0.00    -0.200 F 
ATOM     79  F   UNL A   1      44.870  26.416  37.126  1.00  0.00    -0.200 F 
ENDBRANCH  55  69
BRANCH  56  80
ATOM     80  C   UNL A   1      40.623  27.439  27.721  1.00  0.00     0.064 A 
ATOM     81  C   UNL A   1      41.370  27.056  26.594  1.00  0.00     0.173 A 
ATOM     82  C   UNL A   1      39.731  26.473  28.232  1.00  0.00     0.173 A 
ATOM     83  F   UNL A   1      42.274  27.896  26.069  1.00  0.00    -0.203 F 
ATOM     84  C   UNL A   1      41.253  25.778  26.032  1.00  0.00     0.198 A 
ATOM     85  C   UNL A   1      39.610  25.202  27.665  1.00  0.00     0.198 A 
ATOM     86  F   UNL A   1      39.028  26.704  29.348  1.00  0.00    -0.203 F 
ATOM     87  F   UNL A   1      42.030  25.431  24.996  1.00  0.00    -0.200 F 
ATOM     88  C   UNL A   1      40.381  24.849  26.574  1.00  0.00     0.200 A 
ATOM     89  F   UNL A   1      38.788  24.302  28.222  1.00  0.00    -0.200 F 
ATOM     90  F   UNL A   1      40.314  23.608  26.076  1.00  0.00    -0.200 F 
ENDBRANCH  56  80
BRANCH  68  91
ATOM     91  C   UNL A   1      43.861  32.465  29.714  1.00  0.00     0.064 A 
ATOM     92  C   UNL A   1      42.839  33.349  29.324  1.00  0.00     0.173 A 
ATOM     93  C   UNL A   1      45.133  32.679  29.169  1.00  0.00     0.173 A 
ATOM     94  F   UNL A   1      41.622  33.285  29.874  1.00  0.00    -0.203 F 
ATOM     95  C   UNL A   1      43.071  34.368  28.401  1.00  0.00     0.198 A 
ATOM     96  C   UNL A   1      45.373  33.720  28.275  1.00  0.00     0.198 A 
ATOM     97  F   UNL A   1      46.164  31.906  29.547  1.00  0.00    -0.203 F 
ATOM     98  F   UNL A   1      42.074  35.190  28.042  1.00  0.00    -0.200 F 
ATOM     99  C   UNL A   1      44.341  34.557  27.883  1.00  0.00     0.200 A 
ATOM    100  F   UNL A   1      46.615  33.931  27.820  1.00  0.00    -0.200 F 
ATOM    101  F   UNL A   1      44.577  35.563  27.030  1.00  0.00    -0.200 F 
ENDBRANCH  68  91
ENDBRANCH  42  43
ENDBRANCH  34  37
ENDBRANCH  32  33
ENDBRANCH  31  32
ENDBRANCH   1  31
TORSDOF 16
ENDMDL
MODEL 3
REMARK VINA RESULT:     -11.5      3.417      8.778
REMARK SMILES COc1cc(-c2nnc(S)n2-c2ccc(C(=O)NCCCNC(=O)c3ccc(-c4c5nc(c(-c6c(F)c(F)c(F)c(F)c6F)c6ccc([nH]6)c(-c6c(F)c(F)c(F)c(F)c6F)c6nc(c(-c7c(F)c(F)c(F)c(F)c7F)c7ccc4[nH]7)C=C6)C=C5)cc3)cc2)cc(OC)c1OC
REMARK SMILES IDX 19 1 18 2 16 3 17 4 15 6 12 7 13 8 89 9 14 10 88 11 11 12
REMARK SMILES IDX 6 13 7 14 8 15 9 16 5 17 3 18 4 19 94 20 91 21 90 22 2 23
REMARK SMILES IDX 1 24 95 25 96 26 92 27 93 28 10 29 20 31 21 32 22 33 23 34
REMARK SMILES IDX 24 36 25 37 26 38 87 39 27 40 86 41 28 42 29 43 30 44 80 45
REMARK SMILES IDX 31 46 85 47 79 48 81 49 32 50 84 51 78 52 77 53 33 55 65 56
REMARK SMILES IDX 45 57 64 58 46 59 49 60 63 61 82 62 47 63 48 64 62 66 83 67
REMARK SMILES IDX 50 68 34 69 35 70 43 71 36 72 37 73 41 74 44 75 38 76 39 77
REMARK SMILES IDX 42 78 40 79 66 80 67 81 75 82 68 83 69 84 73 85 76 86 70 87
REMARK SMILES IDX 71 88 74 89 72 90 51 91 52 92 60 93 53 94 54 95 58 96 61 97
REMARK SMILES IDX 55 98 56 99 59 100 57 101
REMARK H PARENT 18 5 10 30 22 35 81 54 49 65
REMARK Flexibility Score: inf
ROOT
ATOM      1  C   UNL A   1      34.336  32.237  27.640  1.00  0.00     0.118 C 
ENDROOT
BRANCH   1   2
ATOM      2  N   UNL A   1      35.274  31.140  27.843  1.00  0.00    -0.352 N 
ATOM      3  C   UNL A   1      35.231  29.817  27.468  1.00  0.00     0.251 C 
ATOM      4  O   UNL A   1      36.212  29.115  27.705  1.00  0.00    -0.269 OA
ATOM      5  H   UNL A   1      36.086  31.391  28.340  1.00  0.00     0.163 HD
BRANCH   3   6
ATOM      6  C   UNL A   1      34.068  29.220  26.751  1.00  0.00     0.039 A 
ATOM      7  C   UNL A   1      31.904  28.226  25.289  1.00  0.00     0.050 A 
ATOM      8  C   UNL A   1      33.130  28.417  24.647  1.00  0.00     0.027 A 
ATOM      9  C   UNL A   1      31.764  28.465  26.653  1.00  0.00     0.027 A 
ATOM     10  C   UNL A   1      34.204  28.934  25.382  1.00  0.00     0.016 A 
ATOM     11  C   UNL A   1      32.860  28.911  27.379  1.00  0.00     0.016 A 
BRANCH   7  12
ATOM     12  N   UNL A   1      30.775  27.749  24.592  1.00  0.00    -0.270 N 
ATOM     13  C   UNL A   1      30.465  26.414  24.335  1.00  0.00     0.169 A 
ATOM     14  N   UNL A   1      29.481  26.372  23.457  1.00  0.00    -0.129 NA
ATOM     15  N   UNL A   1      29.113  27.667  23.153  1.00  0.00    -0.123 NA
ATOM     16  C   UNL A   1      29.895  28.479  23.827  1.00  0.00     0.193 A 
BRANCH  13  17
ATOM     17  C   UNL A   1      31.111  25.266  24.984  1.00  0.00     0.027 A 
ATOM     18  C   UNL A   1      31.125  23.493  26.651  1.00  0.00     0.165 A 
ATOM     19  C   UNL A   1      30.603  24.704  26.157  1.00  0.00     0.062 A 
ATOM     20  C   UNL A   1      32.174  22.825  25.985  1.00  0.00     0.203 A 
ATOM     21  C   UNL A   1      32.737  23.442  24.851  1.00  0.00     0.165 A 
ATOM     22  C   UNL A   1      32.209  24.653  24.375  1.00  0.00     0.062 A 
BRANCH  18  23
ATOM     23  O   UNL A   1      30.431  22.898  27.677  1.00  0.00    -0.493 OA
ATOM     24  C   UNL A   1      29.105  22.526  27.293  1.00  0.00     0.278 C 
ENDBRANCH  18  23
BRANCH  20  25
ATOM     25  O   UNL A   1      32.620  21.564  26.271  1.00  0.00    -0.490 OA
ATOM     26  C   UNL A   1      33.794  21.375  27.037  1.00  0.00     0.278 C 
ENDBRANCH  20  25
BRANCH  21  27
ATOM     27  O   UNL A   1      33.765  23.003  24.053  1.00  0.00    -0.493 OA
ATOM     28  C   UNL A   1      34.455  23.929  23.228  1.00  0.00     0.278 C 
ENDBRANCH  21  27
ENDBRANCH  13  17
BRANCH  16  29
ATOM     29  S   UNL A   1      29.940  30.202  23.622  1.00  0.00    -0.103 SA
ATOM     30  H   UNL A   1      29.241  30.543  22.507  1.00  0.00     0.111 HD
ENDBRANCH  16  29
ENDBRANCH   7  12
ENDBRANCH   3   6
ENDBRANCH   1   2
BRANCH   1  31
ATOM     31  C   UNL A   1      34.987  33.602  27.913  1.00  0.00     0.042 C 
BRANCH  31  32
ATOM     32  C   UNL A   1      35.933  33.557  29.095  1.00  0.00     0.118 C 
BRANCH  32  33
ATOM     33  N   UNL A   1      35.219  33.431  30.369  1.00  0.00    -0.352 N 
ATOM     34  C   UNL A   1      35.334  32.444  31.325  1.00  0.00     0.251 C 
ATOM     35  H   UNL A   1      34.573  34.146  30.569  1.00  0.00     0.163 HD
ATOM     36  O   UNL A   1      34.451  32.269  32.164  1.00  0.00    -0.269 OA
BRANCH  34  37
ATOM     37  C   UNL A   1      36.537  31.604  31.328  1.00  0.00     0.039 A 
ATOM     38  C   UNL A   1      36.502  30.250  30.980  1.00  0.00     0.014 A 
ATOM     39  C   UNL A   1      37.736  32.227  31.651  1.00  0.00     0.014 A 
ATOM     40  C   UNL A   1      37.702  29.552  30.892  1.00  0.00     0.010 A 
ATOM     41  C   UNL A   1      38.911  31.613  31.341  1.00  0.00     0.010 A 
ATOM     42  C   UNL A   1      38.904  30.253  31.063  1.00  0.00    -0.014 A 
BRANCH  42  43
ATOM     43  C   UNL A   1      40.204  29.630  30.871  1.00  0.00     0.031 A 
ATOM     44  C   UNL A   1      40.946  29.367  32.131  1.00  0.00     0.074 A 
ATOM     45  C   UNL A   1      40.538  29.087  29.680  1.00  0.00     0.049 A 
ATOM     46  N   UNL A   1      42.089  29.851  32.487  1.00  0.00    -0.248 NA
ATOM     47  C   UNL A   1      40.277  28.589  33.188  1.00  0.00     0.031 C 
ATOM     48  C   UNL A   1      39.728  29.018  28.454  1.00  0.00     0.029 A 
ATOM     49  N   UNL A   1      41.628  28.347  29.348  1.00  0.00    -0.354 N 
ATOM     50  C   UNL A   1      42.383  29.268  33.717  1.00  0.00     0.074 A 
ATOM     51  C   UNL A   1      41.154  28.688  34.188  1.00  0.00     0.031 C 
ATOM     52  C   UNL A   1      40.237  28.083  27.624  1.00  0.00     0.029 A 
ATOM     53  C   UNL A   1      41.489  27.609  28.176  1.00  0.00     0.049 A 
ATOM     54  H   UNL A   1      42.449  28.334  29.893  1.00  0.00     0.167 HD
ATOM     55  C   UNL A   1      43.677  29.074  34.098  1.00  0.00     0.037 A 
ATOM     56  C   UNL A   1      42.329  26.638  27.738  1.00  0.00     0.037 A 
ATOM     57  C   UNL A   1      44.566  29.895  33.307  1.00  0.00     0.049 A 
ATOM     58  C   UNL A   1      43.624  26.841  28.444  1.00  0.00     0.074 A 
ATOM     59  C   UNL A   1      44.669  31.254  33.070  1.00  0.00     0.029 A 
ATOM     60  N   UNL A   1      45.275  29.292  32.295  1.00  0.00    -0.354 N 
ATOM     61  N   UNL A   1      44.389  27.883  28.256  1.00  0.00    -0.248 NA
ATOM     62  C   UNL A   1      43.808  26.152  29.714  1.00  0.00     0.031 C 
ATOM     63  C   UNL A   1      44.975  31.361  31.680  1.00  0.00     0.029 A 
ATOM     64  C   UNL A   1      45.136  30.071  31.175  1.00  0.00     0.049 A 
ATOM     65  H   UNL A   1      45.788  28.455  32.362  1.00  0.00     0.167 HD
ATOM     66  C   UNL A   1      44.819  28.238  29.526  1.00  0.00     0.074 A 
ATOM     67  C   UNL A   1      44.485  27.095  30.375  1.00  0.00     0.031 C 
ATOM     68  C   UNL A   1      45.115  29.536  29.834  1.00  0.00     0.037 A 
BRANCH  55  69
ATOM     69  C   UNL A   1      44.175  27.866  34.866  1.00  0.00     0.064 A 
ATOM     70  C   UNL A   1      43.856  26.580  34.376  1.00  0.00     0.173 A 
ATOM     71  C   UNL A   1      44.659  27.896  36.193  1.00  0.00     0.173 A 
ATOM     72  F   UNL A   1      43.400  26.420  33.124  1.00  0.00    -0.203 F 
ATOM     73  C   UNL A   1      43.893  25.446  35.190  1.00  0.00     0.198 A 
ATOM     74  C   UNL A   1      44.744  26.752  36.985  1.00  0.00     0.198 A 
ATOM     75  F   UNL A   1      44.972  29.031  36.824  1.00  0.00    -0.203 F 
ATOM     76  F   UNL A   1      43.436  24.277  34.720  1.00  0.00    -0.200 F 
ATOM     77  C   UNL A   1      44.322  25.536  36.500  1.00  0.00     0.200 A 
ATOM     78  F   UNL A   1      45.157  26.864  38.256  1.00  0.00    -0.200 F 
ATOM     79  F   UNL A   1      44.286  24.466  37.305  1.00  0.00    -0.200 F 
ENDBRANCH  55  69
BRANCH  56  80
ATOM     80  C   UNL A   1      41.981  25.379  27.031  1.00  0.00     0.064 A 
ATOM     81  C   UNL A   1      42.745  24.923  25.943  1.00  0.00     0.173 A 
ATOM     82  C   UNL A   1      41.062  24.456  27.573  1.00  0.00     0.173 A 
ATOM     83  F   UNL A   1      43.675  25.718  25.393  1.00  0.00    -0.203 F 
ATOM     84  C   UNL A   1      42.617  23.619  25.447  1.00  0.00     0.198 A 
ATOM     85  C   UNL A   1      40.930  23.159  27.072  1.00  0.00     0.198 A 
ATOM     86  F   UNL A   1      40.339  24.758  28.660  1.00  0.00    -0.203 F 
ATOM     87  F   UNL A   1      43.410  23.203  24.449  1.00  0.00    -0.200 F 
ATOM     88  C   UNL A   1      41.718  22.735  26.019  1.00  0.00     0.200 A 
ATOM     89  F   UNL A   1      40.080  22.304  27.658  1.00  0.00    -0.200 F 
ATOM     90  F   UNL A   1      41.639  21.470  25.586  1.00  0.00    -0.200 F 
ENDBRANCH  56  80
BRANCH  68  91
ATOM     91  C   UNL A   1      45.195  30.534  28.709  1.00  0.00     0.064 A 
ATOM     92  C   UNL A   1      44.145  31.392  28.336  1.00  0.00     0.173 A 
ATOM     93  C   UNL A   1      46.437  30.742  28.096  1.00  0.00     0.173 A 
ATOM     94  F   UNL A   1      42.956  31.334  28.945  1.00  0.00    -0.203 F 
ATOM     95  C   UNL A   1      44.320  32.380  27.368  1.00  0.00     0.198 A 
ATOM     96  C   UNL A   1      46.621  31.753  27.156  1.00  0.00     0.198 A 
ATOM     97  F   UNL A   1      47.494  29.995  28.452  1.00  0.00    -0.203 F 
ATOM     98  F   UNL A   1      43.297  33.177  27.028  1.00  0.00    -0.200 F 
ATOM     99  C   UNL A   1      45.561  32.564  26.784  1.00  0.00     0.200 A 
ATOM    100  F   UNL A   1      47.837  31.961  26.635  1.00  0.00    -0.200 F 
ATOM    101  F   UNL A   1      45.744  33.541  25.885  1.00  0.00    -0.200 F 
ENDBRANCH  68  91
ENDBRANCH  42  43
ENDBRANCH  34  37
ENDBRANCH  32  33
ENDBRANCH  31  32
ENDBRANCH   1  31
TORSDOF 16
ENDMDL
