MODEL 1
REMARK VINA RESULT:     -12.7      0.000      0.000
REMARK SMILES Cc1ccn2c([C@H]3C[C@@H]3C(=O)NCCCNC(=O)c3ccc(-c4c5nc(c(-c6c(F)c(F)c(F)c(F)c6F)c6ccc([nH]6)c(-c6c(F)c(F)c(F)c(F)c6F)c6nc(c(-c7c(F)c(F)c(F)c(F)c7F)c7ccc4[nH]7)C=C6)C=C5)cc3)nnc2c1
REMARK SMILES IDX 14 1 13 2 12 3 10 4 11 5 9 7 7 8 8 9 6 10 1 11 2 12 3 13
REMARK SMILES IDX 85 14 4 15 84 16 5 17 83 18 82 19 15 20 16 21 17 22 18 24
REMARK SMILES IDX 19 25 20 26 81 27 21 28 80 29 22 30 23 31 24 32 74 33 25 34
REMARK SMILES IDX 79 35 73 36 75 37 26 38 78 39 72 40 71 41 27 43 59 44 39 45
REMARK SMILES IDX 58 46 40 47 43 48 57 49 76 50 41 51 42 52 56 54 77 55 44 56
REMARK SMILES IDX 28 57 29 58 37 59 30 60 31 61 35 62 38 63 32 64 33 65 36 66
REMARK SMILES IDX 34 67 60 68 61 69 69 70 62 71 63 72 67 73 70 74 64 75 65 76
REMARK SMILES IDX 68 77 66 78 45 79 46 80 54 81 47 82 48 83 52 84 55 85 49 86
REMARK SMILES IDX 50 87 53 88 51 89
REMARK H PARENT 12 6 16 23 75 42 43 53
REMARK Flexibility Score: inf
ROOT
ATOM      1  C   UNL A   1      42.258  19.590  27.149  1.00  0.00     0.042 C 
ENDROOT
BRANCH   1   2
ATOM      2  C   UNL A   1      42.858  19.543  25.752  1.00  0.00     0.117 C 
BRANCH   2   3
ATOM      3  N   UNL A   1      43.916  18.577  25.569  1.00  0.00    -0.356 N 
ATOM      4  C   UNL A   1      45.279  18.729  25.449  1.00  0.00     0.223 C 
ATOM      5  O   UNL A   1      45.953  17.712  25.375  1.00  0.00    -0.275 OA
ATOM      6  H   UNL A   1      43.608  17.644  25.523  1.00  0.00     0.163 HD
BRANCH   4   7
ATOM      7  C   UNL A   1      45.973  20.049  25.363  1.00  0.00     0.090 C 
ATOM      8  C   UNL A   1      45.634  21.204  24.464  1.00  0.00     0.071 C 
ATOM      9  C   UNL A   1      46.829  20.327  24.158  1.00  0.00     0.026 C 
BRANCH   8  10
ATOM     10  C   UNL A   1      45.962  22.655  24.746  1.00  0.00     0.141 A 
ATOM     11  C   UNL A   1      44.888  25.922  29.136  1.00  0.00     0.044 C 
ATOM     12  C   UNL A   1      45.246  25.015  27.996  1.00  0.00    -0.046 A 
ATOM     13  C   UNL A   1      44.910  23.601  28.145  1.00  0.00     0.022 A 
ATOM     14  C   UNL A   1      45.813  25.477  26.856  1.00  0.00     0.053 A 
ATOM     15  C   UNL A   1      45.157  22.762  27.128  1.00  0.00     0.095 A 
ATOM     16  C   UNL A   1      46.056  24.590  25.771  1.00  0.00     0.161 A 
ATOM     17  N   UNL A   1      45.723  23.261  25.957  1.00  0.00    -0.286 N 
ATOM     18  N   UNL A   1      46.489  24.761  24.538  1.00  0.00    -0.130 NA
ATOM     19  N   UNL A   1      46.390  23.547  23.879  1.00  0.00    -0.134 NA
ENDBRANCH   8  10
ENDBRANCH   4   7
ENDBRANCH   2   3
ENDBRANCH   1   2
BRANCH   1  20
ATOM     20  C   UNL A   1      41.728  20.938  27.623  1.00  0.00     0.118 C 
BRANCH  20  21
ATOM     21  N   UNL A   1      40.420  21.295  27.115  1.00  0.00    -0.352 N 
ATOM     22  C   UNL A   1      39.815  22.468  26.757  1.00  0.00     0.251 C 
ATOM     23  H   UNL A   1      39.830  20.515  27.003  1.00  0.00     0.163 HD
ATOM     24  O   UNL A   1      38.767  22.362  26.115  1.00  0.00    -0.269 OA
BRANCH  22  25
ATOM     25  C   UNL A   1      40.271  23.833  27.142  1.00  0.00     0.039 A 
ATOM     26  C   UNL A   1      41.288  24.119  28.050  1.00  0.00     0.014 A 
ATOM     27  C   UNL A   1      39.519  24.906  26.626  1.00  0.00     0.014 A 
ATOM     28  C   UNL A   1      41.455  25.412  28.539  1.00  0.00     0.010 A 
ATOM     29  C   UNL A   1      39.706  26.208  27.082  1.00  0.00     0.010 A 
ATOM     30  C   UNL A   1      40.631  26.449  28.091  1.00  0.00    -0.014 A 
BRANCH  30  31
ATOM     31  C   UNL A   1      40.812  27.769  28.692  1.00  0.00     0.031 A 
ATOM     32  C   UNL A   1      42.047  28.509  28.302  1.00  0.00     0.074 A 
ATOM     33  C   UNL A   1      39.904  28.355  29.497  1.00  0.00     0.049 A 
ATOM     34  N   UNL A   1      43.008  28.923  29.065  1.00  0.00    -0.248 NA
ATOM     35  C   UNL A   1      42.265  28.765  26.873  1.00  0.00     0.031 C 
ATOM     36  C   UNL A   1      38.529  27.938  29.783  1.00  0.00     0.029 A 
ATOM     37  N   UNL A   1      40.016  29.535  30.173  1.00  0.00    -0.354 N 
ATOM     38  C   UNL A   1      43.894  29.614  28.239  1.00  0.00     0.074 A 
ATOM     39  C   UNL A   1      43.435  29.405  26.889  1.00  0.00     0.031 C 
ATOM     40  C   UNL A   1      37.874  28.955  30.386  1.00  0.00     0.029 A 
ATOM     41  C   UNL A   1      38.814  30.030  30.652  1.00  0.00     0.049 A 
ATOM     42  H   UNL A   1      40.876  29.994  30.309  1.00  0.00     0.167 HD
ATOM     43  C   UNL A   1      44.855  30.441  28.739  1.00  0.00     0.037 A 
ATOM     44  C   UNL A   1      38.598  31.267  31.162  1.00  0.00     0.037 A 
ATOM     45  C   UNL A   1      45.124  30.166  30.125  1.00  0.00     0.049 A 
ATOM     46  C   UNL A   1      39.906  31.803  31.616  1.00  0.00     0.074 A 
ATOM     47  C   UNL A   1      45.586  29.069  30.824  1.00  0.00     0.029 A 
ATOM     48  N   UNL A   1      44.630  31.021  31.079  1.00  0.00    -0.354 N 
ATOM     49  N   UNL A   1      40.577  31.332  32.631  1.00  0.00    -0.248 NA
ATOM     50  C   UNL A   1      40.674  32.605  30.675  1.00  0.00     0.031 C 
ATOM     51  C   UNL A   1      44.886  29.100  32.065  1.00  0.00     0.029 A 
ATOM     52  C   UNL A   1      44.071  30.233  32.049  1.00  0.00     0.049 A 
ATOM     53  H   UNL A   1      44.671  32.005  31.067  1.00  0.00     0.167 HD
ATOM     54  C   UNL A   1      41.905  31.420  32.245  1.00  0.00     0.074 A 
ATOM     55  C   UNL A   1      41.909  32.295  31.076  1.00  0.00     0.031 C 
ATOM     56  C   UNL A   1      42.845  30.560  32.734  1.00  0.00     0.037 A 
BRANCH  43  57
ATOM     57  C   UNL A   1      45.349  31.704  28.072  1.00  0.00     0.064 A 
ATOM     58  C   UNL A   1      44.416  32.684  27.669  1.00  0.00     0.173 A 
ATOM     59  C   UNL A   1      46.645  31.844  27.535  1.00  0.00     0.173 A 
ATOM     60  F   UNL A   1      43.150  32.648  28.113  1.00  0.00    -0.203 F 
ATOM     61  C   UNL A   1      44.733  33.664  26.726  1.00  0.00     0.198 A 
ATOM     62  C   UNL A   1      46.971  32.857  26.633  1.00  0.00     0.198 A 
ATOM     63  F   UNL A   1      47.611  30.949  27.770  1.00  0.00    -0.203 F 
ATOM     64  F   UNL A   1      43.775  34.485  26.273  1.00  0.00    -0.200 F 
ATOM     65  C   UNL A   1      46.008  33.743  26.200  1.00  0.00     0.200 A 
ATOM     66  F   UNL A   1      48.211  32.910  26.125  1.00  0.00    -0.200 F 
ATOM     67  F   UNL A   1      46.296  34.636  25.244  1.00  0.00    -0.200 F 
ENDBRANCH  43  57
BRANCH  44  68
ATOM     68  C   UNL A   1      37.399  32.119  30.981  1.00  0.00     0.064 A 
ATOM     69  C   UNL A   1      37.103  32.712  29.743  1.00  0.00     0.173 A 
ATOM     70  C   UNL A   1      36.375  32.153  31.950  1.00  0.00     0.173 A 
ATOM     71  F   UNL A   1      38.001  32.678  28.748  1.00  0.00    -0.203 F 
ATOM     72  C   UNL A   1      35.855  33.291  29.487  1.00  0.00     0.198 A 
ATOM     73  C   UNL A   1      35.135  32.739  31.697  1.00  0.00     0.198 A 
ATOM     74  F   UNL A   1      36.521  31.533  33.129  1.00  0.00    -0.203 F 
ATOM     75  F   UNL A   1      35.588  33.794  28.274  1.00  0.00    -0.200 F 
ATOM     76  C   UNL A   1      34.871  33.297  30.462  1.00  0.00     0.200 A 
ATOM     77  F   UNL A   1      34.180  32.703  32.637  1.00  0.00    -0.200 F 
ATOM     78  F   UNL A   1      33.656  33.801  30.199  1.00  0.00    -0.200 F 
ENDBRANCH  44  68
BRANCH  56  79
ATOM     79  C   UNL A   1      42.474  29.674  33.887  1.00  0.00     0.064 A 
ATOM     80  C   UNL A   1      41.841  28.428  33.732  1.00  0.00     0.173 A 
ATOM     81  C   UNL A   1      42.959  30.000  35.161  1.00  0.00     0.173 A 
ATOM     82  F   UNL A   1      41.446  28.001  32.527  1.00  0.00    -0.203 F 
ATOM     83  C   UNL A   1      41.679  27.563  34.812  1.00  0.00     0.198 A 
ATOM     84  C   UNL A   1      42.825  29.119  36.230  1.00  0.00     0.198 A 
ATOM     85  F   UNL A   1      43.627  31.148  35.353  1.00  0.00    -0.203 F 
ATOM     86  F   UNL A   1      41.084  26.374  34.637  1.00  0.00    -0.200 F 
ATOM     87  C   UNL A   1      42.181  27.904  36.056  1.00  0.00     0.200 A 
ATOM     88  F   UNL A   1      43.361  29.426  37.419  1.00  0.00    -0.200 F 
ATOM     89  F   UNL A   1      42.079  27.044  37.080  1.00  0.00    -0.200 F 
ENDBRANCH  56  79
ENDBRANCH  30  31
ENDBRANCH  22  25
ENDBRANCH  20  21
ENDBRANCH   1  20
TORSDOF 11
ENDMDL
MODEL 2
REMARK VINA RESULT:     -12.5      3.847     10.657
REMARK SMILES Cc1ccn2c([C@H]3C[C@@H]3C(=O)NCCCNC(=O)c3ccc(-c4c5nc(c(-c6c(F)c(F)c(F)c(F)c6F)c6ccc([nH]6)c(-c6c(F)c(F)c(F)c(F)c6F)c6nc(c(-c7c(F)c(F)c(F)c(F)c7F)c7ccc4[nH]7)C=C6)C=C5)cc3)nnc2c1
REMARK SMILES IDX 14 1 13 2 12 3 10 4 11 5 9 7 7 8 8 9 6 10 1 11 2 12 3 13
REMARK SMILES IDX 85 14 4 15 84 16 5 17 83 18 82 19 15 20 16 21 17 22 18 24
REMARK SMILES IDX 19 25 20 26 81 27 21 28 80 29 22 30 23 31 24 32 74 33 25 34
REMARK SMILES IDX 79 35 73 36 75 37 26 38 78 39 72 40 71 41 27 43 59 44 39 45
REMARK SMILES IDX 58 46 40 47 43 48 57 49 76 50 41 51 42 52 56 54 77 55 44 56
REMARK SMILES IDX 28 57 29 58 37 59 30 60 31 61 35 62 38 63 32 64 33 65 36 66
REMARK SMILES IDX 34 67 60 68 61 69 69 70 62 71 63 72 67 73 70 74 64 75 65 76
REMARK SMILES IDX 68 77 66 78 45 79 46 80 54 81 47 82 48 83 52 84 55 85 49 86
REMARK SMILES IDX 50 87 53 88 51 89
REMARK H PARENT 12 6 16 23 75 42 43 53
REMARK Flexibility Score: inf
ROOT
ATOM      1  C   UNL A   1      34.058  34.211  30.437  1.00  0.00     0.042 C 
ENDROOT
BRANCH   1   2
ATOM      2  C   UNL A   1      34.882  33.728  31.620  1.00  0.00     0.117 C 
BRANCH   2   3
ATOM      3  N   UNL A   1      35.125  32.305  31.660  1.00  0.00    -0.356 N 
ATOM      4  C   UNL A   1      36.127  31.566  32.248  1.00  0.00     0.223 C 
ATOM      5  O   UNL A   1      36.040  30.349  32.182  1.00  0.00    -0.275 OA
ATOM      6  H   UNL A   1      34.454  31.766  31.182  1.00  0.00     0.163 HD
BRANCH   4   7
ATOM      7  C   UNL A   1      37.323  32.157  32.920  1.00  0.00     0.090 C 
ATOM      8  C   UNL A   1      38.746  32.140  32.438  1.00  0.00     0.071 C 
ATOM      9  C   UNL A   1      38.313  31.226  33.564  1.00  0.00     0.026 C 
BRANCH   8  10
ATOM     10  C   UNL A   1      39.806  33.154  32.811  1.00  0.00     0.141 A 
ATOM     11  C   UNL A   1      44.126  35.230  29.960  1.00  0.00     0.044 C 
ATOM     12  C   UNL A   1      42.916  34.730  30.690  1.00  0.00    -0.046 A 
ATOM     13  C   UNL A   1      41.998  33.875  29.941  1.00  0.00     0.022 A 
ATOM     14  C   UNL A   1      42.692  35.013  31.996  1.00  0.00     0.053 A 
ATOM     15  C   UNL A   1      40.932  33.356  30.568  1.00  0.00     0.095 A 
ATOM     16  C   UNL A   1      41.571  34.445  32.665  1.00  0.00     0.161 A 
ATOM     17  N   UNL A   1      40.730  33.643  31.916  1.00  0.00    -0.286 N 
ATOM     18  N   UNL A   1      41.162  34.455  33.917  1.00  0.00    -0.130 NA
ATOM     19  N   UNL A   1      40.072  33.606  34.017  1.00  0.00    -0.134 NA
ENDBRANCH   8  10
ENDBRANCH   4   7
ENDBRANCH   2   3
ENDBRANCH   1   2
BRANCH   1  20
ATOM     20  C   UNL A   1      34.765  34.266  29.087  1.00  0.00     0.118 C 
BRANCH  20  21
ATOM     21  N   UNL A   1      34.403  33.212  28.162  1.00  0.00    -0.352 N 
ATOM     22  C   UNL A   1      34.791  31.913  27.986  1.00  0.00     0.251 C 
ATOM     23  H   UNL A   1      33.722  33.497  27.510  1.00  0.00     0.163 HD
ATOM     24  O   UNL A   1      34.074  31.230  27.251  1.00  0.00    -0.269 OA
BRANCH  22  25
ATOM     25  C   UNL A   1      36.030  31.295  28.535  1.00  0.00     0.039 A 
ATOM     26  C   UNL A   1      37.226  31.965  28.784  1.00  0.00     0.014 A 
ATOM     27  C   UNL A   1      36.006  29.896  28.692  1.00  0.00     0.014 A 
ATOM     28  C   UNL A   1      38.395  31.252  29.040  1.00  0.00     0.010 A 
ATOM     29  C   UNL A   1      37.164  29.180  28.986  1.00  0.00     0.010 A 
ATOM     30  C   UNL A   1      38.373  29.856  29.094  1.00  0.00    -0.014 A 
BRANCH  30  31
ATOM     31  C   UNL A   1      39.644  29.164  29.299  1.00  0.00     0.031 A 
ATOM     32  C   UNL A   1      40.035  28.906  30.715  1.00  0.00     0.074 A 
ATOM     33  C   UNL A   1      40.414  28.700  28.295  1.00  0.00     0.049 A 
ATOM     34  N   UNL A   1      41.087  29.321  31.346  1.00  0.00    -0.248 NA
ATOM     35  C   UNL A   1      39.102  28.136  31.549  1.00  0.00     0.031 C 
ATOM     36  C   UNL A   1      40.097  28.599  26.868  1.00  0.00     0.029 A 
ATOM     37  N   UNL A   1      41.649  28.126  28.377  1.00  0.00    -0.354 N 
ATOM     38  C   UNL A   1      41.027  28.759  32.621  1.00  0.00     0.074 A 
ATOM     39  C   UNL A   1      39.741  28.117  32.719  1.00  0.00     0.031 C 
ATOM     40  C   UNL A   1      41.011  27.806  26.266  1.00  0.00     0.029 A 
ATOM     41  C   UNL A   1      42.045  27.463  27.227  1.00  0.00     0.049 A 
ATOM     42  H   UNL A   1      42.210  28.177  29.185  1.00  0.00     0.167 HD
ATOM     43  C   UNL A   1      42.109  28.728  33.449  1.00  0.00     0.037 A 
ATOM     44  C   UNL A   1      43.108  26.633  27.100  1.00  0.00     0.037 A 
ATOM     45  C   UNL A   1      43.104  29.691  33.060  1.00  0.00     0.049 A 
ATOM     46  C   UNL A   1      44.064  26.953  28.191  1.00  0.00     0.074 A 
ATOM     47  C   UNL A   1      43.128  31.067  32.942  1.00  0.00     0.029 A 
ATOM     48  N   UNL A   1      44.237  29.253  32.422  1.00  0.00    -0.354 N 
ATOM     49  N   UNL A   1      44.742  28.065  28.266  1.00  0.00    -0.248 NA
ATOM     50  C   UNL A   1      43.951  26.202  29.433  1.00  0.00     0.031 C 
ATOM     51  C   UNL A   1      43.970  31.326  31.821  1.00  0.00     0.029 A 
ATOM     52  C   UNL A   1      44.426  30.091  31.356  1.00  0.00     0.049 A 
ATOM     53  H   UNL A   1      44.801  28.488  32.680  1.00  0.00     0.167 HD
ATOM     54  C   UNL A   1      44.783  28.361  29.620  1.00  0.00     0.074 A 
ATOM     55  C   UNL A   1      44.363  27.135  30.294  1.00  0.00     0.031 C 
ATOM     56  C   UNL A   1      44.883  29.648  30.063  1.00  0.00     0.037 A 
BRANCH  43  57
ATOM     57  C   UNL A   1      42.416  27.628  34.438  1.00  0.00     0.064 A 
ATOM     58  C   UNL A   1      43.041  26.446  33.985  1.00  0.00     0.173 A 
ATOM     59  C   UNL A   1      41.844  27.556  35.724  1.00  0.00     0.173 A 
ATOM     60  F   UNL A   1      43.615  26.395  32.772  1.00  0.00    -0.203 F 
ATOM     61  C   UNL A   1      43.005  25.260  34.723  1.00  0.00     0.198 A 
ATOM     62  C   UNL A   1      41.858  26.384  36.481  1.00  0.00     0.198 A 
ATOM     63  F   UNL A   1      41.156  28.574  36.253  1.00  0.00    -0.203 F 
ATOM     64  F   UNL A   1      43.492  24.130  34.190  1.00  0.00    -0.200 F 
ATOM     65  C   UNL A   1      42.404  25.227  35.966  1.00  0.00     0.200 A 
ATOM     66  F   UNL A   1      41.259  26.368  37.680  1.00  0.00    -0.200 F 
ATOM     67  F   UNL A   1      42.306  24.077  36.645  1.00  0.00    -0.200 F 
ENDBRANCH  43  57
BRANCH  44  68
ATOM     68  C   UNL A   1      43.189  25.389  26.300  1.00  0.00     0.064 A 
ATOM     69  C   UNL A   1      44.247  25.162  25.405  1.00  0.00     0.173 A 
ATOM     70  C   UNL A   1      42.369  24.279  26.591  1.00  0.00     0.173 A 
ATOM     71  F   UNL A   1      45.107  26.149  25.114  1.00  0.00    -0.203 F 
ATOM     72  C   UNL A   1      44.478  23.899  24.849  1.00  0.00     0.198 A 
ATOM     73  C   UNL A   1      42.593  23.024  26.028  1.00  0.00     0.198 A 
ATOM     74  F   UNL A   1      41.390  24.366  27.503  1.00  0.00    -0.203 F 
ATOM     75  F   UNL A   1      45.534  23.705  24.047  1.00  0.00    -0.200 F 
ATOM     76  C   UNL A   1      43.655  22.830  25.166  1.00  0.00     0.200 A 
ATOM     77  F   UNL A   1      41.812  21.991  26.374  1.00  0.00    -0.200 F 
ATOM     78  F   UNL A   1      43.909  21.608  24.678  1.00  0.00    -0.200 F 
ENDBRANCH  44  68
BRANCH  56  79
ATOM     79  C   UNL A   1      45.202  30.725  29.067  1.00  0.00     0.064 A 
ATOM     80  C   UNL A   1      44.224  31.397  28.315  1.00  0.00     0.173 A 
ATOM     81  C   UNL A   1      46.509  31.230  29.028  1.00  0.00     0.173 A 
ATOM     82  F   UNL A   1      42.935  31.039  28.383  1.00  0.00    -0.203 F 
ATOM     83  C   UNL A   1      44.547  32.507  27.539  1.00  0.00     0.198 A 
ATOM     84  C   UNL A   1      46.823  32.360  28.279  1.00  0.00     0.198 A 
ATOM     85  F   UNL A   1      47.471  30.666  29.775  1.00  0.00    -0.203 F 
ATOM     86  F   UNL A   1      43.594  33.141  26.840  1.00  0.00    -0.200 F 
ATOM     87  C   UNL A   1      45.843  32.995  27.531  1.00  0.00     0.200 A 
ATOM     88  F   UNL A   1      48.064  32.862  28.317  1.00  0.00    -0.200 F 
ATOM     89  F   UNL A   1      46.141  34.101  26.833  1.00  0.00    -0.200 F 
ENDBRANCH  56  79
ENDBRANCH  30  31
ENDBRANCH  22  25
ENDBRANCH  20  21
ENDBRANCH   1  20
TORSDOF 11
ENDMDL
MODEL 3
REMARK VINA RESULT:     -12.4      0.805      1.847
REMARK SMILES Cc1ccn2c([C@H]3C[C@@H]3C(=O)NCCCNC(=O)c3ccc(-c4c5nc(c(-c6c(F)c(F)c(F)c(F)c6F)c6ccc([nH]6)c(-c6c(F)c(F)c(F)c(F)c6F)c6nc(c(-c7c(F)c(F)c(F)c(F)c7F)c7ccc4[nH]7)C=C6)C=C5)cc3)nnc2c1
REMARK SMILES IDX 14 1 13 2 12 3 10 4 11 5 9 7 7 8 8 9 6 10 1 11 2 12 3 13
REMARK SMILES IDX 85 14 4 15 84 16 5 17 83 18 82 19 15 20 16 21 17 22 18 24
REMARK SMILES IDX 19 25 20 26 81 27 21 28 80 29 22 30 23 31 24 32 74 33 25 34
REMARK SMILES IDX 79 35 73 36 75 37 26 38 78 39 72 40 71 41 27 43 59 44 39 45
REMARK SMILES IDX 58 46 40 47 43 48 57 49 76 50 41 51 42 52 56 54 77 55 44 56
REMARK SMILES IDX 28 57 29 58 37 59 30 60 31 61 35 62 38 63 32 64 33 65 36 66
REMARK SMILES IDX 34 67 60 68 61 69 69 70 62 71 63 72 67 73 70 74 64 75 65 76
REMARK SMILES IDX 68 77 66 78 45 79 46 80 54 81 47 82 48 83 52 84 55 85 49 86
REMARK SMILES IDX 50 87 53 88 51 89
REMARK H PARENT 12 6 16 23 75 42 43 53
REMARK Flexibility Score: inf
ROOT
ATOM      1  C   UNL A   1      42.639  19.673  26.764  1.00  0.00     0.042 C 
ENDROOT
BRANCH   1   2
ATOM      2  C   UNL A   1      43.289  19.768  25.392  1.00  0.00     0.117 C 
BRANCH   2   3
ATOM      3  N   UNL A   1      44.653  19.301  25.324  1.00  0.00    -0.356 N 
ATOM      4  C   UNL A   1      45.853  19.975  25.391  1.00  0.00     0.223 C 
ATOM      5  O   UNL A   1      46.874  19.305  25.379  1.00  0.00    -0.275 OA
ATOM      6  H   UNL A   1      44.743  18.328  25.211  1.00  0.00     0.163 HD
BRANCH   4   7
ATOM      7  C   UNL A   1      45.979  21.463  25.434  1.00  0.00     0.090 C 
ATOM      8  C   UNL A   1      44.988  22.480  24.943  1.00  0.00     0.071 C 
ATOM      9  C   UNL A   1      46.244  22.194  24.147  1.00  0.00     0.026 C 
BRANCH   8  10
ATOM     10  C   UNL A   1      44.868  23.899  25.457  1.00  0.00     0.141 A 
ATOM     11  C   UNL A   1      44.553  25.965  30.628  1.00  0.00     0.044 C 
ATOM     12  C   UNL A   1      44.722  25.409  29.245  1.00  0.00    -0.046 A 
ATOM     13  C   UNL A   1      44.994  23.978  29.136  1.00  0.00     0.022 A 
ATOM     14  C   UNL A   1      44.587  26.176  28.137  1.00  0.00     0.053 A 
ATOM     15  C   UNL A   1      45.095  23.424  27.918  1.00  0.00     0.095 A 
ATOM     16  C   UNL A   1      44.673  25.583  26.846  1.00  0.00     0.161 A 
ATOM     17  N   UNL A   1      44.933  24.226  26.791  1.00  0.00    -0.286 N 
ATOM     18  N   UNL A   1      44.490  26.040  25.623  1.00  0.00    -0.130 NA
ATOM     19  N   UNL A   1      44.571  24.968  24.750  1.00  0.00    -0.134 NA
ENDBRANCH   8  10
ENDBRANCH   4   7
ENDBRANCH   2   3
ENDBRANCH   1   2
BRANCH   1  20
ATOM     20  C   UNL A   1      42.079  20.966  27.347  1.00  0.00     0.118 C 
BRANCH  20  21
ATOM     21  N   UNL A   1      40.682  21.214  27.058  1.00  0.00    -0.352 N 
ATOM     22  C   UNL A   1      39.930  22.336  26.844  1.00  0.00     0.251 C 
ATOM     23  H   UNL A   1      40.152  20.386  27.003  1.00  0.00     0.163 HD
ATOM     24  O   UNL A   1      38.809  22.152  26.364  1.00  0.00    -0.269 OA
BRANCH  22  25
ATOM     25  C   UNL A   1      40.319  23.725  27.213  1.00  0.00     0.039 A 
ATOM     26  C   UNL A   1      41.230  24.073  28.208  1.00  0.00     0.014 A 
ATOM     27  C   UNL A   1      39.604  24.758  26.577  1.00  0.00     0.014 A 
ATOM     28  C   UNL A   1      41.323  25.389  28.654  1.00  0.00     0.010 A 
ATOM     29  C   UNL A   1      39.719  26.082  26.992  1.00  0.00     0.010 A 
ATOM     30  C   UNL A   1      40.531  26.387  28.078  1.00  0.00    -0.014 A 
BRANCH  30  31
ATOM     31  C   UNL A   1      40.624  27.734  28.636  1.00  0.00     0.031 A 
ATOM     32  C   UNL A   1      41.766  28.568  28.160  1.00  0.00     0.074 A 
ATOM     33  C   UNL A   1      39.711  28.262  29.476  1.00  0.00     0.049 A 
ATOM     34  N   UNL A   1      42.725  29.088  28.858  1.00  0.00    -0.248 NA
ATOM     35  C   UNL A   1      41.883  28.801  26.715  1.00  0.00     0.031 C 
ATOM     36  C   UNL A   1      38.397  27.734  29.849  1.00  0.00     0.029 A 
ATOM     37  N   UNL A   1      39.753  29.466  30.116  1.00  0.00    -0.354 N 
ATOM     38  C   UNL A   1      43.501  29.830  27.967  1.00  0.00     0.074 A 
ATOM     39  C   UNL A   1      42.990  29.542  26.651  1.00  0.00     0.031 C 
ATOM     40  C   UNL A   1      37.686  28.706  30.462  1.00  0.00     0.029 A 
ATOM     41  C   UNL A   1      38.539  29.867  30.649  1.00  0.00     0.049 A 
ATOM     42  H   UNL A   1      40.575  30.002  30.192  1.00  0.00     0.167 HD
ATOM     43  C   UNL A   1      44.409  30.752  28.393  1.00  0.00     0.037 A 
ATOM     44  C   UNL A   1      38.241  31.095  31.139  1.00  0.00     0.037 A 
ATOM     45  C   UNL A   1      44.775  30.543  29.767  1.00  0.00     0.049 A 
ATOM     46  C   UNL A   1      39.518  31.757  31.507  1.00  0.00     0.074 A 
ATOM     47  C   UNL A   1      45.370  29.511  30.467  1.00  0.00     0.029 A 
ATOM     48  N   UNL A   1      44.258  31.378  30.727  1.00  0.00    -0.354 N 
ATOM     49  N   UNL A   1      40.282  31.376  32.494  1.00  0.00    -0.248 NA
ATOM     50  C   UNL A   1      40.161  32.595  30.505  1.00  0.00     0.031 C 
ATOM     51  C   UNL A   1      44.737  29.517  31.743  1.00  0.00     0.029 A 
ATOM     52  C   UNL A   1      43.824  30.573  31.745  1.00  0.00     0.049 A 
ATOM     53  H   UNL A   1      44.210  32.361  30.689  1.00  0.00     0.167 HD
ATOM     54  C   UNL A   1      41.574  31.570  32.033  1.00  0.00     0.074 A 
ATOM     55  C   UNL A   1      41.438  32.407  30.844  1.00  0.00     0.031 C 
ATOM     56  C   UNL A   1      42.612  30.810  32.489  1.00  0.00     0.037 A 
BRANCH  43  57
ATOM     57  C   UNL A   1      44.751  32.033  27.669  1.00  0.00     0.064 A 
ATOM     58  C   UNL A   1      45.970  32.124  26.962  1.00  0.00     0.173 A 
ATOM     59  C   UNL A   1      44.094  33.259  27.902  1.00  0.00     0.173 A 
ATOM     60  F   UNL A   1      46.687  31.023  26.688  1.00  0.00    -0.203 F 
ATOM     61  C   UNL A   1      46.531  33.353  26.608  1.00  0.00     0.198 A 
ATOM     62  C   UNL A   1      44.632  34.481  27.499  1.00  0.00     0.198 A 
ATOM     63  F   UNL A   1      42.969  33.335  28.622  1.00  0.00    -0.203 F 
ATOM     64  F   UNL A   1      47.755  33.393  26.062  1.00  0.00    -0.200 F 
ATOM     65  C   UNL A   1      45.867  34.532  26.887  1.00  0.00     0.200 A 
ATOM     66  F   UNL A   1      43.979  35.615  27.790  1.00  0.00    -0.200 F 
ATOM     67  F   UNL A   1      46.433  35.714  26.613  1.00  0.00    -0.200 F 
ENDBRANCH  43  57
BRANCH  44  68
ATOM     68  C   UNL A   1      36.963  31.832  31.005  1.00  0.00     0.064 A 
ATOM     69  C   UNL A   1      36.100  32.005  32.099  1.00  0.00     0.173 A 
ATOM     70  C   UNL A   1      36.685  32.610  29.862  1.00  0.00     0.173 A 
ATOM     71  F   UNL A   1      36.323  31.343  33.244  1.00  0.00    -0.203 F 
ATOM     72  C   UNL A   1      35.035  32.911  32.056  1.00  0.00     0.198 A 
ATOM     73  C   UNL A   1      35.617  33.504  29.816  1.00  0.00     0.198 A 
ATOM     74  F   UNL A   1      37.501  32.589  28.799  1.00  0.00    -0.203 F 
ATOM     75  F   UNL A   1      34.269  33.094  33.141  1.00  0.00    -0.200 F 
ATOM     76  C   UNL A   1      34.799  33.665  30.917  1.00  0.00     0.200 A 
ATOM     77  F   UNL A   1      35.424  34.254  28.722  1.00  0.00    -0.200 F 
ATOM     78  F   UNL A   1      33.813  34.573  30.896  1.00  0.00    -0.200 F 
ENDBRANCH  44  68
BRANCH  56  79
ATOM     79  C   UNL A   1      42.384  29.929  33.683  1.00  0.00     0.064 A 
ATOM     80  C   UNL A   1      41.865  28.626  33.593  1.00  0.00     0.173 A 
ATOM     81  C   UNL A   1      42.898  30.338  34.920  1.00  0.00     0.173 A 
ATOM     82  F   UNL A   1      41.453  28.127  32.421  1.00  0.00    -0.203 F 
ATOM     83  C   UNL A   1      41.839  27.783  34.701  1.00  0.00     0.198 A 
ATOM     84  C   UNL A   1      42.901  29.481  36.018  1.00  0.00     0.198 A 
ATOM     85  F   UNL A   1      43.463  31.549  35.048  1.00  0.00    -0.203 F 
ATOM     86  F   UNL A   1      41.351  26.538  34.589  1.00  0.00    -0.200 F 
ATOM     87  C   UNL A   1      42.367  28.207  35.909  1.00  0.00     0.200 A 
ATOM     88  F   UNL A   1      43.464  29.874  37.169  1.00  0.00    -0.200 F 
ATOM     89  F   UNL A   1      42.397  27.372  36.959  1.00  0.00    -0.200 F 
ENDBRANCH  56  79
ENDBRANCH  30  31
ENDBRANCH  22  25
ENDBRANCH  20  21
ENDBRANCH   1  20
TORSDOF 11
ENDMDL
