MODEL 1
REMARK VINA RESULT:     -14.3      0.000      0.000
REMARK SMILES O=C(NCCCNC(=O)[C@H](c1c[nH]c2cc(F)ccc12)[NH+]1CC[NH+](CC(=O)N2CCOCC2)CC1)c1ccc(-c2c3nc(c(-c4c(F)c(F)c(F)c(F)c4F)c4ccc([nH]4)c(-c4c(F)c(F)c(F)c(F)c4F)c4nc(c(-c5c(F)c(F)c(F)c(F)c5F)c5ccc2[nH]5)C=C4)C=C3)cc1
REMARK SMILES IDX 5 1 4 2 3 3 1 4 2 5 36 7 37 8 98 9 38 10 97 11 39 12 40 13
REMARK SMILES IDX 41 14 91 15 42 16 96 17 90 18 92 19 43 20 95 21 89 22 88 23
REMARK SMILES IDX 44 25 76 26 56 27 75 28 57 29 60 30 74 31 93 32 58 33 59 34
REMARK SMILES IDX 73 36 94 37 61 38 45 39 46 40 54 41 47 42 48 43 52 44 55 45
REMARK SMILES IDX 49 46 50 47 53 48 51 49 77 50 78 51 86 52 79 53 80 54 84 55
REMARK SMILES IDX 87 56 81 57 82 58 85 59 83 60 62 61 63 62 71 63 64 64 65 65
REMARK SMILES IDX 69 66 72 67 66 68 67 69 70 70 68 71 6 72 7 73 8 74 9 76
REMARK SMILES IDX 10 77 21 78 22 79 35 80 23 82 34 83 24 84 25 86 26 87 27 88
REMARK SMILES IDX 28 89 29 90 33 91 30 92 32 93 31 94 11 95 12 96 20 97 13 98
REMARK SMILES IDX 14 99 19 100 15 102 18 103 16 104 17 105
REMARK H PARENT 3 6 92 24 60 35 7 75 21 81 24 85 13 101
REMARK Flexibility Score: inf
ROOT
ATOM      1  C   UNL A   1      32.425  29.507  25.403  1.00  0.00     0.042 C 
ENDROOT
BRANCH   1   2
ATOM      2  C   UNL A   1      32.358  30.028  26.829  1.00  0.00     0.118 C 
BRANCH   2   3
ATOM      3  N   UNL A   1      32.497  31.475  26.867  1.00  0.00    -0.352 N 
ATOM      4  O   UNL A   1      33.152  33.452  27.693  1.00  0.00    -0.269 OA
ATOM      5  C   UNL A   1      33.408  32.264  27.523  1.00  0.00     0.251 C 
ATOM      6  H   UNL A   1      31.828  31.968  26.338  1.00  0.00     0.163 HD
BRANCH   5   7
ATOM      7  C   UNL A   1      34.702  31.721  28.003  1.00  0.00     0.039 A 
ATOM      8  C   UNL A   1      35.799  32.551  28.239  1.00  0.00     0.014 A 
ATOM      9  C   UNL A   1      34.772  30.366  28.357  1.00  0.00     0.014 A 
ATOM     10  C   UNL A   1      36.981  32.023  28.751  1.00  0.00     0.010 A 
ATOM     11  C   UNL A   1      35.927  29.855  28.959  1.00  0.00     0.010 A 
ATOM     12  C   UNL A   1      37.036  30.685  29.168  1.00  0.00    -0.014 A 
BRANCH  12  13
ATOM     13  C   UNL A   1      38.202  30.229  29.964  1.00  0.00     0.031 A 
ATOM     14  C   UNL A   1      38.407  30.669  31.381  1.00  0.00     0.074 A 
ATOM     15  C   UNL A   1      39.080  29.394  29.374  1.00  0.00     0.049 A 
ATOM     16  N   UNL A   1      39.372  30.354  32.207  1.00  0.00    -0.248 NA
ATOM     17  C   UNL A   1      37.411  31.594  31.942  1.00  0.00     0.031 C 
ATOM     18  C   UNL A   1      38.993  28.930  27.986  1.00  0.00     0.029 A 
ATOM     19  N   UNL A   1      40.199  28.770  29.861  1.00  0.00    -0.354 N 
ATOM     20  C   UNL A   1      39.117  31.057  33.376  1.00  0.00     0.074 A 
ATOM     21  C   UNL A   1      37.910  31.826  33.149  1.00  0.00     0.031 C 
ATOM     22  C   UNL A   1      39.980  28.054  27.750  1.00  0.00     0.029 A 
ATOM     23  C   UNL A   1      40.803  27.941  28.947  1.00  0.00     0.049 A 
ATOM     24  H   UNL A   1      40.537  28.903  30.775  1.00  0.00     0.167 HD
ATOM     25  C   UNL A   1      39.827  31.053  34.529  1.00  0.00     0.037 A 
ATOM     26  C   UNL A   1      41.907  27.180  29.055  1.00  0.00     0.037 A 
ATOM     27  C   UNL A   1      41.014  30.266  34.748  1.00  0.00     0.049 A 
ATOM     28  C   UNL A   1      42.658  27.179  30.353  1.00  0.00     0.074 A 
ATOM     29  C   UNL A   1      41.784  30.165  35.893  1.00  0.00     0.029 A 
ATOM     30  N   UNL A   1      41.602  29.442  33.798  1.00  0.00    -0.354 N 
ATOM     31  N   UNL A   1      42.391  27.829  31.459  1.00  0.00    -0.248 NA
ATOM     32  C   UNL A   1      43.867  26.348  30.416  1.00  0.00     0.031 C 
ATOM     33  C   UNL A   1      42.858  29.307  35.625  1.00  0.00     0.029 A 
ATOM     34  C   UNL A   1      42.735  28.843  34.326  1.00  0.00     0.049 A 
ATOM     35  H   UNL A   1      41.264  29.304  32.884  1.00  0.00     0.167 HD
ATOM     36  C   UNL A   1      43.396  27.489  32.350  1.00  0.00     0.074 A 
ATOM     37  C   UNL A   1      44.264  26.552  31.665  1.00  0.00     0.031 C 
ATOM     38  C   UNL A   1      43.589  27.923  33.620  1.00  0.00     0.037 A 
BRANCH  25  39
ATOM     39  C   UNL A   1      39.354  31.942  35.640  1.00  0.00     0.064 A 
ATOM     40  C   UNL A   1      38.421  31.501  36.591  1.00  0.00     0.173 A 
ATOM     41  C   UNL A   1      39.872  33.239  35.781  1.00  0.00     0.173 A 
ATOM     42  F   UNL A   1      37.885  30.275  36.491  1.00  0.00    -0.203 F 
ATOM     43  C   UNL A   1      38.013  32.332  37.631  1.00  0.00     0.198 A 
ATOM     44  C   UNL A   1      39.478  34.058  36.834  1.00  0.00     0.198 A 
ATOM     45  F   UNL A   1      40.768  33.707  34.900  1.00  0.00    -0.203 F 
ATOM     46  F   UNL A   1      37.092  31.904  38.506  1.00  0.00    -0.200 F 
ATOM     47  C   UNL A   1      38.545  33.607  37.756  1.00  0.00     0.200 A 
ATOM     48  F   UNL A   1      39.999  35.288  36.958  1.00  0.00    -0.200 F 
ATOM     49  F   UNL A   1      38.153  34.403  38.760  1.00  0.00    -0.200 F 
ENDBRANCH  25  39
BRANCH  26  50
ATOM     50  C   UNL A   1      42.352  26.364  27.897  1.00  0.00     0.064 A 
ATOM     51  C   UNL A   1      41.794  25.103  27.650  1.00  0.00     0.173 A 
ATOM     52  C   UNL A   1      43.308  26.848  26.992  1.00  0.00     0.173 A 
ATOM     53  F   UNL A   1      40.888  24.593  28.497  1.00  0.00    -0.203 F 
ATOM     54  C   UNL A   1      42.181  24.354  26.540  1.00  0.00     0.198 A 
ATOM     55  C   UNL A   1      43.674  26.109  25.870  1.00  0.00     0.198 A 
ATOM     56  F   UNL A   1      43.865  28.053  27.184  1.00  0.00    -0.203 F 
ATOM     57  F   UNL A   1      41.652  23.139  26.339  1.00  0.00    -0.200 F 
ATOM     58  C   UNL A   1      43.113  24.860  25.647  1.00  0.00     0.200 A 
ATOM     59  F   UNL A   1      44.561  26.610  25.001  1.00  0.00    -0.200 F 
ATOM     60  F   UNL A   1      43.473  24.145  24.572  1.00  0.00    -0.200 F 
ENDBRANCH  26  50
BRANCH  38  61
ATOM     61  C   UNL A   1      44.784  27.381  34.341  1.00  0.00     0.064 A 
ATOM     62  C   UNL A   1      46.013  28.056  34.324  1.00  0.00     0.173 A 
ATOM     63  C   UNL A   1      44.694  26.190  35.076  1.00  0.00     0.173 A 
ATOM     64  F   UNL A   1      46.149  29.189  33.618  1.00  0.00    -0.203 F 
ATOM     65  C   UNL A   1      47.117  27.546  34.999  1.00  0.00     0.198 A 
ATOM     66  C   UNL A   1      45.794  25.693  35.769  1.00  0.00     0.198 A 
ATOM     67  F   UNL A   1      43.538  25.511  35.124  1.00  0.00    -0.203 F 
ATOM     68  F   UNL A   1      48.294  28.184  34.934  1.00  0.00    -0.200 F 
ATOM     69  C   UNL A   1      47.006  26.369  35.725  1.00  0.00     0.200 A 
ATOM     70  F   UNL A   1      45.684  24.560  36.474  1.00  0.00    -0.200 F 
ATOM     71  F   UNL A   1      48.070  25.879  36.374  1.00  0.00    -0.200 F 
ENDBRANCH  38  61
ENDBRANCH  12  13
ENDBRANCH   5   7
ENDBRANCH   2   3
ENDBRANCH   1   2
BRANCH   1  72
ATOM     72  C   UNL A   1      33.625  28.607  25.141  1.00  0.00     0.118 C 
BRANCH  72  73
ATOM     73  N   UNL A   1      33.944  28.516  23.732  1.00  0.00    -0.351 N 
ATOM     74  C   UNL A   1      33.581  27.647  22.752  1.00  0.00     0.283 C 
ATOM     75  H   UNL A   1      34.548  29.229  23.421  1.00  0.00     0.163 HD
ATOM     76  O   UNL A   1      34.029  27.944  21.631  1.00  0.00    -0.268 OA
BRANCH  74  77
ATOM     77  C   UNL A   1      32.762  26.337  22.924  1.00  0.00     0.308 C 
BRANCH  77  78
ATOM     78  N   UNL A   1      33.514  25.214  23.544  1.00  0.00    -0.312 N 
ATOM     79  C   UNL A   1      33.467  24.916  24.985  1.00  0.00     0.325 C 
ATOM     80  C   UNL A   1      33.772  24.032  22.757  1.00  0.00     0.325 C 
ATOM     81  H   UNL A   1      34.334  25.820  23.504  1.00  0.00     0.349 HD
ATOM     82  C   UNL A   1      33.514  23.375  25.406  1.00  0.00     0.325 C 
ATOM     83  C   UNL A   1      32.718  22.995  23.152  1.00  0.00     0.325 C 
ATOM     84  N   UNL A   1      33.039  22.379  24.419  1.00  0.00    -0.318 N 
ATOM     85  H   UNL A   1      32.177  22.037  24.843  1.00  0.00     0.348 HD
BRANCH  84  86
ATOM     86  C   UNL A   1      33.782  21.114  24.294  1.00  0.00     0.364 C 
BRANCH  86  87
ATOM     87  C   UNL A   1      33.543  20.014  25.348  1.00  0.00     0.277 C 
ATOM     88  O   UNL A   1      33.222  20.319  26.500  1.00  0.00    -0.268 OA
ATOM     89  N   UNL A   1      33.530  18.673  24.928  1.00  0.00    -0.333 N 
ATOM     90  C   UNL A   1      34.653  18.064  24.214  1.00  0.00     0.148 C 
ATOM     91  C   UNL A   1      32.788  17.728  25.763  1.00  0.00     0.148 C 
ATOM     92  C   UNL A   1      34.394  16.667  23.647  1.00  0.00     0.181 C 
ATOM     93  C   UNL A   1      32.523  16.410  25.030  1.00  0.00     0.181 C 
ATOM     94  O   UNL A   1      33.754  15.816  24.599  1.00  0.00    -0.378 OA
ENDBRANCH  86  87
ENDBRANCH  84  86
ENDBRANCH  77  78
BRANCH  77  95
ATOM     95  C   UNL A   1      31.289  26.434  23.360  1.00  0.00     0.044 A 
ATOM     96  C   UNL A   1      30.473  25.487  23.969  1.00  0.00     0.094 A 
ATOM     97  C   UNL A   1      30.403  27.543  23.067  1.00  0.00     0.009 A 
ATOM     98  N   UNL A   1      29.194  25.956  24.059  1.00  0.00    -0.361 N 
ATOM     99  C   UNL A   1      29.119  27.203  23.505  1.00  0.00     0.049 A 
ATOM    100  C   UNL A   1      30.570  28.795  22.434  1.00  0.00     0.014 A 
ATOM    101  H   UNL A   1      28.440  25.468  24.463  1.00  0.00     0.166 HD
ATOM    102  C   UNL A   1      28.005  28.034  23.350  1.00  0.00     0.065 A 
ATOM    103  C   UNL A   1      29.467  29.644  22.274  1.00  0.00     0.040 A 
ATOM    104  C   UNL A   1      28.214  29.260  22.729  1.00  0.00     0.125 A 
ATOM    105  F   UNL A   1      27.172  30.086  22.561  1.00  0.00    -0.207 F 
ENDBRANCH  77  95
ENDBRANCH  74  77
ENDBRANCH  72  73
ENDBRANCH   1  72
TORSDOF 14
ENDMDL
MODEL 2
REMARK VINA RESULT:     -14.3      0.281      6.896
REMARK SMILES O=C(NCCCNC(=O)[C@H](c1c[nH]c2cc(F)ccc12)[NH+]1CC[NH+](CC(=O)N2CCOCC2)CC1)c1ccc(-c2c3nc(c(-c4c(F)c(F)c(F)c(F)c4F)c4ccc([nH]4)c(-c4c(F)c(F)c(F)c(F)c4F)c4nc(c(-c5c(F)c(F)c(F)c(F)c5F)c5ccc2[nH]5)C=C4)C=C3)cc1
REMARK SMILES IDX 5 1 4 2 3 3 1 4 2 5 36 7 37 8 98 9 38 10 97 11 39 12 40 13
REMARK SMILES IDX 41 14 91 15 42 16 96 17 90 18 92 19 43 20 95 21 89 22 88 23
REMARK SMILES IDX 44 25 76 26 56 27 75 28 57 29 60 30 74 31 93 32 58 33 59 34
REMARK SMILES IDX 73 36 94 37 61 38 45 39 46 40 54 41 47 42 48 43 52 44 55 45
REMARK SMILES IDX 49 46 50 47 53 48 51 49 77 50 78 51 86 52 79 53 80 54 84 55
REMARK SMILES IDX 87 56 81 57 82 58 85 59 83 60 62 61 63 62 71 63 64 64 65 65
REMARK SMILES IDX 69 66 72 67 66 68 67 69 70 70 68 71 6 72 7 73 8 74 9 76
REMARK SMILES IDX 10 77 21 78 22 79 35 80 23 82 34 83 24 84 25 86 26 87 27 88
REMARK SMILES IDX 28 89 29 90 33 91 30 92 32 93 31 94 11 95 12 96 20 97 13 98
REMARK SMILES IDX 14 99 19 100 15 102 18 103 16 104 17 105
REMARK H PARENT 3 6 92 24 60 35 7 75 21 81 24 85 13 101
REMARK Flexibility Score: inf
ROOT
ATOM      1  C   UNL A   1      32.432  29.687  25.342  1.00  0.00     0.042 C 
ENDROOT
BRANCH   1   2
ATOM      2  C   UNL A   1      32.304  30.187  26.772  1.00  0.00     0.118 C 
BRANCH   2   3
ATOM      3  N   UNL A   1      32.473  31.630  26.840  1.00  0.00    -0.352 N 
ATOM      4  O   UNL A   1      33.160  33.576  27.713  1.00  0.00    -0.269 OA
ATOM      5  C   UNL A   1      33.393  32.386  27.522  1.00  0.00     0.251 C 
ATOM      6  H   UNL A   1      31.822  32.148  26.313  1.00  0.00     0.163 HD
BRANCH   5   7
ATOM      7  C   UNL A   1      34.669  31.806  28.006  1.00  0.00     0.039 A 
ATOM      8  C   UNL A   1      35.780  32.607  28.275  1.00  0.00     0.014 A 
ATOM      9  C   UNL A   1      34.707  30.443  28.331  1.00  0.00     0.014 A 
ATOM     10  C   UNL A   1      36.944  32.045  28.789  1.00  0.00     0.010 A 
ATOM     11  C   UNL A   1      35.843  29.895  28.936  1.00  0.00     0.010 A 
ATOM     12  C   UNL A   1      36.966  30.697  29.177  1.00  0.00    -0.014 A 
BRANCH  12  13
ATOM     13  C   UNL A   1      38.112  30.199  29.978  1.00  0.00     0.031 A 
ATOM     14  C   UNL A   1      39.131  29.267  29.398  1.00  0.00     0.074 A 
ATOM     15  C   UNL A   1      38.217  30.617  31.255  1.00  0.00     0.049 A 
ATOM     16  N   UNL A   1      40.189  28.749  29.969  1.00  0.00    -0.248 NA
ATOM     17  C   UNL A   1      38.932  28.848  28.003  1.00  0.00     0.031 C 
ATOM     18  C   UNL A   1      37.259  31.499  31.930  1.00  0.00     0.029 A 
ATOM     19  N   UNL A   1      39.174  30.381  32.207  1.00  0.00    -0.354 N 
ATOM     20  C   UNL A   1      40.770  27.926  29.016  1.00  0.00     0.074 A 
ATOM     21  C   UNL A   1      39.940  28.003  27.830  1.00  0.00     0.031 C 
ATOM     22  C   UNL A   1      37.705  31.774  33.164  1.00  0.00     0.029 A 
ATOM     23  C   UNL A   1      38.945  31.042  33.389  1.00  0.00     0.049 A 
ATOM     24  H   UNL A   1      39.950  29.795  32.058  1.00  0.00     0.167 HD
ATOM     25  C   UNL A   1      41.894  27.179  29.126  1.00  0.00     0.037 A 
ATOM     26  C   UNL A   1      39.649  31.051  34.535  1.00  0.00     0.037 A 
ATOM     27  C   UNL A   1      42.723  27.129  30.304  1.00  0.00     0.049 A 
ATOM     28  C   UNL A   1      40.903  30.233  34.618  1.00  0.00     0.074 A 
ATOM     29  C   UNL A   1      43.902  26.432  30.502  1.00  0.00     0.029 A 
ATOM     30  N   UNL A   1      42.456  27.806  31.486  1.00  0.00    -0.354 N 
ATOM     31  N   UNL A   1      41.455  29.478  33.699  1.00  0.00    -0.248 NA
ATOM     32  C   UNL A   1      41.626  30.258  35.895  1.00  0.00     0.031 C 
ATOM     33  C   UNL A   1      44.331  26.660  31.815  1.00  0.00     0.029 A 
ATOM     34  C   UNL A   1      43.440  27.530  32.423  1.00  0.00     0.049 A 
ATOM     35  H   UNL A   1      41.683  28.396  31.637  1.00  0.00     0.167 HD
ATOM     36  C   UNL A   1      42.589  28.938  34.285  1.00  0.00     0.074 A 
ATOM     37  C   UNL A   1      42.662  29.474  35.629  1.00  0.00     0.031 C 
ATOM     38  C   UNL A   1      43.484  28.067  33.759  1.00  0.00     0.037 A 
BRANCH  25  39
ATOM     39  C   UNL A   1      42.289  26.338  27.949  1.00  0.00     0.064 A 
ATOM     40  C   UNL A   1      41.723  25.075  27.721  1.00  0.00     0.173 A 
ATOM     41  C   UNL A   1      43.216  26.821  27.011  1.00  0.00     0.173 A 
ATOM     42  F   UNL A   1      40.843  24.564  28.596  1.00  0.00    -0.203 F 
ATOM     43  C   UNL A   1      42.082  24.320  26.608  1.00  0.00     0.198 A 
ATOM     44  C   UNL A   1      43.556  26.072  25.889  1.00  0.00     0.198 A 
ATOM     45  F   UNL A   1      43.784  28.023  27.181  1.00  0.00    -0.203 F 
ATOM     46  F   UNL A   1      41.557  23.099  26.431  1.00  0.00    -0.200 F 
ATOM     47  C   UNL A   1      42.993  24.820  25.690  1.00  0.00     0.200 A 
ATOM     48  F   UNL A   1      44.432  26.560  24.998  1.00  0.00    -0.200 F 
ATOM     49  F   UNL A   1      43.335  24.093  24.618  1.00  0.00    -0.200 F 
ENDBRANCH  25  39
BRANCH  26  50
ATOM     50  C   UNL A   1      39.173  31.865  35.682  1.00  0.00     0.064 A 
ATOM     51  C   UNL A   1      38.297  31.326  36.633  1.00  0.00     0.173 A 
ATOM     52  C   UNL A   1      39.620  33.180  35.873  1.00  0.00     0.173 A 
ATOM     53  F   UNL A   1      37.831  30.078  36.482  1.00  0.00    -0.203 F 
ATOM     54  C   UNL A   1      37.883  32.076  37.731  1.00  0.00     0.198 A 
ATOM     55  C   UNL A   1      39.225  33.919  36.985  1.00  0.00     0.198 A 
ATOM     56  F   UNL A   1      40.466  33.737  34.993  1.00  0.00    -0.203 F 
ATOM     57  F   UNL A   1      37.024  31.547  38.614  1.00  0.00    -0.200 F 
ATOM     58  C   UNL A   1      38.353  33.368  37.912  1.00  0.00     0.200 A 
ATOM     59  F   UNL A   1      39.697  35.160  37.164  1.00  0.00    -0.200 F 
ATOM     60  F   UNL A   1      37.966  34.082  38.977  1.00  0.00    -0.200 F 
ENDBRANCH  26  50
BRANCH  38  61
ATOM     61  C   UNL A   1      44.616  27.648  34.646  1.00  0.00     0.064 A 
ATOM     62  C   UNL A   1      45.806  28.387  34.705  1.00  0.00     0.173 A 
ATOM     63  C   UNL A   1      44.500  26.513  35.461  1.00  0.00     0.173 A 
ATOM     64  F   UNL A   1      45.967  29.469  33.929  1.00  0.00    -0.203 F 
ATOM     65  C   UNL A   1      46.851  27.991  35.534  1.00  0.00     0.198 A 
ATOM     66  C   UNL A   1      45.538  26.131  36.305  1.00  0.00     0.198 A 
ATOM     67  F   UNL A   1      43.379  25.776  35.439  1.00  0.00    -0.203 F 
ATOM     68  F   UNL A   1      47.996  28.686  35.544  1.00  0.00    -0.200 F 
ATOM     69  C   UNL A   1      46.714  26.867  36.337  1.00  0.00     0.200 A 
ATOM     70  F   UNL A   1      45.404  25.050  37.084  1.00  0.00    -0.200 F 
ATOM     71  F   UNL A   1      47.721  26.488  37.135  1.00  0.00    -0.200 F 
ENDBRANCH  38  61
ENDBRANCH  12  13
ENDBRANCH   5   7
ENDBRANCH   2   3
ENDBRANCH   1   2
BRANCH   1  72
ATOM     72  C   UNL A   1      33.557  28.679  25.150  1.00  0.00     0.118 C 
BRANCH  72  73
ATOM     73  N   UNL A   1      33.947  28.552  23.762  1.00  0.00    -0.351 N 
ATOM     74  C   UNL A   1      33.626  27.663  22.786  1.00  0.00     0.283 C 
ATOM     75  H   UNL A   1      34.573  29.252  23.466  1.00  0.00     0.163 HD
ATOM     76  O   UNL A   1      34.134  27.928  21.682  1.00  0.00    -0.268 OA
BRANCH  74  77
ATOM     77  C   UNL A   1      32.787  26.364  22.946  1.00  0.00     0.308 C 
BRANCH  77  78
ATOM     78  N   UNL A   1      33.513  25.232  23.581  1.00  0.00    -0.312 N 
ATOM     79  C   UNL A   1      33.398  24.908  25.013  1.00  0.00     0.325 C 
ATOM     80  C   UNL A   1      33.815  24.066  22.787  1.00  0.00     0.325 C 
ATOM     81  H   UNL A   1      34.331  25.842  23.593  1.00  0.00     0.349 HD
ATOM     82  C   UNL A   1      33.431  23.360  25.407  1.00  0.00     0.325 C 
ATOM     83  C   UNL A   1      32.747  23.018  23.111  1.00  0.00     0.325 C 
ATOM     84  N   UNL A   1      33.009  22.381  24.382  1.00  0.00    -0.318 N 
ATOM     85  H   UNL A   1      32.129  22.028  24.756  1.00  0.00     0.348 HD
BRANCH  84  86
ATOM     86  C   UNL A   1      33.762  21.121  24.270  1.00  0.00     0.364 C 
BRANCH  86  87
ATOM     87  C   UNL A   1      33.529  20.027  25.332  1.00  0.00     0.277 C 
ATOM     88  O   UNL A   1      33.231  20.341  26.488  1.00  0.00    -0.268 OA
ATOM     89  N   UNL A   1      33.492  18.685  24.917  1.00  0.00    -0.333 N 
ATOM     90  C   UNL A   1      34.595  18.060  24.187  1.00  0.00     0.148 C 
ATOM     91  C   UNL A   1      32.754  17.752  25.769  1.00  0.00     0.148 C 
ATOM     92  C   UNL A   1      34.310  16.664  23.630  1.00  0.00     0.181 C 
ATOM     93  C   UNL A   1      32.459  16.435  25.045  1.00  0.00     0.181 C 
ATOM     94  O   UNL A   1      33.676  15.824  24.596  1.00  0.00    -0.378 OA
ENDBRANCH  86  87
ENDBRANCH  84  86
ENDBRANCH  77  78
BRANCH  77  95
ATOM     95  C   UNL A   1      31.308  26.482  23.356  1.00  0.00     0.044 A 
ATOM     96  C   UNL A   1      30.474  25.552  23.966  1.00  0.00     0.094 A 
ATOM     97  C   UNL A   1      30.438  27.594  23.031  1.00  0.00     0.009 A 
ATOM     98  N   UNL A   1      29.198  26.034  24.028  1.00  0.00    -0.361 N 
ATOM     99  C   UNL A   1      29.143  27.273  23.452  1.00  0.00     0.049 A 
ATOM    100  C   UNL A   1      30.627  28.834  22.381  1.00  0.00     0.014 A 
ATOM    101  H   UNL A   1      28.432  25.560  24.427  1.00  0.00     0.166 HD
ATOM    102  C   UNL A   1      28.041  28.112  23.266  1.00  0.00     0.065 A 
ATOM    103  C   UNL A   1      29.535  29.691  22.189  1.00  0.00     0.040 A 
ATOM    104  C   UNL A   1      28.271  29.325  22.629  1.00  0.00     0.125 A 
ATOM    105  F   UNL A   1      27.240  30.158  22.431  1.00  0.00    -0.207 F 
ENDBRANCH  77  95
ENDBRANCH  74  77
ENDBRANCH  72  73
ENDBRANCH   1  72
TORSDOF 14
ENDMDL
MODEL 3
REMARK VINA RESULT:     -14.2      0.973      7.142
REMARK SMILES O=C(NCCCNC(=O)[C@H](c1c[nH]c2cc(F)ccc12)[NH+]1CC[NH+](CC(=O)N2CCOCC2)CC1)c1ccc(-c2c3nc(c(-c4c(F)c(F)c(F)c(F)c4F)c4ccc([nH]4)c(-c4c(F)c(F)c(F)c(F)c4F)c4nc(c(-c5c(F)c(F)c(F)c(F)c5F)c5ccc2[nH]5)C=C4)C=C3)cc1
REMARK SMILES IDX 5 1 4 2 3 3 1 4 2 5 36 7 37 8 98 9 38 10 97 11 39 12 40 13
REMARK SMILES IDX 41 14 91 15 42 16 96 17 90 18 92 19 43 20 95 21 89 22 88 23
REMARK SMILES IDX 44 25 76 26 56 27 75 28 57 29 60 30 74 31 93 32 58 33 59 34
REMARK SMILES IDX 73 36 94 37 61 38 45 39 46 40 54 41 47 42 48 43 52 44 55 45
REMARK SMILES IDX 49 46 50 47 53 48 51 49 77 50 78 51 86 52 79 53 80 54 84 55
REMARK SMILES IDX 87 56 81 57 82 58 85 59 83 60 62 61 63 62 71 63 64 64 65 65
REMARK SMILES IDX 69 66 72 67 66 68 67 69 70 70 68 71 6 72 7 73 8 74 9 76
REMARK SMILES IDX 10 77 21 78 22 79 35 80 23 82 34 83 24 84 25 86 26 87 27 88
REMARK SMILES IDX 28 89 29 90 33 91 30 92 32 93 31 94 11 95 12 96 20 97 13 98
REMARK SMILES IDX 14 99 19 100 15 102 18 103 16 104 17 105
REMARK H PARENT 3 6 92 24 60 35 7 75 21 81 24 85 13 101
REMARK Flexibility Score: inf
ROOT
ATOM      1  C   UNL A   1      32.995  29.570  25.427  1.00  0.00     0.042 C 
ENDROOT
BRANCH   1   2
ATOM      2  C   UNL A   1      32.401  30.081  26.730  1.00  0.00     0.118 C 
BRANCH   2   3
ATOM      3  N   UNL A   1      32.547  31.523  26.844  1.00  0.00    -0.352 N 
ATOM      4  O   UNL A   1      33.212  33.451  27.773  1.00  0.00    -0.269 OA
ATOM      5  C   UNL A   1      33.462  32.272  27.541  1.00  0.00     0.251 C 
ATOM      6  H   UNL A   1      31.883  32.048  26.340  1.00  0.00     0.163 HD
BRANCH   5   7
ATOM      7  C   UNL A   1      34.752  31.697  27.993  1.00  0.00     0.039 A 
ATOM      8  C   UNL A   1      35.889  32.491  28.156  1.00  0.00     0.014 A 
ATOM      9  C   UNL A   1      34.785  30.355  28.398  1.00  0.00     0.014 A 
ATOM     10  C   UNL A   1      37.068  31.938  28.643  1.00  0.00     0.010 A 
ATOM     11  C   UNL A   1      35.941  29.822  28.977  1.00  0.00     0.010 A 
ATOM     12  C   UNL A   1      37.089  30.615  29.111  1.00  0.00    -0.014 A 
BRANCH  12  13
ATOM     13  C   UNL A   1      38.266  30.144  29.881  1.00  0.00     0.031 A 
ATOM     14  C   UNL A   1      39.269  29.204  29.287  1.00  0.00     0.074 A 
ATOM     15  C   UNL A   1      38.415  30.594  31.143  1.00  0.00     0.049 A 
ATOM     16  N   UNL A   1      40.351  28.707  29.830  1.00  0.00    -0.248 NA
ATOM     17  C   UNL A   1      39.023  28.750  27.911  1.00  0.00     0.031 C 
ATOM     18  C   UNL A   1      37.476  31.486  31.831  1.00  0.00     0.029 A 
ATOM     19  N   UNL A   1      39.408  30.387  32.064  1.00  0.00    -0.354 N 
ATOM     20  C   UNL A   1      40.903  27.864  28.877  1.00  0.00     0.074 A 
ATOM     21  C   UNL A   1      40.030  27.907  27.721  1.00  0.00     0.031 C 
ATOM     22  C   UNL A   1      37.965  31.793  33.041  1.00  0.00     0.029 A 
ATOM     23  C   UNL A   1      39.218  31.075  33.238  1.00  0.00     0.049 A 
ATOM     24  H   UNL A   1      40.182  29.802  31.901  1.00  0.00     0.167 HD
ATOM     25  C   UNL A   1      42.036  27.127  28.964  1.00  0.00     0.037 A 
ATOM     26  C   UNL A   1      39.962  31.115  34.357  1.00  0.00     0.037 A 
ATOM     27  C   UNL A   1      42.907  27.110  30.112  1.00  0.00     0.049 A 
ATOM     28  C   UNL A   1      41.224  30.307  34.413  1.00  0.00     0.074 A 
ATOM     29  C   UNL A   1      44.097  26.425  30.283  1.00  0.00     0.029 A 
ATOM     30  N   UNL A   1      42.679  27.815  31.286  1.00  0.00    -0.354 N 
ATOM     31  N   UNL A   1      41.748  29.534  33.494  1.00  0.00    -0.248 NA
ATOM     32  C   UNL A   1      41.993  30.368  35.662  1.00  0.00     0.031 C 
ATOM     33  C   UNL A   1      44.572  26.688  31.574  1.00  0.00     0.029 A 
ATOM     34  C   UNL A   1      43.698  27.567  32.193  1.00  0.00     0.049 A 
ATOM     35  H   UNL A   1      41.908  28.403  31.451  1.00  0.00     0.167 HD
ATOM     36  C   UNL A   1      42.906  29.015  34.050  1.00  0.00     0.074 A 
ATOM     37  C   UNL A   1      43.024  29.584  35.378  1.00  0.00     0.031 C 
ATOM     38  C   UNL A   1      43.787  28.136  33.512  1.00  0.00     0.037 A 
BRANCH  25  39
ATOM     39  C   UNL A   1      42.393  26.260  27.794  1.00  0.00     0.064 A 
ATOM     40  C   UNL A   1      43.316  26.674  26.823  1.00  0.00     0.173 A 
ATOM     41  C   UNL A   1      41.835  24.978  27.664  1.00  0.00     0.173 A 
ATOM     42  F   UNL A   1      43.866  27.896  26.894  1.00  0.00    -0.203 F 
ATOM     43  C   UNL A   1      43.655  25.844  25.757  1.00  0.00     0.198 A 
ATOM     44  C   UNL A   1      42.192  24.144  26.610  1.00  0.00     0.198 A 
ATOM     45  F   UNL A   1      40.949  24.534  28.567  1.00  0.00    -0.203 F 
ATOM     46  F   UNL A   1      44.511  26.276  24.820  1.00  0.00    -0.200 F 
ATOM     47  C   UNL A   1      43.098  24.578  25.654  1.00  0.00     0.200 A 
ATOM     48  F   UNL A   1      41.658  22.917  26.516  1.00  0.00    -0.200 F 
ATOM     49  F   UNL A   1      43.428  23.781  24.630  1.00  0.00    -0.200 F 
ENDBRANCH  25  39
BRANCH  26  50
ATOM     50  C   UNL A   1      39.523  31.954  35.500  1.00  0.00     0.064 A 
ATOM     51  C   UNL A   1      39.986  33.268  35.648  1.00  0.00     0.173 A 
ATOM     52  C   UNL A   1      38.600  31.474  36.440  1.00  0.00     0.173 A 
ATOM     53  F   UNL A   1      40.882  33.764  34.782  1.00  0.00    -0.203 F 
ATOM     54  C   UNL A   1      39.543  34.070  36.698  1.00  0.00     0.198 A 
ATOM     55  C   UNL A   1      38.138  32.286  37.473  1.00  0.00     0.198 A 
ATOM     56  F   UNL A   1      38.122  30.225  36.336  1.00  0.00    -0.203 F 
ATOM     57  F   UNL A   1      40.020  35.316  36.833  1.00  0.00    -0.200 F 
ATOM     58  C   UNL A   1      38.613  33.582  37.604  1.00  0.00     0.200 A 
ATOM     59  F   UNL A   1      37.227  31.816  38.336  1.00  0.00    -0.200 F 
ATOM     60  F   UNL A   1      38.176  34.360  38.604  1.00  0.00    -0.200 F 
ENDBRANCH  26  50
BRANCH  38  61
ATOM     61  C   UNL A   1      44.953  27.746  34.367  1.00  0.00     0.064 A 
ATOM     62  C   UNL A   1      46.143  28.489  34.359  1.00  0.00     0.173 A 
ATOM     63  C   UNL A   1      44.872  26.635  35.219  1.00  0.00     0.173 A 
ATOM     64  F   UNL A   1      46.270  29.548  33.546  1.00  0.00    -0.203 F 
ATOM     65  C   UNL A   1      47.220  28.119  35.159  1.00  0.00     0.198 A 
ATOM     66  C   UNL A   1      45.943  26.281  36.034  1.00  0.00     0.198 A 
ATOM     67  F   UNL A   1      43.754  25.896  35.262  1.00  0.00    -0.203 F 
ATOM     68  F   UNL A   1      48.363  28.817  35.104  1.00  0.00    -0.200 F 
ATOM     69  C   UNL A   1      47.118  27.020  35.999  1.00  0.00     0.200 A 
ATOM     70  F   UNL A   1      45.842  25.223  36.849  1.00  0.00    -0.200 F 
ATOM     71  F   UNL A   1      48.155  26.666  36.768  1.00  0.00    -0.200 F 
ENDBRANCH  38  61
ENDBRANCH  12  13
ENDBRANCH   5   7
ENDBRANCH   2   3
ENDBRANCH   1   2
BRANCH   1  72
ATOM     72  C   UNL A   1      33.657  28.206  25.558  1.00  0.00     0.118 C 
BRANCH  72  73
ATOM     73  N   UNL A   1      32.813  27.251  26.244  1.00  0.00    -0.351 N 
ATOM     74  C   UNL A   1      31.872  26.369  25.816  1.00  0.00     0.283 C 
ATOM     75  H   UNL A   1      32.948  27.239  27.219  1.00  0.00     0.163 HD
ATOM     76  O   UNL A   1      31.395  25.668  26.725  1.00  0.00    -0.268 OA
BRANCH  74  77
ATOM     77  C   UNL A   1      31.312  26.229  24.372  1.00  0.00     0.308 C 
BRANCH  77  78
ATOM     78  N   UNL A   1      31.656  24.949  23.697  1.00  0.00    -0.312 N 
ATOM     79  C   UNL A   1      32.978  24.684  23.106  1.00  0.00     0.325 C 
ATOM     80  C   UNL A   1      31.008  23.736  24.134  1.00  0.00     0.325 C 
ATOM     81  H   UNL A   1      31.158  25.313  22.884  1.00  0.00     0.349 HD
ATOM     82  C   UNL A   1      33.534  23.190  23.219  1.00  0.00     0.325 C 
ATOM     83  C   UNL A   1      31.986  23.022  25.070  1.00  0.00     0.325 C 
ATOM     84  N   UNL A   1      33.028  22.352  24.327  1.00  0.00    -0.318 N 
ATOM     85  H   UNL A   1      33.846  22.256  24.928  1.00  0.00     0.348 HD
BRANCH  84  86
ATOM     86  C   UNL A   1      32.744  20.933  24.054  1.00  0.00     0.364 C 
BRANCH  86  87
ATOM     87  C   UNL A   1      33.044  19.897  25.157  1.00  0.00     0.277 C 
ATOM     88  O   UNL A   1      33.099  20.249  26.339  1.00  0.00    -0.268 OA
ATOM     89  N   UNL A   1      33.081  18.536  24.808  1.00  0.00    -0.333 N 
ATOM     90  C   UNL A   1      33.966  18.019  23.763  1.00  0.00     0.148 C 
ATOM     91  C   UNL A   1      32.817  17.574  25.878  1.00  0.00     0.148 C 
ATOM     92  C   UNL A   1      33.732  16.560  23.365  1.00  0.00     0.181 C 
ATOM     93  C   UNL A   1      32.508  16.180  25.324  1.00  0.00     0.181 C 
ATOM     94  O   UNL A   1      33.589  15.713  24.506  1.00  0.00    -0.378 OA
ENDBRANCH  86  87
ENDBRANCH  84  86
ENDBRANCH  77  78
BRANCH  77  95
ATOM     95  C   UNL A   1      29.894  26.746  24.072  1.00  0.00     0.044 A 
ATOM     96  C   UNL A   1      28.659  26.152  24.305  1.00  0.00     0.094 A 
ATOM     97  C   UNL A   1      29.586  27.947  23.322  1.00  0.00     0.009 A 
ATOM     98  N   UNL A   1      27.662  26.911  23.761  1.00  0.00    -0.361 N 
ATOM     99  C   UNL A   1      28.199  28.005  23.142  1.00  0.00     0.049 A 
ATOM    100  C   UNL A   1      30.365  28.975  22.746  1.00  0.00     0.014 A 
ATOM    101  H   UNL A   1      26.702  26.700  23.806  1.00  0.00     0.166 HD
ATOM    102  C   UNL A   1      27.555  29.021  22.431  1.00  0.00     0.065 A 
ATOM    103  C   UNL A   1      29.737  30.005  22.033  1.00  0.00     0.040 A 
ATOM    104  C   UNL A   1      28.358  30.017  21.886  1.00  0.00     0.125 A 
ATOM    105  F   UNL A   1      27.779  31.009  21.196  1.00  0.00    -0.207 F 
ENDBRANCH  77  95
ENDBRANCH  74  77
ENDBRANCH  72  73
ENDBRANCH   1  72
TORSDOF 14
ENDMDL
