MODEL 1
REMARK VINA RESULT:     -10.2      0.000      0.000
REMARK SMILES CC(=O)O[C@@H](C)c1nc2ccc(C(=O)NCCCNC(=O)c3ccc(-c4c5nc(c(-c6c(F)c(F)c(F)c(F)c6F)c6ccc([nH]6)c(-c6c(F)c(F)c(F)c(F)c6F)c6nc(c(-c7c(F)c(F)c(F)c(F)c7F)c7ccc4[nH]7)C=C6)C=C5)cc3)cc2[nH]1
REMARK SMILES IDX 16 1 15 2 13 3 14 4 12 6 7 7 8 8 87 9 9 10 86 11 10 13 85 14
REMARK SMILES IDX 11 15 5 16 6 17 4 18 2 19 1 20 3 21 17 22 18 23 19 24 20 25
REMARK SMILES IDX 21 27 22 28 23 29 84 30 24 31 83 32 25 33 26 34 27 35 77 36
REMARK SMILES IDX 28 37 82 38 76 39 78 40 29 41 81 42 75 43 74 44 30 46 62 47
REMARK SMILES IDX 42 48 61 49 43 50 46 51 60 52 79 53 44 54 45 55 59 57 80 58
REMARK SMILES IDX 47 59 31 60 32 61 40 62 33 63 34 64 38 65 41 66 35 67 36 68
REMARK SMILES IDX 39 69 37 70 63 71 64 72 72 73 65 74 66 75 70 76 73 77 67 78
REMARK SMILES IDX 68 79 71 80 69 81 48 82 49 83 57 84 50 85 51 86 55 87 58 88
REMARK SMILES IDX 52 89 53 90 56 91 54 92
REMARK H PARENT 15 5 87 12 19 26 78 45 46 56
REMARK Flexibility Score: inf
ROOT
ATOM      1  C   UNL A   1      42.965  21.240  26.369  1.00  0.00     0.118 C 
ENDROOT
BRANCH   1   2
ATOM      2  N   UNL A   1      43.474  21.410  25.023  1.00  0.00    -0.352 N 
ATOM      3  C   UNL A   1      44.241  22.381  24.436  1.00  0.00     0.251 C 
ATOM      4  O   UNL A   1      44.528  22.219  23.248  1.00  0.00    -0.269 OA
ATOM      5  H   UNL A   1      43.216  20.685  24.409  1.00  0.00     0.163 HD
BRANCH   3   6
ATOM      6  C   UNL A   1      44.773  23.576  25.156  1.00  0.00     0.042 A 
ATOM      7  C   UNL A   1      44.920  27.928  26.473  1.00  0.00     0.148 A 
ATOM      8  N   UNL A   1      45.890  27.165  26.939  1.00  0.00    -0.229 NA
ATOM      9  N   UNL A   1      44.167  27.240  25.550  1.00  0.00    -0.339 N 
ATOM     10  C   UNL A   1      45.655  25.920  26.426  1.00  0.00     0.089 A 
ATOM     11  C   UNL A   1      44.592  25.939  25.538  1.00  0.00     0.066 A 
ATOM     12  H   UNL A   1      43.446  27.618  24.995  1.00  0.00     0.168 HD
ATOM     13  C   UNL A   1      46.290  24.710  26.710  1.00  0.00     0.031 A 
ATOM     14  C   UNL A   1      44.135  24.800  24.870  1.00  0.00     0.042 A 
ATOM     15  C   UNL A   1      45.806  23.542  26.103  1.00  0.00     0.016 A 
BRANCH   7  16
ATOM     16  C   UNL A   1      44.634  29.340  26.872  1.00  0.00     0.239 C 
ATOM     17  C   UNL A   1      43.143  29.667  26.892  1.00  0.00     0.062 C 
BRANCH  16  18
ATOM     18  O   UNL A   1      45.394  30.268  26.057  1.00  0.00    -0.455 OA
BRANCH  18  19
ATOM     19  C   UNL A   1      46.383  31.009  26.630  1.00  0.00     0.303 C 
ATOM     20  C   UNL A   1      45.779  32.066  27.503  1.00  0.00     0.139 C 
ATOM     21  O   UNL A   1      47.582  30.843  26.495  1.00  0.00    -0.253 OA
ENDBRANCH  18  19
ENDBRANCH  16  18
ENDBRANCH   7  16
ENDBRANCH   3   6
ENDBRANCH   1   2
BRANCH   1  22
ATOM     22  C   UNL A   1      41.836  22.231  26.650  1.00  0.00     0.042 C 
BRANCH  22  23
ATOM     23  C   UNL A   1      40.501  21.544  26.920  1.00  0.00     0.118 C 
BRANCH  23  24
ATOM     24  N   UNL A   1      39.469  22.003  26.001  1.00  0.00    -0.352 N 
ATOM     25  C   UNL A   1      38.767  23.178  25.970  1.00  0.00     0.251 C 
ATOM     26  H   UNL A   1      39.240  21.366  25.285  1.00  0.00     0.163 HD
ATOM     27  O   UNL A   1      37.750  23.255  25.286  1.00  0.00    -0.269 OA
BRANCH  25  28
ATOM     28  C   UNL A   1      39.225  24.353  26.739  1.00  0.00     0.039 A 
ATOM     29  C   UNL A   1      38.817  24.483  28.070  1.00  0.00     0.014 A 
ATOM     30  C   UNL A   1      39.989  25.358  26.140  1.00  0.00     0.014 A 
ATOM     31  C   UNL A   1      39.201  25.605  28.805  1.00  0.00     0.010 A 
ATOM     32  C   UNL A   1      40.444  26.431  26.899  1.00  0.00     0.010 A 
ATOM     33  C   UNL A   1      40.036  26.577  28.232  1.00  0.00    -0.014 A 
BRANCH  33  34
ATOM     34  C   UNL A   1      40.471  27.763  29.009  1.00  0.00     0.031 A 
ATOM     35  C   UNL A   1      41.870  27.838  29.557  1.00  0.00     0.074 A 
ATOM     36  C   UNL A   1      39.591  28.751  29.256  1.00  0.00     0.049 A 
ATOM     37  N   UNL A   1      42.425  28.771  30.290  1.00  0.00    -0.248 NA
ATOM     38  C   UNL A   1      42.757  26.699  29.268  1.00  0.00     0.031 C 
ATOM     39  C   UNL A   1      38.195  28.766  28.818  1.00  0.00     0.029 A 
ATOM     40  N   UNL A   1      39.737  29.932  29.940  1.00  0.00    -0.354 N 
ATOM     41  C   UNL A   1      43.713  28.325  30.558  1.00  0.00     0.074 A 
ATOM     42  C   UNL A   1      43.840  27.013  29.963  1.00  0.00     0.031 C 
ATOM     43  C   UNL A   1      37.621  29.912  29.216  1.00  0.00     0.029 A 
ATOM     44  C   UNL A   1      38.594  30.693  29.973  1.00  0.00     0.049 A 
ATOM     45  H   UNL A   1      40.580  30.207  30.366  1.00  0.00     0.167 HD
ATOM     46  C   UNL A   1      44.708  28.966  31.217  1.00  0.00     0.037 A 
ATOM     47  C   UNL A   1      38.359  31.883  30.554  1.00  0.00     0.037 A 
ATOM     48  C   UNL A   1      44.579  30.281  31.790  1.00  0.00     0.049 A 
ATOM     49  C   UNL A   1      39.480  32.570  31.286  1.00  0.00     0.074 A 
ATOM     50  C   UNL A   1      45.538  31.041  32.432  1.00  0.00     0.029 A 
ATOM     51  N   UNL A   1      43.408  31.027  31.792  1.00  0.00    -0.354 N 
ATOM     52  N   UNL A   1      40.716  32.172  31.472  1.00  0.00    -0.248 NA
ATOM     53  C   UNL A   1      39.176  33.878  31.880  1.00  0.00     0.031 C 
ATOM     54  C   UNL A   1      44.935  32.223  32.873  1.00  0.00     0.029 A 
ATOM     55  C   UNL A   1      43.617  32.231  32.446  1.00  0.00     0.049 A 
ATOM     56  H   UNL A   1      42.556  30.744  31.389  1.00  0.00     0.167 HD
ATOM     57  C   UNL A   1      41.345  33.192  32.173  1.00  0.00     0.074 A 
ATOM     58  C   UNL A   1      40.358  34.235  32.362  1.00  0.00     0.031 C 
ATOM     59  C   UNL A   1      42.623  33.261  32.619  1.00  0.00     0.037 A 
BRANCH  46  60
ATOM     60  C   UNL A   1      46.024  28.253  31.355  1.00  0.00     0.064 A 
ATOM     61  C   UNL A   1      46.281  27.373  32.419  1.00  0.00     0.173 A 
ATOM     62  C   UNL A   1      47.034  28.425  30.395  1.00  0.00     0.173 A 
ATOM     63  F   UNL A   1      45.357  27.178  33.372  1.00  0.00    -0.203 F 
ATOM     64  C   UNL A   1      47.506  26.722  32.534  1.00  0.00     0.198 A 
ATOM     65  C   UNL A   1      48.244  27.745  30.494  1.00  0.00     0.198 A 
ATOM     66  F   UNL A   1      46.843  29.250  29.353  1.00  0.00    -0.203 F 
ATOM     67  F   UNL A   1      47.747  25.931  33.589  1.00  0.00    -0.200 F 
ATOM     68  C   UNL A   1      48.484  26.902  31.567  1.00  0.00     0.200 A 
ATOM     69  F   UNL A   1      49.182  27.908  29.549  1.00  0.00    -0.200 F 
ATOM     70  F   UNL A   1      49.659  26.267  31.675  1.00  0.00    -0.200 F 
ENDBRANCH  46  60
BRANCH  47  71
ATOM     71  C   UNL A   1      37.017  32.513  30.443  1.00  0.00     0.064 A 
ATOM     72  C   UNL A   1      36.683  33.312  29.340  1.00  0.00     0.173 A 
ATOM     73  C   UNL A   1      36.043  32.337  31.438  1.00  0.00     0.173 A 
ATOM     74  F   UNL A   1      37.585  33.524  28.371  1.00  0.00    -0.203 F 
ATOM     75  C   UNL A   1      35.439  33.932  29.250  1.00  0.00     0.198 A 
ATOM     76  C   UNL A   1      34.788  32.931  31.330  1.00  0.00     0.198 A 
ATOM     77  F   UNL A   1      36.308  31.576  32.511  1.00  0.00    -0.203 F 
ATOM     78  F   UNL A   1      35.166  34.733  28.211  1.00  0.00    -0.200 F 
ATOM     79  C   UNL A   1      34.490  33.736  30.242  1.00  0.00     0.200 A 
ATOM     80  F   UNL A   1      33.867  32.725  32.282  1.00  0.00    -0.200 F 
ATOM     81  F   UNL A   1      33.292  34.330  30.153  1.00  0.00    -0.200 F 
ENDBRANCH  47  71
BRANCH  59  82
ATOM     82  C   UNL A   1      43.041  34.527  33.312  1.00  0.00     0.064 A 
ATOM     83  C   UNL A   1      43.037  34.642  34.711  1.00  0.00     0.173 A 
ATOM     84  C   UNL A   1      43.473  35.634  32.565  1.00  0.00     0.173 A 
ATOM     85  F   UNL A   1      42.621  33.619  35.473  1.00  0.00    -0.203 F 
ATOM     86  C   UNL A   1      43.414  35.830  35.332  1.00  0.00     0.198 A 
ATOM     87  C   UNL A   1      43.885  36.806  33.191  1.00  0.00     0.198 A 
ATOM     88  F   UNL A   1      43.505  35.574  31.225  1.00  0.00    -0.203 F 
ATOM     89  F   UNL A   1      43.342  35.939  36.666  1.00  0.00    -0.200 F 
ATOM     90  C   UNL A   1      43.844  36.908  34.572  1.00  0.00     0.200 A 
ATOM     91  F   UNL A   1      44.318  37.839  32.455  1.00  0.00    -0.200 F 
ATOM     92  F   UNL A   1      44.211  38.049  35.172  1.00  0.00    -0.200 F 
ENDBRANCH  59  82
ENDBRANCH  33  34
ENDBRANCH  25  28
ENDBRANCH  23  24
ENDBRANCH  22  23
ENDBRANCH   1  22
TORSDOF 13
ENDMDL
MODEL 2
REMARK VINA RESULT:     -10.2      3.804     10.238
REMARK SMILES CC(=O)O[C@@H](C)c1nc2ccc(C(=O)NCCCNC(=O)c3ccc(-c4c5nc(c(-c6c(F)c(F)c(F)c(F)c6F)c6ccc([nH]6)c(-c6c(F)c(F)c(F)c(F)c6F)c6nc(c(-c7c(F)c(F)c(F)c(F)c7F)c7ccc4[nH]7)C=C6)C=C5)cc3)cc2[nH]1
REMARK SMILES IDX 16 1 15 2 13 3 14 4 12 6 7 7 8 8 87 9 9 10 86 11 10 13 85 14
REMARK SMILES IDX 11 15 5 16 6 17 4 18 2 19 1 20 3 21 17 22 18 23 19 24 20 25
REMARK SMILES IDX 21 27 22 28 23 29 84 30 24 31 83 32 25 33 26 34 27 35 77 36
REMARK SMILES IDX 28 37 82 38 76 39 78 40 29 41 81 42 75 43 74 44 30 46 62 47
REMARK SMILES IDX 42 48 61 49 43 50 46 51 60 52 79 53 44 54 45 55 59 57 80 58
REMARK SMILES IDX 47 59 31 60 32 61 40 62 33 63 34 64 38 65 41 66 35 67 36 68
REMARK SMILES IDX 39 69 37 70 63 71 64 72 72 73 65 74 66 75 70 76 73 77 67 78
REMARK SMILES IDX 68 79 71 80 69 81 48 82 49 83 57 84 50 85 51 86 55 87 58 88
REMARK SMILES IDX 52 89 53 90 56 91 54 92
REMARK H PARENT 15 5 87 12 19 26 78 45 46 56
REMARK Flexibility Score: inf
ROOT
ATOM      1  C   UNL A   1      34.863  34.301  30.126  1.00  0.00     0.118 C 
ENDROOT
BRANCH   1   2
ATOM      2  N   UNL A   1      34.053  33.911  31.263  1.00  0.00    -0.352 N 
ATOM      3  C   UNL A   1      34.361  33.346  32.472  1.00  0.00     0.251 C 
ATOM      4  O   UNL A   1      33.424  33.153  33.249  1.00  0.00    -0.269 OA
ATOM      5  H   UNL A   1      33.092  34.086  31.141  1.00  0.00     0.163 HD
BRANCH   3   6
ATOM      6  C   UNL A   1      35.747  33.001  32.906  1.00  0.00     0.042 A 
ATOM      7  C   UNL A   1      39.319  30.294  33.689  1.00  0.00     0.148 A 
ATOM      8  N   UNL A   1      39.492  31.562  34.008  1.00  0.00    -0.229 NA
ATOM      9  N   UNL A   1      38.011  30.061  33.332  1.00  0.00    -0.339 N 
ATOM     10  C   UNL A   1      38.315  32.182  33.696  1.00  0.00     0.089 A 
ATOM     11  C   UNL A   1      37.360  31.265  33.287  1.00  0.00     0.066 A 
ATOM     12  H   UNL A   1      37.612  29.181  33.143  1.00  0.00     0.168 HD
ATOM     13  C   UNL A   1      38.001  33.542  33.699  1.00  0.00     0.031 A 
ATOM     14  C   UNL A   1      36.067  31.627  32.905  1.00  0.00     0.042 A 
ATOM     15  C   UNL A   1      36.729  33.937  33.257  1.00  0.00     0.016 A 
BRANCH   7  16
ATOM     16  C   UNL A   1      40.369  29.229  33.687  1.00  0.00     0.239 C 
ATOM     17  C   UNL A   1      40.060  28.084  32.726  1.00  0.00     0.062 C 
BRANCH  16  18
ATOM     18  O   UNL A   1      40.632  28.765  35.036  1.00  0.00    -0.455 OA
BRANCH  18  19
ATOM     19  C   UNL A   1      41.882  28.898  35.558  1.00  0.00     0.303 C 
ATOM     20  C   UNL A   1      42.890  28.935  34.451  1.00  0.00     0.139 C 
ATOM     21  O   UNL A   1      42.166  29.002  36.738  1.00  0.00    -0.253 OA
ENDBRANCH  18  19
ENDBRANCH  16  18
ENDBRANCH   7  16
ENDBRANCH   3   6
ENDBRANCH   1   2
BRANCH   1  22
ATOM     22  C   UNL A   1      35.447  33.073  29.430  1.00  0.00     0.042 C 
BRANCH  22  23
ATOM     23  C   UNL A   1      34.848  32.839  28.046  1.00  0.00     0.118 C 
BRANCH  23  24
ATOM     24  N   UNL A   1      34.100  31.590  27.992  1.00  0.00    -0.352 N 
ATOM     25  C   UNL A   1      34.538  30.296  27.906  1.00  0.00     0.251 C 
ATOM     26  H   UNL A   1      33.121  31.694  28.023  1.00  0.00     0.163 HD
ATOM     27  O   UNL A   1      33.747  29.411  27.591  1.00  0.00    -0.269 OA
BRANCH  25  28
ATOM     28  C   UNL A   1      35.945  29.954  28.198  1.00  0.00     0.039 A 
ATOM     29  C   UNL A   1      36.275  29.514  29.483  1.00  0.00     0.014 A 
ATOM     30  C   UNL A   1      36.948  30.130  27.240  1.00  0.00     0.014 A 
ATOM     31  C   UNL A   1      37.603  29.225  29.796  1.00  0.00     0.010 A 
ATOM     32  C   UNL A   1      38.256  29.757  27.527  1.00  0.00     0.010 A 
ATOM     33  C   UNL A   1      38.602  29.322  28.814  1.00  0.00    -0.014 A 
BRANCH  33  34
ATOM     34  C   UNL A   1      40.014  28.995  29.127  1.00  0.00     0.031 A 
ATOM     35  C   UNL A   1      40.862  29.965  29.903  1.00  0.00     0.074 A 
ATOM     36  C   UNL A   1      40.542  27.843  28.673  1.00  0.00     0.049 A 
ATOM     37  N   UNL A   1      42.124  29.877  30.241  1.00  0.00    -0.248 NA
ATOM     38  C   UNL A   1      40.214  31.216  30.333  1.00  0.00     0.031 C 
ATOM     39  C   UNL A   1      39.831  26.848  27.869  1.00  0.00     0.029 A 
ATOM     40  N   UNL A   1      41.800  27.315  28.817  1.00  0.00    -0.354 N 
ATOM     41  C   UNL A   1      42.421  31.059  30.908  1.00  0.00     0.074 A 
ATOM     42  C   UNL A   1      41.228  31.875  30.873  1.00  0.00     0.031 C 
ATOM     43  C   UNL A   1      40.652  25.817  27.617  1.00  0.00     0.029 A 
ATOM     44  C   UNL A   1      41.959  26.097  28.204  1.00  0.00     0.049 A 
ATOM     45  H   UNL A   1      42.520  27.767  29.313  1.00  0.00     0.167 HD
ATOM     46  C   UNL A   1      43.576  31.418  31.517  1.00  0.00     0.037 A 
ATOM     47  C   UNL A   1      43.039  25.299  28.122  1.00  0.00     0.037 A 
ATOM     48  C   UNL A   1      44.753  30.591  31.562  1.00  0.00     0.049 A 
ATOM     49  C   UNL A   1      44.312  25.726  28.801  1.00  0.00     0.074 A 
ATOM     50  C   UNL A   1      45.958  30.836  32.195  1.00  0.00     0.029 A 
ATOM     51  N   UNL A   1      44.872  29.355  30.940  1.00  0.00    -0.354 N 
ATOM     52  N   UNL A   1      44.561  26.814  29.490  1.00  0.00    -0.248 NA
ATOM     53  C   UNL A   1      45.453  24.806  28.701  1.00  0.00     0.031 C 
ATOM     54  C   UNL A   1      46.825  29.777  31.910  1.00  0.00     0.029 A 
ATOM     55  C   UNL A   1      46.140  28.837  31.157  1.00  0.00     0.049 A 
ATOM     56  H   UNL A   1      44.162  28.912  30.422  1.00  0.00     0.167 HD
ATOM     57  C   UNL A   1      45.871  26.695  29.933  1.00  0.00     0.074 A 
ATOM     58  C   UNL A   1      46.359  25.419  29.450  1.00  0.00     0.031 C 
ATOM     59  C   UNL A   1      46.605  27.561  30.673  1.00  0.00     0.037 A 
BRANCH  46  60
ATOM     60  C   UNL A   1      43.623  32.766  32.182  1.00  0.00     0.064 A 
ATOM     61  C   UNL A   1      43.182  32.954  33.502  1.00  0.00     0.173 A 
ATOM     62  C   UNL A   1      44.145  33.878  31.504  1.00  0.00     0.173 A 
ATOM     63  F   UNL A   1      42.664  31.929  34.195  1.00  0.00    -0.203 F 
ATOM     64  C   UNL A   1      43.231  34.210  34.104  1.00  0.00     0.198 A 
ATOM     65  C   UNL A   1      44.225  35.124  32.122  1.00  0.00     0.198 A 
ATOM     66  F   UNL A   1      44.586  33.756  30.243  1.00  0.00    -0.203 F 
ATOM     67  F   UNL A   1      42.751  34.375  35.344  1.00  0.00    -0.200 F 
ATOM     68  C   UNL A   1      43.759  35.291  33.416  1.00  0.00     0.200 A 
ATOM     69  F   UNL A   1      44.751  36.165  31.460  1.00  0.00    -0.200 F 
ATOM     70  F   UNL A   1      43.813  36.496  33.999  1.00  0.00    -0.200 F 
ENDBRANCH  46  60
BRANCH  47  71
ATOM     71  C   UNL A   1      42.956  24.006  27.392  1.00  0.00     0.064 A 
ATOM     72  C   UNL A   1      42.500  22.845  28.032  1.00  0.00     0.173 A 
ATOM     73  C   UNL A   1      43.335  23.901  26.046  1.00  0.00     0.173 A 
ATOM     74  F   UNL A   1      42.141  22.889  29.323  1.00  0.00    -0.203 F 
ATOM     75  C   UNL A   1      42.453  21.624  27.362  1.00  0.00     0.198 A 
ATOM     76  C   UNL A   1      43.256  22.687  25.367  1.00  0.00     0.198 A 
ATOM     77  F   UNL A   1      43.771  24.984  25.384  1.00  0.00    -0.203 F 
ATOM     78  F   UNL A   1      42.064  20.519  28.013  1.00  0.00    -0.200 F 
ATOM     79  C   UNL A   1      42.825  21.547  26.029  1.00  0.00     0.200 A 
ATOM     80  F   UNL A   1      43.600  22.621  24.074  1.00  0.00    -0.200 F 
ATOM     81  F   UNL A   1      42.778  20.374  25.384  1.00  0.00    -0.200 F 
ENDBRANCH  47  71
BRANCH  59  82
ATOM     82  C   UNL A   1      47.997  27.137  31.047  1.00  0.00     0.064 A 
ATOM     83  C   UNL A   1      49.111  27.476  30.263  1.00  0.00     0.173 A 
ATOM     84  C   UNL A   1      48.221  26.399  32.219  1.00  0.00     0.173 A 
ATOM     85  F   UNL A   1      48.952  28.169  29.126  1.00  0.00    -0.203 F 
ATOM     86  C   UNL A   1      50.391  27.059  30.621  1.00  0.00     0.198 A 
ATOM     87  C   UNL A   1      49.506  26.017  32.593  1.00  0.00     0.198 A 
ATOM     88  F   UNL A   1      47.192  26.057  33.010  1.00  0.00    -0.203 F 
ATOM     89  F   UNL A   1      51.432  27.339  29.825  1.00  0.00    -0.200 F 
ATOM     90  C   UNL A   1      50.588  26.336  31.789  1.00  0.00     0.200 A 
ATOM     91  F   UNL A   1      49.695  25.335  33.732  1.00  0.00    -0.200 F 
ATOM     92  F   UNL A   1      51.821  25.940  32.133  1.00  0.00    -0.200 F 
ENDBRANCH  59  82
ENDBRANCH  33  34
ENDBRANCH  25  28
ENDBRANCH  23  24
ENDBRANCH  22  23
ENDBRANCH   1  22
TORSDOF 13
ENDMDL
MODEL 3
REMARK VINA RESULT:     -10.1      4.480     10.372
REMARK SMILES CC(=O)O[C@@H](C)c1nc2ccc(C(=O)NCCCNC(=O)c3ccc(-c4c5nc(c(-c6c(F)c(F)c(F)c(F)c6F)c6ccc([nH]6)c(-c6c(F)c(F)c(F)c(F)c6F)c6nc(c(-c7c(F)c(F)c(F)c(F)c7F)c7ccc4[nH]7)C=C6)C=C5)cc3)cc2[nH]1
REMARK SMILES IDX 16 1 15 2 13 3 14 4 12 6 7 7 8 8 87 9 9 10 86 11 10 13 85 14
REMARK SMILES IDX 11 15 5 16 6 17 4 18 2 19 1 20 3 21 17 22 18 23 19 24 20 25
REMARK SMILES IDX 21 27 22 28 23 29 84 30 24 31 83 32 25 33 26 34 27 35 77 36
REMARK SMILES IDX 28 37 82 38 76 39 78 40 29 41 81 42 75 43 74 44 30 46 62 47
REMARK SMILES IDX 42 48 61 49 43 50 46 51 60 52 79 53 44 54 45 55 59 57 80 58
REMARK SMILES IDX 47 59 31 60 32 61 40 62 33 63 34 64 38 65 41 66 35 67 36 68
REMARK SMILES IDX 39 69 37 70 63 71 64 72 72 73 65 74 66 75 70 76 73 77 67 78
REMARK SMILES IDX 68 79 71 80 69 81 48 82 49 83 57 84 50 85 51 86 55 87 58 88
REMARK SMILES IDX 52 89 53 90 56 91 54 92
REMARK H PARENT 15 5 87 12 19 26 78 45 46 56
REMARK Flexibility Score: inf
ROOT
ATOM      1  C   UNL A   1      31.585  30.805  26.776  1.00  0.00     0.118 C 
ENDROOT
BRANCH   1   2
ATOM      2  N   UNL A   1      32.902  30.455  27.272  1.00  0.00    -0.352 N 
ATOM      3  C   UNL A   1      33.623  29.290  27.251  1.00  0.00     0.251 C 
ATOM      4  O   UNL A   1      34.749  29.326  27.750  1.00  0.00    -0.269 OA
ATOM      5  H   UNL A   1      33.369  31.201  27.712  1.00  0.00     0.163 HD
BRANCH   3   6
ATOM      6  C   UNL A   1      33.144  28.021  26.628  1.00  0.00     0.042 A 
ATOM      7  C   UNL A   1      33.454  24.209  24.164  1.00  0.00     0.148 A 
ATOM      8  N   UNL A   1      32.266  24.447  24.687  1.00  0.00    -0.229 NA
ATOM      9  N   UNL A   1      34.293  25.280  24.366  1.00  0.00    -0.339 N 
ATOM     10  C   UNL A   1      32.397  25.621  25.373  1.00  0.00     0.089 A 
ATOM     11  C   UNL A   1      33.651  26.177  25.177  1.00  0.00     0.066 A 
ATOM     12  H   UNL A   1      35.198  25.383  23.991  1.00  0.00     0.168 HD
ATOM     13  C   UNL A   1      31.492  26.257  26.226  1.00  0.00     0.031 A 
ATOM     14  C   UNL A   1      34.055  27.378  25.765  1.00  0.00     0.042 A 
ATOM     15  C   UNL A   1      31.899  27.429  26.880  1.00  0.00     0.016 A 
BRANCH   7  16
ATOM     16  C   UNL A   1      33.876  22.961  23.456  1.00  0.00     0.239 C 
ATOM     17  C   UNL A   1      32.708  22.036  23.126  1.00  0.00     0.062 C 
BRANCH  16  18
ATOM     18  O   UNL A   1      34.929  22.286  24.190  1.00  0.00    -0.455 OA
BRANCH  18  19
ATOM     19  C   UNL A   1      36.210  22.350  23.735  1.00  0.00     0.303 C 
ATOM     20  C   UNL A   1      37.100  21.526  24.615  1.00  0.00     0.139 C 
ATOM     21  O   UNL A   1      36.600  22.953  22.751  1.00  0.00    -0.253 OA
ENDBRANCH  18  19
ENDBRANCH  16  18
ENDBRANCH   7  16
ENDBRANCH   3   6
ENDBRANCH   1   2
BRANCH   1  22
ATOM     22  C   UNL A   1      31.389  32.320  26.785  1.00  0.00     0.042 C 
BRANCH  22  23
ATOM     23  C   UNL A   1      32.706  33.085  26.892  1.00  0.00     0.118 C 
BRANCH  23  24
ATOM     24  N   UNL A   1      32.540  34.331  27.626  1.00  0.00    -0.352 N 
ATOM     25  C   UNL A   1      33.085  34.742  28.812  1.00  0.00     0.251 C 
ATOM     26  H   UNL A   1      31.938  34.985  27.200  1.00  0.00     0.163 HD
ATOM     27  O   UNL A   1      32.602  35.708  29.397  1.00  0.00    -0.269 OA
BRANCH  25  28
ATOM     28  C   UNL A   1      34.252  34.044  29.389  1.00  0.00     0.039 A 
ATOM     29  C   UNL A   1      34.031  33.018  30.313  1.00  0.00     0.014 A 
ATOM     30  C   UNL A   1      35.558  34.440  29.083  1.00  0.00     0.014 A 
ATOM     31  C   UNL A   1      35.117  32.372  30.904  1.00  0.00     0.010 A 
ATOM     32  C   UNL A   1      36.638  33.736  29.606  1.00  0.00     0.010 A 
ATOM     33  C   UNL A   1      36.430  32.711  30.538  1.00  0.00    -0.014 A 
BRANCH  33  34
ATOM     34  C   UNL A   1      37.593  32.016  31.141  1.00  0.00     0.031 A 
ATOM     35  C   UNL A   1      38.058  32.379  32.525  1.00  0.00     0.074 A 
ATOM     36  C   UNL A   1      38.254  31.090  30.423  1.00  0.00     0.049 A 
ATOM     37  N   UNL A   1      39.074  31.914  33.206  1.00  0.00    -0.248 NA
ATOM     38  C   UNL A   1      37.297  33.427  33.226  1.00  0.00     0.031 C 
ATOM     39  C   UNL A   1      37.926  30.690  29.054  1.00  0.00     0.029 A 
ATOM     40  N   UNL A   1      39.344  30.319  30.741  1.00  0.00    -0.354 N 
ATOM     41  C   UNL A   1      39.081  32.618  34.404  1.00  0.00     0.074 A 
ATOM     42  C   UNL A   1      38.007  33.584  34.333  1.00  0.00     0.031 C 
ATOM     43  C   UNL A   1      38.774  29.727  28.661  1.00  0.00     0.029 A 
ATOM     44  C   UNL A   1      39.732  29.472  29.732  1.00  0.00     0.049 A 
ATOM     45  H   UNL A   1      39.804  30.369  31.610  1.00  0.00     0.167 HD
ATOM     46  C   UNL A   1      39.892  32.454  35.476  1.00  0.00     0.037 A 
ATOM     47  C   UNL A   1      40.750  28.595  29.677  1.00  0.00     0.037 A 
ATOM     48  C   UNL A   1      40.947  31.476  35.545  1.00  0.00     0.049 A 
ATOM     49  C   UNL A   1      41.641  28.436  30.880  1.00  0.00     0.074 A 
ATOM     50  C   UNL A   1      41.792  31.191  36.601  1.00  0.00     0.029 A 
ATOM     51  N   UNL A   1      41.302  30.626  34.507  1.00  0.00    -0.354 N 
ATOM     52  N   UNL A   1      41.594  29.057  32.034  1.00  0.00    -0.248 NA
ATOM     53  C   UNL A   1      42.721  27.446  30.775  1.00  0.00     0.031 C 
ATOM     54  C   UNL A   1      42.696  30.208  36.184  1.00  0.00     0.029 A 
ATOM     55  C   UNL A   1      42.371  29.831  34.891  1.00  0.00     0.049 A 
ATOM     56  H   UNL A   1      40.861  30.591  33.628  1.00  0.00     0.167 HD
ATOM     57  C   UNL A   1      42.612  28.511  32.804  1.00  0.00     0.074 A 
ATOM     58  C   UNL A   1      43.248  27.495  31.990  1.00  0.00     0.031 C 
ATOM     59  C   UNL A   1      42.987  28.820  34.069  1.00  0.00     0.037 A 
BRANCH  46  60
ATOM     60  C   UNL A   1      39.671  33.352  36.661  1.00  0.00     0.064 A 
ATOM     61  C   UNL A   1      40.331  34.585  36.787  1.00  0.00     0.173 A 
ATOM     62  C   UNL A   1      38.766  32.991  37.671  1.00  0.00     0.173 A 
ATOM     63  F   UNL A   1      41.215  34.977  35.858  1.00  0.00    -0.203 F 
ATOM     64  C   UNL A   1      40.117  35.405  37.893  1.00  0.00     0.198 A 
ATOM     65  C   UNL A   1      38.528  33.830  38.757  1.00  0.00     0.198 A 
ATOM     66  F   UNL A   1      38.103  31.826  37.602  1.00  0.00    -0.203 F 
ATOM     67  F   UNL A   1      40.801  36.551  38.017  1.00  0.00    -0.200 F 
ATOM     68  C   UNL A   1      39.210  35.031  38.872  1.00  0.00     0.200 A 
ATOM     69  F   UNL A   1      37.639  33.473  39.695  1.00  0.00    -0.200 F 
ATOM     70  F   UNL A   1      38.999  35.825  39.931  1.00  0.00    -0.200 F 
ENDBRANCH  46  60
BRANCH  47  71
ATOM     71  C   UNL A   1      40.964  27.778  28.452  1.00  0.00     0.064 A 
ATOM     72  C   UNL A   1      41.812  28.223  27.428  1.00  0.00     0.173 A 
ATOM     73  C   UNL A   1      40.324  26.542  28.278  1.00  0.00     0.173 A 
ATOM     74  F   UNL A   1      42.434  29.405  27.540  1.00  0.00    -0.203 F 
ATOM     75  C   UNL A   1      41.988  27.477  26.264  1.00  0.00     0.198 A 
ATOM     76  C   UNL A   1      40.527  25.782  27.129  1.00  0.00     0.198 A 
ATOM     77  F   UNL A   1      39.509  26.067  29.232  1.00  0.00    -0.203 F 
ATOM     78  F   UNL A   1      42.761  27.951  25.278  1.00  0.00    -0.200 F 
ATOM     79  C   UNL A   1      41.351  26.254  26.119  1.00  0.00     0.200 A 
ATOM     80  F   UNL A   1      39.923  24.592  26.999  1.00  0.00    -0.200 F 
ATOM     81  F   UNL A   1      41.522  25.535  25.001  1.00  0.00    -0.200 F 
ENDBRANCH  47  71
BRANCH  59  82
ATOM     82  C   UNL A   1      44.107  28.017  34.669  1.00  0.00     0.064 A 
ATOM     83  C   UNL A   1      43.875  26.807  35.340  1.00  0.00     0.173 A 
ATOM     84  C   UNL A   1      45.434  28.457  34.549  1.00  0.00     0.173 A 
ATOM     85  F   UNL A   1      42.623  26.348  35.493  1.00  0.00    -0.203 F 
ATOM     86  C   UNL A   1      44.927  26.086  35.900  1.00  0.00     0.198 A 
ATOM     87  C   UNL A   1      46.486  27.714  35.078  1.00  0.00     0.198 A 
ATOM     88  F   UNL A   1      45.713  29.602  33.909  1.00  0.00    -0.203 F 
ATOM     89  F   UNL A   1      44.676  24.966  36.592  1.00  0.00    -0.200 F 
ATOM     90  C   UNL A   1      46.232  26.537  35.763  1.00  0.00     0.200 A 
ATOM     91  F   UNL A   1      47.748  28.142  34.928  1.00  0.00    -0.200 F 
ATOM     92  F   UNL A   1      47.243  25.840  36.300  1.00  0.00    -0.200 F 
ENDBRANCH  59  82
ENDBRANCH  33  34
ENDBRANCH  25  28
ENDBRANCH  23  24
ENDBRANCH  22  23
ENDBRANCH   1  22
TORSDOF 13
ENDMDL
