MODEL 1
REMARK VINA RESULT:     -12.3      0.000      0.000
REMARK SMILES [NH3+][C@@H](CCCCC(=O)NCCCNC(=O)c1ccc(-c2c3nc(c(-c4c(F)c(F)c(F)c(F)c4F)c4ccc([nH]4)c(-c4c(F)c(F)c(F)c(F)c4F)c4nc(c(-c5c(F)c(F)c(F)c(F)c5F)c5ccc2[nH]5)C=C4)C=C3)cc1)c1ccc2[nH]c(=O)[nH]c2c1
REMARK SMILES IDX 7 1 8 2 9 3 6 5 5 6 4 7 3 8 2 9 1 10 79 14 80 15 88 16 81 17
REMARK SMILES IDX 87 18 82 19 86 20 83 21 84 22 85 25 10 26 11 27 12 28 13 29
REMARK SMILES IDX 14 30 15 32 16 33 17 34 78 35 18 36 77 37 19 38 20 39 21 40
REMARK SMILES IDX 71 41 22 42 76 43 70 44 72 45 23 46 75 47 69 48 68 49 24 51
REMARK SMILES IDX 56 52 36 53 55 54 37 55 40 56 54 57 73 58 38 59 39 60 53 62
REMARK SMILES IDX 74 63 41 64 25 65 26 66 34 67 27 68 28 69 32 70 35 71 29 72
REMARK SMILES IDX 30 73 33 74 31 75 57 76 58 77 66 78 59 79 60 80 64 81 67 82
REMARK SMILES IDX 61 83 62 84 65 85 63 86 42 87 43 88 51 89 44 90 45 91 49 92
REMARK SMILES IDX 52 93 46 94 47 95 50 96 48 97
REMARK H PARENT 9 4 1 11 1 12 1 13 86 23 83 24 13 31 72 50 40 61
REMARK Flexibility Score: inf
ROOT
ATOM      1  C   UNL A   1      32.889  29.180  27.202  1.00  0.00     0.219 C 
ATOM      2  O   UNL A   1      34.036  28.950  27.586  1.00  0.00    -0.275 OA
ATOM      3  N   UNL A   1      32.661  30.331  26.510  1.00  0.00    -0.356 N 
ATOM      4  H   UNL A   1      33.465  30.855  26.287  1.00  0.00     0.163 HD
ENDROOT
BRANCH   1   5
ATOM      5  C   UNL A   1      31.758  28.204  27.458  1.00  0.00     0.100 C 
BRANCH   5   6
ATOM      6  C   UNL A   1      31.382  27.322  26.264  1.00  0.00     0.010 C 
BRANCH   6   7
ATOM      7  C   UNL A   1      32.456  26.918  25.233  1.00  0.00     0.007 C 
BRANCH   7   8
ATOM      8  C   UNL A   1      32.386  27.485  23.798  1.00  0.00     0.070 C 
BRANCH   8   9
ATOM      9  C   UNL A   1      31.163  27.066  22.945  1.00  0.00     0.212 C 
BRANCH   9  10
ATOM     10  N   UNL A   1      31.596  26.734  21.584  1.00  0.00    -0.351 N 
ATOM     11  H   UNL A   1      32.590  26.505  21.590  1.00  0.00     0.345 HD
ATOM     12  H   UNL A   1      31.435  27.534  20.971  1.00  0.00     0.345 HD
ATOM     13  H   UNL A   1      31.065  25.932  21.244  1.00  0.00     0.345 HD
ENDBRANCH   9  10
BRANCH   9  14
ATOM     14  C   UNL A   1      30.076  28.126  23.019  1.00  0.00     0.011 A 
ATOM     15  C   UNL A   1      28.707  27.794  23.216  1.00  0.00     0.012 A 
ATOM     16  C   UNL A   1      30.432  29.459  22.727  1.00  0.00     0.038 A 
ATOM     17  C   UNL A   1      27.687  28.734  23.021  1.00  0.00     0.029 A 
ATOM     18  C   UNL A   1      29.411  30.340  22.473  1.00  0.00     0.067 A 
ATOM     19  C   UNL A   1      28.074  29.984  22.609  1.00  0.00     0.066 A 
ATOM     20  N   UNL A   1      29.466  31.621  21.938  1.00  0.00    -0.306 N 
ATOM     21  N   UNL A   1      27.302  31.056  22.177  1.00  0.00    -0.306 N 
ATOM     22  C   UNL A   1      28.157  32.073  21.728  1.00  0.00     0.323 A 
ATOM     23  H   UNL A   1      30.288  32.126  21.740  1.00  0.00     0.171 HD
ATOM     24  H   UNL A   1      26.319  31.096  22.185  1.00  0.00     0.171 HD
ATOM     25  O   UNL A   1      27.828  33.133  21.223  1.00  0.00    -0.248 OA
ENDBRANCH   9  14
ENDBRANCH   8   9
ENDBRANCH   7   8
ENDBRANCH   6   7
ENDBRANCH   5   6
ENDBRANCH   1   5
BRANCH   3  26
ATOM     26  C   UNL A   1      31.408  30.891  26.059  1.00  0.00     0.117 C 
BRANCH  26  27
ATOM     27  C   UNL A   1      31.283  32.340  26.496  1.00  0.00     0.042 C 
BRANCH  27  28
ATOM     28  C   UNL A   1      32.522  32.865  27.188  1.00  0.00     0.118 C 
BRANCH  28  29
ATOM     29  N   UNL A   1      32.376  34.249  27.602  1.00  0.00    -0.352 N 
ATOM     30  C   UNL A   1      32.992  34.929  28.621  1.00  0.00     0.251 C 
ATOM     31  H   UNL A   1      31.738  34.778  27.071  1.00  0.00     0.163 HD
ATOM     32  O   UNL A   1      32.582  36.042  28.938  1.00  0.00    -0.269 OA
BRANCH  30  33
ATOM     33  C   UNL A   1      34.130  34.325  29.350  1.00  0.00     0.039 A 
ATOM     34  C   UNL A   1      35.427  34.544  28.877  1.00  0.00     0.014 A 
ATOM     35  C   UNL A   1      33.930  33.520  30.474  1.00  0.00     0.014 A 
ATOM     36  C   UNL A   1      36.514  33.980  29.547  1.00  0.00     0.010 A 
ATOM     37  C   UNL A   1      35.017  33.068  31.212  1.00  0.00     0.010 A 
ATOM     38  C   UNL A   1      36.318  33.252  30.730  1.00  0.00    -0.014 A 
BRANCH  38  39
ATOM     39  C   UNL A   1      37.449  32.600  31.436  1.00  0.00     0.031 A 
ATOM     40  C   UNL A   1      38.185  31.465  30.770  1.00  0.00     0.074 A 
ATOM     41  C   UNL A   1      37.787  32.994  32.678  1.00  0.00     0.049 A 
ATOM     42  N   UNL A   1      39.163  30.727  31.228  1.00  0.00    -0.248 NA
ATOM     43  C   UNL A   1      37.733  31.083  29.420  1.00  0.00     0.031 C 
ATOM     44  C   UNL A   1      37.121  34.049  33.442  1.00  0.00     0.029 A 
ATOM     45  N   UNL A   1      38.777  32.550  33.517  1.00  0.00    -0.354 N 
ATOM     46  C   UNL A   1      39.421  29.787  30.237  1.00  0.00     0.074 A 
ATOM     47  C   UNL A   1      38.452  29.997  29.188  1.00  0.00     0.031 C 
ATOM     48  C   UNL A   1      37.745  34.197  34.621  1.00  0.00     0.029 A 
ATOM     49  C   UNL A   1      38.827  33.222  34.713  1.00  0.00     0.049 A 
ATOM     50  H   UNL A   1      39.394  31.819  33.283  1.00  0.00     0.167 HD
ATOM     51  C   UNL A   1      40.400  28.851  30.193  1.00  0.00     0.037 A 
ATOM     52  C   UNL A   1      39.654  33.064  35.763  1.00  0.00     0.037 A 
ATOM     53  C   UNL A   1      41.384  28.674  31.225  1.00  0.00     0.049 A 
ATOM     54  C   UNL A   1      40.735  32.018  35.689  1.00  0.00     0.074 A 
ATOM     55  C   UNL A   1      42.457  27.802  31.255  1.00  0.00     0.029 A 
ATOM     56  N   UNL A   1      41.411  29.386  32.416  1.00  0.00    -0.354 N 
ATOM     57  N   UNL A   1      41.016  31.183  34.717  1.00  0.00    -0.248 NA
ATOM     58  C   UNL A   1      41.622  31.903  36.853  1.00  0.00     0.031 C 
ATOM     59  C   UNL A   1      43.098  27.943  32.489  1.00  0.00     0.029 A 
ATOM     60  C   UNL A   1      42.470  28.955  33.199  1.00  0.00     0.049 A 
ATOM     61  H   UNL A   1      40.773  30.092  32.667  1.00  0.00     0.167 HD
ATOM     62  C   UNL A   1      42.135  30.474  35.134  1.00  0.00     0.074 A 
ATOM     63  C   UNL A   1      42.486  30.986  36.442  1.00  0.00     0.031 C 
ATOM     64  C   UNL A   1      42.814  29.492  34.491  1.00  0.00     0.037 A 
BRANCH  51  65
ATOM     65  C   UNL A   1      40.447  27.950  28.989  1.00  0.00     0.064 A 
ATOM     66  C   UNL A   1      41.228  28.255  27.863  1.00  0.00     0.173 A 
ATOM     67  C   UNL A   1      39.714  26.754  28.970  1.00  0.00     0.173 A 
ATOM     68  F   UNL A   1      41.939  29.392  27.820  1.00  0.00    -0.203 F 
ATOM     69  C   UNL A   1      41.241  27.418  26.749  1.00  0.00     0.198 A 
ATOM     70  C   UNL A   1      39.759  25.901  27.871  1.00  0.00     0.198 A 
ATOM     71  F   UNL A   1      38.953  26.409  30.020  1.00  0.00    -0.203 F 
ATOM     72  F   UNL A   1      41.942  27.765  25.661  1.00  0.00    -0.200 F 
ATOM     73  C   UNL A   1      40.514  26.239  26.757  1.00  0.00     0.200 A 
ATOM     74  F   UNL A   1      39.067  24.753  27.887  1.00  0.00    -0.200 F 
ATOM     75  F   UNL A   1      40.531  25.431  25.688  1.00  0.00    -0.200 F 
ENDBRANCH  51  65
BRANCH  52  76
ATOM     76  C   UNL A   1      39.522  33.943  36.956  1.00  0.00     0.064 A 
ATOM     77  C   UNL A   1      40.143  35.200  36.996  1.00  0.00     0.173 A 
ATOM     78  C   UNL A   1      38.786  33.545  38.082  1.00  0.00     0.173 A 
ATOM     79  F   UNL A   1      40.871  35.620  35.951  1.00  0.00    -0.203 F 
ATOM     80  C   UNL A   1      40.054  36.012  38.125  1.00  0.00     0.198 A 
ATOM     81  C   UNL A   1      38.671  34.372  39.197  1.00  0.00     0.198 A 
ATOM     82  F   UNL A   1      38.164  32.356  38.092  1.00  0.00    -0.203 F 
ATOM     83  F   UNL A   1      40.702  37.184  38.155  1.00  0.00    -0.200 F 
ATOM     84  C   UNL A   1      39.315  35.600  39.223  1.00  0.00     0.200 A 
ATOM     85  F   UNL A   1      37.940  33.977  40.248  1.00  0.00    -0.200 F 
ATOM     86  F   UNL A   1      39.229  36.382  40.307  1.00  0.00    -0.200 F 
ENDBRANCH  52  76
BRANCH  64  87
ATOM     87  C   UNL A   1      44.046  28.952  35.163  1.00  0.00     0.064 A 
ATOM     88  C   UNL A   1      45.316  29.505  34.946  1.00  0.00     0.173 A 
ATOM     89  C   UNL A   1      43.940  27.883  36.067  1.00  0.00     0.173 A 
ATOM     90  F   UNL A   1      45.472  30.521  34.083  1.00  0.00    -0.203 F 
ATOM     91  C   UNL A   1      46.440  28.984  35.580  1.00  0.00     0.198 A 
ATOM     92  C   UNL A   1      45.061  27.390  36.729  1.00  0.00     0.198 A 
ATOM     93  F   UNL A   1      42.747  27.324  36.318  1.00  0.00    -0.203 F 
ATOM     94  F   UNL A   1      47.652  29.488  35.311  1.00  0.00    -0.200 F 
ATOM     95  C   UNL A   1      46.311  27.933  36.476  1.00  0.00     0.200 A 
ATOM     96  F   UNL A   1      44.930  26.388  37.608  1.00  0.00    -0.200 F 
ATOM     97  F   UNL A   1      47.394  27.437  37.091  1.00  0.00    -0.200 F 
ENDBRANCH  64  87
ENDBRANCH  38  39
ENDBRANCH  30  33
ENDBRANCH  28  29
ENDBRANCH  27  28
ENDBRANCH  26  27
ENDBRANCH   3  26
TORSDOF 16
ENDMDL
MODEL 2
REMARK VINA RESULT:     -12.2      6.870     12.114
REMARK SMILES [NH3+][C@@H](CCCCC(=O)NCCCNC(=O)c1ccc(-c2c3nc(c(-c4c(F)c(F)c(F)c(F)c4F)c4ccc([nH]4)c(-c4c(F)c(F)c(F)c(F)c4F)c4nc(c(-c5c(F)c(F)c(F)c(F)c5F)c5ccc2[nH]5)C=C4)C=C3)cc1)c1ccc2[nH]c(=O)[nH]c2c1
REMARK SMILES IDX 7 1 8 2 9 3 6 5 5 6 4 7 3 8 2 9 1 10 79 14 80 15 88 16 81 17
REMARK SMILES IDX 87 18 82 19 86 20 83 21 84 22 85 25 10 26 11 27 12 28 13 29
REMARK SMILES IDX 14 30 15 32 16 33 17 34 78 35 18 36 77 37 19 38 20 39 21 40
REMARK SMILES IDX 71 41 22 42 76 43 70 44 72 45 23 46 75 47 69 48 68 49 24 51
REMARK SMILES IDX 56 52 36 53 55 54 37 55 40 56 54 57 73 58 38 59 39 60 53 62
REMARK SMILES IDX 74 63 41 64 25 65 26 66 34 67 27 68 28 69 32 70 35 71 29 72
REMARK SMILES IDX 30 73 33 74 31 75 57 76 58 77 66 78 59 79 60 80 64 81 67 82
REMARK SMILES IDX 61 83 62 84 65 85 63 86 42 87 43 88 51 89 44 90 45 91 49 92
REMARK SMILES IDX 52 93 46 94 47 95 50 96 48 97
REMARK H PARENT 9 4 1 11 1 12 1 13 86 23 83 24 13 31 72 50 40 61
REMARK Flexibility Score: inf
ROOT
ATOM      1  C   UNL A   1      37.137  22.713  24.822  1.00  0.00     0.219 C 
ATOM      2  O   UNL A   1      37.586  23.714  25.381  1.00  0.00    -0.275 OA
ATOM      3  N   UNL A   1      37.250  21.515  25.459  1.00  0.00    -0.356 N 
ATOM      4  H   UNL A   1      37.608  21.557  26.376  1.00  0.00     0.163 HD
ENDROOT
BRANCH   1   5
ATOM      5  C   UNL A   1      36.446  22.801  23.476  1.00  0.00     0.100 C 
BRANCH   5   6
ATOM      6  C   UNL A   1      35.042  23.412  23.508  1.00  0.00     0.010 C 
BRANCH   6   7
ATOM      7  C   UNL A   1      34.029  22.965  24.582  1.00  0.00     0.007 C 
BRANCH   7   8
ATOM      8  C   UNL A   1      32.550  22.750  24.192  1.00  0.00     0.070 C 
BRANCH   8   9
ATOM      9  C   UNL A   1      31.808  21.586  24.895  1.00  0.00     0.212 C 
BRANCH   9  10
ATOM     10  N   UNL A   1      31.820  21.793  26.346  1.00  0.00    -0.351 N 
ATOM     11  H   UNL A   1      30.872  21.989  26.669  1.00  0.00     0.345 HD
ATOM     12  H   UNL A   1      32.426  22.582  26.573  1.00  0.00     0.345 HD
ATOM     13  H   UNL A   1      32.168  20.953  26.807  1.00  0.00     0.345 HD
ENDBRANCH   9  10
BRANCH   9  14
ATOM     14  C   UNL A   1      32.374  20.248  24.445  1.00  0.00     0.011 A 
ATOM     15  C   UNL A   1      32.241  19.782  23.107  1.00  0.00     0.012 A 
ATOM     16  C   UNL A   1      32.904  19.389  25.430  1.00  0.00     0.038 A 
ATOM     17  C   UNL A   1      32.522  18.455  22.759  1.00  0.00     0.029 A 
ATOM     18  C   UNL A   1      33.102  18.078  25.077  1.00  0.00     0.067 A 
ATOM     19  C   UNL A   1      32.909  17.622  23.779  1.00  0.00     0.066 A 
ATOM     20  N   UNL A   1      33.378  16.983  25.885  1.00  0.00    -0.306 N 
ATOM     21  N   UNL A   1      33.087  16.244  23.781  1.00  0.00    -0.306 N 
ATOM     22  C   UNL A   1      33.351  15.827  25.093  1.00  0.00     0.323 A 
ATOM     23  H   UNL A   1      33.563  17.013  26.852  1.00  0.00     0.171 HD
ATOM     24  H   UNL A   1      33.037  15.657  22.992  1.00  0.00     0.171 HD
ATOM     25  O   UNL A   1      33.499  14.680  25.479  1.00  0.00    -0.248 OA
ENDBRANCH   9  14
ENDBRANCH   8   9
ENDBRANCH   7   8
ENDBRANCH   6   7
ENDBRANCH   5   6
ENDBRANCH   1   5
BRANCH   3  26
ATOM     26  C   UNL A   1      36.921  20.192  24.980  1.00  0.00     0.117 C 
BRANCH  26  27
ATOM     27  C   UNL A   1      38.136  19.283  25.044  1.00  0.00     0.042 C 
BRANCH  27  28
ATOM     28  C   UNL A   1      39.317  19.913  25.753  1.00  0.00     0.118 C 
BRANCH  28  29
ATOM     29  N   UNL A   1      40.404  18.971  25.950  1.00  0.00    -0.352 N 
ATOM     30  C   UNL A   1      41.744  19.205  26.124  1.00  0.00     0.251 C 
ATOM     31  H   UNL A   1      40.140  18.023  25.958  1.00  0.00     0.163 HD
ATOM     32  O   UNL A   1      42.532  18.265  26.071  1.00  0.00    -0.269 OA
BRANCH  30  33
ATOM     33  C   UNL A   1      42.246  20.578  26.355  1.00  0.00     0.039 A 
ATOM     34  C   UNL A   1      42.339  21.050  27.667  1.00  0.00     0.014 A 
ATOM     35  C   UNL A   1      42.595  21.415  25.292  1.00  0.00     0.014 A 
ATOM     36  C   UNL A   1      42.805  22.344  27.908  1.00  0.00     0.010 A 
ATOM     37  C   UNL A   1      43.179  22.651  25.539  1.00  0.00     0.010 A 
ATOM     38  C   UNL A   1      43.246  23.148  26.845  1.00  0.00    -0.014 A 
BRANCH  38  39
ATOM     39  C   UNL A   1      43.700  24.544  27.066  1.00  0.00     0.031 A 
ATOM     40  C   UNL A   1      42.722  25.571  27.575  1.00  0.00     0.074 A 
ATOM     41  C   UNL A   1      44.966  24.895  26.772  1.00  0.00     0.049 A 
ATOM     42  N   UNL A   1      42.896  26.850  27.787  1.00  0.00    -0.248 NA
ATOM     43  C   UNL A   1      41.351  25.104  27.847  1.00  0.00     0.031 C 
ATOM     44  C   UNL A   1      45.990  24.001  26.231  1.00  0.00     0.029 A 
ATOM     45  N   UNL A   1      45.606  26.103  26.888  1.00  0.00    -0.354 N 
ATOM     46  C   UNL A   1      41.658  27.337  28.189  1.00  0.00     0.074 A 
ATOM     47  C   UNL A   1      40.725  26.237  28.121  1.00  0.00     0.031 C 
ATOM     48  C   UNL A   1      47.140  24.681  26.099  1.00  0.00     0.029 A 
ATOM     49  C   UNL A   1      46.925  26.066  26.505  1.00  0.00     0.049 A 
ATOM     50  H   UNL A   1      45.163  26.919  27.216  1.00  0.00     0.167 HD
ATOM     51  C   UNL A   1      41.334  28.584  28.609  1.00  0.00     0.037 A 
ATOM     52  C   UNL A   1      47.850  27.043  26.486  1.00  0.00     0.037 A 
ATOM     53  C   UNL A   1      42.278  29.664  28.709  1.00  0.00     0.049 A 
ATOM     54  C   UNL A   1      47.466  28.420  26.959  1.00  0.00     0.074 A 
ATOM     55  C   UNL A   1      42.075  30.947  29.181  1.00  0.00     0.029 A 
ATOM     56  N   UNL A   1      43.610  29.582  28.327  1.00  0.00    -0.354 N 
ATOM     57  N   UNL A   1      46.311  28.852  27.405  1.00  0.00    -0.248 NA
ATOM     58  C   UNL A   1      48.520  29.442  26.935  1.00  0.00     0.031 C 
ATOM     59  C   UNL A   1      43.267  31.661  29.028  1.00  0.00     0.029 A 
ATOM     60  C   UNL A   1      44.235  30.802  28.530  1.00  0.00     0.049 A 
ATOM     61  H   UNL A   1      44.046  28.778  27.965  1.00  0.00     0.167 HD
ATOM     62  C   UNL A   1      46.510  30.181  27.756  1.00  0.00     0.074 A 
ATOM     63  C   UNL A   1      47.900  30.480  27.479  1.00  0.00     0.031 C 
ATOM     64  C   UNL A   1      45.625  31.073  28.266  1.00  0.00     0.037 A 
BRANCH  51  65
ATOM     65  C   UNL A   1      39.901  28.842  28.986  1.00  0.00     0.064 A 
ATOM     66  C   UNL A   1      39.430  28.648  30.294  1.00  0.00     0.173 A 
ATOM     67  C   UNL A   1      38.989  29.308  28.027  1.00  0.00     0.173 A 
ATOM     68  F   UNL A   1      40.255  28.191  31.249  1.00  0.00    -0.203 F 
ATOM     69  C   UNL A   1      38.094  28.871  30.617  1.00  0.00     0.198 A 
ATOM     70  C   UNL A   1      37.663  29.567  28.363  1.00  0.00     0.198 A 
ATOM     71  F   UNL A   1      39.383  29.515  26.761  1.00  0.00    -0.203 F 
ATOM     72  F   UNL A   1      37.656  28.615  31.858  1.00  0.00    -0.200 F 
ATOM     73  C   UNL A   1      37.214  29.338  29.655  1.00  0.00     0.200 A 
ATOM     74  F   UNL A   1      36.817  30.033  27.433  1.00  0.00    -0.200 F 
ATOM     75  F   UNL A   1      35.930  29.559  29.967  1.00  0.00    -0.200 F 
ENDBRANCH  51  65
BRANCH  52  76
ATOM     76  C   UNL A   1      49.238  26.746  26.043  1.00  0.00     0.064 A 
ATOM     77  C   UNL A   1      50.185  26.230  26.940  1.00  0.00     0.173 A 
ATOM     78  C   UNL A   1      49.653  26.980  24.724  1.00  0.00     0.173 A 
ATOM     79  F   UNL A   1      49.843  26.004  28.217  1.00  0.00    -0.203 F 
ATOM     80  C   UNL A   1      51.498  25.986  26.542  1.00  0.00     0.198 A 
ATOM     81  C   UNL A   1      50.958  26.704  24.319  1.00  0.00     0.198 A 
ATOM     82  F   UNL A   1      48.785  27.464  23.823  1.00  0.00    -0.203 F 
ATOM     83  F   UNL A   1      52.394  25.544  27.434  1.00  0.00    -0.200 F 
ATOM     84  C   UNL A   1      51.882  26.219  25.231  1.00  0.00     0.200 A 
ATOM     85  F   UNL A   1      51.319  26.913  23.045  1.00  0.00    -0.200 F 
ATOM     86  F   UNL A   1      53.144  25.981  24.847  1.00  0.00    -0.200 F 
ENDBRANCH  52  76
BRANCH  64  87
ATOM     87  C   UNL A   1      46.147  32.437  28.621  1.00  0.00     0.064 A 
ATOM     88  C   UNL A   1      46.693  32.721  29.880  1.00  0.00     0.173 A 
ATOM     89  C   UNL A   1      46.130  33.465  27.665  1.00  0.00     0.173 A 
ATOM     90  F   UNL A   1      46.723  31.777  30.833  1.00  0.00    -0.203 F 
ATOM     91  C   UNL A   1      47.168  33.994  30.183  1.00  0.00     0.198 A 
ATOM     92  C   UNL A   1      46.642  34.726  27.958  1.00  0.00     0.198 A 
ATOM     93  F   UNL A   1      45.629  33.244  26.441  1.00  0.00    -0.203 F 
ATOM     94  F   UNL A   1      47.629  34.260  31.413  1.00  0.00    -0.200 F 
ATOM     95  C   UNL A   1      47.149  34.992  29.220  1.00  0.00     0.200 A 
ATOM     96  F   UNL A   1      46.641  35.682  27.020  1.00  0.00    -0.200 F 
ATOM     97  F   UNL A   1      47.614  36.216  29.511  1.00  0.00    -0.200 F 
ENDBRANCH  64  87
ENDBRANCH  38  39
ENDBRANCH  30  33
ENDBRANCH  28  29
ENDBRANCH  27  28
ENDBRANCH  26  27
ENDBRANCH   3  26
TORSDOF 16
ENDMDL
MODEL 3
REMARK VINA RESULT:     -12.2      6.791     11.959
REMARK SMILES [NH3+][C@@H](CCCCC(=O)NCCCNC(=O)c1ccc(-c2c3nc(c(-c4c(F)c(F)c(F)c(F)c4F)c4ccc([nH]4)c(-c4c(F)c(F)c(F)c(F)c4F)c4nc(c(-c5c(F)c(F)c(F)c(F)c5F)c5ccc2[nH]5)C=C4)C=C3)cc1)c1ccc2[nH]c(=O)[nH]c2c1
REMARK SMILES IDX 7 1 8 2 9 3 6 5 5 6 4 7 3 8 2 9 1 10 79 14 80 15 88 16 81 17
REMARK SMILES IDX 87 18 82 19 86 20 83 21 84 22 85 25 10 26 11 27 12 28 13 29
REMARK SMILES IDX 14 30 15 32 16 33 17 34 78 35 18 36 77 37 19 38 20 39 21 40
REMARK SMILES IDX 71 41 22 42 76 43 70 44 72 45 23 46 75 47 69 48 68 49 24 51
REMARK SMILES IDX 56 52 36 53 55 54 37 55 40 56 54 57 73 58 38 59 39 60 53 62
REMARK SMILES IDX 74 63 41 64 25 65 26 66 34 67 27 68 28 69 32 70 35 71 29 72
REMARK SMILES IDX 30 73 33 74 31 75 57 76 58 77 66 78 59 79 60 80 64 81 67 82
REMARK SMILES IDX 61 83 62 84 65 85 63 86 42 87 43 88 51 89 44 90 45 91 49 92
REMARK SMILES IDX 52 93 46 94 47 95 50 96 48 97
REMARK H PARENT 9 4 1 11 1 12 1 13 86 23 83 24 13 31 72 50 40 61
REMARK Flexibility Score: inf
ROOT
ATOM      1  C   UNL A   1      37.015  22.972  25.318  1.00  0.00     0.219 C 
ATOM      2  O   UNL A   1      37.405  23.848  26.090  1.00  0.00    -0.275 OA
ATOM      3  N   UNL A   1      37.189  21.672  25.681  1.00  0.00    -0.356 N 
ATOM      4  H   UNL A   1      37.537  21.531  26.592  1.00  0.00     0.163 HD
ENDROOT
BRANCH   1   5
ATOM      5  C   UNL A   1      36.331  23.318  24.011  1.00  0.00     0.100 C 
BRANCH   5   6
ATOM      6  C   UNL A   1      34.840  23.650  24.129  1.00  0.00     0.010 C 
BRANCH   6   7
ATOM      7  C   UNL A   1      33.885  23.343  22.958  1.00  0.00     0.007 C 
BRANCH   7   8
ATOM      8  C   UNL A   1      32.597  22.531  23.218  1.00  0.00     0.070 C 
BRANCH   8   9
ATOM      9  C   UNL A   1      32.519  21.127  22.569  1.00  0.00     0.212 C 
BRANCH   9  10
ATOM     10  N   UNL A   1      31.403  21.078  21.621  1.00  0.00    -0.351 N 
ATOM     11  H   UNL A   1      31.757  21.196  20.672  1.00  0.00     0.345 HD
ATOM     12  H   UNL A   1      30.743  21.827  21.832  1.00  0.00     0.345 HD
ATOM     13  H   UNL A   1      30.930  20.177  21.697  1.00  0.00     0.345 HD
ENDBRANCH   9  10
BRANCH   9  14
ATOM     14  C   UNL A   1      32.483  20.049  23.641  1.00  0.00     0.011 A 
ATOM     15  C   UNL A   1      32.696  20.342  25.017  1.00  0.00     0.012 A 
ATOM     16  C   UNL A   1      32.390  18.705  23.224  1.00  0.00     0.038 A 
ATOM     17  C   UNL A   1      32.925  19.331  25.958  1.00  0.00     0.029 A 
ATOM     18  C   UNL A   1      32.688  17.739  24.152  1.00  0.00     0.067 A 
ATOM     19  C   UNL A   1      32.956  18.044  25.481  1.00  0.00     0.066 A 
ATOM     20  N   UNL A   1      32.908  16.380  23.966  1.00  0.00    -0.306 N 
ATOM     21  N   UNL A   1      33.322  16.867  26.123  1.00  0.00    -0.306 N 
ATOM     22  C   UNL A   1      33.325  15.826  25.184  1.00  0.00     0.323 A 
ATOM     23  H   UNL A   1      32.791  15.888  23.121  1.00  0.00     0.171 HD
ATOM     24  H   UNL A   1      33.541  16.778  27.078  1.00  0.00     0.171 HD
ATOM     25  O   UNL A   1      33.655  14.668  25.379  1.00  0.00    -0.248 OA
ENDBRANCH   9  14
ENDBRANCH   8   9
ENDBRANCH   7   8
ENDBRANCH   6   7
ENDBRANCH   5   6
ENDBRANCH   1   5
BRANCH   3  26
ATOM     26  C   UNL A   1      36.936  20.470  24.918  1.00  0.00     0.117 C 
BRANCH  26  27
ATOM     27  C   UNL A   1      38.123  19.526  25.000  1.00  0.00     0.042 C 
BRANCH  27  28
ATOM     28  C   UNL A   1      39.218  20.022  25.920  1.00  0.00     0.118 C 
BRANCH  28  29
ATOM     29  N   UNL A   1      40.318  19.079  26.021  1.00  0.00    -0.352 N 
ATOM     30  C   UNL A   1      41.665  19.313  26.127  1.00  0.00     0.251 C 
ATOM     31  H   UNL A   1      40.058  18.130  26.012  1.00  0.00     0.163 HD
ATOM     32  O   UNL A   1      42.452  18.380  25.996  1.00  0.00    -0.269 OA
BRANCH  30  33
ATOM     33  C   UNL A   1      42.176  20.680  26.378  1.00  0.00     0.039 A 
ATOM     34  C   UNL A   1      42.345  21.105  27.698  1.00  0.00     0.014 A 
ATOM     35  C   UNL A   1      42.459  21.556  25.327  1.00  0.00     0.014 A 
ATOM     36  C   UNL A   1      42.820  22.391  27.958  1.00  0.00     0.010 A 
ATOM     37  C   UNL A   1      43.053  22.785  25.583  1.00  0.00     0.010 A 
ATOM     38  C   UNL A   1      43.195  23.236  26.901  1.00  0.00    -0.014 A 
BRANCH  38  39
ATOM     39  C   UNL A   1      43.657  24.625  27.144  1.00  0.00     0.031 A 
ATOM     40  C   UNL A   1      42.685  25.648  27.675  1.00  0.00     0.074 A 
ATOM     41  C   UNL A   1      44.923  24.975  26.853  1.00  0.00     0.049 A 
ATOM     42  N   UNL A   1      42.867  26.922  27.909  1.00  0.00    -0.248 NA
ATOM     43  C   UNL A   1      41.313  25.184  27.942  1.00  0.00     0.031 C 
ATOM     44  C   UNL A   1      45.942  24.085  26.294  1.00  0.00     0.029 A 
ATOM     45  N   UNL A   1      45.570  26.177  26.989  1.00  0.00    -0.354 N 
ATOM     46  C   UNL A   1      41.632  27.409  28.323  1.00  0.00     0.074 A 
ATOM     47  C   UNL A   1      40.693  26.315  28.238  1.00  0.00     0.031 C 
ATOM     48  C   UNL A   1      47.094  24.761  26.170  1.00  0.00     0.029 A 
ATOM     49  C   UNL A   1      46.887  26.140  26.601  1.00  0.00     0.049 A 
ATOM     50  H   UNL A   1      45.133  26.989  27.332  1.00  0.00     0.167 HD
ATOM     51  C   UNL A   1      41.316  28.649  28.765  1.00  0.00     0.037 A 
ATOM     52  C   UNL A   1      47.818  27.112  26.596  1.00  0.00     0.037 A 
ATOM     53  C   UNL A   1      42.266  29.722  28.881  1.00  0.00     0.049 A 
ATOM     54  C   UNL A   1      47.443  28.483  27.094  1.00  0.00     0.074 A 
ATOM     55  C   UNL A   1      42.071  30.998  29.377  1.00  0.00     0.029 A 
ATOM     56  N   UNL A   1      43.597  29.641  28.494  1.00  0.00    -0.354 N 
ATOM     57  N   UNL A   1      46.291  28.913  27.552  1.00  0.00    -0.248 NA
ATOM     58  C   UNL A   1      48.501  29.500  27.086  1.00  0.00     0.031 C 
ATOM     59  C   UNL A   1      43.266  31.709  29.233  1.00  0.00     0.029 A 
ATOM     60  C   UNL A   1      44.228  30.854  28.717  1.00  0.00     0.049 A 
ATOM     61  H   UNL A   1      44.027  28.840  28.117  1.00  0.00     0.167 HD
ATOM     62  C   UNL A   1      46.498  30.235  27.926  1.00  0.00     0.074 A 
ATOM     63  C   UNL A   1      47.888  30.531  27.649  1.00  0.00     0.031 C 
ATOM     64  C   UNL A   1      45.618  31.122  28.453  1.00  0.00     0.037 A 
BRANCH  51  65
ATOM     65  C   UNL A   1      39.885  28.908  29.150  1.00  0.00     0.064 A 
ATOM     66  C   UNL A   1      39.429  28.744  30.468  1.00  0.00     0.173 A 
ATOM     67  C   UNL A   1      38.961  29.345  28.190  1.00  0.00     0.173 A 
ATOM     68  F   UNL A   1      40.267  28.316  31.425  1.00  0.00    -0.203 F 
ATOM     69  C   UNL A   1      38.095  28.967  30.800  1.00  0.00     0.198 A 
ATOM     70  C   UNL A   1      37.636  29.604  28.533  1.00  0.00     0.198 A 
ATOM     71  F   UNL A   1      39.340  29.523  26.916  1.00  0.00    -0.203 F 
ATOM     72  F   UNL A   1      37.671  28.739  32.051  1.00  0.00    -0.200 F 
ATOM     73  C   UNL A   1      37.202  29.404  29.835  1.00  0.00     0.200 A 
ATOM     74  F   UNL A   1      36.778  30.041  27.601  1.00  0.00    -0.200 F 
ATOM     75  F   UNL A   1      35.920  29.625  30.156  1.00  0.00    -0.200 F 
ENDBRANCH  51  65
BRANCH  52  76
ATOM     76  C   UNL A   1      49.204  26.817  26.144  1.00  0.00     0.064 A 
ATOM     77  C   UNL A   1      49.586  27.028  24.812  1.00  0.00     0.173 A 
ATOM     78  C   UNL A   1      50.170  26.308  27.025  1.00  0.00     0.173 A 
ATOM     79  F   UNL A   1      48.696  27.498  23.926  1.00  0.00    -0.203 F 
ATOM     80  C   UNL A   1      50.872  26.717  24.372  1.00  0.00     0.198 A 
ATOM     81  C   UNL A   1      51.464  26.029  26.592  1.00  0.00     0.198 A 
ATOM     82  F   UNL A   1      49.859  26.096  28.313  1.00  0.00    -0.203 F 
ATOM     83  F   UNL A   1      51.193  26.880  23.082  1.00  0.00    -0.200 F 
ATOM     84  C   UNL A   1      51.811  26.222  25.263  1.00  0.00     0.200 A 
ATOM     85  F   UNL A   1      52.374  25.568  27.461  1.00  0.00    -0.200 F 
ATOM     86  F   UNL A   1      53.048  25.926  24.841  1.00  0.00    -0.200 F 
ENDBRANCH  52  76
BRANCH  64  87
ATOM     87  C   UNL A   1      46.149  32.477  28.831  1.00  0.00     0.064 A 
ATOM     88  C   UNL A   1      46.128  33.559  27.940  1.00  0.00     0.173 A 
ATOM     89  C   UNL A   1      46.654  32.698  30.122  1.00  0.00     0.173 A 
ATOM     90  F   UNL A   1      45.666  33.399  26.691  1.00  0.00    -0.203 F 
ATOM     91  C   UNL A   1      46.628  34.803  28.316  1.00  0.00     0.198 A 
ATOM     92  C   UNL A   1      47.117  33.953  30.507  1.00  0.00     0.198 A 
ATOM     93  F   UNL A   1      46.687  31.699  31.016  1.00  0.00    -0.203 F 
ATOM     94  F   UNL A   1      46.655  35.808  27.429  1.00  0.00    -0.200 F 
ATOM     95  C   UNL A   1      47.115  35.000  29.600  1.00  0.00     0.200 A 
ATOM     96  F   UNL A   1      47.568  34.145  31.753  1.00  0.00    -0.200 F 
ATOM     97  F   UNL A   1      47.589  36.201  29.961  1.00  0.00    -0.200 F 
ENDBRANCH  64  87
ENDBRANCH  38  39
ENDBRANCH  30  33
ENDBRANCH  28  29
ENDBRANCH  27  28
ENDBRANCH  26  27
ENDBRANCH   3  26
TORSDOF 16
ENDMDL
