MODEL 1
REMARK VINA RESULT:     -11.6      0.000      0.000
REMARK SMILES O=C(NCCCNC(=O)c1cncc(Sc2ccc(Cl)cn2)n1)c1ccc(-c2c3nc(c(-c4c(F)c(F)c(F)c(F)c4F)c4ccc([nH]4)c(-c4c(F)c(F)c(F)c(F)c4F)c4nc(c(-c5c(F)c(F)c(F)c(F)c5F)c5ccc2[nH]5)C=C4)C=C3)cc1
REMARK SMILES IDX 5 1 4 2 3 3 1 4 2 5 24 7 25 8 86 9 26 10 85 11 27 12 28 13
REMARK SMILES IDX 29 14 79 15 30 16 84 17 78 18 80 19 31 20 83 21 77 22 76 23
REMARK SMILES IDX 32 25 64 26 44 27 63 28 45 29 48 30 62 31 81 32 46 33 47 34
REMARK SMILES IDX 61 36 82 37 49 38 33 39 34 40 42 41 35 42 36 43 40 44 43 45
REMARK SMILES IDX 37 46 38 47 41 48 39 49 65 50 66 51 74 52 67 53 68 54 72 55
REMARK SMILES IDX 75 56 69 57 70 58 73 59 71 60 50 61 51 62 59 63 52 64 53 65
REMARK SMILES IDX 57 66 60 67 54 68 55 69 58 70 56 71 6 72 7 73 8 74 9 76
REMARK SMILES IDX 10 77 11 78 23 79 12 80 14 81 13 82 15 83 16 84 17 85 22 86
REMARK SMILES IDX 18 87 21 88 19 89 20 90
REMARK H PARENT 3 6 80 24 48 35 7 75
REMARK Flexibility Score: inf
ROOT
ATOM      1  C   UNL A   1      40.998  21.412  27.599  1.00  0.00     0.042 C 
ENDROOT
BRANCH   1   2
ATOM      2  C   UNL A   1      41.023  22.285  26.351  1.00  0.00     0.118 C 
BRANCH   2   3
ATOM      3  N   UNL A   1      39.689  22.594  25.848  1.00  0.00    -0.352 N 
ATOM      4  O   UNL A   1      37.682  23.603  25.738  1.00  0.00    -0.269 OA
ATOM      5  C   UNL A   1      38.841  23.632  26.145  1.00  0.00     0.251 C 
ATOM      6  H   UNL A   1      39.341  21.953  25.188  1.00  0.00     0.163 HD
BRANCH   5   7
ATOM      7  C   UNL A   1      39.301  24.770  26.969  1.00  0.00     0.039 A 
ATOM      8  C   UNL A   1      39.007  24.838  28.331  1.00  0.00     0.014 A 
ATOM      9  C   UNL A   1      40.071  25.774  26.372  1.00  0.00     0.014 A 
ATOM     10  C   UNL A   1      39.330  25.979  29.054  1.00  0.00     0.010 A 
ATOM     11  C   UNL A   1      40.486  26.875  27.127  1.00  0.00     0.010 A 
ATOM     12  C   UNL A   1      40.088  27.004  28.467  1.00  0.00    -0.014 A 
BRANCH  12  13
ATOM     13  C   UNL A   1      40.501  28.170  29.289  1.00  0.00     0.031 A 
ATOM     14  C   UNL A   1      41.884  28.260  29.871  1.00  0.00     0.074 A 
ATOM     15  C   UNL A   1      39.616  29.165  29.492  1.00  0.00     0.049 A 
ATOM     16  N   UNL A   1      42.406  29.202  30.616  1.00  0.00    -0.248 NA
ATOM     17  C   UNL A   1      42.800  27.145  29.587  1.00  0.00     0.031 C 
ATOM     18  C   UNL A   1      38.243  29.185  28.983  1.00  0.00     0.029 A 
ATOM     19  N   UNL A   1      39.737  30.351  30.169  1.00  0.00    -0.354 N 
ATOM     20  C   UNL A   1      43.700  28.788  30.905  1.00  0.00     0.074 A 
ATOM     21  C   UNL A   1      43.875  27.494  30.279  1.00  0.00     0.031 C 
ATOM     22  C   UNL A   1      37.661  30.342  29.332  1.00  0.00     0.029 A 
ATOM     23  C   UNL A   1      38.594  31.113  30.145  1.00  0.00     0.049 A 
ATOM     24  H   UNL A   1      40.562  30.631  30.627  1.00  0.00     0.167 HD
ATOM     25  C   UNL A   1      44.653  29.433  31.620  1.00  0.00     0.037 A 
ATOM     26  C   UNL A   1      38.316  32.290  30.733  1.00  0.00     0.037 A 
ATOM     27  C   UNL A   1      44.472  30.726  32.232  1.00  0.00     0.049 A 
ATOM     28  C   UNL A   1      39.378  32.963  31.553  1.00  0.00     0.074 A 
ATOM     29  C   UNL A   1      45.387  31.478  32.947  1.00  0.00     0.029 A 
ATOM     30  N   UNL A   1      43.289  31.453  32.211  1.00  0.00    -0.354 N 
ATOM     31  N   UNL A   1      40.609  32.578  31.789  1.00  0.00    -0.248 NA
ATOM     32  C   UNL A   1      39.013  34.234  32.191  1.00  0.00     0.031 C 
ATOM     33  C   UNL A   1      44.744  32.633  33.406  1.00  0.00     0.029 A 
ATOM     34  C   UNL A   1      43.445  32.633  32.924  1.00  0.00     0.049 A 
ATOM     35  H   UNL A   1      42.462  31.173  31.756  1.00  0.00     0.167 HD
ATOM     36  C   UNL A   1      41.172  33.568  32.581  1.00  0.00     0.074 A 
ATOM     37  C   UNL A   1      40.153  34.581  32.771  1.00  0.00     0.031 C 
ATOM     38  C   UNL A   1      42.422  33.632  33.103  1.00  0.00     0.037 A 
BRANCH  25  39
ATOM     39  C   UNL A   1      45.977  28.743  31.802  1.00  0.00     0.064 A 
ATOM     40  C   UNL A   1      47.040  28.928  30.904  1.00  0.00     0.173 A 
ATOM     41  C   UNL A   1      46.198  27.916  32.915  1.00  0.00     0.173 A 
ATOM     42  F   UNL A   1      46.880  29.701  29.819  1.00  0.00    -0.203 F 
ATOM     43  C   UNL A   1      48.261  28.289  31.097  1.00  0.00     0.198 A 
ATOM     44  C   UNL A   1      47.432  27.303  33.121  1.00  0.00     0.198 A 
ATOM     45  F   UNL A   1      45.220  27.710  33.810  1.00  0.00    -0.203 F 
ATOM     46  F   UNL A   1      49.245  28.441  30.200  1.00  0.00    -0.200 F 
ATOM     47  C   UNL A   1      48.459  27.484  32.209  1.00  0.00     0.200 A 
ATOM     48  F   UNL A   1      47.625  26.538  34.204  1.00  0.00    -0.200 F 
ATOM     49  F   UNL A   1      49.639  26.873  32.396  1.00  0.00    -0.200 F 
ENDBRANCH  25  39
BRANCH  26  50
ATOM     50  C   UNL A   1      36.969  32.893  30.569  1.00  0.00     0.064 A 
ATOM     51  C   UNL A   1      36.632  33.605  29.410  1.00  0.00     0.173 A 
ATOM     52  C   UNL A   1      35.984  32.757  31.560  1.00  0.00     0.173 A 
ATOM     53  F   UNL A   1      37.544  33.778  28.442  1.00  0.00    -0.203 F 
ATOM     54  C   UNL A   1      35.368  34.169  29.255  1.00  0.00     0.198 A 
ATOM     55  C   UNL A   1      34.711  33.293  31.390  1.00  0.00     0.198 A 
ATOM     56  F   UNL A   1      36.255  32.078  32.685  1.00  0.00    -0.203 F 
ATOM     57  F   UNL A   1      35.084  34.881  28.155  1.00  0.00    -0.200 F 
ATOM     58  C   UNL A   1      34.407  34.006  30.241  1.00  0.00     0.200 A 
ATOM     59  F   UNL A   1      33.780  33.115  32.337  1.00  0.00    -0.200 F 
ATOM     60  F   UNL A   1      33.188  34.541  30.087  1.00  0.00    -0.200 F 
ENDBRANCH  26  50
BRANCH  38  61
ATOM     61  C   UNL A   1      42.769  34.857  33.899  1.00  0.00     0.064 A 
ATOM     62  C   UNL A   1      42.676  34.880  35.298  1.00  0.00     0.173 A 
ATOM     63  C   UNL A   1      43.232  36.013  33.252  1.00  0.00     0.173 A 
ATOM     64  F   UNL A   1      42.222  33.806  35.963  1.00  0.00    -0.203 F 
ATOM     65  C   UNL A   1      43.006  36.025  36.018  1.00  0.00     0.198 A 
ATOM     66  C   UNL A   1      43.593  37.145  33.978  1.00  0.00     0.198 A 
ATOM     67  F   UNL A   1      43.345  36.042  31.916  1.00  0.00    -0.203 F 
ATOM     68  F   UNL A   1      42.859  36.042  37.350  1.00  0.00    -0.200 F 
ATOM     69  C   UNL A   1      43.473  37.153  35.359  1.00  0.00     0.200 A 
ATOM     70  F   UNL A   1      44.056  38.229  33.340  1.00  0.00    -0.200 F 
ATOM     71  F   UNL A   1      43.796  38.252  36.055  1.00  0.00    -0.200 F 
ENDBRANCH  38  61
ENDBRANCH  12  13
ENDBRANCH   5   7
ENDBRANCH   2   3
ENDBRANCH   1   2
BRANCH   1  72
ATOM     72  C   UNL A   1      42.234  20.539  27.769  1.00  0.00     0.118 C 
BRANCH  72  73
ATOM     73  N   UNL A   1      42.061  19.225  27.169  1.00  0.00    -0.351 N 
ATOM     74  C   UNL A   1      42.739  18.639  26.125  1.00  0.00     0.271 C 
ATOM     75  H   UNL A   1      41.352  18.672  27.570  1.00  0.00     0.163 HD
ATOM     76  O   UNL A   1      42.305  17.596  25.643  1.00  0.00    -0.267 OA
BRANCH  74  77
ATOM     77  C   UNL A   1      43.987  19.247  25.605  1.00  0.00     0.147 A 
ATOM     78  C   UNL A   1      45.150  18.494  25.546  1.00  0.00     0.145 A 
ATOM     79  N   UNL A   1      43.919  20.531  25.166  1.00  0.00    -0.233 NA
ATOM     80  N   UNL A   1      46.317  19.006  25.092  1.00  0.00    -0.259 NA
ATOM     81  C   UNL A   1      45.065  21.038  24.658  1.00  0.00     0.122 A 
ATOM     82  C   UNL A   1      46.242  20.287  24.646  1.00  0.00     0.146 A 
BRANCH  81  83
ATOM     83  S   UNL A   1      45.104  22.705  24.038  1.00  0.00    -0.048 SA
BRANCH  83  84
ATOM     84  C   UNL A   1      45.517  23.666  25.474  1.00  0.00     0.102 A 
ATOM     85  C   UNL A   1      44.521  24.250  26.252  1.00  0.00     0.037 A 
ATOM     86  N   UNL A   1      46.827  23.701  25.822  1.00  0.00    -0.248 NA
ATOM     87  C   UNL A   1      44.876  24.917  27.425  1.00  0.00     0.025 A 
ATOM     88  C   UNL A   1      47.144  24.360  26.964  1.00  0.00     0.132 A 
ATOM     89  C   UNL A   1      46.214  24.973  27.789  1.00  0.00     0.059 A 
ATOM     90  Cl  UNL A   1      46.693  25.764  29.234  1.00  0.00    -0.083 Cl
ENDBRANCH  83  84
ENDBRANCH  81  83
ENDBRANCH  74  77
ENDBRANCH  72  73
ENDBRANCH   1  72
TORSDOF 12
ENDMDL
MODEL 2
REMARK VINA RESULT:     -11.6      4.449     11.991
REMARK SMILES O=C(NCCCNC(=O)c1cncc(Sc2ccc(Cl)cn2)n1)c1ccc(-c2c3nc(c(-c4c(F)c(F)c(F)c(F)c4F)c4ccc([nH]4)c(-c4c(F)c(F)c(F)c(F)c4F)c4nc(c(-c5c(F)c(F)c(F)c(F)c5F)c5ccc2[nH]5)C=C4)C=C3)cc1
REMARK SMILES IDX 5 1 4 2 3 3 1 4 2 5 24 7 25 8 86 9 26 10 85 11 27 12 28 13
REMARK SMILES IDX 29 14 79 15 30 16 84 17 78 18 80 19 31 20 83 21 77 22 76 23
REMARK SMILES IDX 32 25 64 26 44 27 63 28 45 29 48 30 62 31 81 32 46 33 47 34
REMARK SMILES IDX 61 36 82 37 49 38 33 39 34 40 42 41 35 42 36 43 40 44 43 45
REMARK SMILES IDX 37 46 38 47 41 48 39 49 65 50 66 51 74 52 67 53 68 54 72 55
REMARK SMILES IDX 75 56 69 57 70 58 73 59 71 60 50 61 51 62 59 63 52 64 53 65
REMARK SMILES IDX 57 66 60 67 54 68 55 69 58 70 56 71 6 72 7 73 8 74 9 76
REMARK SMILES IDX 10 77 11 78 23 79 12 80 14 81 13 82 15 83 16 84 17 85 22 86
REMARK SMILES IDX 18 87 21 88 19 89 20 90
REMARK H PARENT 3 6 80 24 48 35 7 75
REMARK Flexibility Score: inf
ROOT
ATOM      1  C   UNL A   1      35.223  33.464  28.001  1.00  0.00     0.042 C 
ENDROOT
BRANCH   1   2
ATOM      2  C   UNL A   1      34.723  32.439  29.011  1.00  0.00     0.118 C 
BRANCH   2   3
ATOM      3  N   UNL A   1      34.136  31.261  28.381  1.00  0.00    -0.352 N 
ATOM      4  O   UNL A   1      34.063  29.312  27.261  1.00  0.00    -0.269 OA
ATOM      5  C   UNL A   1      34.723  30.106  27.927  1.00  0.00     0.251 C 
ATOM      6  H   UNL A   1      33.161  31.302  28.262  1.00  0.00     0.163 HD
BRANCH   5   7
ATOM      7  C   UNL A   1      36.146  29.821  28.211  1.00  0.00     0.039 A 
ATOM      8  C   UNL A   1      37.134  30.071  27.258  1.00  0.00     0.014 A 
ATOM      9  C   UNL A   1      36.502  29.323  29.468  1.00  0.00     0.014 A 
ATOM     10  C   UNL A   1      38.443  29.668  27.493  1.00  0.00     0.010 A 
ATOM     11  C   UNL A   1      37.838  29.015  29.743  1.00  0.00     0.010 A 
ATOM     12  C   UNL A   1      38.815  29.152  28.744  1.00  0.00    -0.014 A 
BRANCH  12  13
ATOM     13  C   UNL A   1      40.238  28.818  29.002  1.00  0.00     0.031 A 
ATOM     14  C   UNL A   1      41.141  29.771  29.735  1.00  0.00     0.074 A 
ATOM     15  C   UNL A   1      40.711  27.628  28.582  1.00  0.00     0.049 A 
ATOM     16  N   UNL A   1      42.408  29.641  30.037  1.00  0.00    -0.248 NA
ATOM     17  C   UNL A   1      40.546  31.041  30.180  1.00  0.00     0.031 C 
ATOM     18  C   UNL A   1      39.932  26.624  27.855  1.00  0.00     0.029 A 
ATOM     19  N   UNL A   1      41.951  27.057  28.712  1.00  0.00    -0.354 N 
ATOM     20  C   UNL A   1      42.767  30.814  30.689  1.00  0.00     0.074 A 
ATOM     21  C   UNL A   1      41.591  31.658  30.713  1.00  0.00     0.031 C 
ATOM     22  C   UNL A   1      40.698  25.545  27.637  1.00  0.00     0.029 A 
ATOM     23  C   UNL A   1      42.039  25.808  28.146  1.00  0.00     0.049 A 
ATOM     24  H   UNL A   1      42.704  27.497  29.167  1.00  0.00     0.167 HD
ATOM     25  C   UNL A   1      43.967  31.149  31.225  1.00  0.00     0.037 A 
ATOM     26  C   UNL A   1      43.088  24.976  28.026  1.00  0.00     0.037 A 
ATOM     27  C   UNL A   1      45.130  30.297  31.204  1.00  0.00     0.049 A 
ATOM     28  C   UNL A   1      44.415  25.390  28.593  1.00  0.00     0.074 A 
ATOM     29  C   UNL A   1      46.380  30.530  31.749  1.00  0.00     0.029 A 
ATOM     30  N   UNL A   1      45.189  29.051  30.595  1.00  0.00    -0.354 N 
ATOM     31  N   UNL A   1      44.733  26.485  29.239  1.00  0.00    -0.248 NA
ATOM     32  C   UNL A   1      45.531  24.453  28.413  1.00  0.00     0.031 C 
ATOM     33  C   UNL A   1      47.210  29.453  31.422  1.00  0.00     0.029 A 
ATOM     34  C   UNL A   1      46.462  28.517  30.728  1.00  0.00     0.049 A 
ATOM     35  H   UNL A   1      44.437  28.611  30.136  1.00  0.00     0.167 HD
ATOM     36  C   UNL A   1      46.076  26.360  29.563  1.00  0.00     0.074 A 
ATOM     37  C   UNL A   1      46.509  25.073  29.058  1.00  0.00     0.031 C 
ATOM     38  C   UNL A   1      46.878  27.233  30.221  1.00  0.00     0.037 A 
BRANCH  25  39
ATOM     39  C   UNL A   1      44.093  32.505  31.861  1.00  0.00     0.064 A 
ATOM     40  C   UNL A   1      43.949  32.691  33.245  1.00  0.00     0.173 A 
ATOM     41  C   UNL A   1      44.404  33.629  31.080  1.00  0.00     0.173 A 
ATOM     42  F   UNL A   1      43.643  31.653  34.038  1.00  0.00    -0.203 F 
ATOM     43  C   UNL A   1      44.082  33.954  33.816  1.00  0.00     0.198 A 
ATOM     44  C   UNL A   1      44.567  34.885  31.660  1.00  0.00     0.198 A 
ATOM     45  F   UNL A   1      44.561  33.508  29.753  1.00  0.00    -0.203 F 
ATOM     46  F   UNL A   1      43.890  34.116  35.133  1.00  0.00    -0.200 F 
ATOM     47  C   UNL A   1      44.398  35.048  33.025  1.00  0.00     0.200 A 
ATOM     48  F   UNL A   1      44.888  35.938  30.894  1.00  0.00    -0.200 F 
ATOM     49  F   UNL A   1      44.531  36.263  33.578  1.00  0.00    -0.200 F 
ENDBRANCH  25  39
BRANCH  26  50
ATOM     50  C   UNL A   1      42.918  23.674  27.331  1.00  0.00     0.064 A 
ATOM     51  C   UNL A   1      42.363  22.570  27.991  1.00  0.00     0.173 A 
ATOM     52  C   UNL A   1      43.290  23.513  25.987  1.00  0.00     0.173 A 
ATOM     53  F   UNL A   1      42.009  22.669  29.281  1.00  0.00    -0.203 F 
ATOM     54  C   UNL A   1      42.201  21.349  27.339  1.00  0.00     0.198 A 
ATOM     55  C   UNL A   1      43.097  22.303  25.327  1.00  0.00     0.198 A 
ATOM     56  F   UNL A   1      43.818  24.542  25.309  1.00  0.00    -0.203 F 
ATOM     57  F   UNL A   1      41.707  20.296  28.005  1.00  0.00    -0.200 F 
ATOM     58  C   UNL A   1      42.561  21.219  26.005  1.00  0.00     0.200 A 
ATOM     59  F   UNL A   1      43.427  22.188  24.033  1.00  0.00    -0.200 F 
ATOM     60  F   UNL A   1      42.395  20.048  25.376  1.00  0.00    -0.200 F 
ENDBRANCH  26  50
BRANCH  38  61
ATOM     61  C   UNL A   1      48.297  26.809  30.466  1.00  0.00     0.064 A 
ATOM     62  C   UNL A   1      49.340  27.190  29.610  1.00  0.00     0.173 A 
ATOM     63  C   UNL A   1      48.620  26.036  31.592  1.00  0.00     0.173 A 
ATOM     64  F   UNL A   1      49.082  27.914  28.510  1.00  0.00    -0.203 F 
ATOM     65  C   UNL A   1      50.651  26.788  29.856  1.00  0.00     0.198 A 
ATOM     66  C   UNL A   1      49.935  25.665  31.853  1.00  0.00     0.198 A 
ATOM     67  F   UNL A   1      47.660  25.649  32.445  1.00  0.00    -0.203 F 
ATOM     68  F   UNL A   1      51.624  27.119  28.996  1.00  0.00    -0.200 F 
ATOM     69  C   UNL A   1      50.949  26.034  30.982  1.00  0.00     0.200 A 
ATOM     70  F   UNL A   1      50.223  24.947  32.948  1.00  0.00    -0.200 F 
ATOM     71  F   UNL A   1      52.211  25.654  31.221  1.00  0.00    -0.200 F 
ENDBRANCH  38  61
ENDBRANCH  12  13
ENDBRANCH   5   7
ENDBRANCH   2   3
ENDBRANCH   1   2
BRANCH   1  72
ATOM     72  C   UNL A   1      35.251  34.891  28.529  1.00  0.00     0.118 C 
BRANCH  72  73
ATOM     73  N   UNL A   1      34.000  35.590  28.282  1.00  0.00    -0.351 N 
ATOM     74  C   UNL A   1      33.067  36.066  29.174  1.00  0.00     0.271 C 
ATOM     75  H   UNL A   1      33.788  35.745  27.333  1.00  0.00     0.163 HD
ATOM     76  O   UNL A   1      31.981  36.453  28.751  1.00  0.00    -0.267 OA
BRANCH  74  77
ATOM     77  C   UNL A   1      33.379  36.134  30.621  1.00  0.00     0.147 A 
ATOM     78  C   UNL A   1      33.278  37.341  31.295  1.00  0.00     0.145 A 
ATOM     79  N   UNL A   1      33.720  34.972  31.240  1.00  0.00    -0.233 NA
ATOM     80  N   UNL A   1      33.565  37.457  32.612  1.00  0.00    -0.259 NA
ATOM     81  C   UNL A   1      33.954  35.063  32.569  1.00  0.00     0.122 A 
ATOM     82  C   UNL A   1      33.895  36.292  33.228  1.00  0.00     0.146 A 
BRANCH  81  83
ATOM     83  S   UNL A   1      34.396  33.611  33.496  1.00  0.00    -0.048 SA
BRANCH  83  84
ATOM     84  C   UNL A   1      36.170  33.593  33.406  1.00  0.00     0.102 A 
ATOM     85  C   UNL A   1      36.831  32.730  32.535  1.00  0.00     0.037 A 
ATOM     86  N   UNL A   1      36.822  34.527  34.140  1.00  0.00    -0.248 NA
ATOM     87  C   UNL A   1      38.219  32.809  32.422  1.00  0.00     0.025 A 
ATOM     88  C   UNL A   1      38.172  34.579  34.014  1.00  0.00     0.132 A 
ATOM     89  C   UNL A   1      38.904  33.753  33.175  1.00  0.00     0.059 A 
ATOM     90  Cl  UNL A   1      40.609  33.899  33.051  1.00  0.00    -0.083 Cl
ENDBRANCH  83  84
ENDBRANCH  81  83
ENDBRANCH  74  77
ENDBRANCH  72  73
ENDBRANCH   1  72
TORSDOF 12
ENDMDL
MODEL 3
REMARK VINA RESULT:     -11.6      0.421      2.027
REMARK SMILES O=C(NCCCNC(=O)c1cncc(Sc2ccc(Cl)cn2)n1)c1ccc(-c2c3nc(c(-c4c(F)c(F)c(F)c(F)c4F)c4ccc([nH]4)c(-c4c(F)c(F)c(F)c(F)c4F)c4nc(c(-c5c(F)c(F)c(F)c(F)c5F)c5ccc2[nH]5)C=C4)C=C3)cc1
REMARK SMILES IDX 5 1 4 2 3 3 1 4 2 5 24 7 25 8 86 9 26 10 85 11 27 12 28 13
REMARK SMILES IDX 29 14 79 15 30 16 84 17 78 18 80 19 31 20 83 21 77 22 76 23
REMARK SMILES IDX 32 25 64 26 44 27 63 28 45 29 48 30 62 31 81 32 46 33 47 34
REMARK SMILES IDX 61 36 82 37 49 38 33 39 34 40 42 41 35 42 36 43 40 44 43 45
REMARK SMILES IDX 37 46 38 47 41 48 39 49 65 50 66 51 74 52 67 53 68 54 72 55
REMARK SMILES IDX 75 56 69 57 70 58 73 59 71 60 50 61 51 62 59 63 52 64 53 65
REMARK SMILES IDX 57 66 60 67 54 68 55 69 58 70 56 71 6 72 7 73 8 74 9 76
REMARK SMILES IDX 10 77 11 78 23 79 12 80 14 81 13 82 15 83 16 84 17 85 22 86
REMARK SMILES IDX 18 87 21 88 19 89 20 90
REMARK H PARENT 3 6 80 24 48 35 7 75
REMARK Flexibility Score: inf
ROOT
ATOM      1  C   UNL A   1      40.775  20.986  27.365  1.00  0.00     0.042 C 
ENDROOT
BRANCH   1   2
ATOM      2  C   UNL A   1      40.897  22.245  26.515  1.00  0.00     0.118 C 
BRANCH   2   3
ATOM      3  N   UNL A   1      39.639  22.631  25.887  1.00  0.00    -0.352 N 
ATOM      4  O   UNL A   1      37.711  23.752  25.592  1.00  0.00    -0.269 OA
ATOM      5  C   UNL A   1      38.825  23.713  26.111  1.00  0.00     0.251 C 
ATOM      6  H   UNL A   1      39.322  22.014  25.190  1.00  0.00     0.163 HD
BRANCH   5   7
ATOM      7  C   UNL A   1      39.265  24.820  26.987  1.00  0.00     0.039 A 
ATOM      8  C   UNL A   1      38.954  24.828  28.347  1.00  0.00     0.014 A 
ATOM      9  C   UNL A   1      40.033  25.854  26.443  1.00  0.00     0.014 A 
ATOM     10  C   UNL A   1      39.258  25.940  29.122  1.00  0.00     0.010 A 
ATOM     11  C   UNL A   1      40.429  26.926  27.248  1.00  0.00     0.010 A 
ATOM     12  C   UNL A   1      40.014  26.995  28.588  1.00  0.00    -0.014 A 
BRANCH  12  13
ATOM     13  C   UNL A   1      40.406  28.129  29.463  1.00  0.00     0.031 A 
ATOM     14  C   UNL A   1      41.766  28.184  30.101  1.00  0.00     0.074 A 
ATOM     15  C   UNL A   1      39.525  29.128  29.663  1.00  0.00     0.049 A 
ATOM     16  N   UNL A   1      42.268  29.094  30.897  1.00  0.00    -0.248 NA
ATOM     17  C   UNL A   1      42.680  27.067  29.818  1.00  0.00     0.031 C 
ATOM     18  C   UNL A   1      38.173  29.181  29.101  1.00  0.00     0.029 A 
ATOM     19  N   UNL A   1      39.632  30.290  30.383  1.00  0.00    -0.354 N 
ATOM     20  C   UNL A   1      43.545  28.655  31.223  1.00  0.00     0.074 A 
ATOM     21  C   UNL A   1      43.731  27.380  30.563  1.00  0.00     0.031 C 
ATOM     22  C   UNL A   1      37.591  30.333  29.464  1.00  0.00     0.029 A 
ATOM     23  C   UNL A   1      38.499  31.066  30.338  1.00  0.00     0.049 A 
ATOM     24  H   UNL A   1      40.441  30.545  30.881  1.00  0.00     0.167 HD
ATOM     25  C   UNL A   1      44.476  29.266  31.997  1.00  0.00     0.037 A 
ATOM     26  C   UNL A   1      38.210  32.227  30.953  1.00  0.00     0.037 A 
ATOM     27  C   UNL A   1      44.284  30.540  32.642  1.00  0.00     0.049 A 
ATOM     28  C   UNL A   1      39.247  32.861  31.836  1.00  0.00     0.074 A 
ATOM     29  C   UNL A   1      45.178  31.258  33.417  1.00  0.00     0.029 A 
ATOM     30  N   UNL A   1      43.112  31.282  32.598  1.00  0.00    -0.354 N 
ATOM     31  N   UNL A   1      40.463  32.453  32.108  1.00  0.00    -0.248 NA
ATOM     32  C   UNL A   1      38.870  34.115  32.500  1.00  0.00     0.031 C 
ATOM     33  C   UNL A   1      44.530  32.405  33.887  1.00  0.00     0.029 A 
ATOM     34  C   UNL A   1      43.251  32.436  33.355  1.00  0.00     0.049 A 
ATOM     35  H   UNL A   1      42.300  31.027  32.103  1.00  0.00     0.167 HD
ATOM     36  C   UNL A   1      41.005  33.411  32.953  1.00  0.00     0.074 A 
ATOM     37  C   UNL A   1      39.990  34.429  33.135  1.00  0.00     0.031 C 
ATOM     38  C   UNL A   1      42.233  33.442  33.526  1.00  0.00     0.037 A 
BRANCH  25  39
ATOM     39  C   UNL A   1      45.783  28.554  32.208  1.00  0.00     0.064 A 
ATOM     40  C   UNL A   1      45.975  27.655  33.269  1.00  0.00     0.173 A 
ATOM     41  C   UNL A   1      46.848  28.744  31.313  1.00  0.00     0.173 A 
ATOM     42  F   UNL A   1      44.994  27.443  34.160  1.00  0.00    -0.203 F 
ATOM     43  C   UNL A   1      47.189  26.996  33.440  1.00  0.00     0.198 A 
ATOM     44  C   UNL A   1      48.050  28.059  31.469  1.00  0.00     0.198 A 
ATOM     45  F   UNL A   1      46.718  29.586  30.276  1.00  0.00    -0.203 F 
ATOM     46  F   UNL A   1      47.365  26.180  34.489  1.00  0.00    -0.200 F 
ATOM     47  C   UNL A   1      48.223  27.192  32.537  1.00  0.00     0.200 A 
ATOM     48  F   UNL A   1      49.043  28.239  30.586  1.00  0.00    -0.200 F 
ATOM     49  F   UNL A   1      49.390  26.553  32.701  1.00  0.00    -0.200 F 
ENDBRANCH  25  39
BRANCH  26  50
ATOM     50  C   UNL A   1      36.878  32.852  30.756  1.00  0.00     0.064 A 
ATOM     51  C   UNL A   1      35.866  32.713  31.714  1.00  0.00     0.173 A 
ATOM     52  C   UNL A   1      36.595  33.617  29.613  1.00  0.00     0.173 A 
ATOM     53  F   UNL A   1      36.082  31.977  32.814  1.00  0.00    -0.203 F 
ATOM     54  C   UNL A   1      34.616  33.301  31.531  1.00  0.00     0.198 A 
ATOM     55  C   UNL A   1      35.357  34.231  29.446  1.00  0.00     0.198 A 
ATOM     56  F   UNL A   1      37.533  33.786  28.670  1.00  0.00    -0.203 F 
ATOM     57  F   UNL A   1      33.651  33.118  32.442  1.00  0.00    -0.200 F 
ATOM     58  C   UNL A   1      34.366  34.066  30.401  1.00  0.00     0.200 A 
ATOM     59  F   UNL A   1      35.127  34.986  28.363  1.00  0.00    -0.200 F 
ATOM     60  F   UNL A   1      33.167  34.641  30.230  1.00  0.00    -0.200 F 
ENDBRANCH  26  50
BRANCH  38  61
ATOM     61  C   UNL A   1      42.562  34.636  34.374  1.00  0.00     0.064 A 
ATOM     62  C   UNL A   1      43.041  35.830  33.815  1.00  0.00     0.173 A 
ATOM     63  C   UNL A   1      42.365  34.594  35.763  1.00  0.00     0.173 A 
ATOM     64  F   UNL A   1      43.263  35.916  32.494  1.00  0.00    -0.203 F 
ATOM     65  C   UNL A   1      43.337  36.928  34.619  1.00  0.00     0.198 A 
ATOM     66  C   UNL A   1      42.630  35.705  36.559  1.00  0.00     0.198 A 
ATOM     67  F   UNL A   1      41.904  33.479  36.348  1.00  0.00    -0.203 F 
ATOM     68  F   UNL A   1      43.844  38.041  34.069  1.00  0.00    -0.200 F 
ATOM     69  C   UNL A   1      43.124  36.868  35.988  1.00  0.00     0.200 A 
ATOM     70  F   UNL A   1      42.411  35.648  37.880  1.00  0.00    -0.200 F 
ATOM     71  F   UNL A   1      43.403  37.928  36.759  1.00  0.00    -0.200 F 
ENDBRANCH  38  61
ENDBRANCH  12  13
ENDBRANCH   5   7
ENDBRANCH   2   3
ENDBRANCH   1   2
BRANCH   1  72
ATOM     72  C   UNL A   1      42.101  20.289  27.634  1.00  0.00     0.118 C 
BRANCH  72  73
ATOM     73  N   UNL A   1      42.115  18.926  27.128  1.00  0.00    -0.351 N 
ATOM     74  C   UNL A   1      42.891  18.362  26.141  1.00  0.00     0.271 C 
ATOM     75  H   UNL A   1      41.473  18.315  27.555  1.00  0.00     0.163 HD
ATOM     76  O   UNL A   1      42.608  17.241  25.728  1.00  0.00    -0.267 OA
BRANCH  74  77
ATOM     77  C   UNL A   1      44.065  19.089  25.602  1.00  0.00     0.147 A 
ATOM     78  C   UNL A   1      45.310  18.479  25.589  1.00  0.00     0.145 A 
ATOM     79  N   UNL A   1      43.850  20.334  25.100  1.00  0.00    -0.233 NA
ATOM     80  N   UNL A   1      46.413  19.105  25.120  1.00  0.00    -0.259 NA
ATOM     81  C   UNL A   1      44.934  20.950  24.576  1.00  0.00     0.122 A 
ATOM     82  C   UNL A   1      46.192  20.345  24.610  1.00  0.00     0.146 A 
BRANCH  81  83
ATOM     83  S   UNL A   1      44.782  22.577  23.875  1.00  0.00    -0.048 SA
BRANCH  83  84
ATOM     84  C   UNL A   1      45.220  23.646  25.224  1.00  0.00     0.102 A 
ATOM     85  C   UNL A   1      44.291  24.535  25.760  1.00  0.00     0.037 A 
ATOM     86  N   UNL A   1      46.452  23.468  25.762  1.00  0.00    -0.248 NA
ATOM     87  C   UNL A   1      44.640  25.291  26.880  1.00  0.00     0.025 A 
ATOM     88  C   UNL A   1      46.766  24.220  26.847  1.00  0.00     0.132 A 
ATOM     89  C   UNL A   1      45.902  25.129  27.435  1.00  0.00     0.059 A 
ATOM     90  Cl  UNL A   1      46.365  26.023  28.825  1.00  0.00    -0.083 Cl
ENDBRANCH  83  84
ENDBRANCH  81  83
ENDBRANCH  74  77
ENDBRANCH  72  73
ENDBRANCH   1  72
TORSDOF 12
ENDMDL
