MODEL 1
REMARK VINA RESULT:     -13.4      0.000      0.000
REMARK SMILES O=C(CC[NH+]1CCC([N@H+]2CCC[C@H](C(=O)NCc3cccnc3)C2)CC1)NCCCNC(=O)c1ccc(-c2c3nc(c(-c4c(F)c(F)c(F)c(F)c4F)c4ccc([nH]4)c(-c4c(F)c(F)c(F)c(F)c4F)c4nc(c(-c5c(F)c(F)c(F)c(F)c5F)c5ccc2[nH]5)C=C4)C=C3)cc1
REMARK SMILES IDX 1 1 2 2 27 3 3 5 4 6 5 7 6 8 26 9 7 11 25 12 8 13 9 14 10 15
REMARK SMILES IDX 24 16 11 18 13 19 12 20 14 21 15 22 16 23 17 25 18 26 19 27
REMARK SMILES IDX 23 28 20 29 22 30 21 31 28 32 29 33 30 34 31 35 32 36 33 38
REMARK SMILES IDX 34 39 35 40 96 41 36 42 95 43 37 44 38 45 39 46 89 47 40 48
REMARK SMILES IDX 94 49 88 50 90 51 41 52 93 53 87 54 86 55 42 57 74 58 54 59
REMARK SMILES IDX 73 60 55 61 58 62 72 63 91 64 56 65 57 66 71 68 92 69 59 70
REMARK SMILES IDX 43 71 44 72 52 73 45 74 46 75 50 76 53 77 47 78 48 79 51 80
REMARK SMILES IDX 49 81 75 82 76 83 84 84 77 85 78 86 82 87 85 88 79 89 80 90
REMARK SMILES IDX 83 91 81 92 60 93 61 94 69 95 62 96 63 97 67 98 70 99 64 100
REMARK SMILES IDX 65 101 68 102 66 103
REMARK H PARENT 27 4 5 10 9 17 16 24 31 37 90 56 58 67
REMARK Flexibility Score: inf
ROOT
ATOM      1  O   UNL A   1      32.396  28.668  24.346  1.00  0.00    -0.275 OA
ATOM      2  C   UNL A   1      31.404  29.346  24.086  1.00  0.00     0.225 C 
ATOM      3  N   UNL A   1      30.975  30.378  24.886  1.00  0.00    -0.356 N 
ATOM      4  H   UNL A   1      30.218  30.929  24.582  1.00  0.00     0.163 HD
ENDROOT
BRANCH   2   5
ATOM      5  C   UNL A   1      30.646  29.151  22.780  1.00  0.00     0.161 C 
BRANCH   5   6
ATOM      6  C   UNL A   1      30.139  27.735  22.484  1.00  0.00     0.272 C 
BRANCH   6   7
ATOM      7  N   UNL A   1      31.025  26.647  22.932  1.00  0.00    -0.334 N 
ATOM      8  C   UNL A   1      30.308  25.496  23.500  1.00  0.00     0.268 C 
ATOM      9  C   UNL A   1      31.875  26.173  21.825  1.00  0.00     0.268 C 
ATOM     10  H   UNL A   1      31.595  27.051  23.675  1.00  0.00     0.348 HD
ATOM     11  C   UNL A   1      31.327  24.608  24.205  1.00  0.00     0.126 C 
ATOM     12  C   UNL A   1      32.986  25.284  22.381  1.00  0.00     0.126 C 
ATOM     13  C   UNL A   1      32.446  24.140  23.263  1.00  0.00     0.195 C 
BRANCH  13  14
ATOM     14  N   UNL A   1      33.575  23.459  23.937  1.00  0.00    -0.331 N 
ATOM     15  C   UNL A   1      34.851  23.509  23.209  1.00  0.00     0.262 C 
ATOM     16  C   UNL A   1      33.740  23.868  25.336  1.00  0.00     0.275 C 
ATOM     17  H   UNL A   1      33.296  22.478  23.934  1.00  0.00     0.348 HD
ATOM     18  C   UNL A   1      35.882  22.575  23.831  1.00  0.00     0.062 C 
ATOM     19  C   UNL A   1      34.824  23.089  26.089  1.00  0.00     0.133 C 
ATOM     20  C   UNL A   1      36.114  22.875  25.300  1.00  0.00     0.025 C 
BRANCH  19  21
ATOM     21  C   UNL A   1      34.362  21.856  26.867  1.00  0.00     0.229 C 
ATOM     22  O   UNL A   1      34.216  21.952  28.094  1.00  0.00    -0.275 OA
ATOM     23  N   UNL A   1      34.142  20.628  26.344  1.00  0.00    -0.352 N 
ATOM     24  H   UNL A   1      34.054  19.923  27.025  1.00  0.00     0.163 HD
BRANCH  23  25
ATOM     25  C   UNL A   1      34.010  20.138  24.988  1.00  0.00     0.153 C 
BRANCH  25  26
ATOM     26  C   UNL A   1      33.813  18.651  24.882  1.00  0.00    -0.010 A 
ATOM     27  C   UNL A   1      34.664  17.814  24.154  1.00  0.00     0.009 A 
ATOM     28  C   UNL A   1      32.659  18.070  25.405  1.00  0.00     0.116 A 
ATOM     29  C   UNL A   1      34.335  16.472  23.972  1.00  0.00     0.020 A 
ATOM     30  N   UNL A   1      32.322  16.768  25.262  1.00  0.00    -0.264 NA
ATOM     31  C   UNL A   1      33.165  16.001  24.541  1.00  0.00     0.111 A 
ENDBRANCH  25  26
ENDBRANCH  23  25
ENDBRANCH  19  21
ENDBRANCH  13  14
ENDBRANCH   6   7
ENDBRANCH   5   6
ENDBRANCH   2   5
BRANCH   3  32
ATOM     32  C   UNL A   1      31.592  30.687  26.160  1.00  0.00     0.117 C 
BRANCH  32  33
ATOM     33  C   UNL A   1      31.425  32.144  26.588  1.00  0.00     0.042 C 
BRANCH  33  34
ATOM     34  C   UNL A   1      32.637  32.773  27.275  1.00  0.00     0.118 C 
BRANCH  34  35
ATOM     35  N   UNL A   1      32.417  34.156  27.673  1.00  0.00    -0.352 N 
ATOM     36  C   UNL A   1      33.017  34.935  28.628  1.00  0.00     0.251 C 
ATOM     37  H   UNL A   1      31.711  34.614  27.164  1.00  0.00     0.163 HD
ATOM     38  O   UNL A   1      32.522  36.030  28.880  1.00  0.00    -0.269 OA
BRANCH  36  39
ATOM     39  C   UNL A   1      34.231  34.503  29.365  1.00  0.00     0.039 A 
ATOM     40  C   UNL A   1      34.057  34.022  30.669  1.00  0.00     0.014 A 
ATOM     41  C   UNL A   1      35.523  34.595  28.839  1.00  0.00     0.014 A 
ATOM     42  C   UNL A   1      35.147  33.543  31.396  1.00  0.00     0.010 A 
ATOM     43  C   UNL A   1      36.608  34.063  29.543  1.00  0.00     0.010 A 
ATOM     44  C   UNL A   1      36.423  33.502  30.815  1.00  0.00    -0.014 A 
BRANCH  44  45
ATOM     45  C   UNL A   1      37.528  32.769  31.487  1.00  0.00     0.031 A 
ATOM     46  C   UNL A   1      38.200  31.592  30.843  1.00  0.00     0.074 A 
ATOM     47  C   UNL A   1      37.886  33.150  32.730  1.00  0.00     0.049 A 
ATOM     48  N   UNL A   1      39.174  30.846  31.303  1.00  0.00    -0.248 NA
ATOM     49  C   UNL A   1      37.705  31.186  29.521  1.00  0.00     0.031 C 
ATOM     50  C   UNL A   1      37.265  34.241  33.485  1.00  0.00     0.029 A 
ATOM     51  N   UNL A   1      38.851  32.668  33.577  1.00  0.00    -0.354 N 
ATOM     52  C   UNL A   1      39.409  29.884  30.331  1.00  0.00     0.074 A 
ATOM     53  C   UNL A   1      38.443  30.111  29.275  1.00  0.00     0.031 C 
ATOM     54  C   UNL A   1      37.883  34.363  34.670  1.00  0.00     0.029 A 
ATOM     55  C   UNL A   1      38.916  33.340  34.774  1.00  0.00     0.049 A 
ATOM     56  H   UNL A   1      39.441  31.913  33.350  1.00  0.00     0.167 HD
ATOM     57  C   UNL A   1      40.355  28.913  30.315  1.00  0.00     0.037 A 
ATOM     58  C   UNL A   1      39.717  33.152  35.839  1.00  0.00     0.037 A 
ATOM     59  C   UNL A   1      41.318  28.694  31.366  1.00  0.00     0.049 A 
ATOM     60  C   UNL A   1      40.756  32.068  35.793  1.00  0.00     0.074 A 
ATOM     61  C   UNL A   1      42.349  27.772  31.414  1.00  0.00     0.029 A 
ATOM     62  N   UNL A   1      41.363  29.402  32.559  1.00  0.00    -0.354 N 
ATOM     63  N   UNL A   1      41.021  31.215  34.833  1.00  0.00    -0.248 NA
ATOM     64  C   UNL A   1      41.616  31.926  36.976  1.00  0.00     0.031 C 
ATOM     65  C   UNL A   1      42.987  27.889  32.655  1.00  0.00     0.029 A 
ATOM     66  C   UNL A   1      42.389  28.920  33.359  1.00  0.00     0.049 A 
ATOM     67  H   UNL A   1      40.755  30.138  32.803  1.00  0.00     0.167 HD
ATOM     68  C   UNL A   1      42.091  30.456  35.283  1.00  0.00     0.074 A 
ATOM     69  C   UNL A   1      42.440  30.960  36.595  1.00  0.00     0.031 C 
ATOM     70  C   UNL A   1      42.727  29.431  34.663  1.00  0.00     0.037 A 
BRANCH  57  71
ATOM     71  C   UNL A   1      40.400  28.006  29.117  1.00  0.00     0.064 A 
ATOM     72  C   UNL A   1      39.656  26.818  29.067  1.00  0.00     0.173 A 
ATOM     73  C   UNL A   1      41.156  28.354  27.987  1.00  0.00     0.173 A 
ATOM     74  F   UNL A   1      38.922  26.437  30.123  1.00  0.00    -0.203 F 
ATOM     75  C   UNL A   1      39.688  25.999  27.941  1.00  0.00     0.198 A 
ATOM     76  C   UNL A   1      41.161  27.547  26.851  1.00  0.00     0.198 A 
ATOM     77  F   UNL A   1      41.879  29.484  27.976  1.00  0.00    -0.203 F 
ATOM     78  F   UNL A   1      39.001  24.848  27.934  1.00  0.00    -0.200 F 
ATOM     79  C   UNL A   1      40.433  26.368  26.832  1.00  0.00     0.200 A 
ATOM     80  F   UNL A   1      41.871  27.912  25.774  1.00  0.00    -0.200 F 
ATOM     81  F   UNL A   1      40.454  25.584  25.746  1.00  0.00    -0.200 F 
ENDBRANCH  57  71
BRANCH  58  82
ATOM     82  C   UNL A   1      39.586  34.033  37.028  1.00  0.00     0.064 A 
ATOM     83  C   UNL A   1      38.820  33.640  38.134  1.00  0.00     0.173 A 
ATOM     84  C   UNL A   1      40.223  35.281  37.085  1.00  0.00     0.173 A 
ATOM     85  F   UNL A   1      38.176  32.464  38.119  1.00  0.00    -0.203 F 
ATOM     86  C   UNL A   1      38.676  34.472  39.242  1.00  0.00     0.198 A 
ATOM     87  C   UNL A   1      40.103  36.099  38.206  1.00  0.00     0.198 A 
ATOM     88  F   UNL A   1      40.974  35.700  36.056  1.00  0.00    -0.203 F 
ATOM     89  F   UNL A   1      37.899  34.092  40.265  1.00  0.00    -0.200 F 
ATOM     90  C   UNL A   1      39.323  35.698  39.280  1.00  0.00     0.200 A 
ATOM     91  F   UNL A   1      40.742  37.277  38.245  1.00  0.00    -0.200 F 
ATOM     92  F   UNL A   1      39.188  36.496  40.348  1.00  0.00    -0.200 F 
ENDBRANCH  58  82
BRANCH  70  93
ATOM     93  C   UNL A   1      43.887  28.809  35.388  1.00  0.00     0.064 A 
ATOM     94  C   UNL A   1      43.716  27.727  36.263  1.00  0.00     0.173 A 
ATOM     95  C   UNL A   1      45.188  29.295  35.192  1.00  0.00     0.173 A 
ATOM     96  F   UNL A   1      42.489  27.236  36.498  1.00  0.00    -0.203 F 
ATOM     97  C   UNL A   1      44.800  27.175  36.940  1.00  0.00     0.198 A 
ATOM     98  C   UNL A   1      46.275  28.721  35.846  1.00  0.00     0.198 A 
ATOM     99  F   UNL A   1      45.409  30.325  34.362  1.00  0.00    -0.203 F 
ATOM    100  F   UNL A   1      44.604  26.178  37.815  1.00  0.00    -0.200 F 
ATOM    101  C   UNL A   1      46.079  27.668  36.727  1.00  0.00     0.200 A 
ATOM    102  F   UNL A   1      47.511  29.190  35.630  1.00  0.00    -0.200 F 
ATOM    103  F   UNL A   1      47.121  27.135  37.379  1.00  0.00    -0.200 F 
ENDBRANCH  70  93
ENDBRANCH  44  45
ENDBRANCH  36  39
ENDBRANCH  34  35
ENDBRANCH  33  34
ENDBRANCH  32  33
ENDBRANCH   3  32
TORSDOF 16
ENDMDL
MODEL 2
REMARK VINA RESULT:     -13.3      5.535     11.532
REMARK SMILES O=C(CC[NH+]1CCC([N@H+]2CCC[C@H](C(=O)NCc3cccnc3)C2)CC1)NCCCNC(=O)c1ccc(-c2c3nc(c(-c4c(F)c(F)c(F)c(F)c4F)c4ccc([nH]4)c(-c4c(F)c(F)c(F)c(F)c4F)c4nc(c(-c5c(F)c(F)c(F)c(F)c5F)c5ccc2[nH]5)C=C4)C=C3)cc1
REMARK SMILES IDX 1 1 2 2 27 3 3 5 4 6 5 7 6 8 26 9 7 11 25 12 8 13 9 14 10 15
REMARK SMILES IDX 24 16 11 18 13 19 12 20 14 21 15 22 16 23 17 25 18 26 19 27
REMARK SMILES IDX 23 28 20 29 22 30 21 31 28 32 29 33 30 34 31 35 32 36 33 38
REMARK SMILES IDX 34 39 35 40 96 41 36 42 95 43 37 44 38 45 39 46 89 47 40 48
REMARK SMILES IDX 94 49 88 50 90 51 41 52 93 53 87 54 86 55 42 57 74 58 54 59
REMARK SMILES IDX 73 60 55 61 58 62 72 63 91 64 56 65 57 66 71 68 92 69 59 70
REMARK SMILES IDX 43 71 44 72 52 73 45 74 46 75 50 76 53 77 47 78 48 79 51 80
REMARK SMILES IDX 49 81 75 82 76 83 84 84 77 85 78 86 82 87 85 88 79 89 80 90
REMARK SMILES IDX 83 91 81 92 60 93 61 94 69 95 62 96 63 97 67 98 70 99 64 100
REMARK SMILES IDX 65 101 68 102 66 103
REMARK H PARENT 27 4 5 10 9 17 16 24 31 37 90 56 58 67
REMARK Flexibility Score: inf
ROOT
ATOM      1  O   UNL A   1      34.547  21.943  24.067  1.00  0.00    -0.275 OA
ATOM      2  C   UNL A   1      34.487  20.841  24.608  1.00  0.00     0.225 C 
ATOM      3  N   UNL A   1      35.603  20.144  25.004  1.00  0.00    -0.356 N 
ATOM      4  H   UNL A   1      35.483  19.301  25.499  1.00  0.00     0.163 HD
ENDROOT
BRANCH   2   5
ATOM      5  C   UNL A   1      33.145  20.225  24.978  1.00  0.00     0.161 C 
BRANCH   5   6
ATOM      6  C   UNL A   1      32.303  20.979  26.013  1.00  0.00     0.272 C 
BRANCH   6   7
ATOM      7  N   UNL A   1      32.183  22.430  25.783  1.00  0.00    -0.334 N 
ATOM      8  C   UNL A   1      30.793  22.909  25.746  1.00  0.00     0.268 C 
ATOM      9  C   UNL A   1      32.914  23.186  26.815  1.00  0.00     0.268 C 
ATOM     10  H   UNL A   1      32.589  22.591  24.863  1.00  0.00     0.348 HD
ATOM     11  C   UNL A   1      30.801  24.328  25.190  1.00  0.00     0.126 C 
ATOM     12  C   UNL A   1      33.040  24.646  26.383  1.00  0.00     0.126 C 
ATOM     13  C   UNL A   1      31.680  25.276  26.018  1.00  0.00     0.195 C 
BRANCH  13  14
ATOM     14  N   UNL A   1      31.899  26.607  25.407  1.00  0.00    -0.331 N 
ATOM     15  C   UNL A   1      31.601  27.747  26.285  1.00  0.00     0.262 C 
ATOM     16  C   UNL A   1      33.218  26.742  24.781  1.00  0.00     0.275 C 
ATOM     17  H   UNL A   1      31.200  26.644  24.663  1.00  0.00     0.348 HD
ATOM     18  C   UNL A   1      31.597  29.059  25.509  1.00  0.00     0.062 C 
ATOM     19  C   UNL A   1      33.423  28.067  24.037  1.00  0.00     0.133 C 
ATOM     20  C   UNL A   1      32.907  29.297  24.781  1.00  0.00     0.025 C 
BRANCH  19  21
ATOM     21  C   UNL A   1      33.098  28.066  22.542  1.00  0.00     0.229 C 
ATOM     22  O   UNL A   1      34.029  28.210  21.736  1.00  0.00    -0.275 OA
ATOM     23  N   UNL A   1      31.862  27.974  22.001  1.00  0.00    -0.352 N 
ATOM     24  H   UNL A   1      31.836  28.198  21.043  1.00  0.00     0.163 HD
BRANCH  23  25
ATOM     25  C   UNL A   1      30.569  27.612  22.542  1.00  0.00     0.153 C 
BRANCH  25  26
ATOM     26  C   UNL A   1      29.544  28.712  22.486  1.00  0.00    -0.010 A 
ATOM     27  C   UNL A   1      29.816  29.991  21.990  1.00  0.00     0.009 A 
ATOM     28  C   UNL A   1      28.296  28.522  23.078  1.00  0.00     0.116 A 
ATOM     29  C   UNL A   1      28.866  31.002  22.110  1.00  0.00     0.020 A 
ATOM     30  N   UNL A   1      27.347  29.478  23.193  1.00  0.00    -0.264 NA
ATOM     31  C   UNL A   1      27.658  30.699  22.712  1.00  0.00     0.111 A 
ENDBRANCH  25  26
ENDBRANCH  23  25
ENDBRANCH  19  21
ENDBRANCH  13  14
ENDBRANCH   6   7
ENDBRANCH   5   6
ENDBRANCH   2   5
BRANCH   3  32
ATOM     32  C   UNL A   1      36.949  20.598  24.723  1.00  0.00     0.117 C 
BRANCH  32  33
ATOM     33  C   UNL A   1      38.026  19.550  25.002  1.00  0.00     0.042 C 
BRANCH  33  34
ATOM     34  C   UNL A   1      39.244  20.044  25.780  1.00  0.00     0.118 C 
BRANCH  34  35
ATOM     35  N   UNL A   1      40.309  19.056  25.868  1.00  0.00    -0.352 N 
ATOM     36  C   UNL A   1      41.660  19.189  26.053  1.00  0.00     0.251 C 
ATOM     37  H   UNL A   1      40.003  18.125  25.778  1.00  0.00     0.163 HD
ATOM     38  O   UNL A   1      42.366  18.192  25.916  1.00  0.00    -0.269 OA
BRANCH  36  39
ATOM     39  C   UNL A   1      42.296  20.482  26.405  1.00  0.00     0.039 A 
ATOM     40  C   UNL A   1      42.869  21.225  25.365  1.00  0.00     0.014 A 
ATOM     41  C   UNL A   1      42.386  20.963  27.716  1.00  0.00     0.014 A 
ATOM     42  C   UNL A   1      43.430  22.477  25.617  1.00  0.00     0.010 A 
ATOM     43  C   UNL A   1      42.895  22.242  27.961  1.00  0.00     0.010 A 
ATOM     44  C   UNL A   1      43.391  23.024  26.908  1.00  0.00    -0.014 A 
BRANCH  44  45
ATOM     45  C   UNL A   1      43.757  24.447  27.129  1.00  0.00     0.031 A 
ATOM     46  C   UNL A   1      42.753  25.456  27.603  1.00  0.00     0.074 A 
ATOM     47  C   UNL A   1      45.015  24.837  26.839  1.00  0.00     0.049 A 
ATOM     48  N   UNL A   1      42.917  26.734  27.838  1.00  0.00    -0.248 NA
ATOM     49  C   UNL A   1      41.382  24.975  27.824  1.00  0.00     0.031 C 
ATOM     50  C   UNL A   1      46.066  23.961  26.314  1.00  0.00     0.029 A 
ATOM     51  N   UNL A   1      45.625  26.061  26.941  1.00  0.00    -0.354 N 
ATOM     52  C   UNL A   1      41.675  27.212  28.233  1.00  0.00     0.074 A 
ATOM     53  C   UNL A   1      40.755  26.095  28.161  1.00  0.00     0.031 C 
ATOM     54  C   UNL A   1      47.196  24.669  26.167  1.00  0.00     0.029 A 
ATOM     55  C   UNL A   1      46.943  26.053  26.551  1.00  0.00     0.049 A 
ATOM     56  H   UNL A   1      45.163  26.869  27.262  1.00  0.00     0.167 HD
ATOM     57  C   UNL A   1      41.340  28.462  28.636  1.00  0.00     0.037 A 
ATOM     58  C   UNL A   1      47.848  27.048  26.506  1.00  0.00     0.037 A 
ATOM     59  C   UNL A   1      42.260  29.569  28.711  1.00  0.00     0.049 A 
ATOM     60  C   UNL A   1      47.447  28.424  26.958  1.00  0.00     0.074 A 
ATOM     61  C   UNL A   1      42.026  30.858  29.160  1.00  0.00     0.029 A 
ATOM     62  N   UNL A   1      43.591  29.521  28.320  1.00  0.00    -0.354 N 
ATOM     63  N   UNL A   1      46.290  28.843  27.406  1.00  0.00    -0.248 NA
ATOM     64  C   UNL A   1      48.484  29.464  26.907  1.00  0.00     0.031 C 
ATOM     65  C   UNL A   1      43.201  31.602  28.995  1.00  0.00     0.029 A 
ATOM     66  C   UNL A   1      44.183  30.764  28.495  1.00  0.00     0.049 A 
ATOM     67  H   UNL A   1      44.049  28.723  27.970  1.00  0.00     0.167 HD
ATOM     68  C   UNL A   1      46.464  30.185  27.715  1.00  0.00     0.074 A 
ATOM     69  C   UNL A   1      47.846  30.505  27.421  1.00  0.00     0.031 C 
ATOM     70  C   UNL A   1      45.560  31.071  28.200  1.00  0.00     0.037 A 
BRANCH  57  71
ATOM     71  C   UNL A   1      39.910  28.706  29.031  1.00  0.00     0.064 A 
ATOM     72  C   UNL A   1      39.476  28.539  30.354  1.00  0.00     0.173 A 
ATOM     73  C   UNL A   1      38.976  29.161  28.087  1.00  0.00     0.173 A 
ATOM     74  F   UNL A   1      40.327  28.100  31.294  1.00  0.00    -0.203 F 
ATOM     75  C   UNL A   1      38.154  28.793  30.713  1.00  0.00     0.198 A 
ATOM     76  C   UNL A   1      37.663  29.442  28.456  1.00  0.00     0.198 A 
ATOM     77  F   UNL A   1      39.340  29.347  26.810  1.00  0.00    -0.203 F 
ATOM     78  F   UNL A   1      37.753  28.585  31.975  1.00  0.00    -0.200 F 
ATOM     79  C   UNL A   1      37.252  29.251  29.766  1.00  0.00     0.200 A 
ATOM     80  F   UNL A   1      36.795  29.900  27.543  1.00  0.00    -0.200 F 
ATOM     81  F   UNL A   1      35.983  29.505  30.115  1.00  0.00    -0.200 F 
ENDBRANCH  57  71
BRANCH  58  82
ATOM     82  C   UNL A   1      49.231  26.770  26.042  1.00  0.00     0.064 A 
ATOM     83  C   UNL A   1      49.601  26.991  24.708  1.00  0.00     0.173 A 
ATOM     84  C   UNL A   1      50.210  26.280  26.918  1.00  0.00     0.173 A 
ATOM     85  F   UNL A   1      48.694  27.440  23.828  1.00  0.00    -0.203 F 
ATOM     86  C   UNL A   1      50.891  26.711  24.262  1.00  0.00     0.198 A 
ATOM     87  C   UNL A   1      51.508  26.030  26.479  1.00  0.00     0.198 A 
ATOM     88  F   UNL A   1      49.910  26.059  28.206  1.00  0.00    -0.203 F 
ATOM     89  F   UNL A   1      51.204  26.887  22.972  1.00  0.00    -0.200 F 
ATOM     90  C   UNL A   1      51.845  26.236  25.150  1.00  0.00     0.200 A 
ATOM     91  F   UNL A   1      52.432  25.585  27.343  1.00  0.00    -0.200 F 
ATOM     92  F   UNL A   1      53.087  25.971  24.722  1.00  0.00    -0.200 F 
ENDBRANCH  58  82
BRANCH  70  93
ATOM     93  C   UNL A   1      46.048  32.466  28.470  1.00  0.00     0.064 A 
ATOM     94  C   UNL A   1      46.599  32.827  29.708  1.00  0.00     0.173 A 
ATOM     95  C   UNL A   1      45.977  33.448  27.471  1.00  0.00     0.173 A 
ATOM     96  F   UNL A   1      46.674  31.929  30.702  1.00  0.00    -0.203 F 
ATOM     97  C   UNL A   1      47.030  34.130  29.946  1.00  0.00     0.198 A 
ATOM     98  C   UNL A   1      46.438  34.741  27.702  1.00  0.00     0.198 A 
ATOM     99  F   UNL A   1      45.464  33.154  26.267  1.00  0.00    -0.203 F 
ATOM    100  F   UNL A   1      47.501  34.467  31.155  1.00  0.00    -0.200 F 
ATOM    101  C   UNL A   1      46.955  35.084  28.943  1.00  0.00     0.200 A 
ATOM    102  F   UNL A   1      46.376  35.658  26.727  1.00  0.00    -0.200 F 
ATOM    103  F   UNL A   1      47.371  36.336  29.174  1.00  0.00    -0.200 F 
ENDBRANCH  70  93
ENDBRANCH  44  45
ENDBRANCH  36  39
ENDBRANCH  34  35
ENDBRANCH  33  34
ENDBRANCH  32  33
ENDBRANCH   3  32
TORSDOF 16
ENDMDL
MODEL 3
REMARK VINA RESULT:     -13.1      5.402     11.279
REMARK SMILES O=C(CC[NH+]1CCC([N@H+]2CCC[C@H](C(=O)NCc3cccnc3)C2)CC1)NCCCNC(=O)c1ccc(-c2c3nc(c(-c4c(F)c(F)c(F)c(F)c4F)c4ccc([nH]4)c(-c4c(F)c(F)c(F)c(F)c4F)c4nc(c(-c5c(F)c(F)c(F)c(F)c5F)c5ccc2[nH]5)C=C4)C=C3)cc1
REMARK SMILES IDX 1 1 2 2 27 3 3 5 4 6 5 7 6 8 26 9 7 11 25 12 8 13 9 14 10 15
REMARK SMILES IDX 24 16 11 18 13 19 12 20 14 21 15 22 16 23 17 25 18 26 19 27
REMARK SMILES IDX 23 28 20 29 22 30 21 31 28 32 29 33 30 34 31 35 32 36 33 38
REMARK SMILES IDX 34 39 35 40 96 41 36 42 95 43 37 44 38 45 39 46 89 47 40 48
REMARK SMILES IDX 94 49 88 50 90 51 41 52 93 53 87 54 86 55 42 57 74 58 54 59
REMARK SMILES IDX 73 60 55 61 58 62 72 63 91 64 56 65 57 66 71 68 92 69 59 70
REMARK SMILES IDX 43 71 44 72 52 73 45 74 46 75 50 76 53 77 47 78 48 79 51 80
REMARK SMILES IDX 49 81 75 82 76 83 84 84 77 85 78 86 82 87 85 88 79 89 80 90
REMARK SMILES IDX 83 91 81 92 60 93 61 94 69 95 62 96 63 97 67 98 70 99 64 100
REMARK SMILES IDX 65 101 68 102 66 103
REMARK H PARENT 27 4 5 10 9 17 16 24 31 37 90 56 58 67
REMARK Flexibility Score: inf
ROOT
ATOM      1  O   UNL A   1      34.451  22.096  24.075  1.00  0.00    -0.275 OA
ATOM      2  C   UNL A   1      34.394  20.962  24.546  1.00  0.00     0.225 C 
ATOM      3  N   UNL A   1      35.502  20.289  25.003  1.00  0.00    -0.356 N 
ATOM      4  H   UNL A   1      35.377  19.414  25.437  1.00  0.00     0.163 HD
ENDROOT
BRANCH   2   5
ATOM      5  C   UNL A   1      33.055  20.271  24.757  1.00  0.00     0.161 C 
BRANCH   5   6
ATOM      6  C   UNL A   1      32.043  20.990  25.657  1.00  0.00     0.272 C 
BRANCH   6   7
ATOM      7  N   UNL A   1      31.981  22.452  25.484  1.00  0.00    -0.334 N 
ATOM      8  C   UNL A   1      31.046  22.884  24.435  1.00  0.00     0.268 C 
ATOM      9  C   UNL A   1      31.611  23.114  26.747  1.00  0.00     0.268 C 
ATOM     10  H   UNL A   1      32.918  22.729  25.194  1.00  0.00     0.348 HD
ATOM     11  C   UNL A   1      31.315  24.356  24.143  1.00  0.00     0.126 C 
ATOM     12  C   UNL A   1      31.861  24.616  26.627  1.00  0.00     0.126 C 
ATOM     13  C   UNL A   1      31.173  25.236  25.394  1.00  0.00     0.195 C 
BRANCH  13  14
ATOM     14  N   UNL A   1      31.632  26.633  25.219  1.00  0.00    -0.331 N 
ATOM     15  C   UNL A   1      31.463  27.491  26.401  1.00  0.00     0.262 C 
ATOM     16  C   UNL A   1      32.992  26.728  24.679  1.00  0.00     0.275 C 
ATOM     17  H   UNL A   1      30.994  27.006  24.516  1.00  0.00     0.348 HD
ATOM     18  C   UNL A   1      31.710  28.956  26.063  1.00  0.00     0.062 C 
ATOM     19  C   UNL A   1      33.444  28.161  24.376  1.00  0.00     0.133 C 
ATOM     20  C   UNL A   1      33.082  29.180  25.455  1.00  0.00     0.025 C 
BRANCH  19  21
ATOM     21  C   UNL A   1      33.214  28.662  22.949  1.00  0.00     0.229 C 
ATOM     22  O   UNL A   1      34.198  28.814  22.212  1.00  0.00    -0.275 OA
ATOM     23  N   UNL A   1      32.022  29.014  22.417  1.00  0.00    -0.352 N 
ATOM     24  H   UNL A   1      32.101  29.503  21.567  1.00  0.00     0.163 HD
BRANCH  23  25
ATOM     25  C   UNL A   1      30.652  28.819  22.842  1.00  0.00     0.153 C 
BRANCH  25  26
ATOM     26  C   UNL A   1      29.771  30.027  22.671  1.00  0.00    -0.010 A 
ATOM     27  C   UNL A   1      29.273  30.772  23.745  1.00  0.00     0.009 A 
ATOM     28  C   UNL A   1      29.296  30.359  21.403  1.00  0.00     0.116 A 
ATOM     29  C   UNL A   1      28.341  31.783  23.519  1.00  0.00     0.020 A 
ATOM     30  N   UNL A   1      28.407  31.346  21.151  1.00  0.00    -0.264 NA
ATOM     31  C   UNL A   1      27.944  32.030  22.217  1.00  0.00     0.111 A 
ENDBRANCH  25  26
ENDBRANCH  23  25
ENDBRANCH  19  21
ENDBRANCH  13  14
ENDBRANCH   6   7
ENDBRANCH   5   6
ENDBRANCH   2   5
BRANCH   3  32
ATOM     32  C   UNL A   1      36.845  20.814  24.871  1.00  0.00     0.117 C 
BRANCH  32  33
ATOM     33  C   UNL A   1      37.940  19.768  25.082  1.00  0.00     0.042 C 
BRANCH  33  34
ATOM     34  C   UNL A   1      39.190  20.259  25.811  1.00  0.00     0.118 C 
BRANCH  34  35
ATOM     35  N   UNL A   1      40.233  19.248  25.905  1.00  0.00    -0.352 N 
ATOM     36  C   UNL A   1      41.576  19.347  26.161  1.00  0.00     0.251 C 
ATOM     37  H   UNL A   1      39.917  18.328  25.760  1.00  0.00     0.163 HD
ATOM     38  O   UNL A   1      42.271  18.344  26.013  1.00  0.00    -0.269 OA
BRANCH  36  39
ATOM     39  C   UNL A   1      42.215  20.612  26.601  1.00  0.00     0.039 A 
ATOM     40  C   UNL A   1      42.821  21.404  25.618  1.00  0.00     0.014 A 
ATOM     41  C   UNL A   1      42.277  21.017  27.937  1.00  0.00     0.014 A 
ATOM     42  C   UNL A   1      43.388  22.635  25.953  1.00  0.00     0.010 A 
ATOM     43  C   UNL A   1      42.791  22.275  28.267  1.00  0.00     0.010 A 
ATOM     44  C   UNL A   1      43.322  23.109  27.272  1.00  0.00    -0.014 A 
BRANCH  44  45
ATOM     45  C   UNL A   1      43.696  24.514  27.581  1.00  0.00     0.031 A 
ATOM     46  C   UNL A   1      42.663  25.551  27.911  1.00  0.00     0.074 A 
ATOM     47  C   UNL A   1      44.997  24.861  27.506  1.00  0.00     0.049 A 
ATOM     48  N   UNL A   1      42.831  26.818  28.199  1.00  0.00    -0.248 NA
ATOM     49  C   UNL A   1      41.260  25.118  27.898  1.00  0.00     0.031 C 
ATOM     50  C   UNL A   1      46.087  23.956  27.136  1.00  0.00     0.029 A 
ATOM     51  N   UNL A   1      45.624  26.059  27.733  1.00  0.00    -0.354 N 
ATOM     52  C   UNL A   1      41.559  27.335  28.400  1.00  0.00     0.074 A 
ATOM     53  C   UNL A   1      40.625  26.254  28.156  1.00  0.00     0.031 C 
ATOM     54  C   UNL A   1      47.250  24.623  27.188  1.00  0.00     0.029 A 
ATOM     55  C   UNL A   1      46.986  26.008  27.559  1.00  0.00     0.049 A 
ATOM     56  H   UNL A   1      45.144  26.879  27.994  1.00  0.00     0.167 HD
ATOM     57  C   UNL A   1      41.206  28.589  28.773  1.00  0.00     0.037 A 
ATOM     58  C   UNL A   1      47.920  26.970  27.682  1.00  0.00     0.037 A 
ATOM     59  C   UNL A   1      42.140  29.660  29.020  1.00  0.00     0.049 A 
ATOM     60  C   UNL A   1      47.499  28.352  28.095  1.00  0.00     0.074 A 
ATOM     61  C   UNL A   1      41.881  30.949  29.455  1.00  0.00     0.029 A 
ATOM     62  N   UNL A   1      43.514  29.569  28.847  1.00  0.00    -0.354 N 
ATOM     63  N   UNL A   1      46.299  28.806  28.361  1.00  0.00    -0.248 NA
ATOM     64  C   UNL A   1      48.566  29.353  28.235  1.00  0.00     0.031 C 
ATOM     65  C   UNL A   1      43.091  31.652  29.498  1.00  0.00     0.029 A 
ATOM     66  C   UNL A   1      44.112  30.786  29.143  1.00  0.00     0.049 A 
ATOM     67  H   UNL A   1      43.994  28.760  28.556  1.00  0.00     0.167 HD
ATOM     68  C   UNL A   1      46.467  30.135  28.726  1.00  0.00     0.074 A 
ATOM     69  C   UNL A   1      47.888  30.408  28.664  1.00  0.00     0.031 C 
ATOM     70  C   UNL A   1      45.527  31.046  29.079  1.00  0.00     0.037 A 
BRANCH  57  71
ATOM     71  C   UNL A   1      39.741  28.879  28.940  1.00  0.00     0.064 A 
ATOM     72  C   UNL A   1      38.950  29.307  27.863  1.00  0.00     0.173 A 
ATOM     73  C   UNL A   1      39.109  28.678  30.177  1.00  0.00     0.173 A 
ATOM     74  F   UNL A   1      39.505  29.520  26.660  1.00  0.00    -0.203 F 
ATOM     75  C   UNL A   1      37.587  29.548  28.025  1.00  0.00     0.198 A 
ATOM     76  C   UNL A   1      37.741  28.892  30.327  1.00  0.00     0.198 A 
ATOM     77  F   UNL A   1      39.816  28.261  31.238  1.00  0.00    -0.203 F 
ATOM     78  F   UNL A   1      36.862  29.997  26.991  1.00  0.00    -0.200 F 
ATOM     79  C   UNL A   1      36.983  29.333  29.253  1.00  0.00     0.200 A 
ATOM     80  F   UNL A   1      37.155  28.670  31.512  1.00  0.00    -0.200 F 
ATOM     81  F   UNL A   1      35.671  29.556  29.405  1.00  0.00    -0.200 F 
ENDBRANCH  57  71
BRANCH  58  82
ATOM     82  C   UNL A   1      49.350  26.648  27.439  1.00  0.00     0.064 A 
ATOM     83  C   UNL A   1      50.204  26.322  28.501  1.00  0.00     0.173 A 
ATOM     84  C   UNL A   1      49.889  26.656  26.145  1.00  0.00     0.173 A 
ATOM     85  F   UNL A   1      49.739  26.319  29.758  1.00  0.00    -0.203 F 
ATOM     86  C   UNL A   1      51.551  26.040  28.281  1.00  0.00     0.198 A 
ATOM     87  C   UNL A   1      51.229  26.344  25.923  1.00  0.00     0.198 A 
ATOM     88  F   UNL A   1      49.112  26.953  25.094  1.00  0.00    -0.203 F 
ATOM     89  F   UNL A   1      52.356  25.779  29.319  1.00  0.00    -0.200 F 
ATOM     90  C   UNL A   1      52.061  26.046  26.991  1.00  0.00     0.200 A 
ATOM     91  F   UNL A   1      51.714  26.336  24.673  1.00  0.00    -0.200 F 
ATOM     92  F   UNL A   1      53.355  25.770  26.779  1.00  0.00    -0.200 F 
ENDBRANCH  58  82
BRANCH  70  93
ATOM     93  C   UNL A   1      46.013  32.416  29.456  1.00  0.00     0.064 A 
ATOM     94  C   UNL A   1      46.127  33.446  28.510  1.00  0.00     0.173 A 
ATOM     95  C   UNL A   1      46.355  32.706  30.785  1.00  0.00     0.173 A 
ATOM     96  F   UNL A   1      45.828  33.215  27.222  1.00  0.00    -0.203 F 
ATOM     97  C   UNL A   1      46.596  34.705  28.875  1.00  0.00     0.198 A 
ATOM     98  C   UNL A   1      46.794  33.975  31.154  1.00  0.00     0.198 A 
ATOM     99  F   UNL A   1      46.260  31.760  31.731  1.00  0.00    -0.203 F 
ATOM    100  F   UNL A   1      46.750  35.656  27.944  1.00  0.00    -0.200 F 
ATOM    101  C   UNL A   1      46.924  34.971  30.196  1.00  0.00     0.200 A 
ATOM    102  F   UNL A   1      47.098  34.233  32.432  1.00  0.00    -0.200 F 
ATOM    103  F   UNL A   1      47.374  36.183  30.546  1.00  0.00    -0.200 F 
ENDBRANCH  70  93
ENDBRANCH  44  45
ENDBRANCH  36  39
ENDBRANCH  34  35
ENDBRANCH  33  34
ENDBRANCH  32  33
ENDBRANCH   3  32
TORSDOF 16
ENDMDL
