MODEL 1
REMARK VINA RESULT:     -14.1      0.000      0.000
REMARK SMILES C[C@@H]1CCCN(C(=O)CSc2nnc3c4ccccc4n(CC(=O)NCCCNC(=O)c4ccc(-c5c6nc(c(-c7c(F)c(F)c(F)c(F)c7F)c7ccc([nH]7)c(-c7c(F)c(F)c(F)c(F)c7F)c7nc(c(-c8c(F)c(F)c(F)c(F)c8F)c8ccc5[nH]8)C=C7)C=C6)cc4)c3n2)C1
REMARK SMILES IDX 23 1 24 2 25 3 22 5 21 6 11 7 12 8 96 9 13 10 95 11 14 12
REMARK SMILES IDX 15 13 20 14 16 15 19 16 17 17 18 18 10 19 9 20 7 21 8 22
REMARK SMILES IDX 6 23 1 24 2 25 3 26 97 27 4 28 5 29 26 30 27 31 28 32 29 33
REMARK SMILES IDX 30 34 31 36 32 37 33 38 94 39 34 40 93 41 35 42 36 43 37 44
REMARK SMILES IDX 87 45 38 46 92 47 86 48 88 49 39 50 91 51 85 52 84 53 40 55
REMARK SMILES IDX 72 56 52 57 71 58 53 59 56 60 70 61 89 62 54 63 55 64 69 66
REMARK SMILES IDX 90 67 57 68 41 69 42 70 50 71 43 72 44 73 48 74 51 75 45 76
REMARK SMILES IDX 46 77 49 78 47 79 73 80 74 81 82 82 75 83 76 84 80 85 83 86
REMARK SMILES IDX 77 87 78 88 81 89 79 90 58 91 59 92 67 93 60 94 61 95 65 96
REMARK SMILES IDX 68 97 62 98 63 99 66 100 64 101
REMARK H PARENT 25 4 29 35 88 54 56 65
REMARK Flexibility Score: inf
ROOT
ATOM      1  C   UNL A   1      34.179  24.429  22.889  1.00  0.00     0.240 C 
ATOM      2  O   UNL A   1      33.564  24.147  21.857  1.00  0.00    -0.273 OA
ATOM      3  N   UNL A   1      35.117  23.542  23.327  1.00  0.00    -0.354 N 
ATOM      4  H   UNL A   1      35.214  22.734  22.773  1.00  0.00     0.163 HD
ENDROOT
BRANCH   1   5
ATOM      5  C   UNL A   1      33.933  25.739  23.606  1.00  0.00     0.224 C 
BRANCH   5   6
ATOM      6  N   UNL A   1      32.609  25.840  24.197  1.00  0.00    -0.314 N 
ATOM      7  C   UNL A   1      32.190  23.587  26.900  1.00  0.00     0.211 A 
ATOM      8  N   UNL A   1      30.886  23.835  27.185  1.00  0.00    -0.122 NA
ATOM      9  N   UNL A   1      32.932  24.205  25.957  1.00  0.00    -0.201 NA
ATOM     10  N   UNL A   1      30.204  24.769  26.515  1.00  0.00    -0.144 NA
ATOM     11  C   UNL A   1      32.201  25.112  25.285  1.00  0.00     0.165 A 
ATOM     12  C   UNL A   1      30.871  25.407  25.521  1.00  0.00     0.138 A 
ATOM     13  C   UNL A   1      30.457  26.360  24.554  1.00  0.00     0.030 A 
ATOM     14  C   UNL A   1      31.570  26.634  23.743  1.00  0.00     0.053 A 
ATOM     15  C   UNL A   1      29.233  27.000  24.271  1.00  0.00     0.013 A 
ATOM     16  C   UNL A   1      31.500  27.546  22.677  1.00  0.00     0.027 A 
ATOM     17  C   UNL A   1      29.154  27.893  23.198  1.00  0.00     0.001 A 
ATOM     18  C   UNL A   1      30.275  28.163  22.418  1.00  0.00     0.002 A 
BRANCH   7  19
ATOM     19  S   UNL A   1      32.934  22.132  27.594  1.00  0.00    -0.074 SA
BRANCH  19  20
ATOM     20  C   UNL A   1      33.630  21.386  26.098  1.00  0.00     0.178 C 
BRANCH  20  21
ATOM     21  C   UNL A   1      32.590  20.660  25.260  1.00  0.00     0.233 C 
ATOM     22  O   UNL A   1      31.410  21.017  25.333  1.00  0.00    -0.274 OA
BRANCH  21  23
ATOM     23  N   UNL A   1      32.993  19.644  24.398  1.00  0.00    -0.342 N 
ATOM     24  C   UNL A   1      35.055  16.460  24.878  1.00  0.00     0.009 C 
ATOM     25  C   UNL A   1      33.855  17.322  24.499  1.00  0.00     0.005 C 
ATOM     26  C   UNL A   1      33.496  17.138  23.020  1.00  0.00     0.007 C 
ATOM     27  C   UNL A   1      34.125  18.803  24.797  1.00  0.00     0.122 C 
ATOM     28  C   UNL A   1      32.306  18.018  22.650  1.00  0.00     0.022 C 
ATOM     29  C   UNL A   1      32.546  19.480  23.013  1.00  0.00     0.119 C 
ENDBRANCH  21  23
ENDBRANCH  20  21
ENDBRANCH  19  20
ENDBRANCH   7  19
ENDBRANCH   5   6
ENDBRANCH   1   5
BRANCH   3  30
ATOM     30  C   UNL A   1      35.996  23.598  24.482  1.00  0.00     0.117 C 
BRANCH  30  31
ATOM     31  C   UNL A   1      37.158  22.607  24.381  1.00  0.00     0.042 C 
BRANCH  31  32
ATOM     32  C   UNL A   1      37.745  22.208  25.738  1.00  0.00     0.118 C 
BRANCH  32  33
ATOM     33  N   UNL A   1      39.183  22.025  25.727  1.00  0.00    -0.352 N 
ATOM     34  C   UNL A   1      40.255  22.637  26.320  1.00  0.00     0.251 C 
ATOM     35  H   UNL A   1      39.456  21.275  25.151  1.00  0.00     0.163 HD
ATOM     36  O   UNL A   1      41.344  22.106  26.133  1.00  0.00    -0.269 OA
BRANCH  34  37
ATOM     37  C   UNL A   1      40.203  23.906  27.100  1.00  0.00     0.039 A 
ATOM     38  C   UNL A   1      39.198  24.869  27.030  1.00  0.00     0.014 A 
ATOM     39  C   UNL A   1      41.320  24.158  27.922  1.00  0.00     0.014 A 
ATOM     40  C   UNL A   1      39.358  26.095  27.670  1.00  0.00     0.010 A 
ATOM     41  C   UNL A   1      41.476  25.375  28.577  1.00  0.00     0.010 A 
ATOM     42  C   UNL A   1      40.520  26.365  28.400  1.00  0.00    -0.014 A 
BRANCH  42  43
ATOM     43  C   UNL A   1      40.659  27.693  28.990  1.00  0.00     0.031 A 
ATOM     44  C   UNL A   1      41.738  28.547  28.410  1.00  0.00     0.074 A 
ATOM     45  C   UNL A   1      39.836  28.169  29.946  1.00  0.00     0.049 A 
ATOM     46  N   UNL A   1      42.765  29.062  29.007  1.00  0.00    -0.248 NA
ATOM     47  C   UNL A   1      41.703  28.793  26.960  1.00  0.00     0.031 C 
ATOM     48  C   UNL A   1      38.578  27.600  30.437  1.00  0.00     0.029 A 
ATOM     49  N   UNL A   1      39.929  29.340  30.637  1.00  0.00    -0.354 N 
ATOM     50  C   UNL A   1      43.442  29.810  28.044  1.00  0.00     0.074 A 
ATOM     51  C   UNL A   1      42.801  29.529  26.784  1.00  0.00     0.031 C 
ATOM     52  C   UNL A   1      37.926  28.528  31.176  1.00  0.00     0.029 A 
ATOM     53  C   UNL A   1      38.780  29.693  31.328  1.00  0.00     0.049 A 
ATOM     54  H   UNL A   1      40.746  29.891  30.645  1.00  0.00     0.167 HD
ATOM     55  C   UNL A   1      44.383  30.736  28.376  1.00  0.00     0.037 A 
ATOM     56  C   UNL A   1      38.532  30.886  31.922  1.00  0.00     0.037 A 
ATOM     57  C   UNL A   1      44.906  30.510  29.696  1.00  0.00     0.049 A 
ATOM     58  C   UNL A   1      39.840  31.549  32.152  1.00  0.00     0.074 A 
ATOM     59  C   UNL A   1      45.620  29.489  30.292  1.00  0.00     0.029 A 
ATOM     60  N   UNL A   1      44.446  31.283  30.731  1.00  0.00    -0.354 N 
ATOM     61  N   UNL A   1      40.733  31.130  33.004  1.00  0.00    -0.248 NA
ATOM     62  C   UNL A   1      40.332  32.442  31.114  1.00  0.00     0.031 C 
ATOM     63  C   UNL A   1      45.117  29.417  31.624  1.00  0.00     0.029 A 
ATOM     64  C   UNL A   1      44.167  30.428  31.765  1.00  0.00     0.049 A 
ATOM     65  H   UNL A   1      44.337  32.262  30.731  1.00  0.00     0.167 HD
ATOM     66  C   UNL A   1      41.949  31.355  32.377  1.00  0.00     0.074 A 
ATOM     67  C   UNL A   1      41.643  32.238  31.254  1.00  0.00     0.031 C 
ATOM     68  C   UNL A   1      43.043  30.590  32.656  1.00  0.00     0.037 A 
BRANCH  55  69
ATOM     69  C   UNL A   1      44.621  32.024  27.628  1.00  0.00     0.064 A 
ATOM     70  C   UNL A   1      45.797  32.181  26.865  1.00  0.00     0.173 A 
ATOM     71  C   UNL A   1      43.892  33.208  27.872  1.00  0.00     0.173 A 
ATOM     72  F   UNL A   1      46.578  31.128  26.585  1.00  0.00    -0.203 F 
ATOM     73  C   UNL A   1      46.245  33.438  26.447  1.00  0.00     0.198 A 
ATOM     74  C   UNL A   1      44.317  34.454  27.410  1.00  0.00     0.198 A 
ATOM     75  F   UNL A   1      42.809  33.224  28.657  1.00  0.00    -0.203 F 
ATOM     76  F   UNL A   1      47.431  33.552  25.833  1.00  0.00    -0.200 F 
ATOM     77  C   UNL A   1      45.508  34.574  26.727  1.00  0.00     0.200 A 
ATOM     78  F   UNL A   1      43.598  35.545  27.708  1.00  0.00    -0.200 F 
ATOM     79  F   UNL A   1      45.966  35.785  26.385  1.00  0.00    -0.200 F 
ENDBRANCH  55  69
BRANCH  56  80
ATOM     80  C   UNL A   1      37.252  31.637  31.959  1.00  0.00     0.064 A 
ATOM     81  C   UNL A   1      36.688  32.042  33.180  1.00  0.00     0.173 A 
ATOM     82  C   UNL A   1      36.718  32.227  30.797  1.00  0.00     0.173 A 
ATOM     83  F   UNL A   1      37.168  31.562  34.337  1.00  0.00    -0.203 F 
ATOM     84  C   UNL A   1      35.674  33.005  33.237  1.00  0.00     0.198 A 
ATOM     85  C   UNL A   1      35.701  33.182  30.855  1.00  0.00     0.198 A 
ATOM     86  F   UNL A   1      37.238  31.968  29.589  1.00  0.00    -0.203 F 
ATOM     87  F   UNL A   1      35.209  33.417  34.424  1.00  0.00    -0.200 F 
ATOM     88  C   UNL A   1      35.191  33.582  32.074  1.00  0.00     0.200 A 
ATOM     89  F   UNL A   1      35.269  33.759  29.724  1.00  0.00    -0.200 F 
ATOM     90  F   UNL A   1      34.268  34.552  32.131  1.00  0.00    -0.200 F 
ENDBRANCH  56  80
BRANCH  68  91
ATOM     91  C   UNL A   1      42.972  29.650  33.825  1.00  0.00     0.064 A 
ATOM     92  C   UNL A   1      43.323  30.009  35.138  1.00  0.00     0.173 A 
ATOM     93  C   UNL A   1      42.366  28.400  33.640  1.00  0.00     0.173 A 
ATOM     94  F   UNL A   1      43.819  31.222  35.413  1.00  0.00    -0.203 F 
ATOM     95  C   UNL A   1      43.106  29.142  36.209  1.00  0.00     0.198 A 
ATOM     96  C   UNL A   1      42.117  27.551  34.715  1.00  0.00     0.198 A 
ATOM     97  F   UNL A   1      41.961  28.025  32.417  1.00  0.00    -0.203 F 
ATOM     98  F   UNL A   1      43.454  29.506  37.453  1.00  0.00    -0.200 F 
ATOM     99  C   UNL A   1      42.493  27.918  35.997  1.00  0.00     0.200 A 
ATOM    100  F   UNL A   1      41.482  26.388  34.511  1.00  0.00    -0.200 F 
ATOM    101  F   UNL A   1      42.242  27.105  37.032  1.00  0.00    -0.200 F 
ENDBRANCH  68  91
ENDBRANCH  42  43
ENDBRANCH  34  37
ENDBRANCH  32  33
ENDBRANCH  31  32
ENDBRANCH  30  31
ENDBRANCH   3  30
TORSDOF 15
ENDMDL
MODEL 2
REMARK VINA RESULT:     -14.0      3.157      8.348
REMARK SMILES C[C@@H]1CCCN(C(=O)CSc2nnc3c4ccccc4n(CC(=O)NCCCNC(=O)c4ccc(-c5c6nc(c(-c7c(F)c(F)c(F)c(F)c7F)c7ccc([nH]7)c(-c7c(F)c(F)c(F)c(F)c7F)c7nc(c(-c8c(F)c(F)c(F)c(F)c8F)c8ccc5[nH]8)C=C7)C=C6)cc4)c3n2)C1
REMARK SMILES IDX 23 1 24 2 25 3 22 5 21 6 11 7 12 8 96 9 13 10 95 11 14 12
REMARK SMILES IDX 15 13 20 14 16 15 19 16 17 17 18 18 10 19 9 20 7 21 8 22
REMARK SMILES IDX 6 23 1 24 2 25 3 26 97 27 4 28 5 29 26 30 27 31 28 32 29 33
REMARK SMILES IDX 30 34 31 36 32 37 33 38 94 39 34 40 93 41 35 42 36 43 37 44
REMARK SMILES IDX 87 45 38 46 92 47 86 48 88 49 39 50 91 51 85 52 84 53 40 55
REMARK SMILES IDX 72 56 52 57 71 58 53 59 56 60 70 61 89 62 54 63 55 64 69 66
REMARK SMILES IDX 90 67 57 68 41 69 42 70 50 71 43 72 44 73 48 74 51 75 45 76
REMARK SMILES IDX 46 77 49 78 47 79 73 80 74 81 82 82 75 83 76 84 80 85 83 86
REMARK SMILES IDX 77 87 78 88 81 89 79 90 58 91 59 92 67 93 60 94 61 95 65 96
REMARK SMILES IDX 68 97 62 98 63 99 66 100 64 101
REMARK H PARENT 25 4 29 35 88 54 56 65
REMARK Flexibility Score: inf
ROOT
ATOM      1  C   UNL A   1      34.036  28.564  25.605  1.00  0.00     0.240 C 
ATOM      2  O   UNL A   1      34.281  28.335  24.417  1.00  0.00    -0.273 OA
ATOM      3  N   UNL A   1      34.754  29.546  26.220  1.00  0.00    -0.354 N 
ATOM      4  H   UNL A   1      35.425  29.987  25.649  1.00  0.00     0.163 HD
ENDROOT
BRANCH   1   5
ATOM      5  C   UNL A   1      32.940  27.813  26.330  1.00  0.00     0.224 C 
BRANCH   5   6
ATOM      6  N   UNL A   1      31.920  27.274  25.445  1.00  0.00    -0.314 N 
ATOM      7  C   UNL A   1      32.060  23.738  25.263  1.00  0.00     0.211 A 
ATOM      8  N   UNL A   1      31.088  23.533  24.337  1.00  0.00    -0.122 NA
ATOM      9  N   UNL A   1      32.433  24.929  25.778  1.00  0.00    -0.201 NA
ATOM     10  N   UNL A   1      30.386  24.557  23.843  1.00  0.00    -0.144 NA
ATOM     11  C   UNL A   1      31.726  25.933  25.231  1.00  0.00     0.165 A 
ATOM     12  C   UNL A   1      30.731  25.794  24.282  1.00  0.00     0.138 A 
ATOM     13  C   UNL A   1      30.290  27.092  23.916  1.00  0.00     0.030 A 
ATOM     14  C   UNL A   1      31.036  28.009  24.673  1.00  0.00     0.053 A 
ATOM     15  C   UNL A   1      29.344  27.581  22.992  1.00  0.00     0.013 A 
ATOM     16  C   UNL A   1      30.846  29.396  24.552  1.00  0.00     0.027 A 
ATOM     17  C   UNL A   1      29.166  28.961  22.853  1.00  0.00     0.001 A 
ATOM     18  C   UNL A   1      29.904  29.852  23.627  1.00  0.00     0.002 A 
BRANCH   7  19
ATOM     19  S   UNL A   1      33.158  22.393  25.632  1.00  0.00    -0.074 SA
BRANCH  19  20
ATOM     20  C   UNL A   1      33.864  22.099  23.990  1.00  0.00     0.178 C 
BRANCH  20  21
ATOM     21  C   UNL A   1      35.051  22.999  23.687  1.00  0.00     0.233 C 
ATOM     22  O   UNL A   1      34.872  24.015  23.007  1.00  0.00    -0.274 OA
BRANCH  21  23
ATOM     23  N   UNL A   1      36.300  22.687  24.216  1.00  0.00    -0.342 N 
ATOM     24  C   UNL A   1      38.532  24.358  26.832  1.00  0.00     0.009 C 
ATOM     25  C   UNL A   1      37.709  23.255  26.175  1.00  0.00     0.005 C 
ATOM     26  C   UNL A   1      38.573  22.019  25.896  1.00  0.00     0.007 C 
ATOM     27  C   UNL A   1      37.061  23.751  24.876  1.00  0.00     0.122 C 
ATOM     28  C   UNL A   1      37.741  20.931  25.224  1.00  0.00     0.022 C 
ATOM     29  C   UNL A   1      37.039  21.445  23.972  1.00  0.00     0.119 C 
ENDBRANCH  21  23
ENDBRANCH  20  21
ENDBRANCH  19  20
ENDBRANCH   7  19
ENDBRANCH   5   6
ENDBRANCH   1   5
BRANCH   3  30
ATOM     30  C   UNL A   1      34.688  30.045  27.582  1.00  0.00     0.117 C 
BRANCH  30  31
ATOM     31  C   UNL A   1      33.767  31.261  27.715  1.00  0.00     0.042 C 
BRANCH  31  32
ATOM     32  C   UNL A   1      34.447  32.480  28.344  1.00  0.00     0.118 C 
BRANCH  32  33
ATOM     33  N   UNL A   1      34.497  32.445  29.792  1.00  0.00    -0.352 N 
ATOM     34  C   UNL A   1      35.349  31.932  30.734  1.00  0.00     0.251 C 
ATOM     35  H   UNL A   1      33.727  32.904  30.201  1.00  0.00     0.163 HD
ATOM     36  O   UNL A   1      35.087  32.207  31.899  1.00  0.00    -0.269 OA
BRANCH  34  37
ATOM     37  C   UNL A   1      36.502  31.031  30.454  1.00  0.00     0.039 A 
ATOM     38  C   UNL A   1      36.535  29.653  30.661  1.00  0.00     0.014 A 
ATOM     39  C   UNL A   1      37.676  31.670  30.005  1.00  0.00     0.014 A 
ATOM     40  C   UNL A   1      37.732  28.954  30.536  1.00  0.00     0.010 A 
ATOM     41  C   UNL A   1      38.871  30.973  29.861  1.00  0.00     0.010 A 
ATOM     42  C   UNL A   1      38.909  29.624  30.186  1.00  0.00    -0.014 A 
BRANCH  42  43
ATOM     43  C   UNL A   1      40.146  28.849  30.138  1.00  0.00     0.031 A 
ATOM     44  C   UNL A   1      40.853  28.681  31.441  1.00  0.00     0.074 A 
ATOM     45  C   UNL A   1      40.602  28.253  29.018  1.00  0.00     0.049 A 
ATOM     46  N   UNL A   1      42.051  29.052  31.761  1.00  0.00    -0.248 NA
ATOM     47  C   UNL A   1      40.093  28.090  32.554  1.00  0.00     0.031 C 
ATOM     48  C   UNL A   1      39.922  28.075  27.732  1.00  0.00     0.029 A 
ATOM     49  N   UNL A   1      41.782  27.597  28.831  1.00  0.00    -0.354 N 
ATOM     50  C   UNL A   1      42.256  28.626  33.073  1.00  0.00     0.074 A 
ATOM     51  C   UNL A   1      40.987  28.130  33.543  1.00  0.00     0.031 C 
ATOM     52  C   UNL A   1      40.606  27.177  26.985  1.00  0.00     0.029 A 
ATOM     53  C   UNL A   1      41.837  26.832  27.675  1.00  0.00     0.049 A 
ATOM     54  H   UNL A   1      42.534  27.661  29.463  1.00  0.00     0.167 HD
ATOM     55  C   UNL A   1      43.498  28.563  33.628  1.00  0.00     0.037 A 
ATOM     56  C   UNL A   1      42.798  25.933  27.350  1.00  0.00     0.037 A 
ATOM     57  C   UNL A   1      44.436  29.393  32.924  1.00  0.00     0.049 A 
ATOM     58  C   UNL A   1      44.003  26.260  28.151  1.00  0.00     0.074 A 
ATOM     59  C   UNL A   1      44.547  30.751  32.696  1.00  0.00     0.029 A 
ATOM     60  N   UNL A   1      45.306  28.805  32.041  1.00  0.00    -0.354 N 
ATOM     61  N   UNL A   1      44.726  27.332  27.983  1.00  0.00    -0.248 NA
ATOM     62  C   UNL A   1      44.156  25.594  29.436  1.00  0.00     0.031 C 
ATOM     63  C   UNL A   1      45.066  30.860  31.373  1.00  0.00     0.029 A 
ATOM     64  C   UNL A   1      45.282  29.566  30.901  1.00  0.00     0.049 A 
ATOM     65  H   UNL A   1      45.843  27.993  32.196  1.00  0.00     0.167 HD
ATOM     66  C   UNL A   1      45.093  27.711  29.265  1.00  0.00     0.074 A 
ATOM     67  C   UNL A   1      44.783  26.561  30.109  1.00  0.00     0.031 C 
ATOM     68  C   UNL A   1      45.357  29.014  29.570  1.00  0.00     0.037 A 
BRANCH  55  69
ATOM     69  C   UNL A   1      43.938  27.523  34.629  1.00  0.00     0.064 A 
ATOM     70  C   UNL A   1      43.896  26.157  34.280  1.00  0.00     0.173 A 
ATOM     71  C   UNL A   1      44.109  27.794  36.003  1.00  0.00     0.173 A 
ATOM     72  F   UNL A   1      43.720  25.780  33.005  1.00  0.00    -0.203 F 
ATOM     73  C   UNL A   1      43.945  25.145  35.244  1.00  0.00     0.198 A 
ATOM     74  C   UNL A   1      44.208  26.780  36.956  1.00  0.00     0.198 A 
ATOM     75  F   UNL A   1      44.074  29.040  36.489  1.00  0.00    -0.203 F 
ATOM     76  F   UNL A   1      43.777  23.867  34.877  1.00  0.00    -0.200 F 
ATOM     77  C   UNL A   1      44.093  25.459  36.582  1.00  0.00     0.200 A 
ATOM     78  F   UNL A   1      44.333  27.105  38.251  1.00  0.00    -0.200 F 
ATOM     79  F   UNL A   1      44.076  24.497  37.513  1.00  0.00    -0.200 F 
ENDBRANCH  55  69
BRANCH  56  80
ATOM     80  C   UNL A   1      42.626  24.615  26.690  1.00  0.00     0.064 A 
ATOM     81  C   UNL A   1      43.263  24.329  25.471  1.00  0.00     0.173 A 
ATOM     82  C   UNL A   1      42.081  23.516  27.383  1.00  0.00     0.173 A 
ATOM     83  F   UNL A   1      43.847  25.311  24.769  1.00  0.00    -0.203 F 
ATOM     84  C   UNL A   1      43.379  23.019  24.992  1.00  0.00     0.198 A 
ATOM     85  C   UNL A   1      42.191  22.211  26.901  1.00  0.00     0.198 A 
ATOM     86  F   UNL A   1      41.521  23.671  28.591  1.00  0.00    -0.203 F 
ATOM     87  F   UNL A   1      44.055  22.778  23.861  1.00  0.00    -0.200 F 
ATOM     88  C   UNL A   1      42.853  21.961  25.714  1.00  0.00     0.200 A 
ATOM     89  F   UNL A   1      41.709  21.193  27.628  1.00  0.00    -0.200 F 
ATOM     90  F   UNL A   1      43.021  20.700  25.292  1.00  0.00    -0.200 F 
ENDBRANCH  56  80
BRANCH  68  91
ATOM     91  C   UNL A   1      45.470  29.999  28.441  1.00  0.00     0.064 A 
ATOM     92  C   UNL A   1      44.371  30.675  27.882  1.00  0.00     0.173 A 
ATOM     93  C   UNL A   1      46.749  30.398  28.029  1.00  0.00     0.173 A 
ATOM     94  F   UNL A   1      43.122  30.420  28.292  1.00  0.00    -0.203 F 
ATOM     95  C   UNL A   1      44.548  31.681  26.933  1.00  0.00     0.198 A 
ATOM     96  C   UNL A   1      46.923  31.426  27.108  1.00  0.00     0.198 A 
ATOM     97  F   UNL A   1      47.836  29.825  28.568  1.00  0.00    -0.203 F 
ATOM     98  F   UNL A   1      43.482  32.309  26.410  1.00  0.00    -0.200 F 
ATOM     99  C   UNL A   1      45.824  32.063  26.554  1.00  0.00     0.200 A 
ATOM    100  F   UNL A   1      48.161  31.824  26.781  1.00  0.00    -0.200 F 
ATOM    101  F   UNL A   1      45.994  33.061  25.677  1.00  0.00    -0.200 F 
ENDBRANCH  68  91
ENDBRANCH  42  43
ENDBRANCH  34  37
ENDBRANCH  32  33
ENDBRANCH  31  32
ENDBRANCH  30  31
ENDBRANCH   3  30
TORSDOF 15
ENDMDL
MODEL 3
REMARK VINA RESULT:     -13.8      1.919      4.641
REMARK SMILES C[C@@H]1CCCN(C(=O)CSc2nnc3c4ccccc4n(CC(=O)NCCCNC(=O)c4ccc(-c5c6nc(c(-c7c(F)c(F)c(F)c(F)c7F)c7ccc([nH]7)c(-c7c(F)c(F)c(F)c(F)c7F)c7nc(c(-c8c(F)c(F)c(F)c(F)c8F)c8ccc5[nH]8)C=C7)C=C6)cc4)c3n2)C1
REMARK SMILES IDX 23 1 24 2 25 3 22 5 21 6 11 7 12 8 96 9 13 10 95 11 14 12
REMARK SMILES IDX 15 13 20 14 16 15 19 16 17 17 18 18 10 19 9 20 7 21 8 22
REMARK SMILES IDX 6 23 1 24 2 25 3 26 97 27 4 28 5 29 26 30 27 31 28 32 29 33
REMARK SMILES IDX 30 34 31 36 32 37 33 38 94 39 34 40 93 41 35 42 36 43 37 44
REMARK SMILES IDX 87 45 38 46 92 47 86 48 88 49 39 50 91 51 85 52 84 53 40 55
REMARK SMILES IDX 72 56 52 57 71 58 53 59 56 60 70 61 89 62 54 63 55 64 69 66
REMARK SMILES IDX 90 67 57 68 41 69 42 70 50 71 43 72 44 73 48 74 51 75 45 76
REMARK SMILES IDX 46 77 49 78 47 79 73 80 74 81 82 82 75 83 76 84 80 85 83 86
REMARK SMILES IDX 77 87 78 88 81 89 79 90 58 91 59 92 67 93 60 94 61 95 65 96
REMARK SMILES IDX 68 97 62 98 63 99 66 100 64 101
REMARK H PARENT 25 4 29 35 88 54 56 65
REMARK Flexibility Score: inf
ROOT
ATOM      1  C   UNL A   1      36.925  23.024  25.361  1.00  0.00     0.240 C 
ATOM      2  O   UNL A   1      36.528  23.944  26.081  1.00  0.00    -0.273 OA
ATOM      3  N   UNL A   1      37.783  22.117  25.909  1.00  0.00    -0.354 N 
ATOM      4  H   UNL A   1      38.021  22.289  26.849  1.00  0.00     0.163 HD
ENDROOT
BRANCH   1   5
ATOM      5  C   UNL A   1      36.430  22.883  23.938  1.00  0.00     0.224 C 
BRANCH   5   6
ATOM      6  N   UNL A   1      35.013  22.573  23.842  1.00  0.00    -0.314 N 
ATOM      7  C   UNL A   1      33.137  25.318  22.616  1.00  0.00     0.211 A 
ATOM      8  N   UNL A   1      31.892  24.786  22.712  1.00  0.00    -0.122 NA
ATOM      9  N   UNL A   1      34.297  24.693  22.912  1.00  0.00    -0.201 NA
ATOM     10  N   UNL A   1      31.714  23.528  23.127  1.00  0.00    -0.144 NA
ATOM     11  C   UNL A   1      34.072  23.445  23.355  1.00  0.00     0.165 A 
ATOM     12  C   UNL A   1      32.832  22.846  23.483  1.00  0.00     0.138 A 
ATOM     13  C   UNL A   1      33.024  21.560  24.051  1.00  0.00     0.030 A 
ATOM     14  C   UNL A   1      34.404  21.399  24.251  1.00  0.00     0.053 A 
ATOM     15  C   UNL A   1      32.153  20.522  24.441  1.00  0.00     0.013 A 
ATOM     16  C   UNL A   1      34.938  20.224  24.804  1.00  0.00     0.027 A 
ATOM     17  C   UNL A   1      32.679  19.359  25.011  1.00  0.00     0.001 A 
ATOM     18  C   UNL A   1      34.052  19.213  25.184  1.00  0.00     0.002 A 
BRANCH   7  19
ATOM     19  S   UNL A   1      33.279  27.071  22.374  1.00  0.00    -0.074 SA
BRANCH  19  20
ATOM     20  C   UNL A   1      31.533  27.546  22.455  1.00  0.00     0.178 C 
BRANCH  20  21
ATOM     21  C   UNL A   1      31.256  28.604  23.511  1.00  0.00     0.233 C 
ATOM     22  O   UNL A   1      30.536  29.564  23.218  1.00  0.00    -0.274 OA
BRANCH  21  23
ATOM     23  N   UNL A   1      31.778  28.446  24.791  1.00  0.00    -0.342 N 
ATOM     24  C   UNL A   1      33.458  30.842  27.252  1.00  0.00     0.009 C 
ATOM     25  C   UNL A   1      32.437  29.831  26.738  1.00  0.00     0.005 C 
ATOM     26  C   UNL A   1      32.415  28.578  27.621  1.00  0.00     0.007 C 
ATOM     27  C   UNL A   1      32.729  29.446  25.282  1.00  0.00     0.122 C 
ATOM     28  C   UNL A   1      31.403  27.571  27.086  1.00  0.00     0.022 C 
ATOM     29  C   UNL A   1      31.650  27.243  25.617  1.00  0.00     0.119 C 
ENDBRANCH  21  23
ENDBRANCH  20  21
ENDBRANCH  19  20
ENDBRANCH   7  19
ENDBRANCH   5   6
ENDBRANCH   1   5
BRANCH   3  30
ATOM     30  C   UNL A   1      38.403  20.939  25.328  1.00  0.00     0.117 C 
BRANCH  30  31
ATOM     31  C   UNL A   1      39.645  20.490  26.103  1.00  0.00     0.042 C 
BRANCH  31  32
ATOM     32  C   UNL A   1      40.417  21.645  26.747  1.00  0.00     0.118 C 
BRANCH  32  33
ATOM     33  N   UNL A   1      41.463  22.196  25.909  1.00  0.00    -0.352 N 
ATOM     34  C   UNL A   1      42.091  23.406  25.790  1.00  0.00     0.251 C 
ATOM     35  H   UNL A   1      41.807  21.535  25.265  1.00  0.00     0.163 HD
ATOM     36  O   UNL A   1      43.028  23.447  25.001  1.00  0.00    -0.269 OA
BRANCH  34  37
ATOM     37  C   UNL A   1      41.686  24.661  26.484  1.00  0.00     0.039 A 
ATOM     38  C   UNL A   1      40.932  25.695  25.934  1.00  0.00     0.014 A 
ATOM     39  C   UNL A   1      42.185  24.817  27.794  1.00  0.00     0.014 A 
ATOM     40  C   UNL A   1      40.778  26.895  26.623  1.00  0.00     0.010 A 
ATOM     41  C   UNL A   1      42.020  26.007  28.494  1.00  0.00     0.010 A 
ATOM     42  C   UNL A   1      41.366  27.067  27.881  1.00  0.00    -0.014 A 
BRANCH  42  43
ATOM     43  C   UNL A   1      41.228  28.371  28.524  1.00  0.00     0.031 A 
ATOM     44  C   UNL A   1      42.333  29.339  28.263  1.00  0.00     0.074 A 
ATOM     45  C   UNL A   1      40.149  28.727  29.250  1.00  0.00     0.049 A 
ATOM     46  N   UNL A   1      43.124  29.906  29.116  1.00  0.00    -0.248 NA
ATOM     47  C   UNL A   1      42.642  29.654  26.859  1.00  0.00     0.031 C 
ATOM     48  C   UNL A   1      38.866  28.031  29.387  1.00  0.00     0.029 A 
ATOM     49  N   UNL A   1      39.956  29.866  29.974  1.00  0.00    -0.354 N 
ATOM     50  C   UNL A   1      43.949  30.757  28.379  1.00  0.00     0.074 A 
ATOM     51  C   UNL A   1      43.676  30.487  26.990  1.00  0.00     0.031 C 
ATOM     52  C   UNL A   1      37.966  28.863  29.960  1.00  0.00     0.029 A 
ATOM     53  C   UNL A   1      38.641  30.086  30.357  1.00  0.00     0.049 A 
ATOM     54  H   UNL A   1      40.689  30.481  30.205  1.00  0.00     0.167 HD
ATOM     55  C   UNL A   1      44.685  31.740  28.967  1.00  0.00     0.037 A 
ATOM     56  C   UNL A   1      38.142  31.223  30.901  1.00  0.00     0.037 A 
ATOM     57  C   UNL A   1      44.878  31.491  30.370  1.00  0.00     0.049 A 
ATOM     58  C   UNL A   1      39.282  31.979  31.477  1.00  0.00     0.074 A 
ATOM     59  C   UNL A   1      45.510  30.503  31.100  1.00  0.00     0.029 A 
ATOM     60  N   UNL A   1      44.101  32.169  31.274  1.00  0.00    -0.354 N 
ATOM     61  N   UNL A   1      39.966  31.593  32.517  1.00  0.00    -0.248 NA
ATOM     62  C   UNL A   1      39.934  32.962  30.624  1.00  0.00     0.031 C 
ATOM     63  C   UNL A   1      44.696  30.323  32.256  1.00  0.00     0.029 A 
ATOM     64  C   UNL A   1      43.651  31.243  32.178  1.00  0.00     0.049 A 
ATOM     65  H   UNL A   1      43.905  33.135  31.273  1.00  0.00     0.167 HD
ATOM     66  C   UNL A   1      41.274  31.950  32.228  1.00  0.00     0.074 A 
ATOM     67  C   UNL A   1      41.180  32.861  31.089  1.00  0.00     0.031 C 
ATOM     68  C   UNL A   1      42.329  31.266  32.756  1.00  0.00     0.037 A 
BRANCH  55  69
ATOM     69  C   UNL A   1      44.983  33.079  28.340  1.00  0.00     0.064 A 
ATOM     70  C   UNL A   1      43.924  33.962  28.044  1.00  0.00     0.173 A 
ATOM     71  C   UNL A   1      46.224  33.399  27.749  1.00  0.00     0.173 A 
ATOM     72  F   UNL A   1      42.695  33.748  28.536  1.00  0.00    -0.203 F 
ATOM     73  C   UNL A   1      44.081  35.036  27.163  1.00  0.00     0.198 A 
ATOM     74  C   UNL A   1      46.389  34.501  26.910  1.00  0.00     0.198 A 
ATOM     75  F   UNL A   1      47.292  32.601  27.868  1.00  0.00    -0.203 F 
ATOM     76  F   UNL A   1      43.018  35.774  26.815  1.00  0.00    -0.200 F 
ATOM     77  C   UNL A   1      45.312  35.299  26.591  1.00  0.00     0.200 A 
ATOM     78  F   UNL A   1      47.586  34.728  26.351  1.00  0.00    -0.200 F 
ATOM     79  F   UNL A   1      45.452  36.287  25.698  1.00  0.00    -0.200 F 
ENDBRANCH  55  69
BRANCH  56  80
ATOM     80  C   UNL A   1      36.830  31.862  30.631  1.00  0.00     0.064 A 
ATOM     81  C   UNL A   1      35.920  32.111  31.671  1.00  0.00     0.173 A 
ATOM     82  C   UNL A   1      36.570  32.507  29.405  1.00  0.00     0.173 A 
ATOM     83  F   UNL A   1      36.117  31.572  32.883  1.00  0.00    -0.203 F 
ATOM     84  C   UNL A   1      34.835  32.981  31.506  1.00  0.00     0.198 A 
ATOM     85  C   UNL A   1      35.484  33.368  29.240  1.00  0.00     0.198 A 
ATOM     86  F   UNL A   1      37.419  32.397  28.375  1.00  0.00    -0.203 F 
ATOM     87  F   UNL A   1      34.029  33.249  32.543  1.00  0.00    -0.200 F 
ATOM     88  C   UNL A   1      34.627  33.617  30.294  1.00  0.00     0.200 A 
ATOM     89  F   UNL A   1      35.315  34.005  28.073  1.00  0.00    -0.200 F 
ATOM     90  F   UNL A   1      33.629  34.501  30.154  1.00  0.00    -0.200 F 
ENDBRANCH  56  80
BRANCH  68  91
ATOM     91  C   UNL A   1      42.053  30.265  33.841  1.00  0.00     0.064 A 
ATOM     92  C   UNL A   1      41.649  28.940  33.597  1.00  0.00     0.173 A 
ATOM     93  C   UNL A   1      42.376  30.607  35.162  1.00  0.00     0.173 A 
ATOM     94  F   UNL A   1      41.415  28.508  32.352  1.00  0.00    -0.203 F 
ATOM     95  C   UNL A   1      41.543  28.014  34.634  1.00  0.00     0.198 A 
ATOM     96  C   UNL A   1      42.302  29.671  36.189  1.00  0.00     0.198 A 
ATOM     97  F   UNL A   1      42.818  31.842  35.446  1.00  0.00    -0.203 F 
ATOM     98  F   UNL A   1      41.151  26.756  34.377  1.00  0.00    -0.200 F 
ATOM     99  C   UNL A   1      41.880  28.377  35.927  1.00  0.00     0.200 A 
ATOM    100  F   UNL A   1      42.675  30.014  37.430  1.00  0.00    -0.200 F 
ATOM    101  F   UNL A   1      41.823  27.474  36.915  1.00  0.00    -0.200 F 
ENDBRANCH  68  91
ENDBRANCH  42  43
ENDBRANCH  34  37
ENDBRANCH  32  33
ENDBRANCH  31  32
ENDBRANCH  30  31
ENDBRANCH   3  30
TORSDOF 15
ENDMDL
