MODEL 1
REMARK VINA RESULT:     -11.0      0.000      0.000
REMARK SMILES CCS(=O)(=O)N1CCC(C(=O)N[C@H](CO)C(=O)NCCCNC(=O)c2ccc(-c3c4nc(c(-c5c(F)c(F)c(F)c(F)c5F)c5ccc([nH]5)c(-c5c(F)c(F)c(F)c(F)c5F)c5nc(c(-c6c(F)c(F)c(F)c(F)c6F)c6ccc3[nH]6)C=C5)C=C4)cc2)CC1
REMARK SMILES IDX 19 1 18 2 16 3 17 4 13 6 12 7 10 8 11 9 9 11 6 12 7 13 89 14
REMARK SMILES IDX 8 15 88 16 3 17 4 18 5 19 2 20 1 21 14 22 15 23 20 25 21 26
REMARK SMILES IDX 22 27 23 28 24 30 25 31 26 32 87 33 27 34 86 35 28 36 29 37
REMARK SMILES IDX 30 38 80 39 31 40 85 41 79 42 81 43 32 44 84 45 78 46 77 47
REMARK SMILES IDX 33 49 65 50 45 51 64 52 46 53 49 54 63 55 82 56 47 57 48 58
REMARK SMILES IDX 62 60 83 61 50 62 34 63 35 64 43 65 36 66 37 67 41 68 44 69
REMARK SMILES IDX 38 70 39 71 42 72 40 73 66 74 67 75 75 76 68 77 69 78 73 79
REMARK SMILES IDX 76 80 70 81 71 82 74 83 72 84 51 85 52 86 60 87 53 88 54 89
REMARK SMILES IDX 58 90 61 91 55 92 56 93 59 94 57 95
REMARK H PARENT 18 5 12 10 15 24 22 29 81 48 49 59
REMARK Flexibility Score: inf
ROOT
ATOM      1  C   UNL A   1      34.542  34.802  28.909  1.00  0.00     0.117 C 
ENDROOT
BRANCH   1   2
ATOM      2  N   UNL A   1      33.493  35.755  29.236  1.00  0.00    -0.354 N 
ATOM      3  C   UNL A   1      33.121  36.197  30.472  1.00  0.00     0.244 C 
ATOM      4  O   UNL A   1      32.026  36.754  30.584  1.00  0.00    -0.273 OA
ATOM      5  H   UNL A   1      32.991  36.124  28.474  1.00  0.00     0.163 HD
BRANCH   3   6
ATOM      6  C   UNL A   1      33.934  35.816  31.708  1.00  0.00     0.197 C 
BRANCH   6   7
ATOM      7  N   UNL A   1      33.484  34.564  32.344  1.00  0.00    -0.342 N 
ATOM      8  C   UNL A   1      34.120  33.597  33.055  1.00  0.00     0.223 C 
ATOM      9  O   UNL A   1      33.367  32.815  33.653  1.00  0.00    -0.275 OA
ATOM     10  H   UNL A   1      32.521  34.392  32.228  1.00  0.00     0.164 HD
BRANCH   8  11
ATOM     11  C   UNL A   1      35.632  33.316  33.063  1.00  0.00     0.081 C 
ATOM     12  N   UNL A   1      37.454  31.579  34.552  1.00  0.00    -0.202 NA
ATOM     13  C   UNL A   1      37.402  32.989  35.018  1.00  0.00     0.103 C 
ATOM     14  C   UNL A   1      37.439  31.544  33.061  1.00  0.00     0.103 C 
ATOM     15  C   UNL A   1      36.302  33.820  34.352  1.00  0.00     0.030 C 
ATOM     16  C   UNL A   1      36.059  31.945  32.566  1.00  0.00     0.030 C 
BRANCH  12  17
ATOM     17  S   UNL A   1      38.752  30.653  35.209  1.00  0.00     0.213 S 
ATOM     18  O   UNL A   1      39.084  29.616  34.258  1.00  0.00    -0.212 OA
ATOM     19  O   UNL A   1      38.401  30.305  36.574  1.00  0.00    -0.212 OA
BRANCH  17  20
ATOM     20  C   UNL A   1      40.140  31.778  35.343  1.00  0.00     0.151 C 
ATOM     21  C   UNL A   1      40.479  32.238  36.740  1.00  0.00     0.022 C 
ENDBRANCH  17  20
ENDBRANCH  12  17
ENDBRANCH   8  11
ENDBRANCH   6   7
BRANCH   6  22
ATOM     22  C   UNL A   1      33.921  37.012  32.711  1.00  0.00     0.191 C 
BRANCH  22  23
ATOM     23  O   UNL A   1      34.173  38.298  32.143  1.00  0.00    -0.394 OA
ATOM     24  H   UNL A   1      34.950  38.249  31.564  1.00  0.00     0.210 HD
ENDBRANCH  22  23
ENDBRANCH   6  22
ENDBRANCH   3   6
ENDBRANCH   1   2
BRANCH   1  25
ATOM     25  C   UNL A   1      34.024  33.547  28.232  1.00  0.00     0.042 C 
BRANCH  25  26
ATOM     26  C   UNL A   1      34.426  32.228  28.868  1.00  0.00     0.118 C 
BRANCH  26  27
ATOM     27  N   UNL A   1      34.025  31.011  28.183  1.00  0.00    -0.352 N 
ATOM     28  C   UNL A   1      34.779  29.856  28.076  1.00  0.00     0.251 C 
ATOM     29  H   UNL A   1      33.137  31.007  27.757  1.00  0.00     0.163 HD
ATOM     30  O   UNL A   1      34.342  28.847  27.543  1.00  0.00    -0.269 OA
BRANCH  28  31
ATOM     31  C   UNL A   1      36.176  29.911  28.561  1.00  0.00     0.039 A 
ATOM     32  C   UNL A   1      36.459  29.389  29.823  1.00  0.00     0.014 A 
ATOM     33  C   UNL A   1      37.205  30.260  27.684  1.00  0.00     0.014 A 
ATOM     34  C   UNL A   1      37.784  29.118  30.169  1.00  0.00     0.010 A 
ATOM     35  C   UNL A   1      38.516  29.910  27.998  1.00  0.00     0.010 A 
ATOM     36  C   UNL A   1      38.816  29.316  29.236  1.00  0.00    -0.014 A 
BRANCH  36  37
ATOM     37  C   UNL A   1      40.208  28.880  29.524  1.00  0.00     0.031 A 
ATOM     38  C   UNL A   1      41.114  29.759  30.339  1.00  0.00     0.074 A 
ATOM     39  C   UNL A   1      40.679  27.732  28.995  1.00  0.00     0.049 A 
ATOM     40  N   UNL A   1      42.378  29.596  30.639  1.00  0.00    -0.248 NA
ATOM     41  C   UNL A   1      40.529  31.002  30.863  1.00  0.00     0.031 C 
ATOM     42  C   UNL A   1      39.914  26.811  28.153  1.00  0.00     0.029 A 
ATOM     43  N   UNL A   1      41.920  27.146  29.079  1.00  0.00    -0.354 N 
ATOM     44  C   UNL A   1      42.739  30.718  31.371  1.00  0.00     0.074 A 
ATOM     45  C   UNL A   1      41.581  31.583  31.420  1.00  0.00     0.031 C 
ATOM     46  C   UNL A   1      40.690  25.764  27.825  1.00  0.00     0.029 A 
ATOM     47  C   UNL A   1      42.022  25.960  28.391  1.00  0.00     0.049 A 
ATOM     48  H   UNL A   1      42.666  27.538  29.587  1.00  0.00     0.167 HD
ATOM     49  C   UNL A   1      43.922  30.992  31.968  1.00  0.00     0.037 A 
ATOM     50  C   UNL A   1      43.071  25.129  28.227  1.00  0.00     0.037 A 
ATOM     51  C   UNL A   1      45.065  30.119  31.933  1.00  0.00     0.049 A 
ATOM     52  C   UNL A   1      44.387  25.473  28.877  1.00  0.00     0.074 A 
ATOM     53  C   UNL A   1      46.290  30.279  32.556  1.00  0.00     0.029 A 
ATOM     54  N   UNL A   1      45.126  28.925  31.230  1.00  0.00    -0.354 N 
ATOM     55  N   UNL A   1      44.694  26.503  29.629  1.00  0.00    -0.248 NA
ATOM     56  C   UNL A   1      45.501  24.539  28.660  1.00  0.00     0.031 C 
ATOM     57  C   UNL A   1      47.114  29.215  32.177  1.00  0.00     0.029 A 
ATOM     58  C   UNL A   1      46.379  28.353  31.379  1.00  0.00     0.049 A 
ATOM     59  H   UNL A   1      44.389  28.540  30.703  1.00  0.00     0.167 HD
ATOM     60  C   UNL A   1      46.017  26.318  30.009  1.00  0.00     0.074 A 
ATOM     61  C   UNL A   1      46.455  25.077  29.406  1.00  0.00     0.031 C 
ATOM     62  C   UNL A   1      46.794  27.104  30.795  1.00  0.00     0.037 A 
BRANCH  49  63
ATOM     63  C   UNL A   1      44.046  32.296  32.704  1.00  0.00     0.064 A 
ATOM     64  C   UNL A   1      44.460  33.472  32.061  1.00  0.00     0.173 A 
ATOM     65  C   UNL A   1      43.709  32.378  34.065  1.00  0.00     0.173 A 
ATOM     66  F   UNL A   1      44.803  33.448  30.764  1.00  0.00    -0.203 F 
ATOM     67  C   UNL A   1      44.569  34.672  32.760  1.00  0.00     0.198 A 
ATOM     68  C   UNL A   1      43.782  33.587  34.751  1.00  0.00     0.198 A 
ATOM     69  F   UNL A   1      43.299  31.286  34.727  1.00  0.00    -0.203 F 
ATOM     70  F   UNL A   1      45.022  35.769  32.137  1.00  0.00    -0.200 F 
ATOM     71  C   UNL A   1      44.222  34.730  34.100  1.00  0.00     0.200 A 
ATOM     72  F   UNL A   1      43.430  33.645  36.043  1.00  0.00    -0.200 F 
ATOM     73  F   UNL A   1      44.316  35.888  34.769  1.00  0.00    -0.200 F 
ENDBRANCH  49  63
BRANCH  50  74
ATOM     74  C   UNL A   1      42.922  23.880  27.433  1.00  0.00     0.064 A 
ATOM     75  C   UNL A   1      42.454  22.698  28.030  1.00  0.00     0.173 A 
ATOM     76  C   UNL A   1      43.259  23.829  26.072  1.00  0.00     0.173 A 
ATOM     77  F   UNL A   1      42.139  22.688  29.333  1.00  0.00    -0.203 F 
ATOM     78  C   UNL A   1      42.351  21.514  27.303  1.00  0.00     0.198 A 
ATOM     79  C   UNL A   1      43.126  22.651  25.338  1.00  0.00     0.198 A 
ATOM     80  F   UNL A   1      43.707  24.929  25.449  1.00  0.00    -0.203 F 
ATOM     81  F   UNL A   1      41.952  20.390  27.912  1.00  0.00    -0.200 F 
ATOM     82  C   UNL A   1      42.682  21.492  25.957  1.00  0.00     0.200 A 
ATOM     83  F   UNL A   1      43.430  22.639  24.034  1.00  0.00    -0.200 F 
ATOM     84  F   UNL A   1      42.580  20.353  25.258  1.00  0.00    -0.200 F 
ENDBRANCH  50  74
BRANCH  62  85
ATOM     85  C   UNL A   1      48.183  26.625  31.109  1.00  0.00     0.064 A 
ATOM     86  C   UNL A   1      48.456  25.809  32.215  1.00  0.00     0.173 A 
ATOM     87  C   UNL A   1      49.241  26.924  30.235  1.00  0.00     0.173 A 
ATOM     88  F   UNL A   1      47.483  25.507  33.088  1.00  0.00    -0.203 F 
ATOM     89  C   UNL A   1      49.740  25.320  32.442  1.00  0.00     0.198 A 
ATOM     90  C   UNL A   1      50.514  26.405  30.446  1.00  0.00     0.198 A 
ATOM     91  F   UNL A   1      49.031  27.695  29.157  1.00  0.00    -0.203 F 
ATOM     92  F   UNL A   1      49.987  24.570  33.526  1.00  0.00    -0.200 F 
ATOM     93  C   UNL A   1      50.765  25.608  31.552  1.00  0.00     0.200 A 
ATOM     94  F   UNL A   1      51.497  26.670  29.574  1.00  0.00    -0.200 F 
ATOM     95  F   UNL A   1      51.994  25.116  31.760  1.00  0.00    -0.200 F 
ENDBRANCH  62  85
ENDBRANCH  36  37
ENDBRANCH  28  31
ENDBRANCH  26  27
ENDBRANCH  25  26
ENDBRANCH   1  25
TORSDOF 16
ENDMDL
MODEL 2
REMARK VINA RESULT:     -11.0      4.849     11.788
REMARK SMILES CCS(=O)(=O)N1CCC(C(=O)N[C@H](CO)C(=O)NCCCNC(=O)c2ccc(-c3c4nc(c(-c5c(F)c(F)c(F)c(F)c5F)c5ccc([nH]5)c(-c5c(F)c(F)c(F)c(F)c5F)c5nc(c(-c6c(F)c(F)c(F)c(F)c6F)c6ccc3[nH]6)C=C5)C=C4)cc2)CC1
REMARK SMILES IDX 19 1 18 2 16 3 17 4 13 6 12 7 10 8 11 9 9 11 6 12 7 13 89 14
REMARK SMILES IDX 8 15 88 16 3 17 4 18 5 19 2 20 1 21 14 22 15 23 20 25 21 26
REMARK SMILES IDX 22 27 23 28 24 30 25 31 26 32 87 33 27 34 86 35 28 36 29 37
REMARK SMILES IDX 30 38 80 39 31 40 85 41 79 42 81 43 32 44 84 45 78 46 77 47
REMARK SMILES IDX 33 49 65 50 45 51 64 52 46 53 49 54 63 55 82 56 47 57 48 58
REMARK SMILES IDX 62 60 83 61 50 62 34 63 35 64 43 65 36 66 37 67 41 68 44 69
REMARK SMILES IDX 38 70 39 71 42 72 40 73 66 74 67 75 75 76 68 77 69 78 73 79
REMARK SMILES IDX 76 80 70 81 71 82 74 83 72 84 51 85 52 86 60 87 53 88 54 89
REMARK SMILES IDX 58 90 61 91 55 92 56 93 59 94 57 95
REMARK H PARENT 18 5 12 10 15 24 22 29 81 48 49 59
REMARK Flexibility Score: inf
ROOT
ATOM      1  C   UNL A   1      42.236  20.485  27.510  1.00  0.00     0.117 C 
ENDROOT
BRANCH   1   2
ATOM      2  N   UNL A   1      42.410  19.232  26.792  1.00  0.00    -0.354 N 
ATOM      3  C   UNL A   1      43.330  18.944  25.827  1.00  0.00     0.244 C 
ATOM      4  O   UNL A   1      43.136  17.952  25.117  1.00  0.00    -0.273 OA
ATOM      5  H   UNL A   1      41.790  18.506  27.031  1.00  0.00     0.163 HD
BRANCH   3   6
ATOM      6  C   UNL A   1      44.442  19.937  25.493  1.00  0.00     0.197 C 
BRANCH   6   7
ATOM      7  N   UNL A   1      44.131  20.798  24.337  1.00  0.00    -0.342 N 
ATOM      8  C   UNL A   1      44.415  22.091  24.033  1.00  0.00     0.223 C 
ATOM      9  O   UNL A   1      44.209  22.402  22.852  1.00  0.00    -0.275 OA
ATOM     10  H   UNL A   1      43.609  20.341  23.638  1.00  0.00     0.164 HD
BRANCH   8  11
ATOM     11  C   UNL A   1      44.816  23.195  25.027  1.00  0.00     0.081 C 
ATOM     12  N   UNL A   1      46.035  25.849  24.864  1.00  0.00    -0.202 NA
ATOM     13  C   UNL A   1      46.962  24.748  25.236  1.00  0.00     0.103 C 
ATOM     14  C   UNL A   1      44.734  25.665  25.568  1.00  0.00     0.103 C 
ATOM     15  C   UNL A   1      46.343  23.352  25.122  1.00  0.00     0.030 C 
ATOM     16  C   UNL A   1      44.003  24.477  24.966  1.00  0.00     0.030 C 
BRANCH  12  17
ATOM     17  S   UNL A   1      46.676  27.433  25.087  1.00  0.00     0.213 S 
ATOM     18  O   UNL A   1      46.487  27.798  26.474  1.00  0.00    -0.212 OA
ATOM     19  O   UNL A   1      46.146  28.278  24.032  1.00  0.00    -0.212 OA
BRANCH  17  20
ATOM     20  C   UNL A   1      48.433  27.305  24.760  1.00  0.00     0.151 C 
ATOM     21  C   UNL A   1      49.342  27.853  25.832  1.00  0.00     0.022 C 
ENDBRANCH  17  20
ENDBRANCH  12  17
ENDBRANCH   8  11
ENDBRANCH   6   7
BRANCH   6  22
ATOM     22  C   UNL A   1      45.776  19.154  25.291  1.00  0.00     0.191 C 
BRANCH  22  23
ATOM     23  O   UNL A   1      45.758  17.785  25.697  1.00  0.00    -0.394 OA
ATOM     24  H   UNL A   1      46.669  17.460  25.780  1.00  0.00     0.210 HD
ENDBRANCH  22  23
ENDBRANCH   6  22
ENDBRANCH   3   6
ENDBRANCH   1   2
BRANCH   1  25
ATOM     25  C   UNL A   1      40.853  21.085  27.344  1.00  0.00     0.042 C 
BRANCH  25  26
ATOM     26  C   UNL A   1      40.626  21.904  26.085  1.00  0.00     0.118 C 
BRANCH  26  27
ATOM     27  N   UNL A   1      39.261  22.308  25.793  1.00  0.00    -0.352 N 
ATOM     28  C   UNL A   1      38.719  23.559  26.031  1.00  0.00     0.251 C 
ATOM     29  H   UNL A   1      38.669  21.632  25.390  1.00  0.00     0.163 HD
ATOM     30  O   UNL A   1      37.579  23.843  25.691  1.00  0.00    -0.269 OA
BRANCH  28  31
ATOM     31  C   UNL A   1      39.544  24.523  26.790  1.00  0.00     0.039 A 
ATOM     32  C   UNL A   1      40.281  25.469  26.077  1.00  0.00     0.014 A 
ATOM     33  C   UNL A   1      39.401  24.624  28.175  1.00  0.00     0.014 A 
ATOM     34  C   UNL A   1      40.791  26.583  26.746  1.00  0.00     0.010 A 
ATOM     35  C   UNL A   1      39.837  25.777  28.824  1.00  0.00     0.010 A 
ATOM     36  C   UNL A   1      40.518  26.778  28.111  1.00  0.00    -0.014 A 
BRANCH  36  37
ATOM     37  C   UNL A   1      40.910  28.036  28.802  1.00  0.00     0.031 A 
ATOM     38  C   UNL A   1      42.325  28.222  29.273  1.00  0.00     0.074 A 
ATOM     39  C   UNL A   1      39.981  28.976  29.070  1.00  0.00     0.049 A 
ATOM     40  N   UNL A   1      42.848  29.208  29.955  1.00  0.00    -0.248 NA
ATOM     41  C   UNL A   1      43.271  27.141  28.957  1.00  0.00     0.031 C 
ATOM     42  C   UNL A   1      38.566  28.897  28.703  1.00  0.00     0.029 A 
ATOM     43  N   UNL A   1      40.085  30.183  29.721  1.00  0.00    -0.354 N 
ATOM     44  C   UNL A   1      44.175  28.859  30.162  1.00  0.00     0.074 A 
ATOM     45  C   UNL A   1      44.364  27.547  29.586  1.00  0.00     0.031 C 
ATOM     46  C   UNL A   1      37.941  30.017  29.107  1.00  0.00     0.029 A 
ATOM     47  C   UNL A   1      38.898  30.873  29.803  1.00  0.00     0.049 A 
ATOM     48  H   UNL A   1      40.930  30.521  30.093  1.00  0.00     0.167 HD
ATOM     49  C   UNL A   1      45.155  29.579  30.758  1.00  0.00     0.037 A 
ATOM     50  C   UNL A   1      38.612  32.057  30.380  1.00  0.00     0.037 A 
ATOM     51  C   UNL A   1      44.966  30.894  31.312  1.00  0.00     0.049 A 
ATOM     52  C   UNL A   1      39.714  32.825  31.064  1.00  0.00     0.074 A 
ATOM     53  C   UNL A   1      45.909  31.730  31.885  1.00  0.00     0.029 A 
ATOM     54  N   UNL A   1      43.751  31.560  31.370  1.00  0.00    -0.354 N 
ATOM     55  N   UNL A   1      40.982  32.517  31.189  1.00  0.00    -0.248 NA
ATOM     56  C   UNL A   1      39.346  34.105  31.686  1.00  0.00     0.031 C 
ATOM     57  C   UNL A   1      45.253  32.874  32.348  1.00  0.00     0.029 A 
ATOM     58  C   UNL A   1      43.915  32.785  31.998  1.00  0.00     0.049 A 
ATOM     59  H   UNL A   1      42.899  31.215  31.019  1.00  0.00     0.167 HD
ATOM     60  C   UNL A   1      41.570  33.581  31.860  1.00  0.00     0.074 A 
ATOM     61  C   UNL A   1      40.521  34.544  32.116  1.00  0.00     0.031 C 
ATOM     62  C   UNL A   1      42.866  33.746  32.223  1.00  0.00     0.037 A 
BRANCH  49  63
ATOM     63  C   UNL A   1      46.519  28.956  30.852  1.00  0.00     0.064 A 
ATOM     64  C   UNL A   1      47.499  29.172  29.871  1.00  0.00     0.173 A 
ATOM     65  C   UNL A   1      46.863  28.163  31.958  1.00  0.00     0.173 A 
ATOM     66  F   UNL A   1      47.220  29.915  28.789  1.00  0.00    -0.203 F 
ATOM     67  C   UNL A   1      48.759  28.586  29.975  1.00  0.00     0.198 A 
ATOM     68  C   UNL A   1      48.135  27.611  32.077  1.00  0.00     0.198 A 
ATOM     69  F   UNL A   1      45.967  27.931  32.929  1.00  0.00    -0.203 F 
ATOM     70  F   UNL A   1      49.658  28.760  28.996  1.00  0.00    -0.200 F 
ATOM     71  C   UNL A   1      49.078  27.814  31.080  1.00  0.00     0.200 A 
ATOM     72  F   UNL A   1      48.447  26.878  33.155  1.00  0.00    -0.200 F 
ATOM     73  F   UNL A   1      50.294  27.260  31.184  1.00  0.00    -0.200 F 
ENDBRANCH  49  63
BRANCH  50  74
ATOM     74  C   UNL A   1      37.230  32.607  30.321  1.00  0.00     0.064 A 
ATOM     75  C   UNL A   1      36.818  33.406  29.243  1.00  0.00     0.173 A 
ATOM     76  C   UNL A   1      36.298  32.363  31.341  1.00  0.00     0.173 A 
ATOM     77  F   UNL A   1      37.677  33.686  28.252  1.00  0.00    -0.203 F 
ATOM     78  C   UNL A   1      35.539  33.958  29.201  1.00  0.00     0.198 A 
ATOM     79  C   UNL A   1      35.009  32.891  31.282  1.00  0.00     0.198 A 
ATOM     80  F   UNL A   1      36.636  31.603  32.393  1.00  0.00    -0.203 F 
ATOM     81  F   UNL A   1      35.192  34.760  28.186  1.00  0.00    -0.200 F 
ATOM     82  C   UNL A   1      34.634  33.696  30.218  1.00  0.00     0.200 A 
ATOM     83  F   UNL A   1      34.132  32.620  32.259  1.00  0.00    -0.200 F 
ATOM     84  F   UNL A   1      33.403  34.225  30.175  1.00  0.00    -0.200 F 
ENDBRANCH  50  74
BRANCH  62  85
ATOM     85  C   UNL A   1      43.250  35.041  32.881  1.00  0.00     0.064 A 
ATOM     86  C   UNL A   1      43.297  35.181  34.274  1.00  0.00     0.173 A 
ATOM     87  C   UNL A   1      43.658  36.132  32.096  1.00  0.00     0.173 A 
ATOM     88  F   UNL A   1      42.904  34.174  35.069  1.00  0.00    -0.203 F 
ATOM     89  C   UNL A   1      43.726  36.371  34.858  1.00  0.00     0.198 A 
ATOM     90  C   UNL A   1      44.119  37.305  32.683  1.00  0.00     0.198 A 
ATOM     91  F   UNL A   1      43.639  36.046  30.757  1.00  0.00    -0.203 F 
ATOM     92  F   UNL A   1      43.730  36.496  36.193  1.00  0.00    -0.200 F 
ATOM     93  C   UNL A   1      44.148  37.427  34.063  1.00  0.00     0.200 A 
ATOM     94  F   UNL A   1      44.543  38.316  31.912  1.00  0.00    -0.200 F 
ATOM     95  F   UNL A   1      44.583  38.561  34.628  1.00  0.00    -0.200 F 
ENDBRANCH  62  85
ENDBRANCH  36  37
ENDBRANCH  28  31
ENDBRANCH  26  27
ENDBRANCH  25  26
ENDBRANCH   1  25
TORSDOF 16
ENDMDL
MODEL 3
REMARK VINA RESULT:     -10.9      3.548      6.502
REMARK SMILES CCS(=O)(=O)N1CCC(C(=O)N[C@H](CO)C(=O)NCCCNC(=O)c2ccc(-c3c4nc(c(-c5c(F)c(F)c(F)c(F)c5F)c5ccc([nH]5)c(-c5c(F)c(F)c(F)c(F)c5F)c5nc(c(-c6c(F)c(F)c(F)c(F)c6F)c6ccc3[nH]6)C=C5)C=C4)cc2)CC1
REMARK SMILES IDX 19 1 18 2 16 3 17 4 13 6 12 7 10 8 11 9 9 11 6 12 7 13 89 14
REMARK SMILES IDX 8 15 88 16 3 17 4 18 5 19 2 20 1 21 14 22 15 23 20 25 21 26
REMARK SMILES IDX 22 27 23 28 24 30 25 31 26 32 87 33 27 34 86 35 28 36 29 37
REMARK SMILES IDX 30 38 80 39 31 40 85 41 79 42 81 43 32 44 84 45 78 46 77 47
REMARK SMILES IDX 33 49 65 50 45 51 64 52 46 53 49 54 63 55 82 56 47 57 48 58
REMARK SMILES IDX 62 60 83 61 50 62 34 63 35 64 43 65 36 66 37 67 41 68 44 69
REMARK SMILES IDX 38 70 39 71 42 72 40 73 66 74 67 75 75 76 68 77 69 78 73 79
REMARK SMILES IDX 76 80 70 81 71 82 74 83 72 84 51 85 52 86 60 87 53 88 54 89
REMARK SMILES IDX 58 90 61 91 55 92 56 93 59 94 57 95
REMARK H PARENT 18 5 12 10 15 24 22 29 81 48 49 59
REMARK Flexibility Score: inf
ROOT
ATOM      1  C   UNL A   1      31.678  28.809  25.782  1.00  0.00     0.117 C 
ENDROOT
BRANCH   1   2
ATOM      2  N   UNL A   1      32.629  29.354  24.826  1.00  0.00    -0.354 N 
ATOM      3  C   UNL A   1      32.810  28.986  23.525  1.00  0.00     0.244 C 
ATOM      4  O   UNL A   1      33.854  29.330  22.963  1.00  0.00    -0.273 OA
ATOM      5  H   UNL A   1      33.212  30.074  25.158  1.00  0.00     0.163 HD
BRANCH   3   6
ATOM      6  C   UNL A   1      31.856  27.996  22.859  1.00  0.00     0.197 C 
BRANCH   6   7
ATOM      7  N   UNL A   1      32.508  27.140  21.850  1.00  0.00    -0.342 N 
ATOM      8  C   UNL A   1      32.850  25.826  21.821  1.00  0.00     0.223 C 
ATOM      9  O   UNL A   1      33.154  25.395  20.700  1.00  0.00    -0.275 OA
ATOM     10  H   UNL A   1      32.745  27.622  21.025  1.00  0.00     0.164 HD
BRANCH   8  11
ATOM     11  C   UNL A   1      33.026  24.902  23.039  1.00  0.00     0.081 C 
ATOM     12  N   UNL A   1      35.204  23.345  24.217  1.00  0.00    -0.202 NA
ATOM     13  C   UNL A   1      34.253  22.570  23.378  1.00  0.00     0.103 C 
ATOM     14  C   UNL A   1      34.449  24.325  25.050  1.00  0.00     0.103 C 
ATOM     15  C   UNL A   1      33.246  23.438  22.620  1.00  0.00     0.030 C 
ATOM     16  C   UNL A   1      33.910  25.430  24.156  1.00  0.00     0.030 C 
BRANCH  12  17
ATOM     17  S   UNL A   1      36.277  22.382  25.161  1.00  0.00     0.213 S 
ATOM     18  O   UNL A   1      36.979  21.490  24.266  1.00  0.00    -0.212 OA
ATOM     19  O   UNL A   1      35.524  21.847  26.281  1.00  0.00    -0.212 OA
BRANCH  17  20
ATOM     20  C   UNL A   1      37.457  23.522  25.880  1.00  0.00     0.151 C 
ATOM     21  C   UNL A   1      38.834  22.964  26.143  1.00  0.00     0.022 C 
ENDBRANCH  17  20
ENDBRANCH  12  17
ENDBRANCH   8  11
ENDBRANCH   6   7
BRANCH   6  22
ATOM     22  C   UNL A   1      30.648  28.781  22.260  1.00  0.00     0.191 C 
BRANCH  22  23
ATOM     23  O   UNL A   1      30.968  30.019  21.626  1.00  0.00    -0.394 OA
ATOM     24  H   UNL A   1      31.300  30.645  22.288  1.00  0.00     0.210 HD
ENDBRANCH  22  23
ENDBRANCH   6  22
ENDBRANCH   3   6
ENDBRANCH   1   2
BRANCH   1  25
ATOM     25  C   UNL A   1      32.309  28.434  27.109  1.00  0.00     0.042 C 
BRANCH  25  26
ATOM     26  C   UNL A   1      33.694  28.999  27.375  1.00  0.00     0.118 C 
BRANCH  26  27
ATOM     27  N   UNL A   1      33.767  30.308  28.002  1.00  0.00    -0.352 N 
ATOM     28  C   UNL A   1      34.910  30.898  28.511  1.00  0.00     0.251 C 
ATOM     29  H   UNL A   1      32.930  30.821  28.068  1.00  0.00     0.163 HD
ATOM     30  O   UNL A   1      34.904  32.036  28.959  1.00  0.00    -0.269 OA
BRANCH  28  31
ATOM     31  C   UNL A   1      36.134  30.069  28.571  1.00  0.00     0.039 A 
ATOM     32  C   UNL A   1      37.053  30.171  27.527  1.00  0.00     0.014 A 
ATOM     33  C   UNL A   1      36.458  29.389  29.746  1.00  0.00     0.014 A 
ATOM     34  C   UNL A   1      38.346  29.674  27.705  1.00  0.00     0.010 A 
ATOM     35  C   UNL A   1      37.771  28.973  29.953  1.00  0.00     0.010 A 
ATOM     36  C   UNL A   1      38.734  29.131  28.941  1.00  0.00    -0.014 A 
BRANCH  36  37
ATOM     37  C   UNL A   1      40.147  28.750  29.205  1.00  0.00     0.031 A 
ATOM     38  C   UNL A   1      41.059  29.707  29.919  1.00  0.00     0.074 A 
ATOM     39  C   UNL A   1      40.628  27.578  28.742  1.00  0.00     0.049 A 
ATOM     40  N   UNL A   1      42.337  29.595  30.181  1.00  0.00    -0.248 NA
ATOM     41  C   UNL A   1      40.461  30.970  30.376  1.00  0.00     0.031 C 
ATOM     42  C   UNL A   1      39.857  26.581  27.998  1.00  0.00     0.029 A 
ATOM     43  N   UNL A   1      41.886  27.029  28.819  1.00  0.00    -0.354 N 
ATOM     44  C   UNL A   1      42.695  30.776  30.816  1.00  0.00     0.074 A 
ATOM     45  C   UNL A   1      41.517  31.614  30.849  1.00  0.00     0.031 C 
ATOM     46  C   UNL A   1      40.647  25.531  27.715  1.00  0.00     0.029 A 
ATOM     47  C   UNL A   1      41.993  25.799  28.214  1.00  0.00     0.049 A 
ATOM     48  H   UNL A   1      42.640  27.475  29.268  1.00  0.00     0.167 HD
ATOM     49  C   UNL A   1      43.892  31.120  31.346  1.00  0.00     0.037 A 
ATOM     50  C   UNL A   1      43.057  24.984  28.069  1.00  0.00     0.037 A 
ATOM     51  C   UNL A   1      45.055  30.274  31.329  1.00  0.00     0.049 A 
ATOM     52  C   UNL A   1      44.387  25.405  28.642  1.00  0.00     0.074 A 
ATOM     53  C   UNL A   1      46.298  30.507  31.891  1.00  0.00     0.029 A 
ATOM     54  N   UNL A   1      45.121  29.034  30.711  1.00  0.00    -0.354 N 
ATOM     55  N   UNL A   1      44.694  26.493  29.305  1.00  0.00    -0.248 NA
ATOM     56  C   UNL A   1      45.516  24.484  28.448  1.00  0.00     0.031 C 
ATOM     57  C   UNL A   1      47.135  29.439  31.557  1.00  0.00     0.029 A 
ATOM     58  C   UNL A   1      46.394  28.504  30.851  1.00  0.00     0.049 A 
ATOM     59  H   UNL A   1      44.376  28.595  30.242  1.00  0.00     0.167 HD
ATOM     60  C   UNL A   1      46.035  26.367  29.646  1.00  0.00     0.074 A 
ATOM     61  C   UNL A   1      46.483  25.097  29.117  1.00  0.00     0.031 C 
ATOM     62  C   UNL A   1      46.820  27.226  30.342  1.00  0.00     0.037 A 
BRANCH  49  63
ATOM     63  C   UNL A   1      44.008  32.476  31.982  1.00  0.00     0.064 A 
ATOM     64  C   UNL A   1      43.740  32.680  33.344  1.00  0.00     0.173 A 
ATOM     65  C   UNL A   1      44.431  33.581  31.226  1.00  0.00     0.173 A 
ATOM     66  F   UNL A   1      43.323  31.660  34.111  1.00  0.00    -0.203 F 
ATOM     67  C   UNL A   1      43.853  33.945  33.917  1.00  0.00     0.198 A 
ATOM     68  C   UNL A   1      44.580  34.836  31.810  1.00  0.00     0.198 A 
ATOM     69  F   UNL A   1      44.709  33.442  29.922  1.00  0.00    -0.203 F 
ATOM     70  F   UNL A   1      43.535  34.125  35.206  1.00  0.00    -0.200 F 
ATOM     71  C   UNL A   1      44.281  35.019  33.152  1.00  0.00     0.200 A 
ATOM     72  F   UNL A   1      45.010  35.870  31.073  1.00  0.00    -0.200 F 
ATOM     73  F   UNL A   1      44.400  36.233  33.707  1.00  0.00    -0.200 F 
ENDBRANCH  49  63
BRANCH  50  74
ATOM     74  C   UNL A   1      42.912  23.677  27.373  1.00  0.00     0.064 A 
ATOM     75  C   UNL A   1      43.319  23.522  26.039  1.00  0.00     0.173 A 
ATOM     76  C   UNL A   1      42.352  22.560  28.013  1.00  0.00     0.173 A 
ATOM     77  F   UNL A   1      43.841  24.563  25.374  1.00  0.00    -0.203 F 
ATOM     78  C   UNL A   1      43.148  22.313  25.367  1.00  0.00     0.198 A 
ATOM     79  C   UNL A   1      42.211  21.343  27.350  1.00  0.00     0.198 A 
ATOM     80  F   UNL A   1      41.950  22.650  29.289  1.00  0.00    -0.203 F 
ATOM     81  F   UNL A   1      43.497  22.211  24.077  1.00  0.00    -0.200 F 
ATOM     82  C   UNL A   1      42.599  21.223  26.024  1.00  0.00     0.200 A 
ATOM     83  F   UNL A   1      41.696  20.288  27.995  1.00  0.00    -0.200 F 
ATOM     84  F   UNL A   1      42.439  20.059  25.379  1.00  0.00    -0.200 F 
ENDBRANCH  50  74
BRANCH  62  85
ATOM     85  C   UNL A   1      48.232  26.804  30.636  1.00  0.00     0.064 A 
ATOM     86  C   UNL A   1      48.547  25.958  31.707  1.00  0.00     0.173 A 
ATOM     87  C   UNL A   1      49.271  27.190  29.774  1.00  0.00     0.173 A 
ATOM     88  F   UNL A   1      47.593  25.572  32.568  1.00  0.00    -0.203 F 
ATOM     89  C   UNL A   1      49.855  25.524  31.913  1.00  0.00     0.198 A 
ATOM     90  C   UNL A   1      50.569  26.727  29.963  1.00  0.00     0.198 A 
ATOM     91  F   UNL A   1      49.020  27.993  28.729  1.00  0.00    -0.203 F 
ATOM     92  F   UNL A   1      50.142  24.743  32.965  1.00  0.00    -0.200 F 
ATOM     93  C   UNL A   1      50.861  25.898  31.035  1.00  0.00     0.200 A 
ATOM     94  F   UNL A   1      51.535  27.076  29.102  1.00  0.00    -0.200 F 
ATOM     95  F   UNL A   1      52.114  25.460  31.222  1.00  0.00    -0.200 F 
ENDBRANCH  62  85
ENDBRANCH  36  37
ENDBRANCH  28  31
ENDBRANCH  26  27
ENDBRANCH  25  26
ENDBRANCH   1  25
TORSDOF 16
ENDMDL
