MODEL 1
REMARK VINA RESULT:     -12.7      0.000      0.000
REMARK SMILES Cc1ccc([C@H](C)[N@H+](CC(=O)NCCCNC(=O)c2ccc(-c3c4nc(c(-c5c(F)c(F)c(F)c(F)c5F)c5ccc([nH]5)c(-c5c(F)c(F)c(F)c(F)c5F)c5nc(c(-c6c(F)c(F)c(F)c(F)c6F)c6ccc3[nH]6)C=C5)C=C4)cc2)CC(F)(F)F)cc1
REMARK SMILES IDX 13 1 12 2 10 3 11 4 9 6 8 7 6 9 7 10 5 11 1 12 2 13 3 14
REMARK SMILES IDX 88 15 4 16 87 17 82 18 83 19 84 20 85 21 86 22 14 23 15 24
REMARK SMILES IDX 16 25 17 26 18 28 19 29 20 30 81 31 21 32 80 33 22 34 23 35
REMARK SMILES IDX 24 36 74 37 25 38 79 39 73 40 75 41 26 42 78 43 72 44 71 45
REMARK SMILES IDX 27 47 59 48 39 49 58 50 40 51 43 52 57 53 76 54 41 55 42 56
REMARK SMILES IDX 56 58 77 59 44 60 28 61 29 62 37 63 30 64 31 65 35 66 38 67
REMARK SMILES IDX 32 68 33 69 36 70 34 71 60 72 61 73 69 74 62 75 63 76 67 77
REMARK SMILES IDX 70 78 64 79 65 80 68 81 66 82 45 83 46 84 54 85 47 86 48 87
REMARK SMILES IDX 52 88 55 89 49 90 50 91 53 92 51 93
REMARK H PARENT 12 5 8 8 16 27 75 46 43 57
REMARK Flexibility Score: inf
ROOT
ATOM      1  C   UNL A   1      31.895  28.738  26.844  1.00  0.00     0.118 C 
ENDROOT
BRANCH   1   2
ATOM      2  N   UNL A   1      31.437  27.379  27.073  1.00  0.00    -0.351 N 
ATOM      3  C   UNL A   1      31.408  26.286  26.253  1.00  0.00     0.275 C 
ATOM      4  O   UNL A   1      31.371  25.180  26.800  1.00  0.00    -0.269 OA
ATOM      5  H   UNL A   1      31.086  27.217  27.979  1.00  0.00     0.163 HD
BRANCH   3   6
ATOM      6  C   UNL A   1      31.308  26.420  24.723  1.00  0.00     0.364 C 
BRANCH   6   7
ATOM      7  N   UNL A   1      32.626  26.106  24.137  1.00  0.00    -0.314 N 
ATOM      8  H   UNL A   1      33.304  26.262  24.883  1.00  0.00     0.349 HD
BRANCH   7   9
ATOM      9  C   UNL A   1      32.839  24.676  23.874  1.00  0.00     0.212 C 
ATOM     10  C   UNL A   1      32.303  24.186  22.522  1.00  0.00     0.081 C 
BRANCH   9  11
ATOM     11  C   UNL A   1      34.254  24.273  24.252  1.00  0.00     0.009 A 
ATOM     12  C   UNL A   1      37.969  22.456  25.441  1.00  0.00     0.044 C 
ATOM     13  C   UNL A   1      36.725  23.146  24.986  1.00  0.00    -0.051 A 
ATOM     14  C   UNL A   1      36.183  22.869  23.734  1.00  0.00     0.004 A 
ATOM     15  C   UNL A   1      36.089  24.070  25.819  1.00  0.00     0.004 A 
ATOM     16  C   UNL A   1      34.964  23.430  23.377  1.00  0.00     0.010 A 
ATOM     17  C   UNL A   1      34.865  24.633  25.455  1.00  0.00     0.010 A 
ENDBRANCH   9  11
ENDBRANCH   7   9
BRANCH   7  18
ATOM     18  C   UNL A   1      33.135  27.091  23.162  1.00  0.00     0.380 C 
BRANCH  18  19
ATOM     19  C   UNL A   1      33.869  28.368  23.649  1.00  0.00     0.438 C 
ATOM     20  F   UNL A   1      34.780  28.808  22.753  1.00  0.00    -0.165 F 
ATOM     21  F   UNL A   1      32.974  29.376  23.807  1.00  0.00    -0.165 F 
ATOM     22  F   UNL A   1      34.484  28.197  24.836  1.00  0.00    -0.165 F 
ENDBRANCH  18  19
ENDBRANCH   7  18
ENDBRANCH   6   7
ENDBRANCH   3   6
ENDBRANCH   1   2
BRANCH   1  23
ATOM     23  C   UNL A   1      33.054  29.253  27.698  1.00  0.00     0.042 C 
BRANCH  23  24
ATOM     24  C   UNL A   1      33.837  30.458  27.161  1.00  0.00     0.118 C 
BRANCH  24  25
ATOM     25  N   UNL A   1      34.347  31.341  28.201  1.00  0.00    -0.352 N 
ATOM     26  C   UNL A   1      35.445  31.236  29.035  1.00  0.00     0.251 C 
ATOM     27  H   UNL A   1      33.815  32.160  28.334  1.00  0.00     0.163 HD
ATOM     28  O   UNL A   1      35.626  32.110  29.871  1.00  0.00    -0.269 OA
BRANCH  26  29
ATOM     29  C   UNL A   1      36.462  30.159  28.880  1.00  0.00     0.039 A 
ATOM     30  C   UNL A   1      36.659  29.289  29.968  1.00  0.00     0.014 A 
ATOM     31  C   UNL A   1      37.260  30.012  27.749  1.00  0.00     0.014 A 
ATOM     32  C   UNL A   1      37.765  28.437  30.005  1.00  0.00     0.010 A 
ATOM     33  C   UNL A   1      38.378  29.190  27.793  1.00  0.00     0.010 A 
ATOM     34  C   UNL A   1      38.677  28.464  28.952  1.00  0.00    -0.014 A 
BRANCH  34  35
ATOM     35  C   UNL A   1      40.044  27.956  29.066  1.00  0.00     0.031 A 
ATOM     36  C   UNL A   1      40.465  26.643  28.537  1.00  0.00     0.074 A 
ATOM     37  C   UNL A   1      40.983  28.809  29.532  1.00  0.00     0.049 A 
ATOM     38  N   UNL A   1      41.601  26.087  28.808  1.00  0.00    -0.248 NA
ATOM     39  C   UNL A   1      39.627  25.824  27.679  1.00  0.00     0.031 C 
ATOM     40  C   UNL A   1      42.433  28.699  29.403  1.00  0.00     0.029 A 
ATOM     41  N   UNL A   1      40.799  29.946  30.331  1.00  0.00    -0.354 N 
ATOM     42  C   UNL A   1      41.775  25.014  27.966  1.00  0.00     0.074 A 
ATOM     43  C   UNL A   1      40.475  24.838  27.356  1.00  0.00     0.031 C 
ATOM     44  C   UNL A   1      43.023  29.576  30.227  1.00  0.00     0.029 A 
ATOM     45  C   UNL A   1      41.984  30.083  31.094  1.00  0.00     0.049 A 
ATOM     46  H   UNL A   1      40.007  30.531  30.356  1.00  0.00     0.167 HD
ATOM     47  C   UNL A   1      43.033  24.490  27.820  1.00  0.00     0.037 A 
ATOM     48  C   UNL A   1      41.950  29.868  32.445  1.00  0.00     0.037 A 
ATOM     49  C   UNL A   1      43.995  25.132  28.730  1.00  0.00     0.049 A 
ATOM     50  C   UNL A   1      42.766  28.676  32.918  1.00  0.00     0.074 A 
ATOM     51  C   UNL A   1      45.034  26.039  28.579  1.00  0.00     0.029 A 
ATOM     52  N   UNL A   1      43.797  25.020  30.098  1.00  0.00    -0.354 N 
ATOM     53  N   UNL A   1      43.389  27.850  32.123  1.00  0.00    -0.248 NA
ATOM     54  C   UNL A   1      42.874  28.273  34.320  1.00  0.00     0.031 C 
ATOM     55  C   UNL A   1      45.469  26.447  29.875  1.00  0.00     0.029 A 
ATOM     56  C   UNL A   1      44.688  25.797  30.813  1.00  0.00     0.049 A 
ATOM     57  H   UNL A   1      43.105  24.454  30.510  1.00  0.00     0.167 HD
ATOM     58  C   UNL A   1      43.937  26.831  32.848  1.00  0.00     0.074 A 
ATOM     59  C   UNL A   1      43.586  27.136  34.223  1.00  0.00     0.031 C 
ATOM     60  C   UNL A   1      44.612  25.800  32.265  1.00  0.00     0.037 A 
BRANCH  47  61
ATOM     61  C   UNL A   1      43.481  23.524  26.726  1.00  0.00     0.064 A 
ATOM     62  C   UNL A   1      43.076  22.166  26.745  1.00  0.00     0.173 A 
ATOM     63  C   UNL A   1      44.330  23.846  25.649  1.00  0.00     0.173 A 
ATOM     64  F   UNL A   1      42.182  21.710  27.630  1.00  0.00    -0.203 F 
ATOM     65  C   UNL A   1      43.565  21.211  25.843  1.00  0.00     0.198 A 
ATOM     66  C   UNL A   1      44.849  22.885  24.771  1.00  0.00     0.198 A 
ATOM     67  F   UNL A   1      44.640  25.107  25.348  1.00  0.00    -0.203 F 
ATOM     68  F   UNL A   1      43.144  19.941  25.928  1.00  0.00    -0.200 F 
ATOM     69  C   UNL A   1      44.477  21.565  24.874  1.00  0.00     0.200 A 
ATOM     70  F   UNL A   1      45.708  23.263  23.811  1.00  0.00    -0.200 F 
ATOM     71  F   UNL A   1      44.966  20.649  24.028  1.00  0.00    -0.200 F 
ENDBRANCH  47  61
BRANCH  48  72
ATOM     72  C   UNL A   1      40.669  30.337  33.038  1.00  0.00     0.064 A 
ATOM     73  C   UNL A   1      40.427  31.728  33.055  1.00  0.00     0.173 A 
ATOM     74  C   UNL A   1      39.566  29.484  33.158  1.00  0.00     0.173 A 
ATOM     75  F   UNL A   1      41.451  32.589  32.935  1.00  0.00    -0.203 F 
ATOM     76  C   UNL A   1      39.131  32.234  33.038  1.00  0.00     0.198 A 
ATOM     77  C   UNL A   1      38.269  30.000  33.170  1.00  0.00     0.198 A 
ATOM     78  F   UNL A   1      39.731  28.154  33.134  1.00  0.00    -0.203 F 
ATOM     79  F   UNL A   1      38.931  33.553  32.901  1.00  0.00    -0.200 F 
ATOM     80  C   UNL A   1      38.054  31.368  33.069  1.00  0.00     0.200 A 
ATOM     81  F   UNL A   1      37.223  29.163  33.177  1.00  0.00    -0.200 F 
ATOM     82  F   UNL A   1      36.806  31.845  32.952  1.00  0.00    -0.200 F 
ENDBRANCH  48  72
BRANCH  60  83
ATOM     83  C   UNL A   1      45.253  24.688  33.040  1.00  0.00     0.064 A 
ATOM     84  C   UNL A   1      44.555  23.527  33.409  1.00  0.00     0.173 A 
ATOM     85  C   UNL A   1      46.571  24.806  33.532  1.00  0.00     0.173 A 
ATOM     86  F   UNL A   1      43.273  23.357  33.055  1.00  0.00    -0.203 F 
ATOM     87  C   UNL A   1      45.157  22.521  34.167  1.00  0.00     0.198 A 
ATOM     88  C   UNL A   1      47.152  23.824  34.330  1.00  0.00     0.198 A 
ATOM     89  F   UNL A   1      47.336  25.865  33.231  1.00  0.00    -0.203 F 
ATOM     90  F   UNL A   1      44.476  21.402  34.448  1.00  0.00    -0.200 F 
ATOM     91  C   UNL A   1      46.451  22.674  34.633  1.00  0.00     0.200 A 
ATOM     92  F   UNL A   1      48.397  23.997  34.795  1.00  0.00    -0.200 F 
ATOM     93  F   UNL A   1      47.024  21.713  35.372  1.00  0.00    -0.200 F 
ENDBRANCH  60  83
ENDBRANCH  34  35
ENDBRANCH  26  29
ENDBRANCH  24  25
ENDBRANCH  23  24
ENDBRANCH   1  23
TORSDOF 15
ENDMDL
MODEL 2
REMARK VINA RESULT:     -12.7      4.003      9.979
REMARK SMILES Cc1ccc([C@H](C)[N@H+](CC(=O)NCCCNC(=O)c2ccc(-c3c4nc(c(-c5c(F)c(F)c(F)c(F)c5F)c5ccc([nH]5)c(-c5c(F)c(F)c(F)c(F)c5F)c5nc(c(-c6c(F)c(F)c(F)c(F)c6F)c6ccc3[nH]6)C=C5)C=C4)cc2)CC(F)(F)F)cc1
REMARK SMILES IDX 13 1 12 2 10 3 11 4 9 6 8 7 6 9 7 10 5 11 1 12 2 13 3 14
REMARK SMILES IDX 88 15 4 16 87 17 82 18 83 19 84 20 85 21 86 22 14 23 15 24
REMARK SMILES IDX 16 25 17 26 18 28 19 29 20 30 81 31 21 32 80 33 22 34 23 35
REMARK SMILES IDX 24 36 74 37 25 38 79 39 73 40 75 41 26 42 78 43 72 44 71 45
REMARK SMILES IDX 27 47 59 48 39 49 58 50 40 51 43 52 57 53 76 54 41 55 42 56
REMARK SMILES IDX 56 58 77 59 44 60 28 61 29 62 37 63 30 64 31 65 35 66 38 67
REMARK SMILES IDX 32 68 33 69 36 70 34 71 60 72 61 73 69 74 62 75 63 76 67 77
REMARK SMILES IDX 70 78 64 79 65 80 68 81 66 82 45 83 46 84 54 85 47 86 48 87
REMARK SMILES IDX 52 88 55 89 49 90 50 91 53 92 51 93
REMARK H PARENT 12 5 8 8 16 27 75 46 43 57
REMARK Flexibility Score: inf
ROOT
ATOM      1  C   UNL A   1      36.472  21.062  25.317  1.00  0.00     0.118 C 
ENDROOT
BRANCH   1   2
ATOM      2  N   UNL A   1      35.689  21.630  26.400  1.00  0.00    -0.351 N 
ATOM      3  C   UNL A   1      34.368  21.494  26.725  1.00  0.00     0.275 C 
ATOM      4  O   UNL A   1      34.057  21.727  27.898  1.00  0.00    -0.269 OA
ATOM      5  H   UNL A   1      36.199  22.214  27.006  1.00  0.00     0.163 HD
BRANCH   3   6
ATOM      6  C   UNL A   1      33.297  21.181  25.665  1.00  0.00     0.364 C 
BRANCH   6   7
ATOM      7  N   UNL A   1      32.723  22.454  25.188  1.00  0.00    -0.314 N 
ATOM      8  H   UNL A   1      33.039  23.165  25.847  1.00  0.00     0.349 HD
BRANCH   7   9
ATOM      9  C   UNL A   1      33.324  22.954  23.944  1.00  0.00     0.212 C 
ATOM     10  C   UNL A   1      32.681  22.416  22.659  1.00  0.00     0.081 C 
BRANCH   9  11
ATOM     11  C   UNL A   1      33.560  24.452  24.034  1.00  0.00     0.009 A 
ATOM     12  C   UNL A   1      33.609  28.702  24.706  1.00  0.00     0.044 C 
ATOM     13  C   UNL A   1      33.677  27.230  24.458  1.00  0.00    -0.051 A 
ATOM     14  C   UNL A   1      34.032  26.359  25.483  1.00  0.00     0.004 A 
ATOM     15  C   UNL A   1      33.374  26.716  23.195  1.00  0.00     0.004 A 
ATOM     16  C   UNL A   1      33.975  24.989  25.267  1.00  0.00     0.010 A 
ATOM     17  C   UNL A   1      33.318  25.337  22.982  1.00  0.00     0.010 A 
ENDBRANCH   9  11
ENDBRANCH   7   9
BRANCH   7  18
ATOM     18  C   UNL A   1      31.266  22.602  25.382  1.00  0.00     0.380 C 
BRANCH  18  19
ATOM     19  C   UNL A   1      30.714  23.554  26.475  1.00  0.00     0.438 C 
ATOM     20  F   UNL A   1      30.163  24.670  25.951  1.00  0.00    -0.165 F 
ATOM     21  F   UNL A   1      29.725  22.930  27.164  1.00  0.00    -0.165 F 
ATOM     22  F   UNL A   1      31.651  23.919  27.373  1.00  0.00    -0.165 F 
ENDBRANCH  18  19
ENDBRANCH   7  18
ENDBRANCH   6   7
ENDBRANCH   3   6
ENDBRANCH   1   2
BRANCH   1  23
ATOM     23  C   UNL A   1      37.989  21.259  25.354  1.00  0.00     0.042 C 
BRANCH  23  24
ATOM     24  C   UNL A   1      38.505  22.632  25.805  1.00  0.00     0.118 C 
BRANCH  24  25
ATOM     25  N   UNL A   1      39.897  22.627  26.232  1.00  0.00    -0.352 N 
ATOM     26  C   UNL A   1      40.702  23.628  26.745  1.00  0.00     0.251 C 
ATOM     27  H   UNL A   1      40.346  21.755  26.139  1.00  0.00     0.163 HD
ATOM     28  O   UNL A   1      41.873  23.367  26.984  1.00  0.00    -0.269 OA
BRANCH  26  29
ATOM     29  C   UNL A   1      40.167  24.968  27.114  1.00  0.00     0.039 A 
ATOM     30  C   UNL A   1      40.549  26.062  26.315  1.00  0.00     0.014 A 
ATOM     31  C   UNL A   1      39.370  25.198  28.231  1.00  0.00     0.014 A 
ATOM     32  C   UNL A   1      40.315  27.371  26.744  1.00  0.00     0.010 A 
ATOM     33  C   UNL A   1      39.163  26.495  28.678  1.00  0.00     0.010 A 
ATOM     34  C   UNL A   1      39.705  27.580  27.980  1.00  0.00    -0.014 A 
BRANCH  34  35
ATOM     35  C   UNL A   1      39.790  28.846  28.708  1.00  0.00     0.031 A 
ATOM     36  C   UNL A   1      38.754  29.895  28.627  1.00  0.00     0.074 A 
ATOM     37  C   UNL A   1      40.785  28.972  29.614  1.00  0.00     0.049 A 
ATOM     38  N   UNL A   1      38.905  31.094  29.088  1.00  0.00    -0.248 NA
ATOM     39  C   UNL A   1      37.464  29.695  27.990  1.00  0.00     0.031 C 
ATOM     40  C   UNL A   1      40.882  29.935  30.706  1.00  0.00     0.029 A 
ATOM     41  N   UNL A   1      42.002  28.278  29.664  1.00  0.00    -0.354 N 
ATOM     42  C   UNL A   1      37.683  31.724  29.080  1.00  0.00     0.074 A 
ATOM     43  C   UNL A   1      36.844  30.842  28.296  1.00  0.00     0.031 C 
ATOM     44  C   UNL A   1      42.127  29.926  31.201  1.00  0.00     0.029 A 
ATOM     45  C   UNL A   1      42.928  29.158  30.275  1.00  0.00     0.049 A 
ATOM     46  H   UNL A   1      42.177  27.364  29.342  1.00  0.00     0.167 HD
ATOM     47  C   UNL A   1      37.520  32.855  29.837  1.00  0.00     0.037 A 
ATOM     48  C   UNL A   1      43.951  29.686  29.536  1.00  0.00     0.037 A 
ATOM     49  C   UNL A   1      38.787  33.276  30.458  1.00  0.00     0.049 A 
ATOM     50  C   UNL A   1      43.892  31.194  29.358  1.00  0.00     0.074 A 
ATOM     51  C   UNL A   1      39.306  33.246  31.743  1.00  0.00     0.029 A 
ATOM     52  N   UNL A   1      39.847  33.632  29.637  1.00  0.00    -0.354 N 
ATOM     53  N   UNL A   1      42.915  31.947  29.784  1.00  0.00    -0.248 NA
ATOM     54  C   UNL A   1      44.888  31.962  28.611  1.00  0.00     0.031 C 
ATOM     55  C   UNL A   1      40.684  33.612  31.682  1.00  0.00     0.029 A 
ATOM     56  C   UNL A   1      41.004  33.854  30.359  1.00  0.00     0.049 A 
ATOM     57  H   UNL A   1      39.782  33.716  28.659  1.00  0.00     0.167 HD
ATOM     58  C   UNL A   1      43.108  33.235  29.376  1.00  0.00     0.074 A 
ATOM     59  C   UNL A   1      44.358  33.198  28.639  1.00  0.00     0.031 C 
ATOM     60  C   UNL A   1      42.215  34.230  29.647  1.00  0.00     0.037 A 
BRANCH  47  61
ATOM     61  C   UNL A   1      36.189  33.508  30.200  1.00  0.00     0.064 A 
ATOM     62  C   UNL A   1      35.374  34.100  29.203  1.00  0.00     0.173 A 
ATOM     63  C   UNL A   1      35.662  33.621  31.501  1.00  0.00     0.173 A 
ATOM     64  F   UNL A   1      35.663  33.991  27.901  1.00  0.00    -0.203 F 
ATOM     65  C   UNL A   1      34.213  34.827  29.498  1.00  0.00     0.198 A 
ATOM     66  C   UNL A   1      34.523  34.379  31.802  1.00  0.00     0.198 A 
ATOM     67  F   UNL A   1      36.177  32.948  32.531  1.00  0.00    -0.203 F 
ATOM     68  F   UNL A   1      33.497  35.369  28.503  1.00  0.00    -0.200 F 
ATOM     69  C   UNL A   1      33.804  34.993  30.802  1.00  0.00     0.200 A 
ATOM     70  F   UNL A   1      34.123  34.494  33.078  1.00  0.00    -0.200 F 
ATOM     71  F   UNL A   1      32.709  35.709  31.089  1.00  0.00    -0.200 F 
ENDBRANCH  47  61
BRANCH  48  72
ATOM     72  C   UNL A   1      44.458  28.710  28.534  1.00  0.00     0.064 A 
ATOM     73  C   UNL A   1      45.145  27.575  29.016  1.00  0.00     0.173 A 
ATOM     74  C   UNL A   1      43.920  28.645  27.244  1.00  0.00     0.173 A 
ATOM     75  F   UNL A   1      45.672  27.584  30.252  1.00  0.00    -0.203 F 
ATOM     76  C   UNL A   1      45.157  26.382  28.300  1.00  0.00     0.198 A 
ATOM     77  C   UNL A   1      43.961  27.453  26.518  1.00  0.00     0.198 A 
ATOM     78  F   UNL A   1      43.245  29.685  26.736  1.00  0.00    -0.203 F 
ATOM     79  F   UNL A   1      45.684  25.278  28.851  1.00  0.00    -0.200 F 
ATOM     80  C   UNL A   1      44.541  26.315  27.064  1.00  0.00     0.200 A 
ATOM     81  F   UNL A   1      43.347  27.379  25.329  1.00  0.00    -0.200 F 
ATOM     82  F   UNL A   1      44.463  25.144  26.416  1.00  0.00    -0.200 F 
ENDBRANCH  48  72
BRANCH  60  83
ATOM     83  C   UNL A   1      42.419  35.658  29.240  1.00  0.00     0.064 A 
ATOM     84  C   UNL A   1      41.873  36.192  28.063  1.00  0.00     0.173 A 
ATOM     85  C   UNL A   1      43.269  36.512  29.976  1.00  0.00     0.173 A 
ATOM     86  F   UNL A   1      41.114  35.435  27.255  1.00  0.00    -0.203 F 
ATOM     87  C   UNL A   1      42.110  37.513  27.679  1.00  0.00     0.198 A 
ATOM     88  C   UNL A   1      43.544  37.814  29.564  1.00  0.00     0.198 A 
ATOM     89  F   UNL A   1      43.835  36.114  31.124  1.00  0.00    -0.203 F 
ATOM     90  F   UNL A   1      41.520  38.002  26.579  1.00  0.00    -0.200 F 
ATOM     91  C   UNL A   1      42.950  38.320  28.425  1.00  0.00     0.200 A 
ATOM     92  F   UNL A   1      44.380  38.575  30.284  1.00  0.00    -0.200 F 
ATOM     93  F   UNL A   1      43.186  39.584  28.050  1.00  0.00    -0.200 F 
ENDBRANCH  60  83
ENDBRANCH  34  35
ENDBRANCH  26  29
ENDBRANCH  24  25
ENDBRANCH  23  24
ENDBRANCH   1  23
TORSDOF 15
ENDMDL
MODEL 3
REMARK VINA RESULT:     -12.6      1.691      2.983
REMARK SMILES Cc1ccc([C@H](C)[N@H+](CC(=O)NCCCNC(=O)c2ccc(-c3c4nc(c(-c5c(F)c(F)c(F)c(F)c5F)c5ccc([nH]5)c(-c5c(F)c(F)c(F)c(F)c5F)c5nc(c(-c6c(F)c(F)c(F)c(F)c6F)c6ccc3[nH]6)C=C5)C=C4)cc2)CC(F)(F)F)cc1
REMARK SMILES IDX 13 1 12 2 10 3 11 4 9 6 8 7 6 9 7 10 5 11 1 12 2 13 3 14
REMARK SMILES IDX 88 15 4 16 87 17 82 18 83 19 84 20 85 21 86 22 14 23 15 24
REMARK SMILES IDX 16 25 17 26 18 28 19 29 20 30 81 31 21 32 80 33 22 34 23 35
REMARK SMILES IDX 24 36 74 37 25 38 79 39 73 40 75 41 26 42 78 43 72 44 71 45
REMARK SMILES IDX 27 47 59 48 39 49 58 50 40 51 43 52 57 53 76 54 41 55 42 56
REMARK SMILES IDX 56 58 77 59 44 60 28 61 29 62 37 63 30 64 31 65 35 66 38 67
REMARK SMILES IDX 32 68 33 69 36 70 34 71 60 72 61 73 69 74 62 75 63 76 67 77
REMARK SMILES IDX 70 78 64 79 65 80 68 81 66 82 45 83 46 84 54 85 47 86 48 87
REMARK SMILES IDX 52 88 55 89 49 90 50 91 53 92 51 93
REMARK H PARENT 12 5 8 8 16 27 75 46 43 57
REMARK Flexibility Score: inf
ROOT
ATOM      1  C   UNL A   1      31.907  29.866  25.746  1.00  0.00     0.118 C 
ENDROOT
BRANCH   1   2
ATOM      2  N   UNL A   1      31.374  28.600  26.217  1.00  0.00    -0.351 N 
ATOM      3  C   UNL A   1      31.874  27.330  26.149  1.00  0.00     0.275 C 
ATOM      4  O   UNL A   1      31.444  26.518  26.975  1.00  0.00    -0.269 OA
ATOM      5  H   UNL A   1      30.499  28.669  26.663  1.00  0.00     0.163 HD
BRANCH   3   6
ATOM      6  C   UNL A   1      32.838  26.893  25.031  1.00  0.00     0.364 C 
BRANCH   6   7
ATOM      7  N   UNL A   1      32.067  26.161  24.007  1.00  0.00    -0.314 N 
ATOM      8  H   UNL A   1      31.099  26.171  24.329  1.00  0.00     0.349 HD
BRANCH   7   9
ATOM      9  C   UNL A   1      31.934  26.877  22.731  1.00  0.00     0.212 C 
ATOM     10  C   UNL A   1      32.214  26.026  21.485  1.00  0.00     0.081 C 
BRANCH   9  11
ATOM     11  C   UNL A   1      30.675  27.727  22.729  1.00  0.00     0.009 A 
ATOM     12  C   UNL A   1      27.439  30.510  23.275  1.00  0.00     0.044 C 
ATOM     13  C   UNL A   1      28.535  29.532  23.005  1.00  0.00    -0.051 A 
ATOM     14  C   UNL A   1      29.711  29.943  22.385  1.00  0.00     0.004 A 
ATOM     15  C   UNL A   1      28.391  28.194  23.382  1.00  0.00     0.004 A 
ATOM     16  C   UNL A   1      30.763  29.048  22.250  1.00  0.00     0.010 A 
ATOM     17  C   UNL A   1      29.451  27.296  23.242  1.00  0.00     0.010 A 
ENDBRANCH   9  11
ENDBRANCH   7   9
BRANCH   7  18
ATOM     18  C   UNL A   1      32.279  24.699  23.982  1.00  0.00     0.380 C 
BRANCH  18  19
ATOM     19  C   UNL A   1      31.080  23.731  24.158  1.00  0.00     0.438 C 
ATOM     20  F   UNL A   1      31.465  22.437  24.175  1.00  0.00    -0.165 F 
ATOM     21  F   UNL A   1      30.479  23.963  25.354  1.00  0.00    -0.165 F 
ATOM     22  F   UNL A   1      30.138  23.886  23.207  1.00  0.00    -0.165 F 
ENDBRANCH  18  19
ENDBRANCH   7  18
ENDBRANCH   6   7
ENDBRANCH   3   6
ENDBRANCH   1   2
BRANCH   1  23
ATOM     23  C   UNL A   1      32.534  30.804  26.779  1.00  0.00     0.042 C 
BRANCH  23  24
ATOM     24  C   UNL A   1      33.794  30.308  27.501  1.00  0.00     0.118 C 
BRANCH  24  25
ATOM     25  N   UNL A   1      34.426  31.315  28.342  1.00  0.00    -0.352 N 
ATOM     26  C   UNL A   1      35.631  31.317  29.020  1.00  0.00     0.251 C 
ATOM     27  H   UNL A   1      33.902  32.142  28.447  1.00  0.00     0.163 HD
ATOM     28  O   UNL A   1      35.910  32.289  29.708  1.00  0.00    -0.269 OA
BRANCH  26  29
ATOM     29  C   UNL A   1      36.638  30.231  28.857  1.00  0.00     0.039 A 
ATOM     30  C   UNL A   1      36.793  29.323  29.921  1.00  0.00     0.014 A 
ATOM     31  C   UNL A   1      37.465  30.111  27.744  1.00  0.00     0.014 A 
ATOM     32  C   UNL A   1      37.887  28.455  29.959  1.00  0.00     0.010 A 
ATOM     33  C   UNL A   1      38.571  29.272  27.791  1.00  0.00     0.010 A 
ATOM     34  C   UNL A   1      38.828  28.504  28.933  1.00  0.00    -0.014 A 
BRANCH  34  35
ATOM     35  C   UNL A   1      40.184  27.973  29.066  1.00  0.00     0.031 A 
ATOM     36  C   UNL A   1      40.596  26.662  28.526  1.00  0.00     0.074 A 
ATOM     37  C   UNL A   1      41.127  28.804  29.566  1.00  0.00     0.049 A 
ATOM     38  N   UNL A   1      41.718  26.085  28.812  1.00  0.00    -0.248 NA
ATOM     39  C   UNL A   1      39.764  25.869  27.638  1.00  0.00     0.031 C 
ATOM     40  C   UNL A   1      42.577  28.674  29.465  1.00  0.00     0.029 A 
ATOM     41  N   UNL A   1      40.943  29.932  30.378  1.00  0.00    -0.354 N 
ATOM     42  C   UNL A   1      41.893  25.022  27.957  1.00  0.00     0.074 A 
ATOM     43  C   UNL A   1      40.604  24.876  27.317  1.00  0.00     0.031 C 
ATOM     44  C   UNL A   1      43.163  29.529  30.314  1.00  0.00     0.029 A 
ATOM     45  C   UNL A   1      42.113  30.038  31.168  1.00  0.00     0.049 A 
ATOM     46  H   UNL A   1      40.159  30.528  30.396  1.00  0.00     0.167 HD
ATOM     47  C   UNL A   1      43.146  24.481  27.829  1.00  0.00     0.037 A 
ATOM     48  C   UNL A   1      42.048  29.804  32.514  1.00  0.00     0.037 A 
ATOM     49  C   UNL A   1      44.099  25.095  28.769  1.00  0.00     0.049 A 
ATOM     50  C   UNL A   1      42.836  28.592  32.985  1.00  0.00     0.074 A 
ATOM     51  C   UNL A   1      45.154  25.987  28.653  1.00  0.00     0.029 A 
ATOM     52  N   UNL A   1      43.870  24.964  30.130  1.00  0.00    -0.354 N 
ATOM     53  N   UNL A   1      43.463  27.769  32.191  1.00  0.00    -0.248 NA
ATOM     54  C   UNL A   1      42.908  28.165  34.382  1.00  0.00     0.031 C 
ATOM     55  C   UNL A   1      45.568  26.368  29.964  1.00  0.00     0.029 A 
ATOM     56  C   UNL A   1      44.758  25.716  30.875  1.00  0.00     0.049 A 
ATOM     57  H   UNL A   1      43.162  24.403  30.519  1.00  0.00     0.167 HD
ATOM     58  C   UNL A   1      43.980  26.731  32.911  1.00  0.00     0.074 A 
ATOM     59  C   UNL A   1      43.605  27.020  34.282  1.00  0.00     0.031 C 
ATOM     60  C   UNL A   1      44.651  25.698  32.326  1.00  0.00     0.037 A 
BRANCH  47  61
ATOM     61  C   UNL A   1      43.602  23.525  26.729  1.00  0.00     0.064 A 
ATOM     62  C   UNL A   1      43.175  22.174  26.717  1.00  0.00     0.173 A 
ATOM     63  C   UNL A   1      44.480  23.850  25.676  1.00  0.00     0.173 A 
ATOM     64  F   UNL A   1      42.255  21.719  27.576  1.00  0.00    -0.203 F 
ATOM     65  C   UNL A   1      43.668  21.225  25.811  1.00  0.00     0.198 A 
ATOM     66  C   UNL A   1      45.002  22.895  24.794  1.00  0.00     0.198 A 
ATOM     67  F   UNL A   1      44.816  25.111  25.403  1.00  0.00    -0.203 F 
ATOM     68  F   UNL A   1      43.225  19.961  25.867  1.00  0.00    -0.200 F 
ATOM     69  C   UNL A   1      44.606  21.579  24.868  1.00  0.00     0.200 A 
ATOM     70  F   UNL A   1      45.887  23.273  23.859  1.00  0.00    -0.200 F 
ATOM     71  F   UNL A   1      45.099  20.669  24.018  1.00  0.00    -0.200 F 
ENDBRANCH  47  61
BRANCH  48  72
ATOM     72  C   UNL A   1      40.762  30.283  33.088  1.00  0.00     0.064 A 
ATOM     73  C   UNL A   1      40.539  31.677  33.117  1.00  0.00     0.173 A 
ATOM     74  C   UNL A   1      39.646  29.444  33.176  1.00  0.00     0.173 A 
ATOM     75  F   UNL A   1      41.576  32.525  33.026  1.00  0.00    -0.203 F 
ATOM     76  C   UNL A   1      39.250  32.201  33.081  1.00  0.00     0.198 A 
ATOM     77  C   UNL A   1      38.356  29.977  33.170  1.00  0.00     0.198 A 
ATOM     78  F   UNL A   1      39.793  28.112  33.140  1.00  0.00    -0.203 F 
ATOM     79  F   UNL A   1      39.070  33.524  32.955  1.00  0.00    -0.200 F 
ATOM     80  C   UNL A   1      38.161  31.349  33.080  1.00  0.00     0.200 A 
ATOM     81  F   UNL A   1      37.298  29.154  33.147  1.00  0.00    -0.200 F 
ATOM     82  F   UNL A   1      36.922  31.845  32.945  1.00  0.00    -0.200 F 
ENDBRANCH  48  72
BRANCH  60  83
ATOM     83  C   UNL A   1      45.259  24.564  33.096  1.00  0.00     0.064 A 
ATOM     84  C   UNL A   1      44.505  23.469  33.545  1.00  0.00     0.173 A 
ATOM     85  C   UNL A   1      46.611  24.599  33.501  1.00  0.00     0.173 A 
ATOM     86  F   UNL A   1      43.194  23.384  33.276  1.00  0.00    -0.203 F 
ATOM     87  C   UNL A   1      45.081  22.444  34.298  1.00  0.00     0.198 A 
ATOM     88  C   UNL A   1      47.170  23.601  34.295  1.00  0.00     0.198 A 
ATOM     89  F   UNL A   1      47.429  25.590  33.119  1.00  0.00    -0.203 F 
ATOM     90  F   UNL A   1      44.340  21.386  34.657  1.00  0.00    -0.200 F 
ATOM     91  C   UNL A   1      46.409  22.514  34.679  1.00  0.00     0.200 A 
ATOM     92  F   UNL A   1      48.451  23.695  34.676  1.00  0.00    -0.200 F 
ATOM     93  F   UNL A   1      46.958  21.535  35.412  1.00  0.00    -0.200 F 
ENDBRANCH  60  83
ENDBRANCH  34  35
ENDBRANCH  26  29
ENDBRANCH  24  25
ENDBRANCH  23  24
ENDBRANCH   1  23
TORSDOF 15
ENDMDL
