MODEL 1
REMARK VINA RESULT:     -12.9      0.000      0.000
REMARK SMILES Cc1n[nH]c(C(=O)NCCCNC(=O)c2ccc(-c3c4nc(c(-c5c(F)c(F)c(F)c(F)c5F)c5ccc([nH]5)c(-c5c(F)c(F)c(F)c(F)c5F)c5nc(c(-c6c(F)c(F)c(F)c(F)c6F)c6ccc3[nH]6)C=C5)C=C4)cc2)c1Br
REMARK SMILES IDX 11 1 10 2 9 3 8 4 6 5 7 6 5 8 1 9 2 10 3 11 78 12 4 13 79 14
REMARK SMILES IDX 12 16 13 17 14 19 15 20 16 21 77 22 17 23 76 24 18 25 19 26
REMARK SMILES IDX 20 27 70 28 21 29 75 30 69 31 71 32 22 33 74 34 68 35 67 36
REMARK SMILES IDX 23 38 55 39 35 40 54 41 36 42 39 43 53 44 72 45 37 46 38 47
REMARK SMILES IDX 52 49 73 50 40 51 24 52 25 53 33 54 26 55 27 56 31 57 34 58
REMARK SMILES IDX 28 59 29 60 32 61 30 62 56 63 57 64 65 65 58 66 59 67 63 68
REMARK SMILES IDX 66 69 60 70 61 71 64 72 62 73 41 74 42 75 50 76 43 77 44 78
REMARK SMILES IDX 48 79 51 80 45 81 46 82 49 83 47 84
REMARK H PARENT 8 7 4 15 12 18 71 37 39 48
REMARK Flexibility Score: inf
ROOT
ATOM      1  C   UNL A   1      33.673  29.836  27.786  1.00  0.00     0.118 C 
ENDROOT
BRANCH   1   2
ATOM      2  C   UNL A   1      33.397  28.961  26.571  1.00  0.00     0.042 C 
BRANCH   2   3
ATOM      3  C   UNL A   1      33.110  29.796  25.316  1.00  0.00     0.118 C 
BRANCH   3   4
ATOM      4  N   UNL A   1      33.620  29.162  24.111  1.00  0.00    -0.351 N 
ATOM      5  C   UNL A   1      33.047  28.810  22.913  1.00  0.00     0.270 C 
ATOM      6  O   UNL A   1      33.828  28.362  22.073  1.00  0.00    -0.267 OA
ATOM      7  H   UNL A   1      34.578  28.938  24.164  1.00  0.00     0.163 HD
BRANCH   5   8
ATOM      8  C   UNL A   1      31.639  28.975  22.665  1.00  0.00     0.137 A 
ATOM      9  C   UNL A   1      27.974  28.469  22.830  1.00  0.00     0.070 C 
ATOM     10  C   UNL A   1      29.397  28.840  22.632  1.00  0.00     0.074 A 
ATOM     11  N   UNL A   1      29.714  29.767  21.719  1.00  0.00    -0.179 NA
ATOM     12  C   UNL A   1      30.560  28.347  23.263  1.00  0.00     0.071 A 
ATOM     13  N   UNL A   1      31.048  29.862  21.808  1.00  0.00    -0.272 N 
ATOM     14  Br  UNL A   1      30.565  27.051  24.621  1.00  0.00    -0.046 Br
ATOM     15  H   UNL A   1      31.566  30.523  21.294  1.00  0.00     0.190 HD
ENDBRANCH   5   8
ENDBRANCH   3   4
ENDBRANCH   2   3
ENDBRANCH   1   2
BRANCH   1  16
ATOM     16  N   UNL A   1      34.128  31.188  27.432  1.00  0.00    -0.352 N 
ATOM     17  C   UNL A   1      35.335  31.809  27.727  1.00  0.00     0.251 C 
ATOM     18  H   UNL A   1      33.488  31.729  26.915  1.00  0.00     0.163 HD
ATOM     19  O   UNL A   1      35.459  33.016  27.653  1.00  0.00    -0.269 OA
BRANCH  17  20
ATOM     20  C   UNL A   1      36.472  30.960  28.126  1.00  0.00     0.039 A 
ATOM     21  C   UNL A   1      36.626  29.642  27.687  1.00  0.00     0.014 A 
ATOM     22  C   UNL A   1      37.430  31.554  28.930  1.00  0.00     0.014 A 
ATOM     23  C   UNL A   1      37.801  28.965  28.015  1.00  0.00     0.010 A 
ATOM     24  C   UNL A   1      38.670  31.000  29.012  1.00  0.00     0.010 A 
ATOM     25  C   UNL A   1      38.823  29.667  28.670  1.00  0.00    -0.014 A 
BRANCH  25  26
ATOM     26  C   UNL A   1      40.111  29.072  28.989  1.00  0.00     0.031 A 
ATOM     27  C   UNL A   1      40.358  28.877  30.438  1.00  0.00     0.074 A 
ATOM     28  C   UNL A   1      40.875  28.502  28.028  1.00  0.00     0.049 A 
ATOM     29  N   UNL A   1      41.256  29.446  31.170  1.00  0.00    -0.248 NA
ATOM     30  C   UNL A   1      39.405  28.052  31.200  1.00  0.00     0.031 C 
ATOM     31  C   UNL A   1      40.573  28.328  26.598  1.00  0.00     0.029 A 
ATOM     32  N   UNL A   1      42.057  27.846  28.154  1.00  0.00    -0.354 N 
ATOM     33  C   UNL A   1      41.113  28.904  32.444  1.00  0.00     0.074 A 
ATOM     34  C   UNL A   1      39.852  28.211  32.448  1.00  0.00     0.031 C 
ATOM     35  C   UNL A   1      41.416  27.424  26.055  1.00  0.00     0.029 A 
ATOM     36  C   UNL A   1      42.430  27.105  27.038  1.00  0.00     0.049 A 
ATOM     37  H   UNL A   1      42.607  27.892  28.969  1.00  0.00     0.167 HD
ATOM     38  C   UNL A   1      42.168  28.860  33.305  1.00  0.00     0.037 A 
ATOM     39  C   UNL A   1      43.495  26.273  26.938  1.00  0.00     0.037 A 
ATOM     40  C   UNL A   1      43.227  29.731  32.858  1.00  0.00     0.049 A 
ATOM     41  C   UNL A   1      44.430  26.634  28.031  1.00  0.00     0.074 A 
ATOM     42  C   UNL A   1      43.354  31.093  32.667  1.00  0.00     0.029 A 
ATOM     43  N   UNL A   1      44.256  29.155  32.157  1.00  0.00    -0.354 N 
ATOM     44  N   UNL A   1      45.060  27.775  28.094  1.00  0.00    -0.248 NA
ATOM     45  C   UNL A   1      44.295  25.924  29.293  1.00  0.00     0.031 C 
ATOM     46  C   UNL A   1      44.160  31.228  31.496  1.00  0.00     0.029 A 
ATOM     47  C   UNL A   1      44.539  29.950  31.077  1.00  0.00     0.049 A 
ATOM     48  H   UNL A   1      44.713  28.314  32.390  1.00  0.00     0.167 HD
ATOM     49  C   UNL A   1      45.016  28.129  29.435  1.00  0.00     0.074 A 
ATOM     50  C   UNL A   1      44.620  26.909  30.135  1.00  0.00     0.031 C 
ATOM     51  C   UNL A   1      45.019  29.443  29.811  1.00  0.00     0.037 A 
BRANCH  38  52
ATOM     52  C   UNL A   1      42.418  27.761  34.312  1.00  0.00     0.064 A 
ATOM     53  C   UNL A   1      42.987  26.548  33.866  1.00  0.00     0.173 A 
ATOM     54  C   UNL A   1      41.853  27.722  35.605  1.00  0.00     0.173 A 
ATOM     55  F   UNL A   1      43.547  26.463  32.649  1.00  0.00    -0.203 F 
ATOM     56  C   UNL A   1      42.909  25.373  34.618  1.00  0.00     0.198 A 
ATOM     57  C   UNL A   1      41.826  26.560  36.375  1.00  0.00     0.198 A 
ATOM     58  F   UNL A   1      41.206  28.765  36.136  1.00  0.00    -0.203 F 
ATOM     59  F   UNL A   1      43.344  24.219  34.095  1.00  0.00    -0.200 F 
ATOM     60  C   UNL A   1      42.320  25.378  35.868  1.00  0.00     0.200 A 
ATOM     61  F   UNL A   1      41.237  26.582  37.578  1.00  0.00    -0.200 F 
ATOM     62  F   UNL A   1      42.184  24.241  36.563  1.00  0.00    -0.200 F 
ENDBRANCH  38  52
BRANCH  39  63
ATOM     63  C   UNL A   1      43.587  25.002  26.183  1.00  0.00     0.064 A 
ATOM     64  C   UNL A   1      44.581  24.792  25.216  1.00  0.00     0.173 A 
ATOM     65  C   UNL A   1      42.860  23.867  26.595  1.00  0.00     0.173 A 
ATOM     66  F   UNL A   1      45.351  25.813  24.812  1.00  0.00    -0.203 F 
ATOM     67  C   UNL A   1      44.842  23.518  24.699  1.00  0.00     0.198 A 
ATOM     68  C   UNL A   1      43.120  22.597  26.078  1.00  0.00     0.198 A 
ATOM     69  F   UNL A   1      41.951  23.957  27.576  1.00  0.00    -0.203 F 
ATOM     70  F   UNL A   1      45.835  23.346  23.816  1.00  0.00    -0.200 F 
ATOM     71  C   UNL A   1      44.118  22.420  25.137  1.00  0.00     0.200 A 
ATOM     72  F   UNL A   1      42.444  21.537  26.543  1.00  0.00    -0.200 F 
ATOM     73  F   UNL A   1      44.408  21.192  24.686  1.00  0.00    -0.200 F 
ENDBRANCH  39  63
BRANCH  51  74
ATOM     74  C   UNL A   1      45.349  30.467  28.755  1.00  0.00     0.064 A 
ATOM     75  C   UNL A   1      44.395  31.091  27.931  1.00  0.00     0.173 A 
ATOM     76  C   UNL A   1      46.666  30.935  28.675  1.00  0.00     0.173 A 
ATOM     77  F   UNL A   1      43.099  30.773  28.011  1.00  0.00    -0.203 F 
ATOM     78  C   UNL A   1      44.753  32.105  27.043  1.00  0.00     0.198 A 
ATOM     79  C   UNL A   1      47.015  31.972  27.815  1.00  0.00     0.198 A 
ATOM     80  F   UNL A   1      47.611  30.417  29.475  1.00  0.00    -0.203 F 
ATOM     81  F   UNL A   1      43.823  32.676  26.262  1.00  0.00    -0.200 F 
ATOM     82  C   UNL A   1      46.063  32.550  26.991  1.00  0.00     0.200 A 
ATOM     83  F   UNL A   1      48.274  32.432  27.805  1.00  0.00    -0.200 F 
ATOM     84  F   UNL A   1      46.401  33.552  26.169  1.00  0.00    -0.200 F 
ENDBRANCH  51  74
ENDBRANCH  25  26
ENDBRANCH  17  20
ENDBRANCH   1  16
TORSDOF 10
ENDMDL
MODEL 2
REMARK VINA RESULT:     -12.8      4.992     10.462
REMARK SMILES Cc1n[nH]c(C(=O)NCCCNC(=O)c2ccc(-c3c4nc(c(-c5c(F)c(F)c(F)c(F)c5F)c5ccc([nH]5)c(-c5c(F)c(F)c(F)c(F)c5F)c5nc(c(-c6c(F)c(F)c(F)c(F)c6F)c6ccc3[nH]6)C=C5)C=C4)cc2)c1Br
REMARK SMILES IDX 11 1 10 2 9 3 8 4 6 5 7 6 5 8 1 9 2 10 3 11 78 12 4 13 79 14
REMARK SMILES IDX 12 16 13 17 14 19 15 20 16 21 77 22 17 23 76 24 18 25 19 26
REMARK SMILES IDX 20 27 70 28 21 29 75 30 69 31 71 32 22 33 74 34 68 35 67 36
REMARK SMILES IDX 23 38 55 39 35 40 54 41 36 42 39 43 53 44 72 45 37 46 38 47
REMARK SMILES IDX 52 49 73 50 40 51 24 52 25 53 33 54 26 55 27 56 31 57 34 58
REMARK SMILES IDX 28 59 29 60 32 61 30 62 56 63 57 64 65 65 58 66 59 67 63 68
REMARK SMILES IDX 66 69 60 70 61 71 64 72 62 73 41 74 42 75 50 76 43 77 44 78
REMARK SMILES IDX 48 79 51 80 45 81 46 82 49 83 47 84
REMARK H PARENT 8 7 4 15 12 18 71 37 39 48
REMARK Flexibility Score: inf
ROOT
ATOM      1  C   UNL A   1      43.292  22.516  26.759  1.00  0.00     0.118 C 
ENDROOT
BRANCH   1   2
ATOM      2  C   UNL A   1      44.161  22.528  25.509  1.00  0.00     0.042 C 
BRANCH   2   3
ATOM      3  C   UNL A   1      44.716  23.926  25.209  1.00  0.00     0.118 C 
BRANCH   3   4
ATOM      4  N   UNL A   1      43.656  24.906  25.030  1.00  0.00    -0.351 N 
ATOM      5  C   UNL A   1      43.631  26.279  25.014  1.00  0.00     0.270 C 
ATOM      6  O   UNL A   1      42.539  26.778  24.741  1.00  0.00    -0.267 OA
ATOM      7  H   UNL A   1      42.769  24.500  24.892  1.00  0.00     0.163 HD
BRANCH   5   8
ATOM      8  C   UNL A   1      44.807  27.064  25.283  1.00  0.00     0.137 A 
ATOM      9  C   UNL A   1      47.589  28.687  27.110  1.00  0.00     0.070 C 
ATOM     10  C   UNL A   1      46.566  28.122  26.198  1.00  0.00     0.074 A 
ATOM     11  N   UNL A   1      46.554  28.492  24.911  1.00  0.00    -0.179 NA
ATOM     12  C   UNL A   1      45.518  27.213  26.461  1.00  0.00     0.071 A 
ATOM     13  N   UNL A   1      45.533  27.800  24.387  1.00  0.00    -0.272 N 
ATOM     14  Br  UNL A   1      45.187  26.426  28.134  1.00  0.00    -0.046 Br
ATOM     15  H   UNL A   1      45.321  27.819  23.426  1.00  0.00     0.190 HD
ENDBRANCH   5   8
ENDBRANCH   3   4
ENDBRANCH   2   3
ENDBRANCH   1   2
BRANCH   1  16
ATOM     16  N   UNL A   1      41.901  22.124  26.492  1.00  0.00    -0.352 N 
ATOM     17  C   UNL A   1      40.728  22.798  26.806  1.00  0.00     0.251 C 
ATOM     18  H   UNL A   1      41.784  21.265  26.024  1.00  0.00     0.163 HD
ATOM     19  O   UNL A   1      39.654  22.228  26.813  1.00  0.00    -0.269 OA
BRANCH  17  20
ATOM     20  C   UNL A   1      40.817  24.234  27.124  1.00  0.00     0.039 A 
ATOM     21  C   UNL A   1      40.026  25.201  26.496  1.00  0.00     0.014 A 
ATOM     22  C   UNL A   1      41.700  24.587  28.132  1.00  0.00     0.014 A 
ATOM     23  C   UNL A   1      40.092  26.516  26.958  1.00  0.00     0.010 A 
ATOM     24  C   UNL A   1      41.559  25.790  28.751  1.00  0.00     0.010 A 
ATOM     25  C   UNL A   1      40.857  26.792  28.100  1.00  0.00    -0.014 A 
BRANCH  25  26
ATOM     26  C   UNL A   1      40.931  28.114  28.703  1.00  0.00     0.031 A 
ATOM     27  C   UNL A   1      42.025  28.968  28.182  1.00  0.00     0.074 A 
ATOM     28  C   UNL A   1      39.917  28.594  29.459  1.00  0.00     0.049 A 
ATOM     29  N   UNL A   1      43.052  29.414  28.824  1.00  0.00    -0.248 NA
ATOM     30  C   UNL A   1      42.058  29.250  26.737  1.00  0.00     0.031 C 
ATOM     31  C   UNL A   1      38.620  27.967  29.762  1.00  0.00     0.029 A 
ATOM     32  N   UNL A   1      39.786  29.818  30.034  1.00  0.00    -0.354 N 
ATOM     33  C   UNL A   1      43.759  30.200  27.917  1.00  0.00     0.074 A 
ATOM     34  C   UNL A   1      43.215  29.906  26.618  1.00  0.00     0.031 C 
ATOM     35  C   UNL A   1      37.764  28.890  30.249  1.00  0.00     0.029 A 
ATOM     36  C   UNL A   1      38.501  30.116  30.474  1.00  0.00     0.049 A 
ATOM     37  H   UNL A   1      40.539  30.443  30.132  1.00  0.00     0.167 HD
ATOM     38  C   UNL A   1      44.560  31.214  28.350  1.00  0.00     0.037 A 
ATOM     39  C   UNL A   1      38.071  31.300  30.975  1.00  0.00     0.037 A 
ATOM     40  C   UNL A   1      44.822  31.089  29.763  1.00  0.00     0.049 A 
ATOM     41  C   UNL A   1      39.277  32.054  31.397  1.00  0.00     0.074 A 
ATOM     42  C   UNL A   1      45.460  30.157  30.557  1.00  0.00     0.029 A 
ATOM     43  N   UNL A   1      44.047  31.839  30.611  1.00  0.00    -0.354 N 
ATOM     44  N   UNL A   1      40.056  31.680  32.375  1.00  0.00    -0.248 NA
ATOM     45  C   UNL A   1      39.880  32.954  30.427  1.00  0.00     0.031 C 
ATOM     46  C   UNL A   1      44.684  30.097  31.754  1.00  0.00     0.029 A 
ATOM     47  C   UNL A   1      43.658  31.041  31.657  1.00  0.00     0.049 A 
ATOM     48  H   UNL A   1      43.810  32.786  30.490  1.00  0.00     0.167 HD
ATOM     49  C   UNL A   1      41.342  31.938  31.920  1.00  0.00     0.074 A 
ATOM     50  C   UNL A   1      41.165  32.808  30.760  1.00  0.00     0.031 C 
ATOM     51  C   UNL A   1      42.399  31.185  32.351  1.00  0.00     0.037 A 
BRANCH  38  52
ATOM     52  C   UNL A   1      44.778  32.517  27.617  1.00  0.00     0.064 A 
ATOM     53  C   UNL A   1      45.975  32.694  26.888  1.00  0.00     0.173 A 
ATOM     54  C   UNL A   1      44.030  33.693  27.842  1.00  0.00     0.173 A 
ATOM     55  F   UNL A   1      46.772  31.649  26.620  1.00  0.00    -0.203 F 
ATOM     56  C   UNL A   1      46.427  33.959  26.505  1.00  0.00     0.198 A 
ATOM     57  C   UNL A   1      44.459  34.947  27.410  1.00  0.00     0.198 A 
ATOM     58  F   UNL A   1      42.917  33.703  28.584  1.00  0.00    -0.203 F 
ATOM     59  F   UNL A   1      47.633  34.090  25.935  1.00  0.00    -0.200 F 
ATOM     60  C   UNL A   1      45.673  35.086  26.773  1.00  0.00     0.200 A 
ATOM     61  F   UNL A   1      43.720  36.028  27.694  1.00  0.00    -0.200 F 
ATOM     62  F   UNL A   1      46.134  36.305  26.467  1.00  0.00    -0.200 F 
ENDBRANCH  38  52
BRANCH  39  63
ATOM     63  C   UNL A   1      36.743  31.931  30.803  1.00  0.00     0.064 A 
ATOM     64  C   UNL A   1      35.878  32.130  31.887  1.00  0.00     0.173 A 
ATOM     65  C   UNL A   1      36.415  32.598  29.605  1.00  0.00     0.173 A 
ATOM     66  F   UNL A   1      36.151  31.573  33.076  1.00  0.00    -0.203 F 
ATOM     67  C   UNL A   1      34.753  32.959  31.785  1.00  0.00     0.198 A 
ATOM     68  C   UNL A   1      35.293  33.422  29.503  1.00  0.00     0.198 A 
ATOM     69  F   UNL A   1      37.231  32.536  28.542  1.00  0.00    -0.203 F 
ATOM     70  F   UNL A   1      33.977  33.168  32.858  1.00  0.00    -0.200 F 
ATOM     71  C   UNL A   1      34.468  33.611  30.596  1.00  0.00     0.200 A 
ATOM     72  F   UNL A   1      35.054  34.083  28.362  1.00  0.00    -0.200 F 
ATOM     73  F   UNL A   1      33.426  34.450  30.516  1.00  0.00    -0.200 F 
ENDBRANCH  39  63
BRANCH  51  74
ATOM     74  C   UNL A   1      42.166  30.269  33.525  1.00  0.00     0.064 A 
ATOM     75  C   UNL A   1      41.788  28.919  33.415  1.00  0.00     0.173 A 
ATOM     76  C   UNL A   1      42.477  30.742  34.806  1.00  0.00     0.173 A 
ATOM     77  F   UNL A   1      41.566  28.360  32.222  1.00  0.00    -0.203 F 
ATOM     78  C   UNL A   1      41.688  28.097  34.537  1.00  0.00     0.198 A 
ATOM     79  C   UNL A   1      42.412  29.911  35.921  1.00  0.00     0.198 A 
ATOM     80  F   UNL A   1      42.897  32.006  34.969  1.00  0.00    -0.203 F 
ATOM     81  F   UNL A   1      41.315  26.816  34.403  1.00  0.00    -0.200 F 
ATOM     82  C   UNL A   1      42.008  28.593  35.789  1.00  0.00     0.200 A 
ATOM     83  F   UNL A   1      42.771  30.383  37.123  1.00  0.00    -0.200 F 
ATOM     84  F   UNL A   1      41.952  27.794  36.864  1.00  0.00    -0.200 F 
ENDBRANCH  51  74
ENDBRANCH  25  26
ENDBRANCH  17  20
ENDBRANCH   1  16
TORSDOF 10
ENDMDL
MODEL 3
REMARK VINA RESULT:     -12.8      5.008     10.730
REMARK SMILES Cc1n[nH]c(C(=O)NCCCNC(=O)c2ccc(-c3c4nc(c(-c5c(F)c(F)c(F)c(F)c5F)c5ccc([nH]5)c(-c5c(F)c(F)c(F)c(F)c5F)c5nc(c(-c6c(F)c(F)c(F)c(F)c6F)c6ccc3[nH]6)C=C5)C=C4)cc2)c1Br
REMARK SMILES IDX 11 1 10 2 9 3 8 4 6 5 7 6 5 8 1 9 2 10 3 11 78 12 4 13 79 14
REMARK SMILES IDX 12 16 13 17 14 19 15 20 16 21 77 22 17 23 76 24 18 25 19 26
REMARK SMILES IDX 20 27 70 28 21 29 75 30 69 31 71 32 22 33 74 34 68 35 67 36
REMARK SMILES IDX 23 38 55 39 35 40 54 41 36 42 39 43 53 44 72 45 37 46 38 47
REMARK SMILES IDX 52 49 73 50 40 51 24 52 25 53 33 54 26 55 27 56 31 57 34 58
REMARK SMILES IDX 28 59 29 60 32 61 30 62 56 63 57 64 65 65 58 66 59 67 63 68
REMARK SMILES IDX 66 69 60 70 61 71 64 72 62 73 41 74 42 75 50 76 43 77 44 78
REMARK SMILES IDX 48 79 51 80 45 81 46 82 49 83 47 84
REMARK H PARENT 8 7 4 15 12 18 71 37 39 48
REMARK Flexibility Score: inf
ROOT
ATOM      1  C   UNL A   1      43.170  22.507  25.880  1.00  0.00     0.118 C 
ENDROOT
BRANCH   1   2
ATOM      2  C   UNL A   1      43.724  22.544  24.462  1.00  0.00     0.042 C 
BRANCH   2   3
ATOM      3  C   UNL A   1      45.159  22.008  24.393  1.00  0.00     0.118 C 
BRANCH   3   4
ATOM      4  N   UNL A   1      46.088  23.001  23.874  1.00  0.00    -0.351 N 
ATOM      5  C   UNL A   1      46.728  24.079  24.434  1.00  0.00     0.270 C 
ATOM      6  O   UNL A   1      47.528  24.652  23.695  1.00  0.00    -0.267 OA
ATOM      7  H   UNL A   1      46.302  22.873  22.921  1.00  0.00     0.163 HD
BRANCH   5   8
ATOM      8  C   UNL A   1      46.485  24.487  25.793  1.00  0.00     0.137 A 
ATOM      9  C   UNL A   1      45.017  26.225  28.715  1.00  0.00     0.070 C 
ATOM     10  C   UNL A   1      45.727  25.421  27.691  1.00  0.00     0.074 A 
ATOM     11  N   UNL A   1      46.767  24.662  28.055  1.00  0.00    -0.179 NA
ATOM     12  C   UNL A   1      45.499  25.316  26.301  1.00  0.00     0.071 A 
ATOM     13  N   UNL A   1      47.155  24.078  26.912  1.00  0.00    -0.272 N 
ATOM     14  Br  UNL A   1      44.123  26.199  25.378  1.00  0.00    -0.046 Br
ATOM     15  H   UNL A   1      47.871  23.402  26.881  1.00  0.00     0.190 HD
ENDBRANCH   5   8
ENDBRANCH   3   4
ENDBRANCH   2   3
ENDBRANCH   1   2
BRANCH   1  16
ATOM     16  N   UNL A   1      41.752  22.126  25.936  1.00  0.00    -0.352 N 
ATOM     17  C   UNL A   1      40.701  22.763  26.584  1.00  0.00     0.251 C 
ATOM     18  H   UNL A   1      41.514  21.306  25.445  1.00  0.00     0.163 HD
ATOM     19  O   UNL A   1      39.657  22.184  26.812  1.00  0.00    -0.269 OA
BRANCH  17  20
ATOM     20  C   UNL A   1      40.883  24.169  26.984  1.00  0.00     0.039 A 
ATOM     21  C   UNL A   1      40.343  25.239  26.263  1.00  0.00     0.014 A 
ATOM     22  C   UNL A   1      41.583  24.389  28.159  1.00  0.00     0.014 A 
ATOM     23  C   UNL A   1      40.461  26.524  26.793  1.00  0.00     0.010 A 
ATOM     24  C   UNL A   1      41.455  25.584  28.797  1.00  0.00     0.010 A 
ATOM     25  C   UNL A   1      41.011  26.678  28.073  1.00  0.00    -0.014 A 
BRANCH  25  26
ATOM     26  C   UNL A   1      41.109  27.965  28.742  1.00  0.00     0.031 A 
ATOM     27  C   UNL A   1      42.259  28.797  28.313  1.00  0.00     0.074 A 
ATOM     28  C   UNL A   1      40.081  28.452  29.475  1.00  0.00     0.049 A 
ATOM     29  N   UNL A   1      43.272  29.169  29.021  1.00  0.00    -0.248 NA
ATOM     30  C   UNL A   1      42.370  29.145  26.886  1.00  0.00     0.031 C 
ATOM     31  C   UNL A   1      38.747  27.865  29.689  1.00  0.00     0.029 A 
ATOM     32  N   UNL A   1      39.971  29.651  30.103  1.00  0.00    -0.354 N 
ATOM     33  C   UNL A   1      44.051  29.967  28.186  1.00  0.00     0.074 A 
ATOM     34  C   UNL A   1      43.556  29.757  26.852  1.00  0.00     0.031 C 
ATOM     35  C   UNL A   1      37.906  28.800  30.183  1.00  0.00     0.029 A 
ATOM     36  C   UNL A   1      38.680  29.982  30.500  1.00  0.00     0.049 A 
ATOM     37  H   UNL A   1      40.744  30.239  30.265  1.00  0.00     0.167 HD
ATOM     38  C   UNL A   1      44.870  30.924  28.703  1.00  0.00     0.037 A 
ATOM     39  C   UNL A   1      38.276  31.157  31.039  1.00  0.00     0.037 A 
ATOM     40  C   UNL A   1      45.061  30.722  30.118  1.00  0.00     0.049 A 
ATOM     41  C   UNL A   1      39.490  31.839  31.550  1.00  0.00     0.074 A 
ATOM     42  C   UNL A   1      45.624  29.727  30.894  1.00  0.00     0.029 A 
ATOM     43  N   UNL A   1      44.278  31.462  30.968  1.00  0.00    -0.354 N 
ATOM     44  N   UNL A   1      40.207  31.388  32.542  1.00  0.00    -0.248 NA
ATOM     45  C   UNL A   1      40.172  32.759  30.653  1.00  0.00     0.031 C 
ATOM     46  C   UNL A   1      44.792  29.644  32.050  1.00  0.00     0.029 A 
ATOM     47  C   UNL A   1      43.810  30.633  31.954  1.00  0.00     0.049 A 
ATOM     48  H   UNL A   1      44.085  32.424  30.883  1.00  0.00     0.167 HD
ATOM     49  C   UNL A   1      41.522  31.613  32.159  1.00  0.00     0.074 A 
ATOM     50  C   UNL A   1      41.433  32.543  31.035  1.00  0.00     0.031 C 
ATOM     51  C   UNL A   1      42.527  30.797  32.599  1.00  0.00     0.037 A 
BRANCH  38  52
ATOM     52  C   UNL A   1      45.174  32.251  28.045  1.00  0.00     0.064 A 
ATOM     53  C   UNL A   1      44.113  33.152  27.813  1.00  0.00     0.173 A 
ATOM     54  C   UNL A   1      46.375  32.544  27.364  1.00  0.00     0.173 A 
ATOM     55  F   UNL A   1      42.921  32.970  28.400  1.00  0.00    -0.203 F 
ATOM     56  C   UNL A   1      44.222  34.204  26.899  1.00  0.00     0.198 A 
ATOM     57  C   UNL A   1      46.497  33.627  26.494  1.00  0.00     0.198 A 
ATOM     58  F   UNL A   1      47.444  31.742  27.417  1.00  0.00    -0.203 F 
ATOM     59  F   UNL A   1      43.147  34.950  26.613  1.00  0.00    -0.200 F 
ATOM     60  C   UNL A   1      45.411  34.435  26.234  1.00  0.00     0.200 A 
ATOM     61  F   UNL A   1      47.653  33.825  25.848  1.00  0.00    -0.200 F 
ATOM     62  F   UNL A   1      45.499  35.400  25.309  1.00  0.00    -0.200 F 
ENDBRANCH  38  52
BRANCH  39  63
ATOM     63  C   UNL A   1      36.983  31.851  30.839  1.00  0.00     0.064 A 
ATOM     64  C   UNL A   1      36.068  32.018  31.888  1.00  0.00     0.173 A 
ATOM     65  C   UNL A   1      36.744  32.603  29.671  1.00  0.00     0.173 A 
ATOM     66  F   UNL A   1      36.257  31.378  33.051  1.00  0.00    -0.203 F 
ATOM     67  C   UNL A   1      34.983  32.896  31.781  1.00  0.00     0.198 A 
ATOM     68  C   UNL A   1      35.661  33.477  29.564  1.00  0.00     0.198 A 
ATOM     69  F   UNL A   1      37.613  32.573  28.650  1.00  0.00    -0.203 F 
ATOM     70  F   UNL A   1      34.159  33.070  32.824  1.00  0.00    -0.200 F 
ATOM     71  C   UNL A   1      34.785  33.631  30.623  1.00  0.00     0.200 A 
ATOM     72  F   UNL A   1      35.508  34.215  28.456  1.00  0.00    -0.200 F 
ATOM     73  F   UNL A   1      33.781  34.514  30.543  1.00  0.00    -0.200 F 
ENDBRANCH  39  63
BRANCH  51  74
ATOM     74  C   UNL A   1      42.204  29.838  33.715  1.00  0.00     0.064 A 
ATOM     75  C   UNL A   1      41.774  28.512  33.522  1.00  0.00     0.173 A 
ATOM     76  C   UNL A   1      42.477  30.235  35.029  1.00  0.00     0.173 A 
ATOM     77  F   UNL A   1      41.582  28.021  32.294  1.00  0.00    -0.203 F 
ATOM     78  C   UNL A   1      41.590  27.643  34.596  1.00  0.00     0.198 A 
ATOM     79  C   UNL A   1      42.328  29.355  36.098  1.00  0.00     0.198 A 
ATOM     80  F   UNL A   1      42.943  31.469  35.273  1.00  0.00    -0.203 F 
ATOM     81  F   UNL A   1      41.170  26.387  34.383  1.00  0.00    -0.200 F 
ATOM     82  C   UNL A   1      41.875  28.064  35.884  1.00  0.00     0.200 A 
ATOM     83  F   UNL A   1      42.654  29.752  37.336  1.00  0.00    -0.200 F 
ATOM     84  F   UNL A   1      41.738  27.218  36.914  1.00  0.00    -0.200 F 
ENDBRANCH  51  74
ENDBRANCH  25  26
ENDBRANCH  17  20
ENDBRANCH   1  16
TORSDOF 10
ENDMDL
