MODEL 1
REMARK VINA RESULT:     -14.0      0.000      0.000
REMARK SMILES CN1C(=O)C[C@@H](C(=O)NCCCNC(=O)c2ccc(-c3c4nc(c(-c5c(F)c(F)c(F)c(F)c5F)c5ccc([nH]5)c(-c5c(F)c(F)c(F)c(F)c5F)c5nc(c(-c6c(F)c(F)c(F)c(F)c6F)c6ccc3[nH]6)C=C5)C=C4)cc2)C12CCN(C(=O)c1cc3ccccc3[nH]1)CC2
REMARK SMILES IDX 11 1 10 2 9 3 7 4 8 5 6 7 1 8 2 9 3 10 79 11 4 12 5 13 80 14
REMARK SMILES IDX 95 15 81 16 94 17 82 18 83 19 84 20 85 21 86 22 93 23 87 24
REMARK SMILES IDX 92 25 88 27 91 28 89 29 90 30 12 31 13 32 14 33 15 35 16 36
REMARK SMILES IDX 17 37 78 38 18 39 77 40 19 41 20 42 21 43 71 44 22 45 76 46
REMARK SMILES IDX 70 47 72 48 23 49 75 50 69 51 68 52 24 54 56 55 36 56 55 57
REMARK SMILES IDX 37 58 40 59 54 60 73 61 38 62 39 63 53 65 74 66 41 67 25 68
REMARK SMILES IDX 26 69 34 70 27 71 28 72 32 73 35 74 29 75 30 76 33 77 31 78
REMARK SMILES IDX 57 79 58 80 66 81 59 82 60 83 64 84 67 85 61 86 62 87 65 88
REMARK SMILES IDX 63 89 42 90 43 91 51 92 44 93 45 94 49 95 52 96 46 97 47 98
REMARK SMILES IDX 50 99 48 100
REMARK H PARENT 9 6 93 26 13 34 72 53 40 64
REMARK Flexibility Score: inf
ROOT
ATOM      1  C   UNL A   1      35.772  24.088  25.672  1.00  0.00     0.042 C 
ENDROOT
BRANCH   1   2
ATOM      2  C   UNL A   1      34.781  22.991  26.058  1.00  0.00     0.117 C 
BRANCH   2   3
ATOM      3  N   UNL A   1      33.666  23.463  26.865  1.00  0.00    -0.356 N 
ATOM      4  C   UNL A   1      32.330  23.562  26.677  1.00  0.00     0.226 C 
ATOM      5  O   UNL A   1      31.689  24.033  27.626  1.00  0.00    -0.275 OA
ATOM      6  H   UNL A   1      33.949  23.784  27.751  1.00  0.00     0.163 HD
BRANCH   4   7
ATOM      7  C   UNL A   1      31.573  23.222  25.395  1.00  0.00     0.113 C 
ATOM      8  C   UNL A   1      33.474  23.771  22.216  1.00  0.00     0.147 C 
ATOM      9  N   UNL A   1      32.743  23.292  23.377  1.00  0.00    -0.339 N 
ATOM     10  C   UNL A   1      32.645  21.943  23.685  1.00  0.00     0.223 C 
ATOM     11  C   UNL A   1      31.825  24.128  24.165  1.00  0.00     0.058 C 
ATOM     12  O   UNL A   1      33.181  21.018  23.098  1.00  0.00    -0.275 OA
ATOM     13  C   UNL A   1      31.769  21.792  24.901  1.00  0.00     0.116 C 
ATOM     14  C   UNL A   1      32.406  25.517  24.526  1.00  0.00     0.051 C 
ATOM     15  C   UNL A   1      30.502  24.288  23.341  1.00  0.00     0.051 C 
ATOM     16  C   UNL A   1      31.347  26.480  25.069  1.00  0.00     0.122 C 
ATOM     17  C   UNL A   1      29.556  25.360  23.882  1.00  0.00     0.122 C 
ATOM     18  N   UNL A   1      30.249  26.612  24.130  1.00  0.00    -0.337 N 
ATOM     19  C   UNL A   1      30.520  27.423  23.026  1.00  0.00     0.270 C 
ATOM     20  O   UNL A   1      31.332  27.093  22.165  1.00  0.00    -0.267 OA
BRANCH  19  21
ATOM     21  C   UNL A   1      29.803  28.669  22.984  1.00  0.00     0.105 A 
ATOM     22  C   UNL A   1      29.929  29.731  23.861  1.00  0.00     0.042 A 
ATOM     23  N   UNL A   1      28.910  29.062  22.015  1.00  0.00    -0.351 N 
ATOM     24  C   UNL A   1      29.282  30.853  23.287  1.00  0.00     0.000 A 
ATOM     25  C   UNL A   1      28.688  30.419  22.103  1.00  0.00     0.046 A 
ATOM     26  H   UNL A   1      28.492  28.462  21.356  1.00  0.00     0.167 HD
ATOM     27  C   UNL A   1      29.208  32.213  23.635  1.00  0.00     0.010 A 
ATOM     28  C   UNL A   1      28.040  31.294  21.224  1.00  0.00     0.026 A 
ATOM     29  C   UNL A   1      28.596  33.106  22.752  1.00  0.00     0.001 A 
ATOM     30  C   UNL A   1      28.029  32.653  21.562  1.00  0.00     0.002 A 
ENDBRANCH  19  21
ENDBRANCH   4   7
ENDBRANCH   2   3
ENDBRANCH   1   2
BRANCH   1  31
ATOM     31  C   UNL A   1      36.887  23.639  24.728  1.00  0.00     0.118 C 
BRANCH  31  32
ATOM     32  N   UNL A   1      37.749  22.635  25.333  1.00  0.00    -0.352 N 
ATOM     33  C   UNL A   1      38.862  22.774  26.123  1.00  0.00     0.251 C 
ATOM     34  H   UNL A   1      37.492  21.704  25.143  1.00  0.00     0.163 HD
ATOM     35  O   UNL A   1      39.567  21.792  26.341  1.00  0.00    -0.269 OA
BRANCH  33  36
ATOM     36  C   UNL A   1      39.232  24.078  26.722  1.00  0.00     0.039 A 
ATOM     37  C   UNL A   1      40.019  24.956  25.967  1.00  0.00     0.014 A 
ATOM     38  C   UNL A   1      38.903  24.404  28.040  1.00  0.00     0.014 A 
ATOM     39  C   UNL A   1      40.446  26.167  26.518  1.00  0.00     0.010 A 
ATOM     40  C   UNL A   1      39.287  25.637  28.574  1.00  0.00     0.010 A 
ATOM     41  C   UNL A   1      40.072  26.524  27.823  1.00  0.00    -0.014 A 
BRANCH  41  42
ATOM     42  C   UNL A   1      40.521  27.811  28.415  1.00  0.00     0.031 A 
ATOM     43  C   UNL A   1      41.969  28.028  28.756  1.00  0.00     0.074 A 
ATOM     44  C   UNL A   1      39.619  28.776  28.678  1.00  0.00     0.049 A 
ATOM     45  N   UNL A   1      42.541  29.064  29.316  1.00  0.00    -0.248 NA
ATOM     46  C   UNL A   1      42.894  26.929  28.442  1.00  0.00     0.031 C 
ATOM     47  C   UNL A   1      38.181  28.679  28.429  1.00  0.00     0.029 A 
ATOM     48  N   UNL A   1      39.781  30.028  29.216  1.00  0.00    -0.354 N 
ATOM     49  C   UNL A   1      43.884  28.735  29.441  1.00  0.00     0.074 A 
ATOM     50  C   UNL A   1      44.039  27.391  28.925  1.00  0.00     0.031 C 
ATOM     51  C   UNL A   1      37.594  29.830  28.796  1.00  0.00     0.029 A 
ATOM     52  C   UNL A   1      38.609  30.735  29.326  1.00  0.00     0.049 A 
ATOM     53  H   UNL A   1      40.655  30.385  29.496  1.00  0.00     0.167 HD
ATOM     54  C   UNL A   1      44.900  29.489  29.927  1.00  0.00     0.037 A 
ATOM     55  C   UNL A   1      38.381  31.975  29.800  1.00  0.00     0.037 A 
ATOM     56  C   UNL A   1      44.760  30.838  30.406  1.00  0.00     0.049 A 
ATOM     57  C   UNL A   1      39.532  32.804  30.297  1.00  0.00     0.074 A 
ATOM     58  C   UNL A   1      45.741  31.695  30.875  1.00  0.00     0.029 A 
ATOM     59  N   UNL A   1      43.562  31.531  30.468  1.00  0.00    -0.354 N 
ATOM     60  N   UNL A   1      40.803  32.493  30.373  1.00  0.00    -0.248 NA
ATOM     61  C   UNL A   1      39.215  34.160  30.768  1.00  0.00     0.031 C 
ATOM     62  C   UNL A   1      45.133  32.902  31.239  1.00  0.00     0.029 A 
ATOM     63  C   UNL A   1      43.777  32.804  30.972  1.00  0.00     0.049 A 
ATOM     64  H   UNL A   1      42.686  31.173  30.195  1.00  0.00     0.167 HD
ATOM     65  C   UNL A   1      41.438  33.616  30.881  1.00  0.00     0.074 A 
ATOM     66  C   UNL A   1      40.418  34.623  31.083  1.00  0.00     0.031 C 
ATOM     67  C   UNL A   1      42.752  33.796  31.159  1.00  0.00     0.037 A 
BRANCH  54  68
ATOM     68  C   UNL A   1      46.265  28.870  29.958  1.00  0.00     0.064 A 
ATOM     69  C   UNL A   1      46.708  28.134  31.065  1.00  0.00     0.173 A 
ATOM     70  C   UNL A   1      47.120  28.977  28.852  1.00  0.00     0.173 A 
ATOM     71  F   UNL A   1      45.929  28.015  32.152  1.00  0.00    -0.203 F 
ATOM     72  C   UNL A   1      47.969  27.543  31.073  1.00  0.00     0.198 A 
ATOM     73  C   UNL A   1      48.372  28.367  28.854  1.00  0.00     0.198 A 
ATOM     74  F   UNL A   1      46.739  29.667  27.766  1.00  0.00    -0.203 F 
ATOM     75  F   UNL A   1      48.386  26.872  32.156  1.00  0.00    -0.200 F 
ATOM     76  C   UNL A   1      48.796  27.654  29.965  1.00  0.00     0.200 A 
ATOM     77  F   UNL A   1      49.168  28.468  27.781  1.00  0.00    -0.200 F 
ATOM     78  F   UNL A   1      50.007  27.079  29.972  1.00  0.00    -0.200 F 
ENDBRANCH  54  68
BRANCH  55  79
ATOM     79  C   UNL A   1      37.003  32.523  29.794  1.00  0.00     0.064 A 
ATOM     80  C   UNL A   1      36.520  33.233  28.687  1.00  0.00     0.173 A 
ATOM     81  C   UNL A   1      36.147  32.354  30.892  1.00  0.00     0.173 A 
ATOM     82  F   UNL A   1      37.314  33.437  27.625  1.00  0.00    -0.203 F 
ATOM     83  C   UNL A   1      35.234  33.767  28.682  1.00  0.00     0.198 A 
ATOM     84  C   UNL A   1      34.854  32.872  30.877  1.00  0.00     0.198 A 
ATOM     85  F   UNL A   1      36.567  31.681  31.972  1.00  0.00    -0.203 F 
ATOM     86  F   UNL A   1      34.808  34.473  27.627  1.00  0.00    -0.200 F 
ATOM     87  C   UNL A   1      34.400  33.583  29.775  1.00  0.00     0.200 A 
ATOM     88  F   UNL A   1      34.049  32.687  31.932  1.00  0.00    -0.200 F 
ATOM     89  F   UNL A   1      33.163  34.097  29.771  1.00  0.00    -0.200 F 
ENDBRANCH  55  79
BRANCH  67  90
ATOM     90  C   UNL A   1      43.161  35.136  31.689  1.00  0.00     0.064 A 
ATOM     91  C   UNL A   1      43.633  36.143  30.836  1.00  0.00     0.173 A 
ATOM     92  C   UNL A   1      43.052  35.423  33.057  1.00  0.00     0.173 A 
ATOM     93  F   UNL A   1      43.768  35.906  29.522  1.00  0.00    -0.203 F 
ATOM     94  C   UNL A   1      44.003  37.388  31.338  1.00  0.00     0.198 A 
ATOM     95  C   UNL A   1      43.405  36.676  33.553  1.00  0.00     0.198 A 
ATOM     96  F   UNL A   1      42.603  34.492  33.910  1.00  0.00    -0.203 F 
ATOM     97  F   UNL A   1      44.486  38.325  30.512  1.00  0.00    -0.200 F 
ATOM     98  C   UNL A   1      43.884  37.654  32.695  1.00  0.00     0.200 A 
ATOM     99  F   UNL A   1      43.287  36.933  34.862  1.00  0.00    -0.200 F 
ATOM    100  F   UNL A   1      44.241  38.853  33.176  1.00  0.00    -0.200 F 
ENDBRANCH  67  90
ENDBRANCH  41  42
ENDBRANCH  33  36
ENDBRANCH  31  32
ENDBRANCH   1  31
TORSDOF 11
ENDMDL
MODEL 2
REMARK VINA RESULT:     -13.9      3.846      9.326
REMARK SMILES CN1C(=O)C[C@@H](C(=O)NCCCNC(=O)c2ccc(-c3c4nc(c(-c5c(F)c(F)c(F)c(F)c5F)c5ccc([nH]5)c(-c5c(F)c(F)c(F)c(F)c5F)c5nc(c(-c6c(F)c(F)c(F)c(F)c6F)c6ccc3[nH]6)C=C5)C=C4)cc2)C12CCN(C(=O)c1cc3ccccc3[nH]1)CC2
REMARK SMILES IDX 11 1 10 2 9 3 7 4 8 5 6 7 1 8 2 9 3 10 79 11 4 12 5 13 80 14
REMARK SMILES IDX 95 15 81 16 94 17 82 18 83 19 84 20 85 21 86 22 93 23 87 24
REMARK SMILES IDX 92 25 88 27 91 28 89 29 90 30 12 31 13 32 14 33 15 35 16 36
REMARK SMILES IDX 17 37 78 38 18 39 77 40 19 41 20 42 21 43 71 44 22 45 76 46
REMARK SMILES IDX 70 47 72 48 23 49 75 50 69 51 68 52 24 54 56 55 36 56 55 57
REMARK SMILES IDX 37 58 40 59 54 60 73 61 38 62 39 63 53 65 74 66 41 67 25 68
REMARK SMILES IDX 26 69 34 70 27 71 28 72 32 73 35 74 29 75 30 76 33 77 31 78
REMARK SMILES IDX 57 79 58 80 66 81 59 82 60 83 64 84 67 85 61 86 62 87 65 88
REMARK SMILES IDX 63 89 42 90 43 91 51 92 44 93 45 94 49 95 52 96 46 97 47 98
REMARK SMILES IDX 50 99 48 100
REMARK H PARENT 9 6 93 26 13 34 72 53 40 64
REMARK Flexibility Score: inf
ROOT
ATOM      1  C   UNL A   1      31.007  31.765  26.036  1.00  0.00     0.042 C 
ENDROOT
BRANCH   1   2
ATOM      2  C   UNL A   1      31.082  30.436  25.285  1.00  0.00     0.117 C 
BRANCH   2   3
ATOM      3  N   UNL A   1      32.408  29.837  25.284  1.00  0.00    -0.356 N 
ATOM      4  C   UNL A   1      33.051  28.948  24.491  1.00  0.00     0.226 C 
ATOM      5  O   UNL A   1      34.211  28.674  24.826  1.00  0.00    -0.275 OA
ATOM      6  H   UNL A   1      32.967  30.151  26.032  1.00  0.00     0.163 HD
BRANCH   4   7
ATOM      7  C   UNL A   1      32.454  28.214  23.294  1.00  0.00     0.113 C 
ATOM      8  C   UNL A   1      28.991  26.877  23.793  1.00  0.00     0.147 C 
ATOM      9  N   UNL A   1      30.217  27.558  23.410  1.00  0.00    -0.339 N 
ATOM     10  C   UNL A   1      30.216  28.687  22.604  1.00  0.00     0.223 C 
ATOM     11  C   UNL A   1      31.559  26.986  23.592  1.00  0.00     0.058 C 
ATOM     12  O   UNL A   1      29.239  29.280  22.176  1.00  0.00    -0.275 OA
ATOM     13  C   UNL A   1      31.643  29.095  22.348  1.00  0.00     0.116 C 
ATOM     14  C   UNL A   1      31.789  26.377  24.997  1.00  0.00     0.051 C 
ATOM     15  C   UNL A   1      31.765  25.896  22.485  1.00  0.00     0.051 C 
ATOM     16  C   UNL A   1      33.058  25.524  25.073  1.00  0.00     0.122 C 
ATOM     17  C   UNL A   1      32.988  25.005  22.707  1.00  0.00     0.122 C 
ATOM     18  N   UNL A   1      33.032  24.484  24.062  1.00  0.00    -0.337 N 
ATOM     19  C   UNL A   1      32.203  23.401  24.360  1.00  0.00     0.270 C 
ATOM     20  O   UNL A   1      30.980  23.514  24.397  1.00  0.00    -0.267 OA
BRANCH  19  21
ATOM     21  C   UNL A   1      32.878  22.162  24.637  1.00  0.00     0.105 A 
ATOM     22  C   UNL A   1      32.398  20.885  24.412  1.00  0.00     0.042 A 
ATOM     23  N   UNL A   1      34.161  22.022  25.111  1.00  0.00    -0.351 N 
ATOM     24  C   UNL A   1      33.482  19.981  24.533  1.00  0.00     0.000 A 
ATOM     25  C   UNL A   1      34.592  20.726  24.928  1.00  0.00     0.046 A 
ATOM     26  H   UNL A   1      34.694  22.743  25.519  1.00  0.00     0.167 HD
ATOM     27  C   UNL A   1      33.632  18.606  24.277  1.00  0.00     0.010 A 
ATOM     28  C   UNL A   1      35.867  20.164  25.052  1.00  0.00     0.026 A 
ATOM     29  C   UNL A   1      34.906  18.037  24.361  1.00  0.00     0.001 A 
ATOM     30  C   UNL A   1      36.006  18.808  24.734  1.00  0.00     0.002 A 
ENDBRANCH  19  21
ENDBRANCH   4   7
ENDBRANCH   2   3
ENDBRANCH   1   2
BRANCH   1  31
ATOM     31  C   UNL A   1      32.237  32.090  26.882  1.00  0.00     0.118 C 
BRANCH  31  32
ATOM     32  N   UNL A   1      32.311  33.501  27.228  1.00  0.00    -0.352 N 
ATOM     33  C   UNL A   1      33.138  34.164  28.099  1.00  0.00     0.251 C 
ATOM     34  H   UNL A   1      31.660  34.073  26.763  1.00  0.00     0.163 HD
ATOM     35  O   UNL A   1      32.879  35.325  28.403  1.00  0.00    -0.269 OA
BRANCH  33  36
ATOM     36  C   UNL A   1      34.337  33.515  28.680  1.00  0.00     0.039 A 
ATOM     37  C   UNL A   1      34.153  32.409  29.517  1.00  0.00     0.014 A 
ATOM     38  C   UNL A   1      35.620  34.035  28.492  1.00  0.00     0.014 A 
ATOM     39  C   UNL A   1      35.252  31.806  30.137  1.00  0.00     0.010 A 
ATOM     40  C   UNL A   1      36.724  33.404  29.073  1.00  0.00     0.010 A 
ATOM     41  C   UNL A   1      36.549  32.292  29.910  1.00  0.00    -0.014 A 
BRANCH  41  42
ATOM     42  C   UNL A   1      37.722  31.657  30.565  1.00  0.00     0.031 A 
ATOM     43  C   UNL A   1      38.111  32.039  31.965  1.00  0.00     0.074 A 
ATOM     44  C   UNL A   1      38.459  30.756  29.887  1.00  0.00     0.049 A 
ATOM     45  N   UNL A   1      39.125  31.627  32.685  1.00  0.00    -0.248 NA
ATOM     46  C   UNL A   1      37.260  33.031  32.641  1.00  0.00     0.031 C 
ATOM     47  C   UNL A   1      38.210  30.324  28.512  1.00  0.00     0.029 A 
ATOM     48  N   UNL A   1      39.571  30.046  30.265  1.00  0.00    -0.354 N 
ATOM     49  C   UNL A   1      39.045  32.321  33.885  1.00  0.00     0.074 A 
ATOM     50  C   UNL A   1      37.901  33.203  33.788  1.00  0.00     0.031 C 
ATOM     51  C   UNL A   1      39.131  29.409  28.167  1.00  0.00     0.029 A 
ATOM     52  C   UNL A   1      40.046  29.207  29.287  1.00  0.00     0.049 A 
ATOM     53  H   UNL A   1      39.987  30.129  31.153  1.00  0.00     0.167 HD
ATOM     54  C   UNL A   1      39.844  32.221  34.976  1.00  0.00     0.037 A 
ATOM     55  C   UNL A   1      41.100  28.370  29.294  1.00  0.00     0.037 A 
ATOM     56  C   UNL A   1      40.959  31.319  35.094  1.00  0.00     0.049 A 
ATOM     57  C   UNL A   1      41.946  28.250  30.531  1.00  0.00     0.074 A 
ATOM     58  C   UNL A   1      41.797  31.117  36.177  1.00  0.00     0.029 A 
ATOM     59  N   UNL A   1      41.386  30.461  34.093  1.00  0.00    -0.354 N 
ATOM     60  N   UNL A   1      41.835  28.884  31.672  1.00  0.00    -0.248 NA
ATOM     61  C   UNL A   1      43.059  27.291  30.481  1.00  0.00     0.031 C 
ATOM     62  C   UNL A   1      42.744  30.149  35.825  1.00  0.00     0.029 A 
ATOM     63  C   UNL A   1      42.478  29.730  34.532  1.00  0.00     0.049 A 
ATOM     64  H   UNL A   1      40.975  30.382  33.202  1.00  0.00     0.167 HD
ATOM     65  C   UNL A   1      42.849  28.391  32.480  1.00  0.00     0.074 A 
ATOM     66  C   UNL A   1      43.558  27.394  31.706  1.00  0.00     0.031 C 
ATOM     67  C   UNL A   1      43.166  28.737  33.751  1.00  0.00     0.037 A 
BRANCH  54  68
ATOM     68  C   UNL A   1      39.533  33.110  36.142  1.00  0.00     0.064 A 
ATOM     69  C   UNL A   1      38.642  32.711  37.147  1.00  0.00     0.173 A 
ATOM     70  C   UNL A   1      40.166  34.354  36.277  1.00  0.00     0.173 A 
ATOM     71  F   UNL A   1      38.003  31.535  37.054  1.00  0.00    -0.203 F 
ATOM     72  C   UNL A   1      38.380  33.535  38.238  1.00  0.00     0.198 A 
ATOM     73  C   UNL A   1      39.918  35.166  37.380  1.00  0.00     0.198 A 
ATOM     74  F   UNL A   1      41.031  34.778  35.343  1.00  0.00    -0.203 F 
ATOM     75  F   UNL A   1      37.498  33.148  39.171  1.00  0.00    -0.200 F 
ATOM     76  C   UNL A   1      39.022  34.758  38.357  1.00  0.00     0.200 A 
ATOM     77  F   UNL A   1      40.545  36.345  37.498  1.00  0.00    -0.200 F 
ATOM     78  F   UNL A   1      38.774  35.547  39.412  1.00  0.00    -0.200 F 
ENDBRANCH  54  68
BRANCH  55  79
ATOM     79  C   UNL A   1      41.395  27.547  28.096  1.00  0.00     0.064 A 
ATOM     80  C   UNL A   1      40.841  26.269  27.951  1.00  0.00     0.173 A 
ATOM     81  C   UNL A   1      42.238  28.019  27.079  1.00  0.00     0.173 A 
ATOM     82  F   UNL A   1      40.048  25.771  28.911  1.00  0.00    -0.203 F 
ATOM     83  C   UNL A   1      41.129  25.484  26.837  1.00  0.00     0.198 A 
ATOM     84  C   UNL A   1      42.509  27.239  25.957  1.00  0.00     0.198 A 
ATOM     85  F   UNL A   1      42.790  29.236  27.175  1.00  0.00    -0.203 F 
ATOM     86  F   UNL A   1      40.616  24.250  26.739  1.00  0.00    -0.200 F 
ATOM     87  C   UNL A   1      41.960  25.971  25.839  1.00  0.00     0.200 A 
ATOM     88  F   UNL A   1      43.307  27.715  24.991  1.00  0.00    -0.200 F 
ATOM     89  F   UNL A   1      42.237  25.216  24.768  1.00  0.00    -0.200 F 
ENDBRANCH  55  79
BRANCH  67  90
ATOM     90  C   UNL A   1      44.315  28.015  34.388  1.00  0.00     0.064 A 
ATOM     91  C   UNL A   1      45.618  28.526  34.330  1.00  0.00     0.173 A 
ATOM     92  C   UNL A   1      44.103  26.817  35.085  1.00  0.00     0.173 A 
ATOM     93  F   UNL A   1      45.869  29.661  33.659  1.00  0.00    -0.203 F 
ATOM     94  C   UNL A   1      46.677  27.851  34.932  1.00  0.00     0.198 A 
ATOM     95  C   UNL A   1      45.161  26.154  35.702  1.00  0.00     0.198 A 
ATOM     96  F   UNL A   1      42.872  26.291  35.169  1.00  0.00    -0.203 F 
ATOM     97  F   UNL A   1      47.921  28.337  34.835  1.00  0.00    -0.200 F 
ATOM     98  C   UNL A   1      46.446  26.669  35.621  1.00  0.00     0.200 A 
ATOM     99  F   UNL A   1      44.936  25.015  36.370  1.00  0.00    -0.200 F 
ATOM    100  F   UNL A   1      47.466  26.021  36.200  1.00  0.00    -0.200 F 
ENDBRANCH  67  90
ENDBRANCH  41  42
ENDBRANCH  33  36
ENDBRANCH  31  32
ENDBRANCH   1  31
TORSDOF 11
ENDMDL
MODEL 3
REMARK VINA RESULT:     -13.8      3.912      9.308
REMARK SMILES CN1C(=O)C[C@@H](C(=O)NCCCNC(=O)c2ccc(-c3c4nc(c(-c5c(F)c(F)c(F)c(F)c5F)c5ccc([nH]5)c(-c5c(F)c(F)c(F)c(F)c5F)c5nc(c(-c6c(F)c(F)c(F)c(F)c6F)c6ccc3[nH]6)C=C5)C=C4)cc2)C12CCN(C(=O)c1cc3ccccc3[nH]1)CC2
REMARK SMILES IDX 11 1 10 2 9 3 7 4 8 5 6 7 1 8 2 9 3 10 79 11 4 12 5 13 80 14
REMARK SMILES IDX 95 15 81 16 94 17 82 18 83 19 84 20 85 21 86 22 93 23 87 24
REMARK SMILES IDX 92 25 88 27 91 28 89 29 90 30 12 31 13 32 14 33 15 35 16 36
REMARK SMILES IDX 17 37 78 38 18 39 77 40 19 41 20 42 21 43 71 44 22 45 76 46
REMARK SMILES IDX 70 47 72 48 23 49 75 50 69 51 68 52 24 54 56 55 36 56 55 57
REMARK SMILES IDX 37 58 40 59 54 60 73 61 38 62 39 63 53 65 74 66 41 67 25 68
REMARK SMILES IDX 26 69 34 70 27 71 28 72 32 73 35 74 29 75 30 76 33 77 31 78
REMARK SMILES IDX 57 79 58 80 66 81 59 82 60 83 64 84 67 85 61 86 62 87 65 88
REMARK SMILES IDX 63 89 42 90 43 91 51 92 44 93 45 94 49 95 52 96 46 97 47 98
REMARK SMILES IDX 50 99 48 100
REMARK H PARENT 9 6 93 26 13 34 72 53 40 64
REMARK Flexibility Score: inf
ROOT
ATOM      1  C   UNL A   1      31.059  31.821  26.159  1.00  0.00     0.042 C 
ENDROOT
BRANCH   1   2
ATOM      2  C   UNL A   1      31.046  30.472  25.440  1.00  0.00     0.117 C 
BRANCH   2   3
ATOM      3  N   UNL A   1      32.345  29.817  25.397  1.00  0.00    -0.356 N 
ATOM      4  C   UNL A   1      32.981  29.021  24.507  1.00  0.00     0.226 C 
ATOM      5  O   UNL A   1      34.114  28.647  24.837  1.00  0.00    -0.275 OA
ATOM      6  H   UNL A   1      32.886  29.995  26.201  1.00  0.00     0.163 HD
BRANCH   4   7
ATOM      7  C   UNL A   1      32.401  28.494  23.196  1.00  0.00     0.113 C 
ATOM      8  C   UNL A   1      28.785  27.527  23.314  1.00  0.00     0.147 C 
ATOM      9  N   UNL A   1      30.104  28.096  23.091  1.00  0.00    -0.339 N 
ATOM     10  C   UNL A   1      30.289  29.297  22.422  1.00  0.00     0.223 C 
ATOM     11  C   UNL A   1      31.357  27.355  23.293  1.00  0.00     0.058 C 
ATOM     12  O   UNL A   1      29.418  30.042  22.003  1.00  0.00    -0.275 OA
ATOM     13  C   UNL A   1      31.767  29.560  22.307  1.00  0.00     0.116 C 
ATOM     14  C   UNL A   1      31.410  26.577  24.631  1.00  0.00     0.051 C 
ATOM     15  C   UNL A   1      31.527  26.372  22.084  1.00  0.00     0.051 C 
ATOM     16  C   UNL A   1      32.568  25.577  24.690  1.00  0.00     0.122 C 
ATOM     17  C   UNL A   1      32.625  25.326  22.281  1.00  0.00     0.122 C 
ATOM     18  N   UNL A   1      32.507  24.661  23.567  1.00  0.00    -0.337 N 
ATOM     19  C   UNL A   1      31.544  23.657  23.684  1.00  0.00     0.270 C 
ATOM     20  O   UNL A   1      30.341  23.909  23.654  1.00  0.00    -0.267 OA
BRANCH  19  21
ATOM     21  C   UNL A   1      32.056  22.325  23.860  1.00  0.00     0.105 A 
ATOM     22  C   UNL A   1      32.373  21.708  25.056  1.00  0.00     0.042 A 
ATOM     23  N   UNL A   1      32.256  21.392  22.870  1.00  0.00    -0.351 N 
ATOM     24  C   UNL A   1      32.543  20.325  24.804  1.00  0.00     0.000 A 
ATOM     25  C   UNL A   1      32.419  20.142  23.428  1.00  0.00     0.046 A 
ATOM     26  H   UNL A   1      32.279  21.588  21.905  1.00  0.00     0.167 HD
ATOM     27  C   UNL A   1      32.725  19.203  25.633  1.00  0.00     0.010 A 
ATOM     28  C   UNL A   1      32.438  18.876  22.834  1.00  0.00     0.026 A 
ATOM     29  C   UNL A   1      32.710  17.928  25.060  1.00  0.00     0.001 A 
ATOM     30  C   UNL A   1      32.560  17.769  23.683  1.00  0.00     0.002 A 
ENDBRANCH  19  21
ENDBRANCH   4   7
ENDBRANCH   2   3
ENDBRANCH   1   2
BRANCH   1  31
ATOM     31  C   UNL A   1      32.359  32.135  26.901  1.00  0.00     0.118 C 
BRANCH  31  32
ATOM     32  N   UNL A   1      32.462  33.541  27.259  1.00  0.00    -0.352 N 
ATOM     33  C   UNL A   1      33.300  34.178  28.138  1.00  0.00     0.251 C 
ATOM     34  H   UNL A   1      31.825  34.131  26.795  1.00  0.00     0.163 HD
ATOM     35  O   UNL A   1      33.065  35.343  28.451  1.00  0.00    -0.269 OA
BRANCH  33  36
ATOM     36  C   UNL A   1      34.482  33.498  28.717  1.00  0.00     0.039 A 
ATOM     37  C   UNL A   1      34.276  32.339  29.474  1.00  0.00     0.014 A 
ATOM     38  C   UNL A   1      35.767  34.035  28.611  1.00  0.00     0.014 A 
ATOM     39  C   UNL A   1      35.356  31.703  30.093  1.00  0.00     0.010 A 
ATOM     40  C   UNL A   1      36.854  33.373  29.188  1.00  0.00     0.010 A 
ATOM     41  C   UNL A   1      36.657  32.208  29.944  1.00  0.00    -0.014 A 
BRANCH  41  42
ATOM     42  C   UNL A   1      37.810  31.537  30.598  1.00  0.00     0.031 A 
ATOM     43  C   UNL A   1      38.186  31.875  32.014  1.00  0.00     0.074 A 
ATOM     44  C   UNL A   1      38.544  30.643  29.906  1.00  0.00     0.049 A 
ATOM     45  N   UNL A   1      39.182  31.428  32.736  1.00  0.00    -0.248 NA
ATOM     46  C   UNL A   1      37.340  32.862  32.704  1.00  0.00     0.031 C 
ATOM     47  C   UNL A   1      38.308  30.253  28.516  1.00  0.00     0.029 A 
ATOM     48  N   UNL A   1      39.638  29.905  30.280  1.00  0.00    -0.354 N 
ATOM     49  C   UNL A   1      39.096  32.090  33.953  1.00  0.00     0.074 A 
ATOM     50  C   UNL A   1      37.967  32.993  33.864  1.00  0.00     0.031 C 
ATOM     51  C   UNL A   1      39.220  29.333  28.160  1.00  0.00     0.029 A 
ATOM     52  C   UNL A   1      40.115  29.086  29.286  1.00  0.00     0.049 A 
ATOM     53  H   UNL A   1      40.043  29.957  31.176  1.00  0.00     0.167 HD
ATOM     54  C   UNL A   1      39.877  31.948  35.052  1.00  0.00     0.037 A 
ATOM     55  C   UNL A   1      41.155  28.232  29.286  1.00  0.00     0.037 A 
ATOM     56  C   UNL A   1      40.976  31.026  35.161  1.00  0.00     0.049 A 
ATOM     57  C   UNL A   1      41.981  28.066  30.530  1.00  0.00     0.074 A 
ATOM     58  C   UNL A   1      41.795  30.781  36.249  1.00  0.00     0.029 A 
ATOM     59  N   UNL A   1      41.404  30.188  34.143  1.00  0.00    -0.354 N 
ATOM     60  N   UNL A   1      41.864  28.670  31.687  1.00  0.00    -0.248 NA
ATOM     61  C   UNL A   1      43.080  27.091  30.470  1.00  0.00     0.031 C 
ATOM     62  C   UNL A   1      42.732  29.808  35.885  1.00  0.00     0.029 A 
ATOM     63  C   UNL A   1      42.479  29.428  34.577  1.00  0.00     0.049 A 
ATOM     64  H   UNL A   1      41.005  30.140  33.244  1.00  0.00     0.167 HD
ATOM     65  C   UNL A   1      42.858  28.139  32.496  1.00  0.00     0.074 A 
ATOM     66  C   UNL A   1      43.562  27.153  31.704  1.00  0.00     0.031 C 
ATOM     67  C   UNL A   1      43.162  28.445  33.779  1.00  0.00     0.037 A 
BRANCH  54  68
ATOM     68  C   UNL A   1      39.563  32.810  36.237  1.00  0.00     0.064 A 
ATOM     69  C   UNL A   1      40.190  34.049  36.424  1.00  0.00     0.173 A 
ATOM     70  C   UNL A   1      38.595  32.412  37.170  1.00  0.00     0.173 A 
ATOM     71  F   UNL A   1      41.132  34.466  35.565  1.00  0.00    -0.203 F 
ATOM     72  C   UNL A   1      39.872  34.853  37.516  1.00  0.00     0.198 A 
ATOM     73  C   UNL A   1      38.265  33.228  38.249  1.00  0.00     0.198 A 
ATOM     74  F   UNL A   1      37.964  31.236  37.031  1.00  0.00    -0.203 F 
ATOM     75  F   UNL A   1      40.508  36.019  37.695  1.00  0.00    -0.200 F 
ATOM     76  C   UNL A   1      38.906  34.445  38.423  1.00  0.00     0.200 A 
ATOM     77  F   UNL A   1      37.325  32.837  39.121  1.00  0.00    -0.200 F 
ATOM     78  F   UNL A   1      38.597  35.223  39.470  1.00  0.00    -0.200 F 
ENDBRANCH  54  68
BRANCH  55  79
ATOM     79  C   UNL A   1      41.455  27.437  28.070  1.00  0.00     0.064 A 
ATOM     80  C   UNL A   1      42.316  27.935  27.083  1.00  0.00     0.173 A 
ATOM     81  C   UNL A   1      40.885  26.172  27.869  1.00  0.00     0.173 A 
ATOM     82  F   UNL A   1      42.864  29.150  27.225  1.00  0.00    -0.203 F 
ATOM     83  C   UNL A   1      42.587  27.202  25.931  1.00  0.00     0.198 A 
ATOM     84  C   UNL A   1      41.172  25.432  26.724  1.00  0.00     0.198 A 
ATOM     85  F   UNL A   1      40.056  25.656  28.787  1.00  0.00    -0.203 F 
ATOM     86  F   UNL A   1      43.384  27.715  24.985  1.00  0.00    -0.200 F 
ATOM     87  C   UNL A   1      42.018  25.949  25.754  1.00  0.00     0.200 A 
ATOM     88  F   UNL A   1      40.626  24.219  26.559  1.00  0.00    -0.200 F 
ATOM     89  F   UNL A   1      42.278  25.244  24.645  1.00  0.00    -0.200 F 
ENDBRANCH  55  79
BRANCH  67  90
ATOM     90  C   UNL A   1      44.290  27.689  34.413  1.00  0.00     0.064 A 
ATOM     91  C   UNL A   1      45.601  28.185  34.394  1.00  0.00     0.173 A 
ATOM     92  C   UNL A   1      44.051  26.471  35.066  1.00  0.00     0.173 A 
ATOM     93  F   UNL A   1      45.877  29.338  33.766  1.00  0.00    -0.203 F 
ATOM     94  C   UNL A   1      46.639  27.477  34.993  1.00  0.00     0.198 A 
ATOM     95  C   UNL A   1      45.089  25.775  35.680  1.00  0.00     0.198 A 
ATOM     96  F   UNL A   1      42.813  25.959  35.111  1.00  0.00    -0.203 F 
ATOM     97  F   UNL A   1      47.892  27.949  34.934  1.00  0.00    -0.200 F 
ATOM     98  C   UNL A   1      46.382  26.276  35.638  1.00  0.00     0.200 A 
ATOM     99  F   UNL A   1      44.839  24.618  36.306  1.00  0.00    -0.200 F 
ATOM    100  F   UNL A   1      47.383  25.596  36.213  1.00  0.00    -0.200 F 
ENDBRANCH  67  90
ENDBRANCH  41  42
ENDBRANCH  33  36
ENDBRANCH  31  32
ENDBRANCH   1  31
TORSDOF 11
ENDMDL
