MODEL 1
REMARK VINA RESULT:     -11.3      0.000      0.000
REMARK SMILES CC1(C(=O)N[C@H](C(=O)NCCCNC(=O)c2ccc(-c3c4nc(c(-c5c(F)c(F)c(F)c(F)c5F)c5ccc([nH]5)c(-c5c(F)c(F)c(F)c(F)c5F)c5nc(c(-c6c(F)c(F)c(F)c(F)c6F)c6ccc3[nH]6)C=C5)C=C4)cc2)C2CC2)CCCC1
REMARK SMILES IDX 11 1 10 2 9 3 7 4 8 5 6 7 5 8 3 9 4 10 2 12 1 13 82 14 85 15
REMARK SMILES IDX 83 16 84 17 79 18 80 19 81 20 12 21 13 22 14 23 15 25 16 26
REMARK SMILES IDX 17 27 78 28 18 29 77 30 19 31 20 32 21 33 71 34 22 35 76 36
REMARK SMILES IDX 70 37 72 38 23 39 75 40 69 41 68 42 24 44 56 45 36 46 55 47
REMARK SMILES IDX 37 48 40 49 54 50 73 51 38 52 39 53 53 55 74 56 41 57 25 58
REMARK SMILES IDX 26 59 34 60 27 61 28 62 32 63 35 64 29 65 30 66 33 67 31 68
REMARK SMILES IDX 57 69 58 70 66 71 59 72 60 73 64 74 67 75 61 76 62 77 65 78
REMARK SMILES IDX 63 79 42 80 43 81 51 82 44 83 45 84 49 85 52 86 46 87 47 88
REMARK SMILES IDX 50 89 48 90
REMARK H PARENT 9 6 5 11 13 24 72 43 40 54
REMARK Flexibility Score: inf
ROOT
ATOM      1  C   UNL A   1      32.212  27.720  27.223  1.00  0.00     0.042 C 
ENDROOT
BRANCH   1   2
ATOM      2  C   UNL A   1      31.546  26.932  26.103  1.00  0.00     0.117 C 
BRANCH   2   3
ATOM      3  N   UNL A   1      30.699  25.870  26.609  1.00  0.00    -0.354 N 
ATOM      4  C   UNL A   1      30.828  24.518  26.500  1.00  0.00     0.242 C 
ATOM      5  O   UNL A   1      30.064  23.825  27.180  1.00  0.00    -0.273 OA
ATOM      6  H   UNL A   1      29.906  26.173  27.109  1.00  0.00     0.163 HD
BRANCH   4   7
ATOM      7  C   UNL A   1      31.991  23.871  25.700  1.00  0.00     0.174 C 
BRANCH   7   8
ATOM      8  N   UNL A   1      32.784  22.951  26.510  1.00  0.00    -0.344 N 
ATOM      9  C   UNL A   1      34.118  22.715  26.586  1.00  0.00     0.226 C 
ATOM     10  O   UNL A   1      34.466  21.892  27.439  1.00  0.00    -0.274 OA
ATOM     11  H   UNL A   1      32.247  22.395  27.119  1.00  0.00     0.164 HD
BRANCH   9  12
ATOM     12  C   UNL A   1      35.140  23.374  25.647  1.00  0.00     0.046 C 
ATOM     13  C   UNL A   1      34.748  24.835  25.376  1.00  0.00     0.022 C 
ATOM     14  C   UNL A   1      35.198  22.596  24.312  1.00  0.00     0.016 C 
ATOM     15  C   UNL A   1      36.590  23.230  26.126  1.00  0.00     0.016 C 
ATOM     16  C   UNL A   1      36.539  22.960  23.693  1.00  0.00     0.001 C 
ATOM     17  C   UNL A   1      37.469  23.199  24.874  1.00  0.00     0.001 C 
ENDBRANCH   9  12
ENDBRANCH   7   8
BRANCH   7  18
ATOM     18  C   UNL A   1      31.448  23.181  24.458  1.00  0.00     0.021 C 
ATOM     19  C   UNL A   1      30.650  23.976  23.449  1.00  0.00     0.006 C 
ATOM     20  C   UNL A   1      31.974  23.400  23.051  1.00  0.00     0.006 C 
ENDBRANCH   7  18
ENDBRANCH   4   7
ENDBRANCH   2   3
ENDBRANCH   1   2
BRANCH   1  21
ATOM     21  C   UNL A   1      33.494  28.432  26.802  1.00  0.00     0.118 C 
BRANCH  21  22
ATOM     22  N   UNL A   1      33.455  29.864  27.065  1.00  0.00    -0.352 N 
ATOM     23  C   UNL A   1      34.343  30.670  27.724  1.00  0.00     0.251 C 
ATOM     24  H   UNL A   1      32.661  30.328  26.710  1.00  0.00     0.163 HD
ATOM     25  O   UNL A   1      34.025  31.829  27.989  1.00  0.00    -0.269 OA
BRANCH  23  26
ATOM     26  C   UNL A   1      35.674  30.169  28.123  1.00  0.00     0.039 A 
ATOM     27  C   UNL A   1      35.848  29.695  29.427  1.00  0.00     0.014 A 
ATOM     28  C   UNL A   1      36.764  30.223  27.249  1.00  0.00     0.014 A 
ATOM     29  C   UNL A   1      37.103  29.247  29.844  1.00  0.00     0.010 A 
ATOM     30  C   UNL A   1      37.996  29.706  27.641  1.00  0.00     0.010 A 
ATOM     31  C   UNL A   1      38.183  29.236  28.949  1.00  0.00    -0.014 A 
BRANCH  31  32
ATOM     32  C   UNL A   1      39.531  28.789  29.379  1.00  0.00     0.031 A 
ATOM     33  C   UNL A   1      40.341  29.650  30.310  1.00  0.00     0.074 A 
ATOM     34  C   UNL A   1      40.043  27.641  28.898  1.00  0.00     0.049 A 
ATOM     35  N   UNL A   1      41.562  29.477  30.749  1.00  0.00    -0.248 NA
ATOM     36  C   UNL A   1      39.702  30.885  30.791  1.00  0.00     0.031 C 
ATOM     37  C   UNL A   1      39.370  26.741  27.961  1.00  0.00     0.029 A 
ATOM     38  N   UNL A   1      41.253  27.037  29.129  1.00  0.00    -0.354 N 
ATOM     39  C   UNL A   1      41.840  30.587  31.536  1.00  0.00     0.074 A 
ATOM     40  C   UNL A   1      40.685  31.453  31.473  1.00  0.00     0.031 C 
ATOM     41  C   UNL A   1      40.168  25.689  27.713  1.00  0.00     0.029 A 
ATOM     42  C   UNL A   1      41.418  25.856  28.447  1.00  0.00     0.049 A 
ATOM     43  H   UNL A   1      41.939  27.414  29.727  1.00  0.00     0.167 HD
ATOM     44  C   UNL A   1      42.951  30.848  32.267  1.00  0.00     0.037 A 
ATOM     45  C   UNL A   1      42.463  25.008  28.420  1.00  0.00     0.037 A 
ATOM     46  C   UNL A   1      44.085  29.967  32.354  1.00  0.00     0.049 A 
ATOM     47  C   UNL A   1      43.678  25.315  29.254  1.00  0.00     0.074 A 
ATOM     48  C   UNL A   1      45.243  30.120  33.097  1.00  0.00     0.029 A 
ATOM     49  N   UNL A   1      44.198  28.760  31.679  1.00  0.00    -0.354 N 
ATOM     50  N   UNL A   1      43.910  26.342  30.034  1.00  0.00    -0.248 NA
ATOM     51  C   UNL A   1      44.773  24.335  29.211  1.00  0.00     0.031 C 
ATOM     52  C   UNL A   1      46.070  29.020  32.848  1.00  0.00     0.029 A 
ATOM     53  C   UNL A   1      45.409  28.161  31.984  1.00  0.00     0.049 A 
ATOM     54  H   UNL A   1      43.519  28.387  31.072  1.00  0.00     0.167 HD
ATOM     55  C   UNL A   1      45.156  26.115  30.604  1.00  0.00     0.074 A 
ATOM     56  C   UNL A   1      45.626  24.847  30.086  1.00  0.00     0.031 C 
ATOM     57  C   UNL A   1      45.847  26.885  31.478  1.00  0.00     0.037 A 
BRANCH  44  58
ATOM     58  C   UNL A   1      42.986  32.136  33.037  1.00  0.00     0.064 A 
ATOM     59  C   UNL A   1      42.521  32.213  34.359  1.00  0.00     0.173 A 
ATOM     60  C   UNL A   1      43.517  33.299  32.461  1.00  0.00     0.173 A 
ATOM     61  F   UNL A   1      41.992  31.132  34.953  1.00  0.00    -0.203 F 
ATOM     62  C   UNL A   1      42.560  33.413  35.065  1.00  0.00     0.198 A 
ATOM     63  C   UNL A   1      43.582  34.490  33.179  1.00  0.00     0.198 A 
ATOM     64  F   UNL A   1      43.980  33.280  31.202  1.00  0.00    -0.203 F 
ATOM     65  F   UNL A   1      42.064  33.473  36.308  1.00  0.00    -0.200 F 
ATOM     66  C   UNL A   1      43.096  34.548  34.478  1.00  0.00     0.200 A 
ATOM     67  F   UNL A   1      44.112  35.584  32.615  1.00  0.00    -0.200 F 
ATOM     68  F   UNL A   1      43.138  35.701  35.159  1.00  0.00    -0.200 F 
ENDBRANCH  44  58
BRANCH  45  69
ATOM     69  C   UNL A   1      42.393  23.766  27.608  1.00  0.00     0.064 A 
ATOM     70  C   UNL A   1      41.921  22.570  28.166  1.00  0.00     0.173 A 
ATOM     71  C   UNL A   1      42.804  23.743  26.268  1.00  0.00     0.173 A 
ATOM     72  F   UNL A   1      41.534  22.538  29.450  1.00  0.00    -0.203 F 
ATOM     73  C   UNL A   1      41.887  21.392  27.424  1.00  0.00     0.198 A 
ATOM     74  C   UNL A   1      42.744  22.571  25.517  1.00  0.00     0.198 A 
ATOM     75  F   UNL A   1      43.257  24.862  25.686  1.00  0.00    -0.203 F 
ATOM     76  F   UNL A   1      41.479  20.252  27.997  1.00  0.00    -0.200 F 
ATOM     77  C   UNL A   1      42.295  21.394  26.098  1.00  0.00     0.200 A 
ATOM     78  F   UNL A   1      43.127  22.579  24.233  1.00  0.00    -0.200 F 
ATOM     79  F   UNL A   1      42.264  20.261  25.384  1.00  0.00    -0.200 F 
ENDBRANCH  45  69
BRANCH  57  80
ATOM     80  C   UNL A   1      47.157  26.353  31.977  1.00  0.00     0.064 A 
ATOM     81  C   UNL A   1      48.368  26.653  31.339  1.00  0.00     0.173 A 
ATOM     82  C   UNL A   1      47.201  25.559  33.135  1.00  0.00     0.173 A 
ATOM     83  F   UNL A   1      48.376  27.395  30.221  1.00  0.00    -0.203 F 
ATOM     84  C   UNL A   1      49.575  26.155  31.825  1.00  0.00     0.198 A 
ATOM     85  C   UNL A   1      48.411  25.088  33.634  1.00  0.00     0.198 A 
ATOM     86  F   UNL A   1      46.070  25.250  33.786  1.00  0.00    -0.203 F 
ATOM     87  F   UNL A   1      50.716  26.414  31.172  1.00  0.00    -0.200 F 
ATOM     88  C   UNL A   1      49.596  25.380  32.974  1.00  0.00     0.200 A 
ATOM     89  F   UNL A   1      48.431  24.350  34.752  1.00  0.00    -0.200 F 
ATOM     90  F   UNL A   1      50.758  24.907  33.444  1.00  0.00    -0.200 F 
ENDBRANCH  57  80
ENDBRANCH  31  32
ENDBRANCH  23  26
ENDBRANCH  21  22
ENDBRANCH   1  21
TORSDOF 13
ENDMDL
MODEL 2
REMARK VINA RESULT:     -11.2      3.254      6.080
REMARK SMILES CC1(C(=O)N[C@H](C(=O)NCCCNC(=O)c2ccc(-c3c4nc(c(-c5c(F)c(F)c(F)c(F)c5F)c5ccc([nH]5)c(-c5c(F)c(F)c(F)c(F)c5F)c5nc(c(-c6c(F)c(F)c(F)c(F)c6F)c6ccc3[nH]6)C=C5)C=C4)cc2)C2CC2)CCCC1
REMARK SMILES IDX 11 1 10 2 9 3 7 4 8 5 6 7 5 8 3 9 4 10 2 12 1 13 82 14 85 15
REMARK SMILES IDX 83 16 84 17 79 18 80 19 81 20 12 21 13 22 14 23 15 25 16 26
REMARK SMILES IDX 17 27 78 28 18 29 77 30 19 31 20 32 21 33 71 34 22 35 76 36
REMARK SMILES IDX 70 37 72 38 23 39 75 40 69 41 68 42 24 44 56 45 36 46 55 47
REMARK SMILES IDX 37 48 40 49 54 50 73 51 38 52 39 53 53 55 74 56 41 57 25 58
REMARK SMILES IDX 26 59 34 60 27 61 28 62 32 63 35 64 29 65 30 66 33 67 31 68
REMARK SMILES IDX 57 69 58 70 66 71 59 72 60 73 64 74 67 75 61 76 62 77 65 78
REMARK SMILES IDX 63 79 42 80 43 81 51 82 44 83 45 84 49 85 52 86 46 87 47 88
REMARK SMILES IDX 50 89 48 90
REMARK H PARENT 9 6 5 11 13 24 72 43 40 54
REMARK Flexibility Score: inf
ROOT
ATOM      1  C   UNL A   1      34.079  34.328  28.304  1.00  0.00     0.042 C 
ENDROOT
BRANCH   1   2
ATOM      2  C   UNL A   1      34.256  34.856  29.722  1.00  0.00     0.117 C 
BRANCH   2   3
ATOM      3  N   UNL A   1      33.967  33.848  30.722  1.00  0.00    -0.354 N 
ATOM      4  C   UNL A   1      34.233  33.838  32.059  1.00  0.00     0.242 C 
ATOM      5  O   UNL A   1      33.716  32.935  32.727  1.00  0.00    -0.273 OA
ATOM      6  H   UNL A   1      33.507  33.046  30.383  1.00  0.00     0.163 HD
BRANCH   4   7
ATOM      7  C   UNL A   1      34.998  35.000  32.747  1.00  0.00     0.174 C 
BRANCH   7   8
ATOM      8  N   UNL A   1      36.389  35.091  32.312  1.00  0.00    -0.344 N 
ATOM      9  C   UNL A   1      37.504  34.403  32.663  1.00  0.00     0.226 C 
ATOM     10  O   UNL A   1      38.530  34.700  32.043  1.00  0.00    -0.274 OA
ATOM     11  H   UNL A   1      36.547  35.784  31.632  1.00  0.00     0.164 HD
BRANCH   9  12
ATOM     12  C   UNL A   1      37.525  33.358  33.789  1.00  0.00     0.046 C 
ATOM     13  C   UNL A   1      36.677  33.840  34.977  1.00  0.00     0.022 C 
ATOM     14  C   UNL A   1      38.980  33.122  34.253  1.00  0.00     0.016 C 
ATOM     15  C   UNL A   1      37.139  31.949  33.322  1.00  0.00     0.016 C 
ATOM     16  C   UNL A   1      38.967  31.765  34.940  1.00  0.00     0.001 C 
ATOM     17  C   UNL A   1      37.894  30.964  34.217  1.00  0.00     0.001 C 
ENDBRANCH   9  12
ENDBRANCH   7   8
BRANCH   7  18
ATOM     18  C   UNL A   1      34.265  36.313  32.518  1.00  0.00     0.021 C 
ATOM     19  C   UNL A   1      32.777  36.394  32.774  1.00  0.00     0.006 C 
ATOM     20  C   UNL A   1      33.715  37.197  33.623  1.00  0.00     0.006 C 
ENDBRANCH   7  18
ENDBRANCH   4   7
ENDBRANCH   2   3
ENDBRANCH   1   2
BRANCH   1  21
ATOM     21  C   UNL A   1      34.907  33.083  27.997  1.00  0.00     0.118 C 
BRANCH  21  22
ATOM     22  N   UNL A   1      34.084  31.903  27.771  1.00  0.00    -0.352 N 
ATOM     23  C   UNL A   1      34.428  30.578  27.723  1.00  0.00     0.251 C 
ATOM     24  H   UNL A   1      33.127  32.086  27.630  1.00  0.00     0.163 HD
ATOM     25  O   UNL A   1      33.600  29.754  27.337  1.00  0.00    -0.269 OA
BRANCH  23  26
ATOM     26  C   UNL A   1      35.776  30.127  28.125  1.00  0.00     0.039 A 
ATOM     27  C   UNL A   1      35.981  29.724  29.448  1.00  0.00     0.014 A 
ATOM     28  C   UNL A   1      36.850  30.159  27.230  1.00  0.00     0.014 A 
ATOM     29  C   UNL A   1      37.251  29.325  29.865  1.00  0.00     0.010 A 
ATOM     30  C   UNL A   1      38.099  29.689  27.627  1.00  0.00     0.010 A 
ATOM     31  C   UNL A   1      38.317  29.290  28.954  1.00  0.00    -0.014 A 
BRANCH  31  32
ATOM     32  C   UNL A   1      39.681  28.895  29.383  1.00  0.00     0.031 A 
ATOM     33  C   UNL A   1      40.451  29.777  30.328  1.00  0.00     0.074 A 
ATOM     34  C   UNL A   1      40.242  27.775  28.890  1.00  0.00     0.049 A 
ATOM     35  N   UNL A   1      41.678  29.649  30.769  1.00  0.00    -0.248 NA
ATOM     36  C   UNL A   1      39.760  30.978  30.822  1.00  0.00     0.031 C 
ATOM     37  C   UNL A   1      39.611  26.860  27.939  1.00  0.00     0.029 A 
ATOM     38  N   UNL A   1      41.475  27.219  29.118  1.00  0.00    -0.354 N 
ATOM     39  C   UNL A   1      41.907  30.760  31.571  1.00  0.00     0.074 A 
ATOM     40  C   UNL A   1      40.716  31.578  31.515  1.00  0.00     0.031 C 
ATOM     41  C   UNL A   1      40.452  25.846  27.681  1.00  0.00     0.029 A 
ATOM     42  C   UNL A   1      41.692  26.055  28.422  1.00  0.00     0.049 A 
ATOM     43  H   UNL A   1      42.143  27.617  29.723  1.00  0.00     0.167 HD
ATOM     44  C   UNL A   1      43.003  31.057  32.309  1.00  0.00     0.037 A 
ATOM     45  C   UNL A   1      42.771  25.252  28.388  1.00  0.00     0.037 A 
ATOM     46  C   UNL A   1      44.173  30.224  32.390  1.00  0.00     0.049 A 
ATOM     47  C   UNL A   1      43.970  25.598  29.230  1.00  0.00     0.074 A 
ATOM     48  C   UNL A   1      45.321  30.415  33.139  1.00  0.00     0.029 A 
ATOM     49  N   UNL A   1      44.339  29.032  31.700  1.00  0.00    -0.354 N 
ATOM     50  N   UNL A   1      44.156  26.624  30.024  1.00  0.00    -0.248 NA
ATOM     51  C   UNL A   1      45.105  24.666  29.179  1.00  0.00     0.031 C 
ATOM     52  C   UNL A   1      46.194  29.354  32.879  1.00  0.00     0.029 A 
ATOM     53  C   UNL A   1      45.572  28.479  32.002  1.00  0.00     0.049 A 
ATOM     54  H   UNL A   1      43.677  28.638  31.086  1.00  0.00     0.167 HD
ATOM     55  C   UNL A   1      45.409  26.442  30.596  1.00  0.00     0.074 A 
ATOM     56  C   UNL A   1      45.933  25.201  30.064  1.00  0.00     0.031 C 
ATOM     57  C   UNL A   1      46.064  27.229  31.482  1.00  0.00     0.037 A 
BRANCH  44  58
ATOM     58  C   UNL A   1      42.982  32.336  33.096  1.00  0.00     0.064 A 
ATOM     59  C   UNL A   1      42.622  32.357  34.452  1.00  0.00     0.173 A 
ATOM     60  C   UNL A   1      43.355  33.549  32.498  1.00  0.00     0.173 A 
ATOM     61  F   UNL A   1      42.244  31.227  35.068  1.00  0.00    -0.203 F 
ATOM     62  C   UNL A   1      42.606  33.549  35.172  1.00  0.00     0.198 A 
ATOM     63  C   UNL A   1      43.368  34.735  33.229  1.00  0.00     0.198 A 
ATOM     64  F   UNL A   1      43.714  33.585  31.206  1.00  0.00    -0.203 F 
ATOM     65  F   UNL A   1      42.210  33.551  36.452  1.00  0.00    -0.200 F 
ATOM     66  C   UNL A   1      42.986  34.735  34.563  1.00  0.00     0.200 A 
ATOM     67  F   UNL A   1      43.748  35.879  32.642  1.00  0.00    -0.200 F 
ATOM     68  F   UNL A   1      42.977  35.881  35.258  1.00  0.00    -0.200 F 
ENDBRANCH  44  58
BRANCH  45  69
ATOM     69  C   UNL A   1      42.756  24.018  27.560  1.00  0.00     0.064 A 
ATOM     70  C   UNL A   1      42.388  22.785  28.117  1.00  0.00     0.173 A 
ATOM     71  C   UNL A   1      43.116  24.040  26.206  1.00  0.00     0.173 A 
ATOM     72  F   UNL A   1      42.053  22.710  29.414  1.00  0.00    -0.203 F 
ATOM     73  C   UNL A   1      42.407  21.617  27.359  1.00  0.00     0.198 A 
ATOM     74  C   UNL A   1      43.108  22.876  25.440  1.00  0.00     0.198 A 
ATOM     75  F   UNL A   1      43.470  25.196  25.624  1.00  0.00    -0.203 F 
ATOM     76  F   UNL A   1      42.100  20.444  27.930  1.00  0.00    -0.200 F 
ATOM     77  C   UNL A   1      42.763  21.664  26.019  1.00  0.00     0.200 A 
ATOM     78  F   UNL A   1      43.442  22.927  24.143  1.00  0.00    -0.200 F 
ATOM     79  F   UNL A   1      42.783  20.541  25.290  1.00  0.00    -0.200 F 
ENDBRANCH  45  69
BRANCH  57  80
ATOM     80  C   UNL A   1      47.394  26.746  31.979  1.00  0.00     0.064 A 
ATOM     81  C   UNL A   1      48.597  27.149  31.383  1.00  0.00     0.173 A 
ATOM     82  C   UNL A   1      47.464  25.893  33.093  1.00  0.00     0.173 A 
ATOM     83  F   UNL A   1      48.582  27.951  30.308  1.00  0.00    -0.203 F 
ATOM     84  C   UNL A   1      49.822  26.695  31.868  1.00  0.00     0.198 A 
ATOM     85  C   UNL A   1      48.690  25.465  33.590  1.00  0.00     0.198 A 
ATOM     86  F   UNL A   1      46.340  25.485  33.702  1.00  0.00    -0.203 F 
ATOM     87  F   UNL A   1      50.957  27.055  31.254  1.00  0.00    -0.200 F 
ATOM     88  C   UNL A   1      49.868  25.860  32.973  1.00  0.00     0.200 A 
ATOM     89  F   UNL A   1      48.732  24.669  34.668  1.00  0.00    -0.200 F 
ATOM     90  F   UNL A   1      51.046  25.429  33.441  1.00  0.00    -0.200 F 
ENDBRANCH  57  80
ENDBRANCH  31  32
ENDBRANCH  23  26
ENDBRANCH  21  22
ENDBRANCH   1  21
TORSDOF 13
ENDMDL
MODEL 3
REMARK VINA RESULT:     -11.1      3.138      8.549
REMARK SMILES CC1(C(=O)N[C@H](C(=O)NCCCNC(=O)c2ccc(-c3c4nc(c(-c5c(F)c(F)c(F)c(F)c5F)c5ccc([nH]5)c(-c5c(F)c(F)c(F)c(F)c5F)c5nc(c(-c6c(F)c(F)c(F)c(F)c6F)c6ccc3[nH]6)C=C5)C=C4)cc2)C2CC2)CCCC1
REMARK SMILES IDX 11 1 10 2 9 3 7 4 8 5 6 7 5 8 3 9 4 10 2 12 1 13 82 14 85 15
REMARK SMILES IDX 83 16 84 17 79 18 80 19 81 20 12 21 13 22 14 23 15 25 16 26
REMARK SMILES IDX 17 27 78 28 18 29 77 30 19 31 20 32 21 33 71 34 22 35 76 36
REMARK SMILES IDX 70 37 72 38 23 39 75 40 69 41 68 42 24 44 56 45 36 46 55 47
REMARK SMILES IDX 37 48 40 49 54 50 73 51 38 52 39 53 53 55 74 56 41 57 25 58
REMARK SMILES IDX 26 59 34 60 27 61 28 62 32 63 35 64 29 65 30 66 33 67 31 68
REMARK SMILES IDX 57 69 58 70 66 71 59 72 60 73 64 74 67 75 61 76 62 77 65 78
REMARK SMILES IDX 63 79 42 80 43 81 51 82 44 83 45 84 49 85 52 86 46 87 47 88
REMARK SMILES IDX 50 89 48 90
REMARK H PARENT 9 6 5 11 13 24 72 43 40 54
REMARK Flexibility Score: inf
ROOT
ATOM      1  C   UNL A   1      35.713  23.577  25.953  1.00  0.00     0.042 C 
ENDROOT
BRANCH   1   2
ATOM      2  C   UNL A   1      34.699  24.707  25.830  1.00  0.00     0.117 C 
BRANCH   2   3
ATOM      3  N   UNL A   1      34.285  24.927  24.459  1.00  0.00    -0.354 N 
ATOM      4  C   UNL A   1      33.139  25.475  23.966  1.00  0.00     0.242 C 
ATOM      5  O   UNL A   1      33.109  25.717  22.754  1.00  0.00    -0.273 OA
ATOM      6  H   UNL A   1      34.934  24.635  23.778  1.00  0.00     0.163 HD
BRANCH   4   7
ATOM      7  C   UNL A   1      31.990  25.940  24.900  1.00  0.00     0.174 C 
BRANCH   7   8
ATOM      8  N   UNL A   1      31.432  27.229  24.502  1.00  0.00    -0.344 N 
ATOM      9  C   UNL A   1      31.564  28.480  25.011  1.00  0.00     0.226 C 
ATOM     10  O   UNL A   1      30.990  29.375  24.381  1.00  0.00    -0.274 OA
ATOM     11  H   UNL A   1      30.847  27.182  23.712  1.00  0.00     0.164 HD
BRANCH   9  12
ATOM     12  C   UNL A   1      32.327  28.780  26.310  1.00  0.00     0.046 C 
ATOM     13  C   UNL A   1      31.566  28.211  27.518  1.00  0.00     0.022 C 
ATOM     14  C   UNL A   1      32.492  30.308  26.475  1.00  0.00     0.016 C 
ATOM     15  C   UNL A   1      33.795  28.335  26.273  1.00  0.00     0.016 C 
ATOM     16  C   UNL A   1      33.658  30.484  27.437  1.00  0.00     0.001 C 
ATOM     17  C   UNL A   1      34.572  29.296  27.174  1.00  0.00     0.001 C 
ENDBRANCH   9  12
ENDBRANCH   7   8
BRANCH   7  18
ATOM     18  C   UNL A   1      30.909  24.872  24.968  1.00  0.00     0.021 C 
ATOM     19  C   UNL A   1      31.277  23.459  25.361  1.00  0.00     0.006 C 
ATOM     20  C   UNL A   1      30.380  24.262  26.253  1.00  0.00     0.006 C 
ENDBRANCH   7  18
ENDBRANCH   4   7
ENDBRANCH   2   3
ENDBRANCH   1   2
BRANCH   1  21
ATOM     21  C   UNL A   1      36.985  23.794  25.138  1.00  0.00     0.118 C 
BRANCH  21  22
ATOM     22  N   UNL A   1      38.028  22.828  25.457  1.00  0.00    -0.352 N 
ATOM     23  C   UNL A   1      39.228  22.996  26.093  1.00  0.00     0.251 C 
ATOM     24  H   UNL A   1      37.839  21.906  25.168  1.00  0.00     0.163 HD
ATOM     25  O   UNL A   1      40.043  22.074  26.097  1.00  0.00    -0.269 OA
BRANCH  23  26
ATOM     26  C   UNL A   1      39.559  24.266  26.771  1.00  0.00     0.039 A 
ATOM     27  C   UNL A   1      40.287  25.231  26.068  1.00  0.00     0.014 A 
ATOM     28  C   UNL A   1      39.217  24.488  28.108  1.00  0.00     0.014 A 
ATOM     29  C   UNL A   1      40.644  26.426  26.693  1.00  0.00     0.010 A 
ATOM     30  C   UNL A   1      39.507  25.711  28.707  1.00  0.00     0.010 A 
ATOM     31  C   UNL A   1      40.244  26.682  28.013  1.00  0.00    -0.014 A 
BRANCH  31  32
ATOM     32  C   UNL A   1      40.636  27.934  28.705  1.00  0.00     0.031 A 
ATOM     33  C   UNL A   1      42.046  28.103  29.202  1.00  0.00     0.074 A 
ATOM     34  C   UNL A   1      39.718  28.894  28.927  1.00  0.00     0.049 A 
ATOM     35  N   UNL A   1      42.571  29.086  29.890  1.00  0.00    -0.248 NA
ATOM     36  C   UNL A   1      42.984  27.007  28.911  1.00  0.00     0.031 C 
ATOM     37  C   UNL A   1      38.313  28.830  28.528  1.00  0.00     0.029 A 
ATOM     38  N   UNL A   1      39.832  30.111  29.550  1.00  0.00    -0.354 N 
ATOM     39  C   UNL A   1      43.889  28.716  30.128  1.00  0.00     0.074 A 
ATOM     40  C   UNL A   1      44.070  27.398  29.561  1.00  0.00     0.031 C 
ATOM     41  C   UNL A   1      37.699  29.966  28.897  1.00  0.00     0.029 A 
ATOM     42  C   UNL A   1      38.658  30.823  29.585  1.00  0.00     0.049 A 
ATOM     43  H   UNL A   1      40.675  30.442  29.937  1.00  0.00     0.167 HD
ATOM     44  C   UNL A   1      44.867  29.423  30.742  1.00  0.00     0.037 A 
ATOM     45  C   UNL A   1      38.391  32.031  30.116  1.00  0.00     0.037 A 
ATOM     46  C   UNL A   1      44.693  30.748  31.275  1.00  0.00     0.049 A 
ATOM     47  C   UNL A   1      39.501  32.802  30.779  1.00  0.00     0.074 A 
ATOM     48  C   UNL A   1      45.630  31.566  31.882  1.00  0.00     0.029 A 
ATOM     49  N   UNL A   1      43.497  31.452  31.257  1.00  0.00    -0.354 N 
ATOM     50  N   UNL A   1      40.755  32.464  30.954  1.00  0.00    -0.248 NA
ATOM     51  C   UNL A   1      39.158  34.130  31.309  1.00  0.00     0.031 C 
ATOM     52  C   UNL A   1      44.994  32.754  32.258  1.00  0.00     0.029 A 
ATOM     53  C   UNL A   1      43.672  32.693  31.845  1.00  0.00     0.049 A 
ATOM     54  H   UNL A   1      42.651  31.118  30.881  1.00  0.00     0.167 HD
ATOM     55  C   UNL A   1      41.359  33.549  31.577  1.00  0.00     0.074 A 
ATOM     56  C   UNL A   1      40.334  34.559  31.741  1.00  0.00     0.031 C 
ATOM     57  C   UNL A   1      42.646  33.695  31.975  1.00  0.00     0.037 A 
BRANCH  44  58
ATOM     58  C   UNL A   1      46.218  28.778  30.862  1.00  0.00     0.064 A 
ATOM     59  C   UNL A   1      46.558  27.987  31.970  1.00  0.00     0.173 A 
ATOM     60  C   UNL A   1      47.172  28.925  29.845  1.00  0.00     0.173 A 
ATOM     61  F   UNL A   1      45.685  27.825  32.976  1.00  0.00    -0.203 F 
ATOM     62  C   UNL A   1      47.813  27.393  32.070  1.00  0.00     0.198 A 
ATOM     63  C   UNL A   1      48.416  28.305  29.933  1.00  0.00     0.198 A 
ATOM     64  F   UNL A   1      46.898  29.666  28.760  1.00  0.00    -0.203 F 
ATOM     65  F   UNL A   1      48.132  26.684  33.161  1.00  0.00    -0.200 F 
ATOM     66  C   UNL A   1      48.738  27.546  31.049  1.00  0.00     0.200 A 
ATOM     67  F   UNL A   1      49.306  28.443  28.940  1.00  0.00    -0.200 F 
ATOM     68  F   UNL A   1      49.944  26.968  31.143  1.00  0.00    -0.200 F 
ENDBRANCH  44  58
BRANCH  45  69
ATOM     69  C   UNL A   1      37.026  32.607  30.006  1.00  0.00     0.064 A 
ATOM     70  C   UNL A   1      36.105  32.473  31.056  1.00  0.00     0.173 A 
ATOM     71  C   UNL A   1      36.608  33.288  28.855  1.00  0.00     0.173 A 
ATOM     72  F   UNL A   1      36.452  31.812  32.170  1.00  0.00    -0.203 F 
ATOM     73  C   UNL A   1      34.811  32.976  30.947  1.00  0.00     0.198 A 
ATOM     74  C   UNL A   1      35.322  33.816  28.758  1.00  0.00     0.198 A 
ATOM     75  F   UNL A   1      37.453  33.448  27.826  1.00  0.00    -0.203 F 
ATOM     76  F   UNL A   1      33.936  32.790  31.945  1.00  0.00    -0.200 F 
ATOM     77  C   UNL A   1      34.422  33.651  29.800  1.00  0.00     0.200 A 
ATOM     78  F   UNL A   1      34.953  34.478  27.653  1.00  0.00    -0.200 F 
ATOM     79  F   UNL A   1      33.177  34.134  29.695  1.00  0.00    -0.200 F 
ENDBRANCH  45  69
BRANCH  57  80
ATOM     80  C   UNL A   1      43.034  35.015  32.572  1.00  0.00     0.064 A 
ATOM     81  C   UNL A   1      43.507  36.073  31.784  1.00  0.00     0.173 A 
ATOM     82  C   UNL A   1      42.894  35.233  33.953  1.00  0.00     0.173 A 
ATOM     83  F   UNL A   1      43.672  35.909  30.463  1.00  0.00    -0.203 F 
ATOM     84  C   UNL A   1      43.853  37.293  32.359  1.00  0.00     0.198 A 
ATOM     85  C   UNL A   1      43.214  36.463  34.519  1.00  0.00     0.198 A 
ATOM     86  F   UNL A   1      42.438  34.254  34.749  1.00  0.00    -0.203 F 
ATOM     87  F   UNL A   1      44.349  38.275  31.594  1.00  0.00    -0.200 F 
ATOM     88  C   UNL A   1      43.700  37.490  33.723  1.00  0.00     0.200 A 
ATOM     89  F   UNL A   1      43.052  36.654  35.835  1.00  0.00    -0.200 F 
ATOM     90  F   UNL A   1      44.028  38.666  34.274  1.00  0.00    -0.200 F 
ENDBRANCH  57  80
ENDBRANCH  31  32
ENDBRANCH  23  26
ENDBRANCH  21  22
ENDBRANCH   1  21
TORSDOF 13
ENDMDL
