MODEL 1
REMARK VINA RESULT:     -13.2      0.000      0.000
REMARK SMILES O=C(NCCCNC(=O)c1cccc2c1cc(Br)c1ccccc12)c1ccc(-c2c3nc(c(-c4c(F)c(F)c(F)c(F)c4F)c4ccc([nH]4)c(-c4c(F)c(F)c(F)c(F)c4F)c4nc(c(-c5c(F)c(F)c(F)c(F)c5F)c5ccc2[nH]5)C=C4)C=C3)cc1
REMARK SMILES IDX 4 1 3 2 1 3 2 4 25 6 26 7 87 8 27 9 86 10 28 11 29 12 30 13
REMARK SMILES IDX 80 14 31 15 85 16 79 17 81 18 32 19 84 20 78 21 77 22 33 24
REMARK SMILES IDX 65 25 45 26 64 27 46 28 49 29 63 30 82 31 47 32 48 33 62 35
REMARK SMILES IDX 83 36 50 37 34 38 35 39 43 40 36 41 37 42 41 43 44 44 38 45
REMARK SMILES IDX 39 46 42 47 40 48 66 49 67 50 75 51 68 52 69 53 73 54 76 55
REMARK SMILES IDX 70 56 71 57 74 58 72 59 51 60 52 61 60 62 53 63 54 64 58 65
REMARK SMILES IDX 61 66 55 67 56 68 59 69 57 70 5 71 6 72 7 73 8 74 9 76 10 77
REMARK SMILES IDX 11 78 15 79 12 80 14 81 16 82 13 83 24 84 17 85 19 86 23 87
REMARK SMILES IDX 18 88 20 89 22 90 21 91
REMARK H PARENT 3 5 81 23 49 34 7 75
REMARK Flexibility Score: inf
ROOT
ATOM      1  C   UNL A   1      33.230  29.067  24.943  1.00  0.00     0.118 C 
ENDROOT
BRANCH   1   2
ATOM      2  N   UNL A   1      32.695  30.256  25.588  1.00  0.00    -0.352 N 
ATOM      3  O   UNL A   1      32.360  31.823  27.150  1.00  0.00    -0.269 OA
ATOM      4  C   UNL A   1      33.096  30.945  26.703  1.00  0.00     0.251 C 
ATOM      5  H   UNL A   1      31.903  30.636  25.143  1.00  0.00     0.163 HD
BRANCH   4   6
ATOM      6  C   UNL A   1      34.382  30.664  27.383  1.00  0.00     0.039 A 
ATOM      7  C   UNL A   1      34.633  29.355  27.812  1.00  0.00     0.014 A 
ATOM      8  C   UNL A   1      35.297  31.673  27.694  1.00  0.00     0.014 A 
ATOM      9  C   UNL A   1      35.795  29.059  28.530  1.00  0.00     0.010 A 
ATOM     10  C   UNL A   1      36.501  31.362  28.325  1.00  0.00     0.010 A 
ATOM     11  C   UNL A   1      36.742  30.061  28.788  1.00  0.00    -0.014 A 
BRANCH  11  12
ATOM     12  C   UNL A   1      37.935  29.790  29.629  1.00  0.00     0.031 A 
ATOM     13  C   UNL A   1      39.023  28.888  29.110  1.00  0.00     0.074 A 
ATOM     14  C   UNL A   1      38.038  30.327  30.860  1.00  0.00     0.049 A 
ATOM     15  N   UNL A   1      40.122  28.488  29.699  1.00  0.00    -0.248 NA
ATOM     16  C   UNL A   1      38.836  28.332  27.759  1.00  0.00     0.031 C 
ATOM     17  C   UNL A   1      37.038  31.187  31.491  1.00  0.00     0.029 A 
ATOM     18  N   UNL A   1      39.036  30.229  31.797  1.00  0.00    -0.354 N 
ATOM     19  C   UNL A   1      40.736  27.622  28.805  1.00  0.00     0.074 A 
ATOM     20  C   UNL A   1      39.863  27.504  27.659  1.00  0.00     0.031 C 
ATOM     21  C   UNL A   1      37.489  31.569  32.697  1.00  0.00     0.029 A 
ATOM     22  C   UNL A   1      38.794  30.957  32.935  1.00  0.00     0.049 A 
ATOM     23  H   UNL A   1      39.847  29.688  31.665  1.00  0.00     0.167 HD
ATOM     24  C   UNL A   1      41.936  27.005  28.912  1.00  0.00     0.037 A 
ATOM     25  C   UNL A   1      39.544  31.116  34.043  1.00  0.00     0.037 A 
ATOM     26  C   UNL A   1      42.833  27.175  30.020  1.00  0.00     0.049 A 
ATOM     27  C   UNL A   1      40.878  30.429  34.139  1.00  0.00     0.074 A 
ATOM     28  C   UNL A   1      44.114  26.675  30.176  1.00  0.00     0.029 A 
ATOM     29  N   UNL A   1      42.546  27.910  31.159  1.00  0.00    -0.354 N 
ATOM     30  N   UNL A   1      41.476  29.662  33.260  1.00  0.00    -0.248 NA
ATOM     31  C   UNL A   1      41.640  30.623  35.381  1.00  0.00     0.031 C 
ATOM     32  C   UNL A   1      44.588  27.078  31.428  1.00  0.00     0.029 A 
ATOM     33  C   UNL A   1      43.615  27.856  32.036  1.00  0.00     0.049 A 
ATOM     34  H   UNL A   1      41.706  28.399  31.320  1.00  0.00     0.167 HD
ATOM     35  C   UNL A   1      42.684  29.292  33.833  1.00  0.00     0.074 A 
ATOM     36  C   UNL A   1      42.743  29.929  35.132  1.00  0.00     0.031 C 
ATOM     37  C   UNL A   1      43.654  28.492  33.328  1.00  0.00     0.037 A 
BRANCH  24  38
ATOM     38  C   UNL A   1      42.356  26.104  27.788  1.00  0.00     0.064 A 
ATOM     39  C   UNL A   1      41.932  24.768  27.721  1.00  0.00     0.173 A 
ATOM     40  C   UNL A   1      43.166  26.589  26.752  1.00  0.00     0.173 A 
ATOM     41  F   UNL A   1      41.166  24.254  28.695  1.00  0.00    -0.203 F 
ATOM     42  C   UNL A   1      42.329  23.943  26.674  1.00  0.00     0.198 A 
ATOM     43  C   UNL A   1      43.539  25.768  25.690  1.00  0.00     0.198 A 
ATOM     44  F   UNL A   1      43.593  27.861  26.765  1.00  0.00    -0.203 F 
ATOM     45  F   UNL A   1      41.953  22.656  26.657  1.00  0.00    -0.200 F 
ATOM     46  C   UNL A   1      43.126  24.445  25.657  1.00  0.00     0.200 A 
ATOM     47  F   UNL A   1      44.300  26.257  24.701  1.00  0.00    -0.200 F 
ATOM     48  F   UNL A   1      43.505  23.649  24.646  1.00  0.00    -0.200 F 
ENDBRANCH  24  38
BRANCH  25  49
ATOM     49  C   UNL A   1      39.059  32.006  35.128  1.00  0.00     0.064 A 
ATOM     50  C   UNL A   1      38.375  31.478  36.230  1.00  0.00     0.173 A 
ATOM     51  C   UNL A   1      39.311  33.385  35.111  1.00  0.00     0.173 A 
ATOM     52  F   UNL A   1      38.096  30.167  36.281  1.00  0.00    -0.203 F 
ATOM     53  C   UNL A   1      37.960  32.298  37.278  1.00  0.00     0.198 A 
ATOM     54  C   UNL A   1      38.913  34.200  36.167  1.00  0.00     0.198 A 
ATOM     55  F   UNL A   1      39.965  33.935  34.078  1.00  0.00    -0.203 F 
ATOM     56  F   UNL A   1      37.292  31.771  38.314  1.00  0.00    -0.200 F 
ATOM     57  C   UNL A   1      38.237  33.656  37.250  1.00  0.00     0.200 A 
ATOM     58  F   UNL A   1      39.192  35.510  36.144  1.00  0.00    -0.200 F 
ATOM     59  F   UNL A   1      37.853  34.441  38.266  1.00  0.00    -0.200 F 
ENDBRANCH  25  49
BRANCH  37  60
ATOM     60  C   UNL A   1      44.866  28.245  34.174  1.00  0.00     0.064 A 
ATOM     61  C   UNL A   1      44.938  27.134  35.024  1.00  0.00     0.173 A 
ATOM     62  C   UNL A   1      46.000  29.060  34.051  1.00  0.00     0.173 A 
ATOM     63  F   UNL A   1      43.874  26.334  35.182  1.00  0.00    -0.203 F 
ATOM     64  C   UNL A   1      46.109  26.846  35.722  1.00  0.00     0.198 A 
ATOM     65  C   UNL A   1      47.175  28.757  34.733  1.00  0.00     0.198 A 
ATOM     66  F   UNL A   1      45.980  30.130  33.241  1.00  0.00    -0.203 F 
ATOM     67  F   UNL A   1      46.153  25.786  36.541  1.00  0.00    -0.200 F 
ATOM     68  C   UNL A   1      47.228  27.650  35.567  1.00  0.00     0.200 A 
ATOM     69  F   UNL A   1      48.260  29.526  34.571  1.00  0.00    -0.200 F 
ATOM     70  F   UNL A   1      48.360  27.357  36.220  1.00  0.00    -0.200 F 
ENDBRANCH  37  60
ENDBRANCH  11  12
ENDBRANCH   4   6
ENDBRANCH   1   2
BRANCH   1  71
ATOM     71  C   UNL A   1      33.106  29.108  23.425  1.00  0.00     0.042 C 
BRANCH  71  72
ATOM     72  C   UNL A   1      34.038  28.160  22.686  1.00  0.00     0.118 C 
BRANCH  72  73
ATOM     73  N   UNL A   1      33.368  27.425  21.623  1.00  0.00    -0.352 N 
ATOM     74  C   UNL A   1      32.476  26.384  21.689  1.00  0.00     0.251 C 
ATOM     75  H   UNL A   1      33.591  27.722  20.710  1.00  0.00     0.163 HD
ATOM     76  O   UNL A   1      32.081  25.862  20.648  1.00  0.00    -0.269 OA
BRANCH  74  77
ATOM     77  C   UNL A   1      31.975  25.911  23.003  1.00  0.00     0.047 A 
ATOM     78  C   UNL A   1      30.705  26.355  23.387  1.00  0.00     0.014 A 
ATOM     79  C   UNL A   1      32.718  25.002  23.811  1.00  0.00    -0.004 A 
ATOM     80  C   UNL A   1      30.196  25.995  24.619  1.00  0.00     0.002 A 
ATOM     81  C   UNL A   1      32.190  24.599  25.069  1.00  0.00    -0.010 A 
ATOM     82  C   UNL A   1      33.959  24.471  23.415  1.00  0.00     0.026 A 
ATOM     83  C   UNL A   1      30.935  25.146  25.443  1.00  0.00     0.009 A 
ATOM     84  C   UNL A   1      32.918  23.662  25.896  1.00  0.00    -0.009 A 
ATOM     85  C   UNL A   1      34.652  23.545  24.198  1.00  0.00     0.026 A 
ATOM     86  C   UNL A   1      34.150  23.116  25.444  1.00  0.00    -0.004 A 
ATOM     87  C   UNL A   1      32.452  23.229  27.167  1.00  0.00     0.009 A 
ATOM     88  Br  UNL A   1      36.297  22.904  23.469  1.00  0.00    -0.050 Br
ATOM     89  C   UNL A   1      34.820  22.164  26.255  1.00  0.00     0.010 A 
ATOM     90  C   UNL A   1      33.134  22.296  27.950  1.00  0.00     0.001 A 
ATOM     91  C   UNL A   1      34.318  21.755  27.489  1.00  0.00     0.001 A 
ENDBRANCH  74  77
ENDBRANCH  72  73
ENDBRANCH  71  72
ENDBRANCH   1  71
TORSDOF 10
ENDMDL
MODEL 2
REMARK VINA RESULT:     -13.2      1.137      7.564
REMARK SMILES O=C(NCCCNC(=O)c1cccc2c1cc(Br)c1ccccc12)c1ccc(-c2c3nc(c(-c4c(F)c(F)c(F)c(F)c4F)c4ccc([nH]4)c(-c4c(F)c(F)c(F)c(F)c4F)c4nc(c(-c5c(F)c(F)c(F)c(F)c5F)c5ccc2[nH]5)C=C4)C=C3)cc1
REMARK SMILES IDX 4 1 3 2 1 3 2 4 25 6 26 7 87 8 27 9 86 10 28 11 29 12 30 13
REMARK SMILES IDX 80 14 31 15 85 16 79 17 81 18 32 19 84 20 78 21 77 22 33 24
REMARK SMILES IDX 65 25 45 26 64 27 46 28 49 29 63 30 82 31 47 32 48 33 62 35
REMARK SMILES IDX 83 36 50 37 34 38 35 39 43 40 36 41 37 42 41 43 44 44 38 45
REMARK SMILES IDX 39 46 42 47 40 48 66 49 67 50 75 51 68 52 69 53 73 54 76 55
REMARK SMILES IDX 70 56 71 57 74 58 72 59 51 60 52 61 60 62 53 63 54 64 58 65
REMARK SMILES IDX 61 66 55 67 56 68 59 69 57 70 5 71 6 72 7 73 8 74 9 76 10 77
REMARK SMILES IDX 11 78 15 79 12 80 14 81 16 82 13 83 24 84 17 85 19 86 23 87
REMARK SMILES IDX 18 88 20 89 22 90 21 91
REMARK H PARENT 3 5 81 23 49 34 7 75
REMARK Flexibility Score: inf
ROOT
ATOM      1  C   UNL A   1      32.377  29.768  26.778  1.00  0.00     0.118 C 
ENDROOT
BRANCH   1   2
ATOM      2  N   UNL A   1      32.447  31.219  26.868  1.00  0.00    -0.352 N 
ATOM      3  O   UNL A   1      33.087  33.248  27.561  1.00  0.00    -0.269 OA
ATOM      4  C   UNL A   1      33.353  32.051  27.473  1.00  0.00     0.251 C 
ATOM      5  H   UNL A   1      31.711  31.688  26.412  1.00  0.00     0.163 HD
BRANCH   4   6
ATOM      6  C   UNL A   1      34.636  31.552  28.021  1.00  0.00     0.039 A 
ATOM      7  C   UNL A   1      34.726  30.199  28.371  1.00  0.00     0.014 A 
ATOM      8  C   UNL A   1      35.712  32.402  28.290  1.00  0.00     0.014 A 
ATOM      9  C   UNL A   1      35.887  29.702  28.969  1.00  0.00     0.010 A 
ATOM     10  C   UNL A   1      36.905  31.888  28.796  1.00  0.00     0.010 A 
ATOM     11  C   UNL A   1      36.990  30.543  29.181  1.00  0.00    -0.014 A 
BRANCH  11  12
ATOM     12  C   UNL A   1      38.197  30.059  29.899  1.00  0.00     0.031 A 
ATOM     13  C   UNL A   1      38.444  30.498  31.318  1.00  0.00     0.074 A 
ATOM     14  C   UNL A   1      39.080  29.253  29.281  1.00  0.00     0.049 A 
ATOM     15  N   UNL A   1      39.454  30.227  32.107  1.00  0.00    -0.248 NA
ATOM     16  C   UNL A   1      37.437  31.386  31.924  1.00  0.00     0.031 C 
ATOM     17  C   UNL A   1      38.974  28.787  27.899  1.00  0.00     0.029 A 
ATOM     18  N   UNL A   1      40.240  28.681  29.740  1.00  0.00    -0.354 N 
ATOM     19  C   UNL A   1      39.215  30.929  33.280  1.00  0.00     0.074 A 
ATOM     20  C   UNL A   1      37.998  31.684  33.084  1.00  0.00     0.031 C 
ATOM     21  C   UNL A   1      40.006  27.969  27.634  1.00  0.00     0.029 A 
ATOM     22  C   UNL A   1      40.860  27.879  28.815  1.00  0.00     0.049 A 
ATOM     23  H   UNL A   1      40.593  28.830  30.647  1.00  0.00     0.167 HD
ATOM     24  C   UNL A   1      39.925  30.920  34.432  1.00  0.00     0.037 A 
ATOM     25  C   UNL A   1      41.989  27.150  28.911  1.00  0.00     0.037 A 
ATOM     26  C   UNL A   1      41.096  30.117  34.650  1.00  0.00     0.049 A 
ATOM     27  C   UNL A   1      42.760  27.146  30.203  1.00  0.00     0.074 A 
ATOM     28  C   UNL A   1      41.828  29.959  35.813  1.00  0.00     0.029 A 
ATOM     29  N   UNL A   1      41.700  29.329  33.684  1.00  0.00    -0.354 N 
ATOM     30  N   UNL A   1      42.490  27.765  31.326  1.00  0.00    -0.248 NA
ATOM     31  C   UNL A   1      43.994  26.348  30.240  1.00  0.00     0.031 C 
ATOM     32  C   UNL A   1      42.898  29.103  35.540  1.00  0.00     0.029 A 
ATOM     33  C   UNL A   1      42.813  28.702  34.216  1.00  0.00     0.049 A 
ATOM     34  H   UNL A   1      41.384  29.228  32.756  1.00  0.00     0.167 HD
ATOM     35  C   UNL A   1      43.509  27.425  32.205  1.00  0.00     0.074 A 
ATOM     36  C   UNL A   1      44.398  26.534  31.490  1.00  0.00     0.031 C 
ATOM     37  C   UNL A   1      43.690  27.821  33.488  1.00  0.00     0.037 A 
BRANCH  24  38
ATOM     38  C   UNL A   1      39.442  31.791  35.553  1.00  0.00     0.064 A 
ATOM     39  C   UNL A   1      38.517  31.324  36.500  1.00  0.00     0.173 A 
ATOM     40  C   UNL A   1      39.930  33.098  35.701  1.00  0.00     0.173 A 
ATOM     41  F   UNL A   1      38.012  30.086  36.394  1.00  0.00    -0.203 F 
ATOM     42  C   UNL A   1      38.076  32.143  37.535  1.00  0.00     0.198 A 
ATOM     43  C   UNL A   1      39.508  33.905  36.754  1.00  0.00     0.198 A 
ATOM     44  F   UNL A   1      40.820  33.590  34.827  1.00  0.00    -0.203 F 
ATOM     45  F   UNL A   1      37.156  31.692  38.398  1.00  0.00    -0.200 F 
ATOM     46  C   UNL A   1      38.576  33.429  37.665  1.00  0.00     0.200 A 
ATOM     47  F   UNL A   1      39.999  35.145  36.886  1.00  0.00    -0.200 F 
ATOM     48  F   UNL A   1      38.154  34.216  38.665  1.00  0.00    -0.200 F 
ENDBRANCH  24  38
BRANCH  25  49
ATOM     49  C   UNL A   1      42.424  26.325  27.756  1.00  0.00     0.064 A 
ATOM     50  C   UNL A   1      43.399  26.799  26.869  1.00  0.00     0.173 A 
ATOM     51  C   UNL A   1      41.914  25.037  27.543  1.00  0.00     0.173 A 
ATOM     52  F   UNL A   1      43.902  28.033  27.024  1.00  0.00    -0.203 F 
ATOM     53  C   UNL A   1      43.851  26.013  25.811  1.00  0.00     0.198 A 
ATOM     54  C   UNL A   1      42.380  24.245  26.496  1.00  0.00     0.198 A 
ATOM     55  F   UNL A   1      40.981  24.539  28.367  1.00  0.00    -0.203 F 
ATOM     56  F   UNL A   1      44.773  26.496  24.967  1.00  0.00    -0.200 F 
ATOM     57  C   UNL A   1      43.347  24.734  25.630  1.00  0.00     0.200 A 
ATOM     58  F   UNL A   1      41.901  23.004  26.331  1.00  0.00    -0.200 F 
ATOM     59  F   UNL A   1      43.795  23.972  24.623  1.00  0.00    -0.200 F 
ENDBRANCH  25  49
BRANCH  37  60
ATOM     60  C   UNL A   1      44.897  27.308  34.212  1.00  0.00     0.064 A 
ATOM     61  C   UNL A   1      46.087  28.047  34.248  1.00  0.00     0.173 A 
ATOM     62  C   UNL A   1      44.829  26.126  34.965  1.00  0.00     0.173 A 
ATOM     63  F   UNL A   1      46.201  29.177  33.535  1.00  0.00    -0.203 F 
ATOM     64  C   UNL A   1      47.168  27.621  35.016  1.00  0.00     0.198 A 
ATOM     65  C   UNL A   1      45.903  25.715  35.748  1.00  0.00     0.198 A 
ATOM     66  F   UNL A   1      43.707  25.391  34.968  1.00  0.00    -0.203 F 
ATOM     67  F   UNL A   1      48.302  28.336  35.026  1.00  0.00    -0.200 F 
ATOM     68  C   UNL A   1      47.071  26.464  35.773  1.00  0.00     0.200 A 
ATOM     69  F   UNL A   1      45.804  24.604  36.490  1.00  0.00    -0.200 F 
ATOM     70  F   UNL A   1      48.104  26.069  36.530  1.00  0.00    -0.200 F 
ENDBRANCH  37  60
ENDBRANCH  11  12
ENDBRANCH   4   6
ENDBRANCH   1   2
BRANCH   1  71
ATOM     71  C   UNL A   1      32.337  29.265  25.340  1.00  0.00     0.042 C 
BRANCH  71  72
ATOM     72  C   UNL A   1      33.230  28.064  25.063  1.00  0.00     0.118 C 
BRANCH  72  73
ATOM     73  N   UNL A   1      33.588  27.939  23.658  1.00  0.00    -0.352 N 
ATOM     74  C   UNL A   1      33.340  26.926  22.765  1.00  0.00     0.251 C 
ATOM     75  H   UNL A   1      34.087  28.704  23.289  1.00  0.00     0.163 HD
ATOM     76  O   UNL A   1      33.800  27.001  21.628  1.00  0.00    -0.269 OA
BRANCH  74  77
ATOM     77  C   UNL A   1      32.506  25.766  23.165  1.00  0.00     0.047 A 
ATOM     78  C   UNL A   1      31.120  25.931  23.078  1.00  0.00     0.014 A 
ATOM     79  C   UNL A   1      33.081  24.522  23.557  1.00  0.00    -0.004 A 
ATOM     80  C   UNL A   1      30.281  24.910  23.480  1.00  0.00     0.002 A 
ATOM     81  C   UNL A   1      32.228  23.453  23.944  1.00  0.00    -0.010 A 
ATOM     82  C   UNL A   1      34.470  24.297  23.573  1.00  0.00     0.026 A 
ATOM     83  C   UNL A   1      30.830  23.704  23.916  1.00  0.00     0.009 A 
ATOM     84  C   UNL A   1      32.789  22.176  24.328  1.00  0.00    -0.009 A 
ATOM     85  C   UNL A   1      35.016  23.057  23.916  1.00  0.00     0.026 A 
ATOM     86  C   UNL A   1      34.196  21.974  24.292  1.00  0.00    -0.004 A 
ATOM     87  C   UNL A   1      31.993  21.073  24.735  1.00  0.00     0.009 A 
ATOM     88  Br  UNL A   1      36.920  22.935  23.832  1.00  0.00    -0.050 Br
ATOM     89  C   UNL A   1      34.717  20.698  24.629  1.00  0.00     0.010 A 
ATOM     90  C   UNL A   1      32.530  19.828  25.070  1.00  0.00     0.001 A 
ATOM     91  C   UNL A   1      33.897  19.638  25.008  1.00  0.00     0.001 A 
ENDBRANCH  74  77
ENDBRANCH  72  73
ENDBRANCH  71  72
ENDBRANCH   1  71
TORSDOF 10
ENDMDL
MODEL 3
REMARK VINA RESULT:     -13.2      2.917      7.892
REMARK SMILES O=C(NCCCNC(=O)c1cccc2c1cc(Br)c1ccccc12)c1ccc(-c2c3nc(c(-c4c(F)c(F)c(F)c(F)c4F)c4ccc([nH]4)c(-c4c(F)c(F)c(F)c(F)c4F)c4nc(c(-c5c(F)c(F)c(F)c(F)c5F)c5ccc2[nH]5)C=C4)C=C3)cc1
REMARK SMILES IDX 4 1 3 2 1 3 2 4 25 6 26 7 87 8 27 9 86 10 28 11 29 12 30 13
REMARK SMILES IDX 80 14 31 15 85 16 79 17 81 18 32 19 84 20 78 21 77 22 33 24
REMARK SMILES IDX 65 25 45 26 64 27 46 28 49 29 63 30 82 31 47 32 48 33 62 35
REMARK SMILES IDX 83 36 50 37 34 38 35 39 43 40 36 41 37 42 41 43 44 44 38 45
REMARK SMILES IDX 39 46 42 47 40 48 66 49 67 50 75 51 68 52 69 53 73 54 76 55
REMARK SMILES IDX 70 56 71 57 74 58 72 59 51 60 52 61 60 62 53 63 54 64 58 65
REMARK SMILES IDX 61 66 55 67 56 68 59 69 57 70 5 71 6 72 7 73 8 74 9 76 10 77
REMARK SMILES IDX 11 78 15 79 12 80 14 81 16 82 13 83 24 84 17 85 19 86 23 87
REMARK SMILES IDX 18 88 20 89 22 90 21 91
REMARK H PARENT 3 5 81 23 49 34 7 75
REMARK Flexibility Score: inf
ROOT
ATOM      1  C   UNL A   1      33.535  28.615  27.237  1.00  0.00     0.118 C 
ENDROOT
BRANCH   1   2
ATOM      2  N   UNL A   1      33.618  30.018  27.615  1.00  0.00    -0.352 N 
ATOM      3  O   UNL A   1      34.369  31.884  28.595  1.00  0.00    -0.269 OA
ATOM      4  C   UNL A   1      34.616  30.742  28.213  1.00  0.00     0.251 C 
ATOM      5  H   UNL A   1      32.812  30.542  27.402  1.00  0.00     0.163 HD
BRANCH   4   6
ATOM      6  C   UNL A   1      35.977  30.191  28.414  1.00  0.00     0.039 A 
ATOM      7  C   UNL A   1      36.310  29.686  29.677  1.00  0.00     0.014 A 
ATOM      8  C   UNL A   1      36.959  30.251  27.421  1.00  0.00     0.014 A 
ATOM      9  C   UNL A   1      37.605  29.233  29.936  1.00  0.00     0.010 A 
ATOM     10  C   UNL A   1      38.224  29.710  27.648  1.00  0.00     0.010 A 
ATOM     11  C   UNL A   1      38.573  29.236  28.920  1.00  0.00    -0.014 A 
BRANCH  11  12
ATOM     12  C   UNL A   1      39.979  28.848  29.199  1.00  0.00     0.031 A 
ATOM     13  C   UNL A   1      40.851  29.754  30.027  1.00  0.00     0.074 A 
ATOM     14  C   UNL A   1      40.483  27.705  28.696  1.00  0.00     0.049 A 
ATOM     15  N   UNL A   1      42.114  29.624  30.350  1.00  0.00    -0.248 NA
ATOM     16  C   UNL A   1      40.231  30.989  30.536  1.00  0.00     0.031 C 
ATOM     17  C   UNL A   1      39.754  26.761  27.851  1.00  0.00     0.029 A 
ATOM     18  N   UNL A   1      41.729  27.145  28.828  1.00  0.00    -0.354 N 
ATOM     19  C   UNL A   1      42.438  30.766  31.070  1.00  0.00     0.074 A 
ATOM     20  C   UNL A   1      41.263  31.606  31.090  1.00  0.00     0.031 C 
ATOM     21  C   UNL A   1      40.553  25.719  27.570  1.00  0.00     0.029 A 
ATOM     22  C   UNL A   1      41.858  25.937  28.189  1.00  0.00     0.049 A 
ATOM     23  H   UNL A   1      42.460  27.568  29.333  1.00  0.00     0.167 HD
ATOM     24  C   UNL A   1      43.601  31.073  31.690  1.00  0.00     0.037 A 
ATOM     25  C   UNL A   1      42.910  25.098  28.116  1.00  0.00     0.037 A 
ATOM     26  C   UNL A   1      44.748  30.208  31.729  1.00  0.00     0.049 A 
ATOM     27  C   UNL A   1      44.191  25.454  28.819  1.00  0.00     0.074 A 
ATOM     28  C   UNL A   1      45.936  30.382  32.415  1.00  0.00     0.029 A 
ATOM     29  N   UNL A   1      44.842  28.999  31.058  1.00  0.00    -0.354 N 
ATOM     30  N   UNL A   1      44.466  26.507  29.549  1.00  0.00    -0.248 NA
ATOM     31  C   UNL A   1      45.309  24.509  28.685  1.00  0.00     0.031 C 
ATOM     32  C   UNL A   1      46.766  29.295  32.129  1.00  0.00     0.029 A 
ATOM     33  C   UNL A   1      46.081  28.428  31.292  1.00  0.00     0.049 A 
ATOM     34  H   UNL A   1      44.134  28.604  30.499  1.00  0.00     0.167 HD
ATOM     35  C   UNL A   1      45.779  26.349  29.971  1.00  0.00     0.074 A 
ATOM     36  C   UNL A   1      46.244  25.091  29.426  1.00  0.00     0.031 C 
ATOM     37  C   UNL A   1      46.530  27.176  30.737  1.00  0.00     0.037 A 
BRANCH  24  38
ATOM     38  C   UNL A   1      43.683  32.394  32.397  1.00  0.00     0.064 A 
ATOM     39  C   UNL A   1      44.151  33.546  31.747  1.00  0.00     0.173 A 
ATOM     40  C   UNL A   1      43.262  32.516  33.729  1.00  0.00     0.173 A 
ATOM     41  F   UNL A   1      44.577  33.477  30.476  1.00  0.00    -0.203 F 
ATOM     42  C   UNL A   1      44.222  34.765  32.414  1.00  0.00     0.198 A 
ATOM     43  C   UNL A   1      43.309  33.743  34.384  1.00  0.00     0.198 A 
ATOM     44  F   UNL A   1      42.801  31.446  34.394  1.00  0.00    -0.203 F 
ATOM     45  F   UNL A   1      44.719  35.841  31.788  1.00  0.00    -0.200 F 
ATOM     46  C   UNL A   1      43.796  34.864  33.729  1.00  0.00     0.200 A 
ATOM     47  F   UNL A   1      42.886  33.841  35.653  1.00  0.00    -0.200 F 
ATOM     48  F   UNL A   1      43.861  36.040  34.369  1.00  0.00    -0.200 F 
ENDBRANCH  24  38
BRANCH  25  49
ATOM     49  C   UNL A   1      42.768  23.815  27.382  1.00  0.00     0.064 A 
ATOM     50  C   UNL A   1      43.144  23.719  26.036  1.00  0.00     0.173 A 
ATOM     51  C   UNL A   1      42.303  22.656  28.018  1.00  0.00     0.173 A 
ATOM     52  F   UNL A   1      43.577  24.807  25.382  1.00  0.00    -0.203 F 
ATOM     53  C   UNL A   1      43.062  22.508  25.352  1.00  0.00     0.198 A 
ATOM     54  C   UNL A   1      42.240  21.441  27.339  1.00  0.00     0.198 A 
ATOM     55  F   UNL A   1      41.935  22.699  29.307  1.00  0.00    -0.203 F 
ATOM     56  F   UNL A   1      43.413  22.445  24.061  1.00  0.00    -0.200 F 
ATOM     57  C   UNL A   1      42.619  21.368  26.007  1.00  0.00     0.200 A 
ATOM     58  F   UNL A   1      41.823  20.339  27.977  1.00  0.00    -0.200 F 
ATOM     59  F   UNL A   1      42.557  20.200  25.353  1.00  0.00    -0.200 F 
ENDBRANCH  25  49
BRANCH  37  60
ATOM     60  C   UNL A   1      47.939  26.764  31.034  1.00  0.00     0.064 A 
ATOM     61  C   UNL A   1      48.231  25.908  32.104  1.00  0.00     0.173 A 
ATOM     62  C   UNL A   1      48.987  27.136  30.179  1.00  0.00     0.173 A 
ATOM     63  F   UNL A   1      47.262  25.536  32.953  1.00  0.00    -0.203 F 
ATOM     64  C   UNL A   1      49.525  25.436  32.307  1.00  0.00     0.198 A 
ATOM     65  C   UNL A   1      50.275  26.646  30.372  1.00  0.00     0.198 A 
ATOM     66  F   UNL A   1      48.753  27.946  29.135  1.00  0.00    -0.203 F 
ATOM     67  F   UNL A   1      49.786  24.630  33.345  1.00  0.00    -0.200 F 
ATOM     68  C   UNL A   1      50.542  25.796  31.436  1.00  0.00     0.200 A 
ATOM     69  F   UNL A   1      51.254  26.982  29.521  1.00  0.00    -0.200 F 
ATOM     70  F   UNL A   1      51.782  25.321  31.619  1.00  0.00    -0.200 F 
ENDBRANCH  37  60
ENDBRANCH  11  12
ENDBRANCH   4   6
ENDBRANCH   1   2
BRANCH   1  71
ATOM     71  C   UNL A   1      34.058  28.348  25.831  1.00  0.00     0.042 C 
BRANCH  71  72
ATOM     72  C   UNL A   1      32.998  27.908  24.833  1.00  0.00     0.118 C 
BRANCH  72  73
ATOM     73  N   UNL A   1      33.526  27.737  23.487  1.00  0.00    -0.352 N 
ATOM     74  C   UNL A   1      33.429  26.675  22.623  1.00  0.00     0.251 C 
ATOM     75  H   UNL A   1      34.034  28.507  23.141  1.00  0.00     0.163 HD
ATOM     76  O   UNL A   1      34.018  26.721  21.545  1.00  0.00    -0.269 OA
BRANCH  74  77
ATOM     77  C   UNL A   1      32.602  25.496  22.979  1.00  0.00     0.047 A 
ATOM     78  C   UNL A   1      31.221  25.619  22.792  1.00  0.00     0.014 A 
ATOM     79  C   UNL A   1      33.183  24.274  23.430  1.00  0.00    -0.004 A 
ATOM     80  C   UNL A   1      30.385  24.579  23.148  1.00  0.00     0.002 A 
ATOM     81  C   UNL A   1      32.334  23.186  23.771  1.00  0.00    -0.010 A 
ATOM     82  C   UNL A   1      34.572  24.091  23.547  1.00  0.00     0.026 A 
ATOM     83  C   UNL A   1      30.936  23.396  23.640  1.00  0.00     0.009 A 
ATOM     84  C   UNL A   1      32.903  21.931  24.212  1.00  0.00    -0.009 A 
ATOM     85  C   UNL A   1      35.127  22.872  23.946  1.00  0.00     0.026 A 
ATOM     86  C   UNL A   1      34.314  21.770  24.279  1.00  0.00    -0.004 A 
ATOM     87  C   UNL A   1      32.111  20.810  24.578  1.00  0.00     0.009 A 
ATOM     88  Br  UNL A   1      37.036  22.805  23.999  1.00  0.00    -0.050 Br
ATOM     89  C   UNL A   1      34.846  20.514  24.670  1.00  0.00     0.010 A 
ATOM     90  C   UNL A   1      32.659  19.585  24.968  1.00  0.00     0.001 A 
ATOM     91  C   UNL A   1      34.031  19.435  25.006  1.00  0.00     0.001 A 
ENDBRANCH  74  77
ENDBRANCH  72  73
ENDBRANCH  71  72
ENDBRANCH   1  71
TORSDOF 10
ENDMDL
