MODEL 1
REMARK VINA RESULT:     -12.7      0.000      0.000
REMARK SMILES O=C(CCC(=O)Nc1ccc(C(=O)N2CCOCC2)cc1)NCCCNC(=O)c1ccc(-c2c3nc(c(-c4c(F)c(F)c(F)c(F)c4F)c4ccc([nH]4)c(-c4c(F)c(F)c(F)c(F)c4F)c4nc(c(-c5c(F)c(F)c(F)c(F)c5F)c5ccc2[nH]5)C=C4)C=C3)cc1
REMARK SMILES IDX 23 1 22 2 1 3 2 4 3 6 4 7 5 8 6 9 7 10 8 12 9 13 21 14 10 15
REMARK SMILES IDX 20 16 11 17 12 18 13 19 14 20 15 21 19 22 16 23 18 24 17 25
REMARK SMILES IDX 24 26 25 27 26 28 27 29 28 31 29 32 30 33 91 34 31 35 90 36
REMARK SMILES IDX 32 37 33 38 34 39 84 40 35 41 89 42 83 43 85 44 36 45 88 46
REMARK SMILES IDX 82 47 81 48 37 50 69 51 49 52 68 53 50 54 53 55 67 56 86 57
REMARK SMILES IDX 51 58 52 59 66 61 87 62 54 63 38 64 39 65 47 66 40 67 41 68
REMARK SMILES IDX 45 69 48 70 42 71 43 72 46 73 44 74 70 75 71 76 79 77 72 78
REMARK SMILES IDX 73 79 77 80 80 81 74 82 75 83 78 84 76 85 55 86 56 87 64 88
REMARK SMILES IDX 57 89 58 90 62 91 65 92 59 93 60 94 63 95 61 96
REMARK H PARENT 22 5 7 11 26 30 85 49 53 60
REMARK Flexibility Score: inf
ROOT
ATOM      1  C   UNL A   1      37.144  21.657  24.896  1.00  0.00     0.117 C 
ENDROOT
BRANCH   1   2
ATOM      2  N   UNL A   1      36.033  21.835  25.806  1.00  0.00    -0.356 N 
ATOM      3  O   UNL A   1      36.060  24.135  25.748  1.00  0.00    -0.275 OA
ATOM      4  C   UNL A   1      35.517  23.084  26.077  1.00  0.00     0.220 C 
ATOM      5  H   UNL A   1      35.637  21.047  26.242  1.00  0.00     0.163 HD
BRANCH   4   6
ATOM      6  C   UNL A   1      34.180  23.058  26.781  1.00  0.00     0.110 C 
BRANCH   6   7
ATOM      7  C   UNL A   1      33.116  23.946  26.141  1.00  0.00     0.110 C 
BRANCH   7   8
ATOM      8  C   UNL A   1      31.791  23.964  26.873  1.00  0.00     0.224 C 
ATOM      9  O   UNL A   1      31.441  22.942  27.477  1.00  0.00    -0.275 OA
ATOM     10  N   UNL A   1      30.901  24.996  26.860  1.00  0.00    -0.326 N 
ATOM     11  H   UNL A   1      30.197  24.903  27.543  1.00  0.00     0.169 HD
BRANCH  10  12
ATOM     12  C   UNL A   1      30.765  26.165  26.087  1.00  0.00     0.041 A 
ATOM     13  C   UNL A   1      30.008  26.051  24.906  1.00  0.00     0.027 A 
ATOM     14  C   UNL A   1      31.426  27.361  26.326  1.00  0.00     0.027 A 
ATOM     15  C   UNL A   1      30.077  27.037  23.907  1.00  0.00     0.016 A 
ATOM     16  C   UNL A   1      31.507  28.338  25.335  1.00  0.00     0.016 A 
ATOM     17  C   UNL A   1      30.894  28.151  24.096  1.00  0.00     0.040 A 
BRANCH  17  18
ATOM     18  C   UNL A   1      31.054  29.188  23.042  1.00  0.00     0.254 C 
ATOM     19  O   UNL A   1      32.075  29.221  22.366  1.00  0.00    -0.269 OA
ATOM     20  N   UNL A   1      29.943  29.975  22.798  1.00  0.00    -0.334 N 
ATOM     21  C   UNL A   1      29.372  30.893  23.785  1.00  0.00     0.148 C 
ATOM     22  C   UNL A   1      29.466  30.174  21.440  1.00  0.00     0.148 C 
ATOM     23  C   UNL A   1      27.843  30.938  23.687  1.00  0.00     0.181 C 
ATOM     24  C   UNL A   1      27.932  30.162  21.447  1.00  0.00     0.181 C 
ATOM     25  O   UNL A   1      27.414  31.171  22.333  1.00  0.00    -0.378 OA
ENDBRANCH  17  18
ENDBRANCH  10  12
ENDBRANCH   7   8
ENDBRANCH   6   7
ENDBRANCH   4   6
ENDBRANCH   1   2
BRANCH   1  26
ATOM     26  C   UNL A   1      37.917  20.369  25.079  1.00  0.00     0.042 C 
BRANCH  26  27
ATOM     27  C   UNL A   1      39.193  20.498  25.892  1.00  0.00     0.118 C 
BRANCH  27  28
ATOM     28  N   UNL A   1      40.109  19.368  25.803  1.00  0.00    -0.352 N 
ATOM     29  C   UNL A   1      41.463  19.338  26.067  1.00  0.00     0.251 C 
ATOM     30  H   UNL A   1      39.709  18.516  25.517  1.00  0.00     0.163 HD
ATOM     31  O   UNL A   1      42.096  18.297  25.912  1.00  0.00    -0.269 OA
BRANCH  29  32
ATOM     32  C   UNL A   1      42.160  20.583  26.471  1.00  0.00     0.039 A 
ATOM     33  C   UNL A   1      42.623  21.451  25.481  1.00  0.00     0.014 A 
ATOM     34  C   UNL A   1      42.275  20.938  27.816  1.00  0.00     0.014 A 
ATOM     35  C   UNL A   1      43.097  22.717  25.836  1.00  0.00     0.010 A 
ATOM     36  C   UNL A   1      42.636  22.237  28.159  1.00  0.00     0.010 A 
ATOM     37  C   UNL A   1      43.047  23.146  27.175  1.00  0.00    -0.014 A 
BRANCH  37  38
ATOM     38  C   UNL A   1      43.402  24.539  27.555  1.00  0.00     0.031 A 
ATOM     39  C   UNL A   1      44.836  24.997  27.538  1.00  0.00     0.074 A 
ATOM     40  C   UNL A   1      42.439  25.378  27.991  1.00  0.00     0.049 A 
ATOM     41  N   UNL A   1      45.337  26.162  27.866  1.00  0.00    -0.248 NA
ATOM     42  C   UNL A   1      45.846  24.004  27.142  1.00  0.00     0.031 C 
ATOM     43  C   UNL A   1      41.024  25.035  28.152  1.00  0.00     0.029 A 
ATOM     44  N   UNL A   1      42.505  26.692  28.382  1.00  0.00    -0.354 N 
ATOM     45  C   UNL A   1      46.714  26.032  27.737  1.00  0.00     0.074 A 
ATOM     46  C   UNL A   1      46.975  24.659  27.366  1.00  0.00     0.031 C 
ATOM     47  C   UNL A   1      40.350  26.121  28.561  1.00  0.00     0.029 A 
ATOM     48  C   UNL A   1      41.286  27.230  28.720  1.00  0.00     0.049 A 
ATOM     49  H   UNL A   1      43.346  27.202  28.418  1.00  0.00     0.167 HD
ATOM     50  C   UNL A   1      47.674  26.977  27.878  1.00  0.00     0.037 A 
ATOM     51  C   UNL A   1      40.958  28.480  29.099  1.00  0.00     0.037 A 
ATOM     52  C   UNL A   1      47.414  28.355  28.199  1.00  0.00     0.049 A 
ATOM     53  C   UNL A   1      42.032  29.529  29.180  1.00  0.00     0.074 A 
ATOM     54  C   UNL A   1      48.309  29.405  28.293  1.00  0.00     0.029 A 
ATOM     55  N   UNL A   1      46.158  28.875  28.474  1.00  0.00    -0.354 N 
ATOM     56  N   UNL A   1      43.321  29.414  28.967  1.00  0.00    -0.248 NA
ATOM     57  C   UNL A   1      41.602  30.888  29.537  1.00  0.00     0.031 C 
ATOM     58  C   UNL A   1      47.599  30.556  28.653  1.00  0.00     0.029 A 
ATOM     59  C   UNL A   1      46.255  30.231  28.743  1.00  0.00     0.049 A 
ATOM     60  H   UNL A   1      45.320  28.358  28.477  1.00  0.00     0.167 HD
ATOM     61  C   UNL A   1      43.850  30.684  29.137  1.00  0.00     0.074 A 
ATOM     62  C   UNL A   1      42.740  31.561  29.450  1.00  0.00     0.031 C 
ATOM     63  C   UNL A   1      45.140  31.090  29.045  1.00  0.00     0.037 A 
BRANCH  50  64
ATOM     64  C   UNL A   1      49.098  26.553  27.660  1.00  0.00     0.064 A 
ATOM     65  C   UNL A   1      49.633  26.419  26.369  1.00  0.00     0.173 A 
ATOM     66  C   UNL A   1      49.944  26.300  28.749  1.00  0.00     0.173 A 
ATOM     67  F   UNL A   1      48.862  26.636  25.292  1.00  0.00    -0.203 F 
ATOM     68  C   UNL A   1      50.951  26.014  26.177  1.00  0.00     0.198 A 
ATOM     69  C   UNL A   1      51.271  25.926  28.554  1.00  0.00     0.198 A 
ATOM     70  F   UNL A   1      49.485  26.417  30.003  1.00  0.00    -0.203 F 
ATOM     71  F   UNL A   1      51.422  25.838  24.935  1.00  0.00    -0.200 F 
ATOM     72  C   UNL A   1      51.771  25.774  27.269  1.00  0.00     0.200 A 
ATOM     73  F   UNL A   1      52.066  25.704  29.610  1.00  0.00    -0.200 F 
ATOM     74  F   UNL A   1      53.040  25.388  27.083  1.00  0.00    -0.200 F 
ENDBRANCH  50  64
BRANCH  51  75
ATOM     75  C   UNL A   1      39.538  28.828  29.367  1.00  0.00     0.064 A 
ATOM     76  C   UNL A   1      39.002  28.702  30.657  1.00  0.00     0.173 A 
ATOM     77  C   UNL A   1      38.690  29.283  28.349  1.00  0.00     0.173 A 
ATOM     78  F   UNL A   1      39.771  28.251  31.659  1.00  0.00    -0.203 F 
ATOM     79  C   UNL A   1      37.665  28.995  30.913  1.00  0.00     0.198 A 
ATOM     80  C   UNL A   1      37.358  29.602  28.612  1.00  0.00     0.198 A 
ATOM     81  F   UNL A   1      39.156  29.428  27.100  1.00  0.00    -0.203 F 
ATOM     82  F   UNL A   1      37.167  28.819  32.145  1.00  0.00    -0.200 F 
ATOM     83  C   UNL A   1      36.845  29.449  29.891  1.00  0.00     0.200 A 
ATOM     84  F   UNL A   1      36.572  30.052  27.625  1.00  0.00    -0.200 F 
ATOM     85  F   UNL A   1      35.558  29.732  30.138  1.00  0.00    -0.200 F 
ENDBRANCH  51  75
BRANCH  63  86
ATOM     86  C   UNL A   1      45.413  32.551  29.251  1.00  0.00     0.064 A 
ATOM     87  C   UNL A   1      45.738  33.069  30.514  1.00  0.00     0.173 A 
ATOM     88  C   UNL A   1      45.361  33.442  28.168  1.00  0.00     0.173 A 
ATOM     89  F   UNL A   1      45.786  32.260  31.583  1.00  0.00    -0.203 F 
ATOM     90  C   UNL A   1      45.968  34.430  30.691  1.00  0.00     0.198 A 
ATOM     91  C   UNL A   1      45.620  34.798  28.344  1.00  0.00     0.198 A 
ATOM     92  F   UNL A   1      45.062  32.996  26.939  1.00  0.00    -0.203 F 
ATOM     93  F   UNL A   1      46.222  34.911  31.916  1.00  0.00    -0.200 F 
ATOM     94  C   UNL A   1      45.913  35.292  29.606  1.00  0.00     0.200 A 
ATOM     95  F   UNL A   1      45.578  35.628  27.292  1.00  0.00    -0.200 F 
ATOM     96  F   UNL A   1      46.132  36.603  29.779  1.00  0.00    -0.200 F 
ENDBRANCH  63  86
ENDBRANCH  37  38
ENDBRANCH  29  32
ENDBRANCH  27  28
ENDBRANCH  26  27
ENDBRANCH   1  26
TORSDOF 14
ENDMDL
MODEL 2
REMARK VINA RESULT:     -12.7      4.709      9.671
REMARK SMILES O=C(CCC(=O)Nc1ccc(C(=O)N2CCOCC2)cc1)NCCCNC(=O)c1ccc(-c2c3nc(c(-c4c(F)c(F)c(F)c(F)c4F)c4ccc([nH]4)c(-c4c(F)c(F)c(F)c(F)c4F)c4nc(c(-c5c(F)c(F)c(F)c(F)c5F)c5ccc2[nH]5)C=C4)C=C3)cc1
REMARK SMILES IDX 23 1 22 2 1 3 2 4 3 6 4 7 5 8 6 9 7 10 8 12 9 13 21 14 10 15
REMARK SMILES IDX 20 16 11 17 12 18 13 19 14 20 15 21 19 22 16 23 18 24 17 25
REMARK SMILES IDX 24 26 25 27 26 28 27 29 28 31 29 32 30 33 91 34 31 35 90 36
REMARK SMILES IDX 32 37 33 38 34 39 84 40 35 41 89 42 83 43 85 44 36 45 88 46
REMARK SMILES IDX 82 47 81 48 37 50 69 51 49 52 68 53 50 54 53 55 67 56 86 57
REMARK SMILES IDX 51 58 52 59 66 61 87 62 54 63 38 64 39 65 47 66 40 67 41 68
REMARK SMILES IDX 45 69 48 70 42 71 43 72 46 73 44 74 70 75 71 76 79 77 72 78
REMARK SMILES IDX 73 79 77 80 80 81 74 82 75 83 78 84 76 85 55 86 56 87 64 88
REMARK SMILES IDX 57 89 58 90 62 91 65 92 59 93 60 94 63 95 61 96
REMARK H PARENT 22 5 7 11 26 30 85 49 53 60
REMARK Flexibility Score: inf
ROOT
ATOM      1  C   UNL A   1      31.328  27.687  26.547  1.00  0.00     0.117 C 
ENDROOT
BRANCH   1   2
ATOM      2  N   UNL A   1      32.401  26.807  26.139  1.00  0.00    -0.356 N 
ATOM      3  O   UNL A   1      31.403  24.872  26.883  1.00  0.00    -0.275 OA
ATOM      4  C   UNL A   1      32.294  25.438  26.257  1.00  0.00     0.220 C 
ATOM      5  H   UNL A   1      33.226  27.194  25.769  1.00  0.00     0.163 HD
BRANCH   4   6
ATOM      6  C   UNL A   1      33.353  24.670  25.498  1.00  0.00     0.110 C 
BRANCH   6   7
ATOM      7  C   UNL A   1      32.843  23.977  24.237  1.00  0.00     0.110 C 
BRANCH   7   8
ATOM      8  C   UNL A   1      33.198  24.685  22.947  1.00  0.00     0.224 C 
ATOM      9  O   UNL A   1      34.256  24.376  22.381  1.00  0.00    -0.275 OA
ATOM     10  N   UNL A   1      32.484  25.700  22.385  1.00  0.00    -0.326 N 
ATOM     11  H   UNL A   1      32.760  25.898  21.460  1.00  0.00     0.169 HD
BRANCH  10  12
ATOM     12  C   UNL A   1      31.440  26.531  22.835  1.00  0.00     0.041 A 
ATOM     13  C   UNL A   1      30.279  25.883  23.300  1.00  0.00     0.027 A 
ATOM     14  C   UNL A   1      31.416  27.913  22.724  1.00  0.00     0.027 A 
ATOM     15  C   UNL A   1      29.074  26.588  23.457  1.00  0.00     0.016 A 
ATOM     16  C   UNL A   1      30.221  28.617  22.869  1.00  0.00     0.016 A 
ATOM     17  C   UNL A   1      29.032  27.951  23.165  1.00  0.00     0.040 A 
BRANCH  17  18
ATOM     18  C   UNL A   1      27.766  28.727  23.251  1.00  0.00     0.254 C 
ATOM     19  O   UNL A   1      26.812  28.275  23.873  1.00  0.00    -0.269 OA
ATOM     20  N   UNL A   1      27.807  30.006  22.726  1.00  0.00    -0.334 N 
ATOM     21  C   UNL A   1      28.028  30.290  21.307  1.00  0.00     0.148 C 
ATOM     22  C   UNL A   1      27.319  31.135  23.501  1.00  0.00     0.148 C 
ATOM     23  C   UNL A   1      28.868  31.557  21.115  1.00  0.00     0.181 C 
ATOM     24  C   UNL A   1      28.249  32.333  23.269  1.00  0.00     0.181 C 
ATOM     25  O   UNL A   1      28.329  32.658  21.869  1.00  0.00    -0.378 OA
ENDBRANCH  17  18
ENDBRANCH  10  12
ENDBRANCH   7   8
ENDBRANCH   6   7
ENDBRANCH   4   6
ENDBRANCH   1   2
BRANCH   1  26
ATOM     26  C   UNL A   1      31.773  28.951  27.250  1.00  0.00     0.042 C 
BRANCH  26  27
ATOM     27  C   UNL A   1      32.556  29.923  26.384  1.00  0.00     0.118 C 
BRANCH  27  28
ATOM     28  N   UNL A   1      32.424  31.328  26.745  1.00  0.00    -0.352 N 
ATOM     29  C   UNL A   1      33.343  32.141  27.377  1.00  0.00     0.251 C 
ATOM     30  H   UNL A   1      31.570  31.753  26.507  1.00  0.00     0.163 HD
ATOM     31  O   UNL A   1      33.056  33.308  27.635  1.00  0.00    -0.269 OA
BRANCH  29  32
ATOM     32  C   UNL A   1      34.647  31.581  27.806  1.00  0.00     0.039 A 
ATOM     33  C   UNL A   1      35.724  32.446  28.005  1.00  0.00     0.014 A 
ATOM     34  C   UNL A   1      34.784  30.222  28.100  1.00  0.00     0.014 A 
ATOM     35  C   UNL A   1      36.895  31.969  28.600  1.00  0.00     0.010 A 
ATOM     36  C   UNL A   1      35.901  29.776  28.797  1.00  0.00     0.010 A 
ATOM     37  C   UNL A   1      36.970  30.643  29.061  1.00  0.00    -0.014 A 
BRANCH  37  38
ATOM     38  C   UNL A   1      38.145  30.157  29.833  1.00  0.00     0.031 A 
ATOM     39  C   UNL A   1      38.359  30.589  31.259  1.00  0.00     0.074 A 
ATOM     40  C   UNL A   1      39.068  29.383  29.225  1.00  0.00     0.049 A 
ATOM     41  N   UNL A   1      39.338  30.293  32.076  1.00  0.00    -0.248 NA
ATOM     42  C   UNL A   1      37.363  31.509  31.830  1.00  0.00     0.031 C 
ATOM     43  C   UNL A   1      39.039  28.970  27.820  1.00  0.00     0.029 A 
ATOM     44  N   UNL A   1      40.215  28.806  29.713  1.00  0.00    -0.354 N 
ATOM     45  C   UNL A   1      39.087  31.006  33.242  1.00  0.00     0.074 A 
ATOM     46  C   UNL A   1      37.902  31.800  33.004  1.00  0.00     0.031 C 
ATOM     47  C   UNL A   1      40.088  28.170  27.572  1.00  0.00     0.029 A 
ATOM     48  C   UNL A   1      40.881  28.035  28.790  1.00  0.00     0.049 A 
ATOM     49  H   UNL A   1      40.531  28.932  30.636  1.00  0.00     0.167 HD
ATOM     50  C   UNL A   1      39.760  30.977  34.417  1.00  0.00     0.037 A 
ATOM     51  C   UNL A   1      41.996  27.290  28.917  1.00  0.00     0.037 A 
ATOM     52  C   UNL A   1      40.910  30.153  34.672  1.00  0.00     0.049 A 
ATOM     53  C   UNL A   1      42.685  27.219  30.251  1.00  0.00     0.074 A 
ATOM     54  C   UNL A   1      41.618  29.996  35.851  1.00  0.00     0.029 A 
ATOM     55  N   UNL A   1      41.519  29.337  33.729  1.00  0.00    -0.354 N 
ATOM     56  N   UNL A   1      42.384  27.828  31.372  1.00  0.00    -0.248 NA
ATOM     57  C   UNL A   1      43.859  26.340  30.342  1.00  0.00     0.031 C 
ATOM     58  C   UNL A   1      42.674  29.108  35.613  1.00  0.00     0.029 A 
ATOM     59  C   UNL A   1      42.598  28.679  34.298  1.00  0.00     0.049 A 
ATOM     60  H   UNL A   1      41.228  29.241  32.794  1.00  0.00     0.167 HD
ATOM     61  C   UNL A   1      43.311  27.388  32.305  1.00  0.00     0.074 A 
ATOM     62  C   UNL A   1      44.174  26.444  31.625  1.00  0.00     0.031 C 
ATOM     63  C   UNL A   1      43.441  27.737  33.609  1.00  0.00     0.037 A 
BRANCH  50  64
ATOM     64  C   UNL A   1      39.248  31.849  35.527  1.00  0.00     0.064 A 
ATOM     65  C   UNL A   1      38.378  31.351  36.510  1.00  0.00     0.173 A 
ATOM     66  C   UNL A   1      39.647  33.190  35.625  1.00  0.00     0.173 A 
ATOM     67  F   UNL A   1      37.955  30.078  36.455  1.00  0.00    -0.203 F 
ATOM     68  C   UNL A   1      37.901  32.170  37.528  1.00  0.00     0.198 A 
ATOM     69  C   UNL A   1      39.192  33.999  36.663  1.00  0.00     0.198 A 
ATOM     70  F   UNL A   1      40.479  33.717  34.716  1.00  0.00    -0.203 F 
ATOM     71  F   UNL A   1      37.027  31.686  38.421  1.00  0.00    -0.200 F 
ATOM     72  C   UNL A   1      38.312  33.492  37.608  1.00  0.00     0.200 A 
ATOM     73  F   UNL A   1      39.599  35.273  36.747  1.00  0.00    -0.200 F 
ATOM     74  F   UNL A   1      37.855  34.279  38.591  1.00  0.00    -0.200 F 
ENDBRANCH  50  64
BRANCH  51  75
ATOM     75  C   UNL A   1      42.496  26.497  27.763  1.00  0.00     0.064 A 
ATOM     76  C   UNL A   1      42.001  25.208  27.512  1.00  0.00     0.173 A 
ATOM     77  C   UNL A   1      43.473  27.001  26.895  1.00  0.00     0.173 A 
ATOM     78  F   UNL A   1      41.078  24.677  28.328  1.00  0.00    -0.203 F 
ATOM     79  C   UNL A   1      42.484  24.445  26.454  1.00  0.00     0.198 A 
ATOM     80  C   UNL A   1      43.938  26.246  25.819  1.00  0.00     0.198 A 
ATOM     81  F   UNL A   1      43.972  28.231  27.087  1.00  0.00    -0.203 F 
ATOM     82  F   UNL A   1      42.029  23.198  26.267  1.00  0.00    -0.200 F 
ATOM     83  C   UNL A   1      43.449  24.966  25.605  1.00  0.00     0.200 A 
ATOM     84  F   UNL A   1      44.861  26.757  24.994  1.00  0.00    -0.200 F 
ATOM     85  F   UNL A   1      43.914  24.231  24.584  1.00  0.00    -0.200 F 
ENDBRANCH  51  75
BRANCH  63  86
ATOM     86  C   UNL A   1      44.531  27.065  34.391  1.00  0.00     0.064 A 
ATOM     87  C   UNL A   1      45.811  27.628  34.502  1.00  0.00     0.173 A 
ATOM     88  C   UNL A   1      44.288  25.850  35.048  1.00  0.00     0.173 A 
ATOM     89  F   UNL A   1      46.098  28.782  33.879  1.00  0.00    -0.203 F 
ATOM     90  C   UNL A   1      46.817  26.982  35.214  1.00  0.00     0.198 A 
ATOM     91  C   UNL A   1      45.288  25.221  35.783  1.00  0.00     0.198 A 
ATOM     92  F   UNL A   1      43.078  25.274  34.979  1.00  0.00    -0.203 F 
ATOM     93  F   UNL A   1      48.049  27.510  35.259  1.00  0.00    -0.200 F 
ATOM     94  C   UNL A   1      46.554  25.782  35.856  1.00  0.00     0.200 A 
ATOM     95  F   UNL A   1      45.029  24.067  36.414  1.00  0.00    -0.200 F 
ATOM     96  F   UNL A   1      47.525  25.159  36.539  1.00  0.00    -0.200 F 
ENDBRANCH  63  86
ENDBRANCH  37  38
ENDBRANCH  29  32
ENDBRANCH  27  28
ENDBRANCH  26  27
ENDBRANCH   1  26
TORSDOF 14
ENDMDL
MODEL 3
REMARK VINA RESULT:     -12.6      0.713      2.075
REMARK SMILES O=C(CCC(=O)Nc1ccc(C(=O)N2CCOCC2)cc1)NCCCNC(=O)c1ccc(-c2c3nc(c(-c4c(F)c(F)c(F)c(F)c4F)c4ccc([nH]4)c(-c4c(F)c(F)c(F)c(F)c4F)c4nc(c(-c5c(F)c(F)c(F)c(F)c5F)c5ccc2[nH]5)C=C4)C=C3)cc1
REMARK SMILES IDX 23 1 22 2 1 3 2 4 3 6 4 7 5 8 6 9 7 10 8 12 9 13 21 14 10 15
REMARK SMILES IDX 20 16 11 17 12 18 13 19 14 20 15 21 19 22 16 23 18 24 17 25
REMARK SMILES IDX 24 26 25 27 26 28 27 29 28 31 29 32 30 33 91 34 31 35 90 36
REMARK SMILES IDX 32 37 33 38 34 39 84 40 35 41 89 42 83 43 85 44 36 45 88 46
REMARK SMILES IDX 82 47 81 48 37 50 69 51 49 52 68 53 50 54 53 55 67 56 86 57
REMARK SMILES IDX 51 58 52 59 66 61 87 62 54 63 38 64 39 65 47 66 40 67 41 68
REMARK SMILES IDX 45 69 48 70 42 71 43 72 46 73 44 74 70 75 71 76 79 77 72 78
REMARK SMILES IDX 73 79 77 80 80 81 74 82 75 83 78 84 76 85 55 86 56 87 64 88
REMARK SMILES IDX 57 89 58 90 62 91 65 92 59 93 60 94 63 95 61 96
REMARK H PARENT 22 5 7 11 26 30 85 49 53 60
REMARK Flexibility Score: inf
ROOT
ATOM      1  C   UNL A   1      37.360  21.812  25.038  1.00  0.00     0.117 C 
ENDROOT
BRANCH   1   2
ATOM      2  N   UNL A   1      36.211  21.983  25.900  1.00  0.00    -0.356 N 
ATOM      3  O   UNL A   1      35.859  24.195  25.375  1.00  0.00    -0.275 OA
ATOM      4  C   UNL A   1      35.488  23.157  25.915  1.00  0.00     0.220 C 
ATOM      5  H   UNL A   1      35.938  21.244  26.490  1.00  0.00     0.163 HD
BRANCH   4   6
ATOM      6  C   UNL A   1      34.155  23.049  26.619  1.00  0.00     0.110 C 
BRANCH   6   7
ATOM      7  C   UNL A   1      33.056  23.921  26.016  1.00  0.00     0.110 C 
BRANCH   7   8
ATOM      8  C   UNL A   1      31.780  23.971  26.829  1.00  0.00     0.224 C 
ATOM      9  O   UNL A   1      31.442  22.957  27.453  1.00  0.00    -0.275 OA
ATOM     10  N   UNL A   1      30.918  25.025  26.872  1.00  0.00    -0.326 N 
ATOM     11  H   UNL A   1      30.255  24.949  27.597  1.00  0.00     0.169 HD
BRANCH  10  12
ATOM     12  C   UNL A   1      30.764  26.199  26.110  1.00  0.00     0.041 A 
ATOM     13  C   UNL A   1      30.014  26.084  24.924  1.00  0.00     0.027 A 
ATOM     14  C   UNL A   1      31.401  27.405  26.364  1.00  0.00     0.027 A 
ATOM     15  C   UNL A   1      30.071  27.080  23.935  1.00  0.00     0.016 A 
ATOM     16  C   UNL A   1      31.469  28.393  25.384  1.00  0.00     0.016 A 
ATOM     17  C   UNL A   1      30.866  28.207  24.140  1.00  0.00     0.040 A 
BRANCH  17  18
ATOM     18  C   UNL A   1      31.012  29.258  23.096  1.00  0.00     0.254 C 
ATOM     19  O   UNL A   1      32.026  29.301  22.410  1.00  0.00    -0.269 OA
ATOM     20  N   UNL A   1      29.897  30.045  22.874  1.00  0.00    -0.334 N 
ATOM     21  C   UNL A   1      29.334  30.949  23.878  1.00  0.00     0.148 C 
ATOM     22  C   UNL A   1      29.404  30.259  21.523  1.00  0.00     0.148 C 
ATOM     23  C   UNL A   1      27.804  30.991  23.797  1.00  0.00     0.181 C 
ATOM     24  C   UNL A   1      27.871  30.243  21.547  1.00  0.00     0.181 C 
ATOM     25  O   UNL A   1      27.360  31.240  22.451  1.00  0.00    -0.378 OA
ENDBRANCH  17  18
ENDBRANCH  10  12
ENDBRANCH   7   8
ENDBRANCH   6   7
ENDBRANCH   4   6
ENDBRANCH   1   2
BRANCH   1  26
ATOM     26  C   UNL A   1      38.045  20.468  25.148  1.00  0.00     0.042 C 
BRANCH  26  27
ATOM     27  C   UNL A   1      39.179  20.408  26.157  1.00  0.00     0.118 C 
BRANCH  27  28
ATOM     28  N   UNL A   1      40.117  19.308  25.980  1.00  0.00    -0.352 N 
ATOM     29  C   UNL A   1      41.493  19.327  26.090  1.00  0.00     0.251 C 
ATOM     30  H   UNL A   1      39.718  18.438  25.753  1.00  0.00     0.163 HD
ATOM     31  O   UNL A   1      42.141  18.305  25.877  1.00  0.00    -0.269 OA
BRANCH  29  32
ATOM     32  C   UNL A   1      42.187  20.601  26.395  1.00  0.00     0.039 A 
ATOM     33  C   UNL A   1      42.555  21.441  25.342  1.00  0.00     0.014 A 
ATOM     34  C   UNL A   1      42.392  21.010  27.714  1.00  0.00     0.014 A 
ATOM     35  C   UNL A   1      43.023  22.729  25.616  1.00  0.00     0.010 A 
ATOM     36  C   UNL A   1      42.745  22.328  27.982  1.00  0.00     0.010 A 
ATOM     37  C   UNL A   1      43.061  23.208  26.937  1.00  0.00    -0.014 A 
BRANCH  37  38
ATOM     38  C   UNL A   1      43.409  24.622  27.239  1.00  0.00     0.031 A 
ATOM     39  C   UNL A   1      44.794  25.146  26.968  1.00  0.00     0.074 A 
ATOM     40  C   UNL A   1      42.497  25.421  27.832  1.00  0.00     0.049 A 
ATOM     41  N   UNL A   1      45.288  26.338  27.195  1.00  0.00    -0.248 NA
ATOM     42  C   UNL A   1      45.766  24.195  26.408  1.00  0.00     0.031 C 
ATOM     43  C   UNL A   1      41.151  25.016  28.241  1.00  0.00     0.029 A 
ATOM     44  N   UNL A   1      42.567  26.743  28.195  1.00  0.00    -0.354 N 
ATOM     45  C   UNL A   1      46.626  26.270  26.827  1.00  0.00     0.074 A 
ATOM     46  C   UNL A   1      46.884  24.904  26.426  1.00  0.00     0.031 C 
ATOM     47  C   UNL A   1      40.507  26.076  28.754  1.00  0.00     0.029 A 
ATOM     48  C   UNL A   1      41.402  27.229  28.738  1.00  0.00     0.049 A 
ATOM     49  H   UNL A   1      43.376  27.293  28.080  1.00  0.00     0.167 HD
ATOM     50  C   UNL A   1      47.549  27.260  26.790  1.00  0.00     0.037 A 
ATOM     51  C   UNL A   1      41.084  28.468  29.159  1.00  0.00     0.037 A 
ATOM     52  C   UNL A   1      47.282  28.629  27.142  1.00  0.00     0.049 A 
ATOM     53  C   UNL A   1      42.104  29.567  29.043  1.00  0.00     0.074 A 
ATOM     54  C   UNL A   1      48.128  29.722  27.069  1.00  0.00     0.029 A 
ATOM     55  N   UNL A   1      46.069  29.095  27.629  1.00  0.00    -0.354 N 
ATOM     56  N   UNL A   1      43.339  29.509  28.608  1.00  0.00    -0.248 NA
ATOM     57  C   UNL A   1      41.678  30.911  29.460  1.00  0.00     0.031 C 
ATOM     58  C   UNL A   1      47.436  30.844  27.541  1.00  0.00     0.029 A 
ATOM     59  C   UNL A   1      46.146  30.458  27.867  1.00  0.00     0.049 A 
ATOM     60  H   UNL A   1      45.272  28.539  27.783  1.00  0.00     0.167 HD
ATOM     61  C   UNL A   1      43.828  30.805  28.674  1.00  0.00     0.074 A 
ATOM     62  C   UNL A   1      42.749  31.635  29.170  1.00  0.00     0.031 C 
ATOM     63  C   UNL A   1      45.061  31.269  28.354  1.00  0.00     0.037 A 
BRANCH  50  64
ATOM     64  C   UNL A   1      48.931  26.899  26.329  1.00  0.00     0.064 A 
ATOM     65  C   UNL A   1      49.903  26.426  27.225  1.00  0.00     0.173 A 
ATOM     66  C   UNL A   1      49.283  27.003  24.975  1.00  0.00     0.173 A 
ATOM     67  F   UNL A   1      49.621  26.321  28.533  1.00  0.00    -0.203 F 
ATOM     68  C   UNL A   1      51.185  26.105  26.789  1.00  0.00     0.198 A 
ATOM     69  C   UNL A   1      50.557  26.650  24.538  1.00  0.00     0.198 A 
ATOM     70  F   UNL A   1      48.392  27.445  24.077  1.00  0.00    -0.203 F 
ATOM     71  F   UNL A   1      52.112  25.710  27.673  1.00  0.00    -0.200 F 
ATOM     72  C   UNL A   1      51.510  26.211  25.445  1.00  0.00     0.200 A 
ATOM     73  F   UNL A   1      50.867  26.742  23.237  1.00  0.00    -0.200 F 
ATOM     74  F   UNL A   1      52.743  25.897  25.026  1.00  0.00    -0.200 F 
ENDBRANCH  50  64
BRANCH  51  75
ATOM     75  C   UNL A   1      39.718  28.754  29.669  1.00  0.00     0.064 A 
ATOM     76  C   UNL A   1      38.702  29.176  28.798  1.00  0.00     0.173 A 
ATOM     77  C   UNL A   1      39.399  28.618  31.027  1.00  0.00     0.173 A 
ATOM     78  F   UNL A   1      38.966  29.339  27.493  1.00  0.00    -0.203 F 
ATOM     79  C   UNL A   1      37.428  29.476  29.270  1.00  0.00     0.198 A 
ATOM     80  C   UNL A   1      38.115  28.894  31.495  1.00  0.00     0.198 A 
ATOM     81  F   UNL A   1      40.332  28.210  31.899  1.00  0.00    -0.203 F 
ATOM     82  F   UNL A   1      36.490  29.924  28.424  1.00  0.00    -0.200 F 
ATOM     83  C   UNL A   1      37.134  29.331  30.618  1.00  0.00     0.200 A 
ATOM     84  F   UNL A   1      37.830  28.740  32.795  1.00  0.00    -0.200 F 
ATOM     85  F   UNL A   1      35.905  29.619  31.072  1.00  0.00    -0.200 F 
ENDBRANCH  51  75
BRANCH  63  86
ATOM     86  C   UNL A   1      45.295  32.744  28.498  1.00  0.00     0.064 A 
ATOM     87  C   UNL A   1      44.986  33.643  27.466  1.00  0.00     0.173 A 
ATOM     88  C   UNL A   1      45.820  33.266  29.690  1.00  0.00     0.173 A 
ATOM     89  F   UNL A   1      44.495  33.191  26.302  1.00  0.00    -0.203 F 
ATOM     90  C   UNL A   1      45.228  35.006  27.609  1.00  0.00     0.198 A 
ATOM     91  C   UNL A   1      46.034  34.633  29.839  1.00  0.00     0.198 A 
ATOM     92  F   UNL A   1      46.125  32.450  30.710  1.00  0.00    -0.203 F 
ATOM     93  F   UNL A   1      44.979  35.839  26.589  1.00  0.00    -0.200 F 
ATOM     94  C   UNL A   1      45.748  35.500  28.796  1.00  0.00     0.200 A 
ATOM     95  F   UNL A   1      46.524  35.111  30.992  1.00  0.00    -0.200 F 
ATOM     96  F   UNL A   1      45.983  36.813  28.931  1.00  0.00    -0.200 F 
ENDBRANCH  63  86
ENDBRANCH  37  38
ENDBRANCH  29  32
ENDBRANCH  27  28
ENDBRANCH  26  27
ENDBRANCH   1  26
TORSDOF 14
ENDMDL
