MODEL 1
REMARK VINA RESULT:     -12.2      0.000      0.000
REMARK SMILES C[NH2+]C[C@H]1CCCN(c2ccc(C(=O)NCCCNC(=O)c3ccc(-c4c5nc(c(-c6c(F)c(F)c(F)c(F)c6F)c6ccc([nH]6)c(-c6c(F)c(F)c(F)c(F)c6F)c6nc(c(-c7c(F)c(F)c(F)c(F)c7F)c7ccc4[nH]7)C=C6)C=C5)cc3)c(F)c2F)C1
REMARK SMILES IDX 16 1 15 2 13 3 14 4 12 6 9 7 10 8 87 9 11 10 85 11 88 12
REMARK SMILES IDX 86 13 8 14 4 15 5 16 89 17 6 18 7 19 3 20 2 21 1 22 17 25
REMARK SMILES IDX 18 26 19 27 20 28 21 30 22 31 23 32 84 33 24 34 83 35 25 36
REMARK SMILES IDX 26 37 27 38 77 39 28 40 82 41 76 42 78 43 29 44 81 45 75 46
REMARK SMILES IDX 74 47 30 49 62 50 42 51 61 52 43 53 46 54 60 55 79 56 44 57
REMARK SMILES IDX 45 58 59 60 80 61 47 62 31 63 32 64 40 65 33 66 34 67 38 68
REMARK SMILES IDX 41 69 35 70 36 71 39 72 37 73 63 74 64 75 72 76 65 77 66 78
REMARK SMILES IDX 70 79 73 80 67 81 68 82 71 83 69 84 48 85 49 86 57 87 50 88
REMARK SMILES IDX 51 89 55 90 58 91 52 92 53 93 56 94 54 95
REMARK H PARENT 15 5 2 23 2 24 19 29 78 48 46 59
REMARK Flexibility Score: inf
ROOT
ATOM      1  C   UNL A   1      31.693  30.749  26.490  1.00  0.00     0.118 C 
ENDROOT
BRANCH   1   2
ATOM      2  N   UNL A   1      32.997  30.292  26.930  1.00  0.00    -0.352 N 
ATOM      3  C   UNL A   1      33.611  29.072  26.992  1.00  0.00     0.254 C 
ATOM      4  O   UNL A   1      34.764  29.089  27.434  1.00  0.00    -0.269 OA
ATOM      5  H   UNL A   1      33.568  31.024  27.257  1.00  0.00     0.163 HD
BRANCH   3   6
ATOM      6  C   UNL A   1      33.050  27.764  26.546  1.00  0.00     0.078 A 
ATOM      7  C   UNL A   1      32.229  25.235  25.472  1.00  0.00     0.076 A 
ATOM      8  C   UNL A   1      33.534  25.700  25.303  1.00  0.00     0.030 A 
ATOM      9  C   UNL A   1      31.368  26.043  26.226  1.00  0.00     0.182 A 
ATOM     10  C   UNL A   1      33.929  26.947  25.806  1.00  0.00     0.019 A 
ATOM     11  C   UNL A   1      31.780  27.255  26.788  1.00  0.00     0.173 A 
ATOM     12  F   UNL A   1      30.109  25.641  26.464  1.00  0.00    -0.201 F 
ATOM     13  F   UNL A   1      30.908  27.846  27.611  1.00  0.00    -0.203 F 
BRANCH   7  14
ATOM     14  N   UNL A   1      31.846  24.034  24.905  1.00  0.00    -0.369 N 
ATOM     15  C   UNL A   1      33.222  21.975  24.765  1.00  0.00     0.064 C 
ATOM     16  C   UNL A   1      32.798  21.864  23.290  1.00  0.00     0.013 C 
ATOM     17  C   UNL A   1      32.168  22.768  25.559  1.00  0.00     0.126 C 
ATOM     18  C   UNL A   1      32.514  23.249  22.698  1.00  0.00     0.022 C 
ATOM     19  C   UNL A   1      31.447  23.991  23.502  1.00  0.00     0.116 C 
BRANCH  15  20
ATOM     20  C   UNL A   1      33.433  20.613  25.457  1.00  0.00     0.265 C 
BRANCH  20  21
ATOM     21  N   UNL A   1      34.675  19.902  25.151  1.00  0.00    -0.348 N 
ATOM     22  C   UNL A   1      35.849  20.760  25.159  1.00  0.00     0.330 C 
ATOM     23  H   UNL A   1      34.805  19.166  25.845  1.00  0.00     0.346 HD
ATOM     24  H   UNL A   1      34.582  19.528  24.206  1.00  0.00     0.346 HD
ENDBRANCH  20  21
ENDBRANCH  15  20
ENDBRANCH   7  14
ENDBRANCH   3   6
ENDBRANCH   1   2
BRANCH   1  25
ATOM     25  C   UNL A   1      31.465  32.214  26.868  1.00  0.00     0.042 C 
BRANCH  25  26
ATOM     26  C   UNL A   1      32.764  33.011  26.977  1.00  0.00     0.118 C 
BRANCH  26  27
ATOM     27  N   UNL A   1      32.551  34.302  27.622  1.00  0.00    -0.352 N 
ATOM     28  C   UNL A   1      33.081  34.827  28.771  1.00  0.00     0.251 C 
ATOM     29  H   UNL A   1      31.921  34.895  27.152  1.00  0.00     0.163 HD
ATOM     30  O   UNL A   1      32.577  35.832  29.263  1.00  0.00    -0.269 OA
BRANCH  28  31
ATOM     31  C   UNL A   1      34.254  34.205  29.418  1.00  0.00     0.039 A 
ATOM     32  C   UNL A   1      34.042  33.320  30.481  1.00  0.00     0.014 A 
ATOM     33  C   UNL A   1      35.555  34.538  29.034  1.00  0.00     0.014 A 
ATOM     34  C   UNL A   1      35.133  32.742  31.130  1.00  0.00     0.010 A 
ATOM     35  C   UNL A   1      36.639  33.899  29.627  1.00  0.00     0.010 A 
ATOM     36  C   UNL A   1      36.440  33.007  30.690  1.00  0.00    -0.014 A 
BRANCH  36  37
ATOM     37  C   UNL A   1      37.612  32.375  31.343  1.00  0.00     0.031 A 
ATOM     38  C   UNL A   1      38.351  31.264  30.650  1.00  0.00     0.074 A 
ATOM     39  C   UNL A   1      37.971  32.766  32.581  1.00  0.00     0.049 A 
ATOM     40  N   UNL A   1      39.348  30.537  31.085  1.00  0.00    -0.248 NA
ATOM     41  C   UNL A   1      37.891  30.899  29.301  1.00  0.00     0.031 C 
ATOM     42  C   UNL A   1      37.299  33.802  33.364  1.00  0.00     0.029 A 
ATOM     43  N   UNL A   1      38.985  32.335  33.399  1.00  0.00    -0.354 N 
ATOM     44  C   UNL A   1      39.620  29.625  30.074  1.00  0.00     0.074 A 
ATOM     45  C   UNL A   1      38.650  29.848  29.027  1.00  0.00     0.031 C 
ATOM     46  C   UNL A   1      37.937  33.952  34.535  1.00  0.00     0.029 A 
ATOM     47  C   UNL A   1      39.037  32.994  34.603  1.00  0.00     0.049 A 
ATOM     48  H   UNL A   1      39.616  31.622  33.146  1.00  0.00     0.167 HD
ATOM     49  C   UNL A   1      40.612  28.705  30.016  1.00  0.00     0.037 A 
ATOM     50  C   UNL A   1      39.875  32.838  35.646  1.00  0.00     0.037 A 
ATOM     51  C   UNL A   1      41.597  28.519  31.048  1.00  0.00     0.049 A 
ATOM     52  C   UNL A   1      40.968  31.810  35.555  1.00  0.00     0.074 A 
ATOM     53  C   UNL A   1      42.679  27.657  31.059  1.00  0.00     0.029 A 
ATOM     54  N   UNL A   1      41.622  29.212  32.250  1.00  0.00    -0.354 N 
ATOM     55  N   UNL A   1      41.250  30.991  34.571  1.00  0.00    -0.248 NA
ATOM     56  C   UNL A   1      41.860  31.682  36.715  1.00  0.00     0.031 C 
ATOM     57  C   UNL A   1      43.332  27.795  32.286  1.00  0.00     0.029 A 
ATOM     58  C   UNL A   1      42.690  28.781  33.020  1.00  0.00     0.049 A 
ATOM     59  H   UNL A   1      40.977  29.907  32.516  1.00  0.00     0.167 HD
ATOM     60  C   UNL A   1      42.361  30.267  34.981  1.00  0.00     0.074 A 
ATOM     61  C   UNL A   1      42.712  30.755  36.299  1.00  0.00     0.031 C 
ATOM     62  C   UNL A   1      43.027  29.284  34.327  1.00  0.00     0.037 A 
BRANCH  49  63
ATOM     63  C   UNL A   1      40.701  27.841  28.792  1.00  0.00     0.064 A 
ATOM     64  C   UNL A   1      41.478  28.238  27.693  1.00  0.00     0.173 A 
ATOM     65  C   UNL A   1      39.956  26.658  28.675  1.00  0.00     0.173 A 
ATOM     66  F   UNL A   1      42.205  29.364  27.749  1.00  0.00    -0.203 F 
ATOM     67  C   UNL A   1      41.496  27.488  26.519  1.00  0.00     0.198 A 
ATOM     68  C   UNL A   1      40.000  25.895  27.511  1.00  0.00     0.198 A 
ATOM     69  F   UNL A   1      39.205  26.227  29.700  1.00  0.00    -0.203 F 
ATOM     70  F   UNL A   1      42.218  27.905  25.470  1.00  0.00    -0.200 F 
ATOM     71  C   UNL A   1      40.760  26.316  26.431  1.00  0.00     0.200 A 
ATOM     72  F   UNL A   1      39.308  24.749  27.436  1.00  0.00    -0.200 F 
ATOM     73  F   UNL A   1      40.785  25.591  25.303  1.00  0.00    -0.200 F 
ENDBRANCH  49  63
BRANCH  50  74
ATOM     74  C   UNL A   1      39.729  33.710  36.840  1.00  0.00     0.064 A 
ATOM     75  C   UNL A   1      38.926  33.336  37.928  1.00  0.00     0.173 A 
ATOM     76  C   UNL A   1      40.363  34.960  36.897  1.00  0.00     0.173 A 
ATOM     77  F   UNL A   1      38.292  32.154  37.921  1.00  0.00    -0.203 F 
ATOM     78  C   UNL A   1      38.747  34.188  39.017  1.00  0.00     0.198 A 
ATOM     79  C   UNL A   1      40.205  35.797  37.999  1.00  0.00     0.198 A 
ATOM     80  F   UNL A   1      41.155  35.354  35.890  1.00  0.00    -0.203 F 
ATOM     81  F   UNL A   1      37.944  33.822  40.026  1.00  0.00    -0.200 F 
ATOM     82  C   UNL A   1      39.390  35.416  39.054  1.00  0.00     0.200 A 
ATOM     83  F   UNL A   1      40.847  36.973  38.041  1.00  0.00    -0.200 F 
ATOM     84  F   UNL A   1      39.225  36.229  40.105  1.00  0.00    -0.200 F 
ENDBRANCH  50  74
BRANCH  62  85
ATOM     85  C   UNL A   1      44.215  28.674  35.010  1.00  0.00     0.064 A 
ATOM     86  C   UNL A   1      45.504  29.174  34.773  1.00  0.00     0.173 A 
ATOM     87  C   UNL A   1      44.086  27.537  35.820  1.00  0.00     0.173 A 
ATOM     88  F   UNL A   1      45.680  30.254  33.996  1.00  0.00    -0.203 F 
ATOM     89  C   UNL A   1      46.625  28.544  35.306  1.00  0.00     0.198 A 
ATOM     90  C   UNL A   1      45.208  26.928  36.377  1.00  0.00     0.198 A 
ATOM     91  F   UNL A   1      42.873  27.030  36.084  1.00  0.00    -0.203 F 
ATOM     92  F   UNL A   1      47.850  29.012  35.031  1.00  0.00    -0.200 F 
ATOM     93  C   UNL A   1      46.475  27.423  36.109  1.00  0.00     0.200 A 
ATOM     94  F   UNL A   1      45.060  25.858  37.171  1.00  0.00    -0.200 F 
ATOM     95  F   UNL A   1      47.554  26.820  36.627  1.00  0.00    -0.200 F 
ENDBRANCH  62  85
ENDBRANCH  36  37
ENDBRANCH  28  31
ENDBRANCH  26  27
ENDBRANCH  25  26
ENDBRANCH   1  25
TORSDOF 13
ENDMDL
MODEL 2
REMARK VINA RESULT:     -12.2      5.563     11.072
REMARK SMILES C[NH2+]C[C@H]1CCCN(c2ccc(C(=O)NCCCNC(=O)c3ccc(-c4c5nc(c(-c6c(F)c(F)c(F)c(F)c6F)c6ccc([nH]6)c(-c6c(F)c(F)c(F)c(F)c6F)c6nc(c(-c7c(F)c(F)c(F)c(F)c7F)c7ccc4[nH]7)C=C6)C=C5)cc3)c(F)c2F)C1
REMARK SMILES IDX 16 1 15 2 13 3 14 4 12 6 9 7 10 8 87 9 11 10 85 11 88 12
REMARK SMILES IDX 86 13 8 14 4 15 5 16 89 17 6 18 7 19 3 20 2 21 1 22 17 25
REMARK SMILES IDX 18 26 19 27 20 28 21 30 22 31 23 32 84 33 24 34 83 35 25 36
REMARK SMILES IDX 26 37 27 38 77 39 28 40 82 41 76 42 78 43 29 44 81 45 75 46
REMARK SMILES IDX 74 47 30 49 62 50 42 51 61 52 43 53 46 54 60 55 79 56 44 57
REMARK SMILES IDX 45 58 59 60 80 61 47 62 31 63 32 64 40 65 33 66 34 67 38 68
REMARK SMILES IDX 41 69 35 70 36 71 39 72 37 73 63 74 64 75 72 76 65 77 66 78
REMARK SMILES IDX 70 79 73 80 67 81 68 82 71 83 69 84 48 85 49 86 57 87 50 88
REMARK SMILES IDX 51 89 55 90 58 91 52 92 53 93 56 94 54 95
REMARK H PARENT 15 5 2 23 2 24 19 29 78 48 46 59
REMARK Flexibility Score: inf
ROOT
ATOM      1  C   UNL A   1      37.370  20.617  24.749  1.00  0.00     0.118 C 
ENDROOT
BRANCH   1   2
ATOM      2  N   UNL A   1      37.818  21.854  25.356  1.00  0.00    -0.352 N 
ATOM      3  C   UNL A   1      37.319  23.126  25.415  1.00  0.00     0.254 C 
ATOM      4  O   UNL A   1      38.008  23.929  26.051  1.00  0.00    -0.269 OA
ATOM      5  H   UNL A   1      38.674  21.758  25.832  1.00  0.00     0.163 HD
BRANCH   3   6
ATOM      6  C   UNL A   1      36.031  23.610  24.837  1.00  0.00     0.078 A 
ATOM      7  C   UNL A   1      33.469  24.620  24.040  1.00  0.00     0.076 A 
ATOM      8  C   UNL A   1      34.028  24.967  25.270  1.00  0.00     0.030 A 
ATOM      9  C   UNL A   1      34.241  23.799  23.209  1.00  0.00     0.182 A 
ATOM     10  C   UNL A   1      35.270  24.454  25.671  1.00  0.00     0.019 A 
ATOM     11  C   UNL A   1      35.509  23.342  23.577  1.00  0.00     0.173 A 
ATOM     12  F   UNL A   1      33.783  23.457  21.994  1.00  0.00    -0.201 F 
ATOM     13  F   UNL A   1      36.198  22.698  22.630  1.00  0.00    -0.203 F 
BRANCH   7  14
ATOM     14  N   UNL A   1      32.212  25.085  23.700  1.00  0.00    -0.369 N 
ATOM     15  C   UNL A   1      31.266  27.306  24.268  1.00  0.00     0.064 C 
ATOM     16  C   UNL A   1      29.981  26.580  24.702  1.00  0.00     0.013 C 
ATOM     17  C   UNL A   1      32.028  26.457  23.235  1.00  0.00     0.126 C 
ATOM     18  C   UNL A   1      30.293  25.165  25.199  1.00  0.00     0.022 C 
ATOM     19  C   UNL A   1      31.028  24.351  24.134  1.00  0.00     0.116 C 
BRANCH  15  20
ATOM     20  C   UNL A   1      31.020  28.705  23.667  1.00  0.00     0.265 C 
BRANCH  20  21
ATOM     21  N   UNL A   1      31.295  29.853  24.531  1.00  0.00    -0.348 N 
ATOM     22  C   UNL A   1      32.405  29.635  25.445  1.00  0.00     0.330 C 
ATOM     23  H   UNL A   1      31.514  30.656  23.941  1.00  0.00     0.346 HD
ATOM     24  H   UNL A   1      30.463  30.008  25.100  1.00  0.00     0.346 HD
ENDBRANCH  20  21
ENDBRANCH  15  20
ENDBRANCH   7  14
ENDBRANCH   3   6
ENDBRANCH   1   2
BRANCH   1  25
ATOM     25  C   UNL A   1      38.367  19.485  25.001  1.00  0.00     0.042 C 
BRANCH  25  26
ATOM     26  C   UNL A   1      39.309  19.770  26.169  1.00  0.00     0.118 C 
BRANCH  26  27
ATOM     27  N   UNL A   1      40.500  18.929  26.119  1.00  0.00    -0.352 N 
ATOM     28  C   UNL A   1      41.827  19.259  26.042  1.00  0.00     0.251 C 
ATOM     29  H   UNL A   1      40.319  17.961  26.146  1.00  0.00     0.163 HD
ATOM     30  O   UNL A   1      42.649  18.392  25.760  1.00  0.00    -0.269 OA
BRANCH  28  31
ATOM     31  C   UNL A   1      42.280  20.641  26.301  1.00  0.00     0.039 A 
ATOM     32  C   UNL A   1      42.444  21.055  27.627  1.00  0.00     0.014 A 
ATOM     33  C   UNL A   1      42.477  21.547  25.256  1.00  0.00     0.014 A 
ATOM     34  C   UNL A   1      42.842  22.364  27.901  1.00  0.00     0.010 A 
ATOM     35  C   UNL A   1      42.952  22.826  25.526  1.00  0.00     0.010 A 
ATOM     36  C   UNL A   1      43.125  23.252  26.851  1.00  0.00    -0.014 A 
BRANCH  36  37
ATOM     37  C   UNL A   1      43.584  24.637  27.120  1.00  0.00     0.031 A 
ATOM     38  C   UNL A   1      42.615  25.663  27.638  1.00  0.00     0.074 A 
ATOM     39  C   UNL A   1      44.857  24.978  26.843  1.00  0.00     0.049 A 
ATOM     40  N   UNL A   1      42.804  26.938  27.863  1.00  0.00    -0.248 NA
ATOM     41  C   UNL A   1      41.244  25.205  27.913  1.00  0.00     0.031 C 
ATOM     42  C   UNL A   1      45.870  24.075  26.295  1.00  0.00     0.029 A 
ATOM     43  N   UNL A   1      45.515  26.174  26.978  1.00  0.00    -0.354 N 
ATOM     44  C   UNL A   1      41.578  27.432  28.287  1.00  0.00     0.074 A 
ATOM     45  C   UNL A   1      40.636  26.337  28.235  1.00  0.00     0.031 C 
ATOM     46  C   UNL A   1      47.030  24.739  26.172  1.00  0.00     0.029 A 
ATOM     47  C   UNL A   1      46.831  26.124  26.591  1.00  0.00     0.049 A 
ATOM     48  H   UNL A   1      45.084  26.991  27.319  1.00  0.00     0.167 HD
ATOM     49  C   UNL A   1      41.276  28.682  28.711  1.00  0.00     0.037 A 
ATOM     50  C   UNL A   1      47.772  27.088  26.573  1.00  0.00     0.037 A 
ATOM     51  C   UNL A   1      42.231  29.754  28.797  1.00  0.00     0.049 A 
ATOM     52  C   UNL A   1      47.410  28.467  27.049  1.00  0.00     0.074 A 
ATOM     53  C   UNL A   1      42.040  31.040  29.271  1.00  0.00     0.029 A 
ATOM     54  N   UNL A   1      43.559  29.662  28.404  1.00  0.00    -0.354 N 
ATOM     55  N   UNL A   1      46.261  28.909  27.501  1.00  0.00    -0.248 NA
ATOM     56  C   UNL A   1      48.472  29.482  27.017  1.00  0.00     0.031 C 
ATOM     57  C   UNL A   1      43.240  31.740  29.122  1.00  0.00     0.029 A 
ATOM     58  C   UNL A   1      44.194  30.876  28.606  1.00  0.00     0.049 A 
ATOM     59  H   UNL A   1      43.985  28.854  28.038  1.00  0.00     0.167 HD
ATOM     60  C   UNL A   1      46.464  30.243  27.825  1.00  0.00     0.074 A 
ATOM     61  C   UNL A   1      47.853  30.535  27.534  1.00  0.00     0.031 C 
ATOM     62  C   UNL A   1      45.580  31.145  28.316  1.00  0.00     0.037 A 
BRANCH  49  63
ATOM     63  C   UNL A   1      39.863  28.960  29.136  1.00  0.00     0.064 A 
ATOM     64  C   UNL A   1      39.452  28.711  30.454  1.00  0.00     0.173 A 
ATOM     65  C   UNL A   1      38.896  29.401  28.220  1.00  0.00     0.173 A 
ATOM     66  F   UNL A   1      40.334  28.283  31.369  1.00  0.00    -0.203 F 
ATOM     67  C   UNL A   1      38.122  28.880  30.835  1.00  0.00     0.198 A 
ATOM     68  C   UNL A   1      37.574  29.599  28.612  1.00  0.00     0.198 A 
ATOM     69  F   UNL A   1      39.238  29.666  26.950  1.00  0.00    -0.203 F 
ATOM     70  F   UNL A   1      37.746  28.602  32.090  1.00  0.00    -0.200 F 
ATOM     71  C   UNL A   1      37.187  29.327  29.915  1.00  0.00     0.200 A 
ATOM     72  F   UNL A   1      36.676  30.055  27.727  1.00  0.00    -0.200 F 
ATOM     73  F   UNL A   1      35.909  29.498  30.285  1.00  0.00    -0.200 F 
ENDBRANCH  49  63
BRANCH  50  74
ATOM     74  C   UNL A   1      49.150  26.760  26.126  1.00  0.00     0.064 A 
ATOM     75  C   UNL A   1      50.113  26.263  27.017  1.00  0.00     0.173 A 
ATOM     76  C   UNL A   1      49.544  26.978  24.797  1.00  0.00     0.173 A 
ATOM     77  F   UNL A   1      49.792  26.043  28.300  1.00  0.00    -0.203 F 
ATOM     78  C   UNL A   1      51.421  26.016  26.601  1.00  0.00     0.198 A 
ATOM     79  C   UNL A   1      50.843  26.704  24.377  1.00  0.00     0.198 A 
ATOM     80  F   UNL A   1      48.654  27.435  23.904  1.00  0.00    -0.203 F 
ATOM     81  F   UNL A   1      52.331  25.578  27.481  1.00  0.00    -0.200 F 
ATOM     82  C   UNL A   1      51.783  26.233  25.280  1.00  0.00     0.200 A 
ATOM     83  F   UNL A   1      51.183  26.893  23.094  1.00  0.00    -0.200 F 
ATOM     84  F   UNL A   1      53.038  25.986  24.879  1.00  0.00    -0.200 F 
ENDBRANCH  50  74
BRANCH  62  85
ATOM     85  C   UNL A   1      46.079  32.533  28.587  1.00  0.00     0.064 A 
ATOM     86  C   UNL A   1      46.046  33.509  27.579  1.00  0.00     0.173 A 
ATOM     87  C   UNL A   1      46.676  32.868  29.810  1.00  0.00     0.173 A 
ATOM     88  F   UNL A   1      45.493  33.234  26.388  1.00  0.00    -0.203 F 
ATOM     89  C   UNL A   1      46.613  34.764  27.780  1.00  0.00     0.198 A 
ATOM     90  C   UNL A   1      47.215  34.135  30.018  1.00  0.00     0.198 A 
ATOM     91  F   UNL A   1      46.721  31.971  30.808  1.00  0.00    -0.203 F 
ATOM     92  F   UNL A   1      46.609  35.666  26.790  1.00  0.00    -0.200 F 
ATOM     93  C   UNL A   1      47.195  35.076  29.000  1.00  0.00     0.200 A 
ATOM     94  F   UNL A   1      47.757  34.443  31.205  1.00  0.00    -0.200 F 
ATOM     95  F   UNL A   1      47.736  36.287  29.195  1.00  0.00    -0.200 F 
ENDBRANCH  62  85
ENDBRANCH  36  37
ENDBRANCH  28  31
ENDBRANCH  26  27
ENDBRANCH  25  26
ENDBRANCH   1  25
TORSDOF 13
ENDMDL
MODEL 3
REMARK VINA RESULT:     -12.1      1.505      1.754
REMARK SMILES C[NH2+]C[C@H]1CCCN(c2ccc(C(=O)NCCCNC(=O)c3ccc(-c4c5nc(c(-c6c(F)c(F)c(F)c(F)c6F)c6ccc([nH]6)c(-c6c(F)c(F)c(F)c(F)c6F)c6nc(c(-c7c(F)c(F)c(F)c(F)c7F)c7ccc4[nH]7)C=C6)C=C5)cc3)c(F)c2F)C1
REMARK SMILES IDX 16 1 15 2 13 3 14 4 12 6 9 7 10 8 87 9 11 10 85 11 88 12
REMARK SMILES IDX 86 13 8 14 4 15 5 16 89 17 6 18 7 19 3 20 2 21 1 22 17 25
REMARK SMILES IDX 18 26 19 27 20 28 21 30 22 31 23 32 84 33 24 34 83 35 25 36
REMARK SMILES IDX 26 37 27 38 77 39 28 40 82 41 76 42 78 43 29 44 81 45 75 46
REMARK SMILES IDX 74 47 30 49 62 50 42 51 61 52 43 53 46 54 60 55 79 56 44 57
REMARK SMILES IDX 45 58 59 60 80 61 47 62 31 63 32 64 40 65 33 66 34 67 38 68
REMARK SMILES IDX 41 69 35 70 36 71 39 72 37 73 63 74 64 75 72 76 65 77 66 78
REMARK SMILES IDX 70 79 73 80 67 81 68 82 71 83 69 84 48 85 49 86 57 87 50 88
REMARK SMILES IDX 51 89 55 90 58 91 52 92 53 93 56 94 54 95
REMARK H PARENT 15 5 2 23 2 24 19 29 78 48 46 59
REMARK Flexibility Score: inf
ROOT
ATOM      1  C   UNL A   1      31.527  30.847  26.059  1.00  0.00     0.118 C 
ENDROOT
BRANCH   1   2
ATOM      2  N   UNL A   1      30.712  30.619  24.882  1.00  0.00    -0.352 N 
ATOM      3  C   UNL A   1      30.565  29.578  24.007  1.00  0.00     0.254 C 
ATOM      4  O   UNL A   1      29.742  29.765  23.106  1.00  0.00    -0.269 OA
ATOM      5  H   UNL A   1      30.135  31.386  24.663  1.00  0.00     0.163 HD
BRANCH   3   6
ATOM      6  C   UNL A   1      31.254  28.257  24.065  1.00  0.00     0.078 A 
ATOM      7  C   UNL A   1      32.419  25.668  24.467  1.00  0.00     0.076 A 
ATOM      8  C   UNL A   1      31.265  26.052  25.151  1.00  0.00     0.030 A 
ATOM      9  C   UNL A   1      32.942  26.590  23.552  1.00  0.00     0.182 A 
ATOM     10  C   UNL A   1      30.709  27.326  24.973  1.00  0.00     0.019 A 
ATOM     11  C   UNL A   1      32.350  27.834  23.322  1.00  0.00     0.173 A 
ATOM     12  F   UNL A   1      34.029  26.273  22.829  1.00  0.00    -0.201 F 
ATOM     13  F   UNL A   1      32.859  28.549  22.314  1.00  0.00    -0.203 F 
BRANCH   7  14
ATOM     14  N   UNL A   1      32.987  24.431  24.714  1.00  0.00    -0.369 N 
ATOM     15  C   UNL A   1      35.411  23.907  24.725  1.00  0.00     0.064 C 
ATOM     16  C   UNL A   1      35.086  22.671  23.867  1.00  0.00     0.013 C 
ATOM     17  C   UNL A   1      34.178  24.315  25.551  1.00  0.00     0.126 C 
ATOM     18  C   UNL A   1      33.840  22.914  23.010  1.00  0.00     0.022 C 
ATOM     19  C   UNL A   1      32.636  23.293  23.871  1.00  0.00     0.116 C 
BRANCH  15  20
ATOM     20  C   UNL A   1      36.600  23.703  25.686  1.00  0.00     0.265 C 
BRANCH  20  21
ATOM     21  N   UNL A   1      36.869  22.333  26.124  1.00  0.00    -0.348 N 
ATOM     22  C   UNL A   1      38.191  21.858  25.751  1.00  0.00     0.330 C 
ATOM     23  H   UNL A   1      36.785  22.297  27.139  1.00  0.00     0.346 HD
ATOM     24  H   UNL A   1      36.189  21.731  25.659  1.00  0.00     0.346 HD
ENDBRANCH  20  21
ENDBRANCH  15  20
ENDBRANCH   7  14
ENDBRANCH   3   6
ENDBRANCH   1   2
BRANCH   1  25
ATOM     25  C   UNL A   1      31.392  32.288  26.554  1.00  0.00     0.042 C 
BRANCH  25  26
ATOM     26  C   UNL A   1      32.718  32.885  27.019  1.00  0.00     0.118 C 
BRANCH  26  27
ATOM     27  N   UNL A   1      32.535  34.199  27.626  1.00  0.00    -0.352 N 
ATOM     28  C   UNL A   1      33.069  34.741  28.765  1.00  0.00     0.251 C 
ATOM     29  H   UNL A   1      31.925  34.796  27.134  1.00  0.00     0.163 HD
ATOM     30  O   UNL A   1      32.587  35.772  29.225  1.00  0.00    -0.269 OA
BRANCH  28  31
ATOM     31  C   UNL A   1      34.220  34.107  29.439  1.00  0.00     0.039 A 
ATOM     32  C   UNL A   1      35.512  34.465  29.038  1.00  0.00     0.014 A 
ATOM     33  C   UNL A   1      34.037  33.117  30.407  1.00  0.00     0.014 A 
ATOM     34  C   UNL A   1      36.617  33.859  29.637  1.00  0.00     0.010 A 
ATOM     35  C   UNL A   1      35.138  32.572  31.060  1.00  0.00     0.010 A 
ATOM     36  C   UNL A   1      36.438  32.927  30.672  1.00  0.00    -0.014 A 
BRANCH  36  37
ATOM     37  C   UNL A   1      37.599  32.297  31.347  1.00  0.00     0.031 A 
ATOM     38  C   UNL A   1      38.350  31.185  30.669  1.00  0.00     0.074 A 
ATOM     39  C   UNL A   1      37.938  32.692  32.589  1.00  0.00     0.049 A 
ATOM     40  N   UNL A   1      39.341  30.460  31.123  1.00  0.00    -0.248 NA
ATOM     41  C   UNL A   1      37.913  30.816  29.313  1.00  0.00     0.031 C 
ATOM     42  C   UNL A   1      37.251  33.731  33.358  1.00  0.00     0.029 A 
ATOM     43  N   UNL A   1      38.938  32.265  33.425  1.00  0.00    -0.354 N 
ATOM     44  C   UNL A   1      39.630  29.546  30.120  1.00  0.00     0.074 A 
ATOM     45  C   UNL A   1      38.678  29.764  29.056  1.00  0.00     0.031 C 
ATOM     46  C   UNL A   1      37.870  33.884  34.539  1.00  0.00     0.029 A 
ATOM     47  C   UNL A   1      38.969  32.927  34.628  1.00  0.00     0.049 A 
ATOM     48  H   UNL A   1      39.573  31.552  33.185  1.00  0.00     0.167 HD
ATOM     49  C   UNL A   1      40.624  28.626  30.081  1.00  0.00     0.037 A 
ATOM     50  C   UNL A   1      39.789  32.775  35.685  1.00  0.00     0.037 A 
ATOM     51  C   UNL A   1      41.591  28.444  31.130  1.00  0.00     0.049 A 
ATOM     52  C   UNL A   1      40.884  31.747  35.616  1.00  0.00     0.074 A 
ATOM     53  C   UNL A   1      42.673  27.583  31.161  1.00  0.00     0.029 A 
ATOM     54  N   UNL A   1      41.595  29.140  32.330  1.00  0.00    -0.354 N 
ATOM     55  N   UNL A   1      41.183  30.926  34.639  1.00  0.00    -0.248 NA
ATOM     56  C   UNL A   1      41.757  31.623  36.791  1.00  0.00     0.031 C 
ATOM     57  C   UNL A   1      43.305  27.724  32.399  1.00  0.00     0.029 A 
ATOM     58  C   UNL A   1      42.650  28.712  33.119  1.00  0.00     0.049 A 
ATOM     59  H   UNL A   1      40.946  29.835  32.583  1.00  0.00     0.167 HD
ATOM     60  C   UNL A   1      42.287  30.204  35.069  1.00  0.00     0.074 A 
ATOM     61  C   UNL A   1      42.616  30.696  36.392  1.00  0.00     0.031 C 
ATOM     62  C   UNL A   1      42.965  29.219  34.430  1.00  0.00     0.037 A 
BRANCH  49  63
ATOM     63  C   UNL A   1      40.734  27.758  28.861  1.00  0.00     0.064 A 
ATOM     64  C   UNL A   1      41.577  28.122  27.800  1.00  0.00     0.173 A 
ATOM     65  C   UNL A   1      39.947  26.606  28.708  1.00  0.00     0.173 A 
ATOM     66  F   UNL A   1      42.347  29.217  27.892  1.00  0.00    -0.203 F 
ATOM     67  C   UNL A   1      41.618  27.372  26.627  1.00  0.00     0.198 A 
ATOM     68  C   UNL A   1      40.014  25.842  27.546  1.00  0.00     0.198 A 
ATOM     69  F   UNL A   1      39.132  26.208  29.696  1.00  0.00    -0.203 F 
ATOM     70  F   UNL A   1      42.405  27.758  25.613  1.00  0.00    -0.200 F 
ATOM     71  C   UNL A   1      40.840  26.231  26.503  1.00  0.00     0.200 A 
ATOM     72  F   UNL A   1      39.279  24.725  27.437  1.00  0.00    -0.200 F 
ATOM     73  F   UNL A   1      40.887  25.505  25.376  1.00  0.00    -0.200 F 
ENDBRANCH  49  63
BRANCH  50  74
ATOM     74  C   UNL A   1      39.623  33.650  36.874  1.00  0.00     0.064 A 
ATOM     75  C   UNL A   1      38.800  33.280  37.948  1.00  0.00     0.173 A 
ATOM     76  C   UNL A   1      40.257  34.899  36.940  1.00  0.00     0.173 A 
ATOM     77  F   UNL A   1      38.164  32.099  37.933  1.00  0.00    -0.203 F 
ATOM     78  C   UNL A   1      38.602  34.136  39.032  1.00  0.00     0.198 A 
ATOM     79  C   UNL A   1      40.080  35.740  38.036  1.00  0.00     0.198 A 
ATOM     80  F   UNL A   1      41.068  35.290  35.946  1.00  0.00    -0.203 F 
ATOM     81  F   UNL A   1      37.780  33.774  40.027  1.00  0.00    -0.200 F 
ATOM     82  C   UNL A   1      39.245  35.362  39.076  1.00  0.00     0.200 A 
ATOM     83  F   UNL A   1      40.722  36.915  38.086  1.00  0.00    -0.200 F 
ATOM     84  F   UNL A   1      39.062  36.179  40.123  1.00  0.00    -0.200 F 
ENDBRANCH  50  74
BRANCH  62  85
ATOM     85  C   UNL A   1      44.142  28.612  35.135  1.00  0.00     0.064 A 
ATOM     86  C   UNL A   1      45.432  29.124  34.932  1.00  0.00     0.173 A 
ATOM     87  C   UNL A   1      44.004  27.467  35.931  1.00  0.00     0.173 A 
ATOM     88  F   UNL A   1      45.617  30.213  34.170  1.00  0.00    -0.203 F 
ATOM     89  C   UNL A   1      46.545  28.497  35.485  1.00  0.00     0.198 A 
ATOM     90  C   UNL A   1      45.117  26.861  36.508  1.00  0.00     0.198 A 
ATOM     91  F   UNL A   1      42.788  26.948  36.163  1.00  0.00    -0.203 F 
ATOM     92  F   UNL A   1      47.772  28.978  35.243  1.00  0.00    -0.200 F 
ATOM     93  C   UNL A   1      46.386  27.368  36.275  1.00  0.00     0.200 A 
ATOM     94  F   UNL A   1      44.959  25.783  37.289  1.00  0.00    -0.200 F 
ATOM     95  F   UNL A   1      47.457  26.769  36.811  1.00  0.00    -0.200 F 
ENDBRANCH  62  85
ENDBRANCH  36  37
ENDBRANCH  28  31
ENDBRANCH  26  27
ENDBRANCH  25  26
ENDBRANCH   1  25
TORSDOF 13
ENDMDL
