MODEL 1
REMARK VINA RESULT:     -12.5      0.000      0.000
REMARK SMILES Cc1cc2c(c(C)c1Cl)C=C(C(=O)NCCCNC(=O)c1ccc(-c3c4nc(c(-c5c(F)c(F)c(F)c(F)c5F)c5ccc([nH]5)c(-c5c(F)c(F)c(F)c(F)c5F)c5nc(c(-c6c(F)c(F)c(F)c(F)c6F)c6ccc3[nH]6)C=C5)C=C4)cc1)[C@@H](C(F)(F)F)O2
REMARK SMILES IDX 16 1 15 2 14 3 12 4 13 5 11 7 1 8 2 9 3 10 8 11 4 12 6 13
REMARK SMILES IDX 9 14 5 15 89 16 7 17 10 18 84 19 85 20 86 21 87 22 88 23
REMARK SMILES IDX 17 24 18 25 19 26 20 28 21 29 22 30 83 31 23 32 82 33 24 34
REMARK SMILES IDX 25 35 26 36 76 37 27 38 81 39 75 40 77 41 28 42 80 43 74 44
REMARK SMILES IDX 73 45 29 47 61 48 41 49 60 50 42 51 45 52 59 53 78 54 43 55
REMARK SMILES IDX 44 56 58 58 79 59 46 60 30 61 31 62 39 63 32 64 33 65 37 66
REMARK SMILES IDX 40 67 34 68 35 69 38 70 36 71 62 72 63 73 71 74 64 75 65 76
REMARK SMILES IDX 69 77 72 78 66 79 67 80 70 81 68 82 47 83 48 84 56 85 49 86
REMARK SMILES IDX 50 87 54 88 57 89 51 90 52 91 55 92 53 93
REMARK H PARENT 14 6 18 27 77 46 45 57
REMARK Flexibility Score: inf
ROOT
ATOM      1  C   UNL A   1      33.762  28.472  24.579  1.00  0.00     0.042 C 
ENDROOT
BRANCH   1   2
ATOM      2  C   UNL A   1      33.201  27.104  24.228  1.00  0.00     0.118 C 
BRANCH   2   3
ATOM      3  N   UNL A   1      32.380  26.568  25.303  1.00  0.00    -0.352 N 
ATOM      4  C   UNL A   1      32.216  25.382  25.932  1.00  0.00     0.251 C 
ATOM      5  O   UNL A   1      31.355  25.372  26.818  1.00  0.00    -0.270 OA
ATOM      6  H   UNL A   1      31.782  27.256  25.676  1.00  0.00     0.163 HD
BRANCH   4   7
ATOM      7  C   UNL A   1      32.982  24.139  25.628  1.00  0.00     0.067 C 
ATOM      8  C   UNL A   1      37.229  19.303  24.772  1.00  0.00     0.046 C 
ATOM      9  C   UNL A   1      36.544  20.589  25.148  1.00  0.00    -0.028 A 
ATOM     10  C   UNL A   1      35.154  20.631  25.012  1.00  0.00     0.052 A 
ATOM     11  C   UNL A   1      37.222  21.756  25.559  1.00  0.00     0.047 A 
ATOM     12  C   UNL A   1      34.453  21.798  25.285  1.00  0.00     0.128 A 
ATOM     13  C   UNL A   1      36.514  22.945  25.867  1.00  0.00    -0.021 A 
ATOM     14  Cl  UNL A   1      38.955  21.713  25.675  1.00  0.00    -0.084 Cl
ATOM     15  C   UNL A   1      35.106  22.957  25.717  1.00  0.00     0.022 A 
ATOM     16  O   UNL A   1      33.099  21.711  25.134  1.00  0.00    -0.475 OA
ATOM     17  C   UNL A   1      37.218  24.197  26.338  1.00  0.00     0.047 C 
ATOM     18  C   UNL A   1      34.271  24.127  26.016  1.00  0.00     0.026 C 
ATOM     19  C   UNL A   1      32.404  22.960  24.906  1.00  0.00     0.314 C 
BRANCH  19  20
ATOM     20  C   UNL A   1      32.251  23.199  23.391  1.00  0.00     0.429 C 
ATOM     21  F   UNL A   1      31.017  23.691  23.116  1.00  0.00    -0.167 F 
ATOM     22  F   UNL A   1      33.137  24.107  22.914  1.00  0.00    -0.167 F 
ATOM     23  F   UNL A   1      32.414  22.074  22.662  1.00  0.00    -0.167 F 
ENDBRANCH  19  20
ENDBRANCH   4   7
ENDBRANCH   2   3
ENDBRANCH   1   2
BRANCH   1  24
ATOM     24  C   UNL A   1      34.149  28.564  26.048  1.00  0.00     0.118 C 
BRANCH  24  25
ATOM     25  N   UNL A   1      33.868  29.889  26.597  1.00  0.00    -0.352 N 
ATOM     26  C   UNL A   1      34.471  30.567  27.624  1.00  0.00     0.251 C 
ATOM     27  H   UNL A   1      33.129  30.371  26.159  1.00  0.00     0.163 HD
ATOM     28  O   UNL A   1      33.909  31.535  28.135  1.00  0.00    -0.269 OA
BRANCH  26  29
ATOM     29  C   UNL A   1      35.792  30.138  28.115  1.00  0.00     0.039 A 
ATOM     30  C   UNL A   1      35.900  29.534  29.369  1.00  0.00     0.014 A 
ATOM     31  C   UNL A   1      36.933  30.366  27.342  1.00  0.00     0.014 A 
ATOM     32  C   UNL A   1      37.148  29.109  29.822  1.00  0.00     0.010 A 
ATOM     33  C   UNL A   1      38.153  29.843  27.741  1.00  0.00     0.010 A 
ATOM     34  C   UNL A   1      38.278  29.235  28.997  1.00  0.00    -0.014 A 
BRANCH  34  35
ATOM     35  C   UNL A   1      39.616  28.791  29.445  1.00  0.00     0.031 A 
ATOM     36  C   UNL A   1      40.377  29.620  30.442  1.00  0.00     0.074 A 
ATOM     37  C   UNL A   1      40.163  27.680  28.919  1.00  0.00     0.049 A 
ATOM     38  N   UNL A   1      41.580  29.439  30.922  1.00  0.00    -0.248 NA
ATOM     39  C   UNL A   1      39.708  30.833  30.943  1.00  0.00     0.031 C 
ATOM     40  C   UNL A   1      39.532  26.824  27.913  1.00  0.00     0.029 A 
ATOM     41  N   UNL A   1      41.373  27.079  29.157  1.00  0.00    -0.354 N 
ATOM     42  C   UNL A   1      41.809  30.514  31.770  1.00  0.00     0.074 A 
ATOM     43  C   UNL A   1      40.660  31.385  31.678  1.00  0.00     0.031 C 
ATOM     44  C   UNL A   1      40.341  25.785  27.655  1.00  0.00     0.029 A 
ATOM     45  C   UNL A   1      41.561  25.923  28.444  1.00  0.00     0.049 A 
ATOM     46  H   UNL A   1      42.041  27.444  29.781  1.00  0.00     0.167 HD
ATOM     47  C   UNL A   1      42.867  30.733  32.586  1.00  0.00     0.037 A 
ATOM     48  C   UNL A   1      42.602  25.069  28.435  1.00  0.00     0.037 A 
ATOM     49  C   UNL A   1      43.994  29.848  32.688  1.00  0.00     0.049 A 
ATOM     50  C   UNL A   1      43.783  25.350  29.322  1.00  0.00     0.074 A 
ATOM     51  C   UNL A   1      45.098  29.949  33.515  1.00  0.00     0.029 A 
ATOM     52  N   UNL A   1      44.159  28.694  31.935  1.00  0.00    -0.354 N 
ATOM     53  N   UNL A   1      43.965  26.337  30.167  1.00  0.00    -0.248 NA
ATOM     54  C   UNL A   1      44.902  24.402  29.256  1.00  0.00     0.031 C 
ATOM     55  C   UNL A   1      45.955  28.884  33.226  1.00  0.00     0.029 A 
ATOM     56  C   UNL A   1      45.363  28.088  32.256  1.00  0.00     0.049 A 
ATOM     57  H   UNL A   1      43.517  28.356  31.270  1.00  0.00     0.167 HD
ATOM     58  C   UNL A   1      45.208  26.122  30.745  1.00  0.00     0.074 A 
ATOM     59  C   UNL A   1      45.728  24.898  30.168  1.00  0.00     0.031 C 
ATOM     60  C   UNL A   1      45.863  26.872  31.666  1.00  0.00     0.037 A 
BRANCH  47  61
ATOM     61  C   UNL A   1      42.838  31.968  33.440  1.00  0.00     0.064 A 
ATOM     62  C   UNL A   1      43.390  33.180  32.997  1.00  0.00     0.173 A 
ATOM     63  C   UNL A   1      42.237  31.948  34.707  1.00  0.00     0.173 A 
ATOM     64  F   UNL A   1      43.991  33.250  31.799  1.00  0.00    -0.203 F 
ATOM     65  C   UNL A   1      43.371  34.316  33.802  1.00  0.00     0.198 A 
ATOM     66  C   UNL A   1      42.188  33.096  35.495  1.00  0.00     0.198 A 
ATOM     67  F   UNL A   1      41.691  30.817  35.180  1.00  0.00    -0.203 F 
ATOM     68  F   UNL A   1      43.956  35.445  33.379  1.00  0.00    -0.200 F 
ATOM     69  C   UNL A   1      42.763  34.274  35.047  1.00  0.00     0.200 A 
ATOM     70  F   UNL A   1      41.589  33.058  36.694  1.00  0.00    -0.200 F 
ATOM     71  F   UNL A   1      42.739  35.370  35.818  1.00  0.00    -0.200 F 
ENDBRANCH  47  61
BRANCH  48  72
ATOM     72  C   UNL A   1      42.536  23.846  27.595  1.00  0.00     0.064 A 
ATOM     73  C   UNL A   1      42.923  23.884  26.248  1.00  0.00     0.173 A 
ATOM     74  C   UNL A   1      42.139  22.609  28.125  1.00  0.00     0.173 A 
ATOM     75  F   UNL A   1      43.295  25.046  25.692  1.00  0.00    -0.203 F 
ATOM     76  C   UNL A   1      42.916  22.732  25.464  1.00  0.00     0.198 A 
ATOM     77  C   UNL A   1      42.156  21.453  27.347  1.00  0.00     0.198 A 
ATOM     78  F   UNL A   1      41.766  22.517  29.410  1.00  0.00    -0.203 F 
ATOM     79  F   UNL A   1      43.271  22.801  24.174  1.00  0.00    -0.200 F 
ATOM     80  C   UNL A   1      42.542  21.517  26.016  1.00  0.00     0.200 A 
ATOM     81  F   UNL A   1      41.813  20.277  27.889  1.00  0.00    -0.200 F 
ATOM     82  F   UNL A   1      42.555  20.405  25.267  1.00  0.00    -0.200 F 
ENDBRANCH  48  72
BRANCH  60  83
ATOM     83  C   UNL A   1      47.214  26.399  32.112  1.00  0.00     0.064 A 
ATOM     84  C   UNL A   1      47.354  25.453  33.138  1.00  0.00     0.173 A 
ATOM     85  C   UNL A   1      48.375  26.826  31.448  1.00  0.00     0.173 A 
ATOM     86  F   UNL A   1      46.275  25.023  33.810  1.00  0.00    -0.203 F 
ATOM     87  C   UNL A   1      48.606  24.959  33.489  1.00  0.00     0.198 A 
ATOM     88  C   UNL A   1      49.623  26.306  31.782  1.00  0.00     0.198 A 
ATOM     89  F   UNL A   1      48.295  27.722  30.455  1.00  0.00    -0.203 F 
ATOM     90  F   UNL A   1      48.718  24.078  34.494  1.00  0.00    -0.200 F 
ATOM     91  C   UNL A   1      49.738  25.376  32.804  1.00  0.00     0.200 A 
ATOM     92  F   UNL A   1      50.711  26.696  31.105  1.00  0.00    -0.200 F 
ATOM     93  F   UNL A   1      50.939  24.881  33.129  1.00  0.00    -0.200 F 
ENDBRANCH  60  83
ENDBRANCH  34  35
ENDBRANCH  26  29
ENDBRANCH  24  25
ENDBRANCH   1  24
TORSDOF 11
ENDMDL
MODEL 2
REMARK VINA RESULT:     -12.4      3.575      8.903
REMARK SMILES Cc1cc2c(c(C)c1Cl)C=C(C(=O)NCCCNC(=O)c1ccc(-c3c4nc(c(-c5c(F)c(F)c(F)c(F)c5F)c5ccc([nH]5)c(-c5c(F)c(F)c(F)c(F)c5F)c5nc(c(-c6c(F)c(F)c(F)c(F)c6F)c6ccc3[nH]6)C=C5)C=C4)cc1)[C@@H](C(F)(F)F)O2
REMARK SMILES IDX 16 1 15 2 14 3 12 4 13 5 11 7 1 8 2 9 3 10 8 11 4 12 6 13
REMARK SMILES IDX 9 14 5 15 89 16 7 17 10 18 84 19 85 20 86 21 87 22 88 23
REMARK SMILES IDX 17 24 18 25 19 26 20 28 21 29 22 30 83 31 23 32 82 33 24 34
REMARK SMILES IDX 25 35 26 36 76 37 27 38 81 39 75 40 77 41 28 42 80 43 74 44
REMARK SMILES IDX 73 45 29 47 61 48 41 49 60 50 42 51 45 52 59 53 78 54 43 55
REMARK SMILES IDX 44 56 58 58 79 59 46 60 30 61 31 62 39 63 32 64 33 65 37 66
REMARK SMILES IDX 40 67 34 68 35 69 38 70 36 71 62 72 63 73 71 74 64 75 65 76
REMARK SMILES IDX 69 77 72 78 66 79 67 80 70 81 68 82 47 83 48 84 56 85 49 86
REMARK SMILES IDX 50 87 54 88 57 89 51 90 52 91 55 92 53 93
REMARK H PARENT 14 6 18 27 77 46 45 57
REMARK Flexibility Score: inf
ROOT
ATOM      1  C   UNL A   1      35.062  22.976  26.567  1.00  0.00     0.042 C 
ENDROOT
BRANCH   1   2
ATOM      2  C   UNL A   1      33.818  23.608  25.964  1.00  0.00     0.118 C 
BRANCH   2   3
ATOM      3  N   UNL A   1      33.995  23.898  24.550  1.00  0.00    -0.352 N 
ATOM      4  C   UNL A   1      33.695  24.904  23.696  1.00  0.00     0.251 C 
ATOM      5  O   UNL A   1      34.030  24.714  22.523  1.00  0.00    -0.270 OA
ATOM      6  H   UNL A   1      34.460  23.164  24.088  1.00  0.00     0.163 HD
BRANCH   4   7
ATOM      7  C   UNL A   1      33.011  26.173  24.076  1.00  0.00     0.067 C 
ATOM      8  C   UNL A   1      31.025  31.933  26.320  1.00  0.00     0.046 C 
ATOM      9  C   UNL A   1      31.815  30.701  25.973  1.00  0.00    -0.028 A 
ATOM     10  C   UNL A   1      31.265  29.844  25.015  1.00  0.00     0.052 A 
ATOM     11  C   UNL A   1      33.025  30.334  26.597  1.00  0.00     0.047 A 
ATOM     12  C   UNL A   1      31.904  28.657  24.680  1.00  0.00     0.128 A 
ATOM     13  C   UNL A   1      33.701  29.139  26.242  1.00  0.00    -0.021 A 
ATOM     14  Cl  UNL A   1      33.677  31.377  27.824  1.00  0.00    -0.084 Cl
ATOM     15  C   UNL A   1      33.117  28.290  25.271  1.00  0.00     0.022 A 
ATOM     16  O   UNL A   1      31.281  27.914  23.719  1.00  0.00    -0.475 OA
ATOM     17  C   UNL A   1      35.014  28.743  26.877  1.00  0.00     0.047 C 
ATOM     18  C   UNL A   1      33.731  27.035  24.820  1.00  0.00     0.026 C 
ATOM     19  C   UNL A   1      31.598  26.502  23.705  1.00  0.00     0.314 C 
BRANCH  19  20
ATOM     20  C   UNL A   1      30.561  25.729  24.545  1.00  0.00     0.429 C 
ATOM     21  F   UNL A   1      29.382  26.400  24.567  1.00  0.00    -0.167 F 
ATOM     22  F   UNL A   1      30.291  24.502  24.039  1.00  0.00    -0.167 F 
ATOM     23  F   UNL A   1      30.951  25.547  25.824  1.00  0.00    -0.167 F 
ENDBRANCH  19  20
ENDBRANCH   4   7
ENDBRANCH   2   3
ENDBRANCH   1   2
BRANCH   1  24
ATOM     24  C   UNL A   1      36.337  23.567  25.982  1.00  0.00     0.118 C 
BRANCH  24  25
ATOM     25  N   UNL A   1      37.452  22.626  26.059  1.00  0.00    -0.352 N 
ATOM     26  C   UNL A   1      38.785  22.851  26.284  1.00  0.00     0.251 C 
ATOM     27  H   UNL A   1      37.206  21.681  25.930  1.00  0.00     0.163 HD
ATOM     28  O   UNL A   1      39.609  21.977  26.018  1.00  0.00    -0.269 OA
BRANCH  26  29
ATOM     29  C   UNL A   1      39.230  24.138  26.846  1.00  0.00     0.039 A 
ATOM     30  C   UNL A   1      38.981  24.428  28.189  1.00  0.00     0.014 A 
ATOM     31  C   UNL A   1      39.867  25.075  26.029  1.00  0.00     0.014 A 
ATOM     32  C   UNL A   1      39.423  25.637  28.724  1.00  0.00     0.010 A 
ATOM     33  C   UNL A   1      40.405  26.224  26.586  1.00  0.00     0.010 A 
ATOM     34  C   UNL A   1      40.164  26.530  27.931  1.00  0.00    -0.014 A 
BRANCH  34  35
ATOM     35  C   UNL A   1      40.650  27.820  28.469  1.00  0.00     0.031 A 
ATOM     36  C   UNL A   1      42.124  28.029  28.678  1.00  0.00     0.074 A 
ATOM     37  C   UNL A   1      39.768  28.775  28.815  1.00  0.00     0.049 A 
ATOM     38  N   UNL A   1      42.750  29.058  29.187  1.00  0.00    -0.248 NA
ATOM     39  C   UNL A   1      43.011  26.917  28.293  1.00  0.00     0.031 C 
ATOM     40  C   UNL A   1      38.313  28.663  28.696  1.00  0.00     0.029 A 
ATOM     41  N   UNL A   1      39.964  30.028  29.338  1.00  0.00    -0.354 N 
ATOM     42  C   UNL A   1      44.095  28.714  29.188  1.00  0.00     0.074 A 
ATOM     43  C   UNL A   1      44.189  27.354  28.709  1.00  0.00     0.031 C 
ATOM     44  C   UNL A   1      37.752  29.816  29.090  1.00  0.00     0.029 A 
ATOM     45  C   UNL A   1      38.802  30.732  29.526  1.00  0.00     0.049 A 
ATOM     46  H   UNL A   1      40.855  30.386  29.556  1.00  0.00     0.167 HD
ATOM     47  C   UNL A   1      45.160  29.479  29.519  1.00  0.00     0.037 A 
ATOM     48  C   UNL A   1      38.610  31.979  29.996  1.00  0.00     0.037 A 
ATOM     49  C   UNL A   1      45.058  30.840  29.971  1.00  0.00     0.049 A 
ATOM     50  C   UNL A   1      39.805  32.801  30.392  1.00  0.00     0.074 A 
ATOM     51  C   UNL A   1      46.073  31.722  30.289  1.00  0.00     0.029 A 
ATOM     52  N   UNL A   1      43.861  31.515  30.169  1.00  0.00    -0.354 N 
ATOM     53  N   UNL A   1      41.078  32.490  30.331  1.00  0.00    -0.248 NA
ATOM     54  C   UNL A   1      39.540  34.145  30.921  1.00  0.00     0.031 C 
ATOM     55  C   UNL A   1      45.491  32.915  30.728  1.00  0.00     0.029 A 
ATOM     56  C   UNL A   1      44.112  32.795  30.634  1.00  0.00     0.049 A 
ATOM     57  H   UNL A   1      42.966  31.139  30.003  1.00  0.00     0.167 HD
ATOM     58  C   UNL A   1      41.767  33.601  30.798  1.00  0.00     0.074 A 
ATOM     59  C   UNL A   1      40.770  34.603  31.118  1.00  0.00     0.031 C 
ATOM     60  C   UNL A   1      43.103  33.774  30.951  1.00  0.00     0.037 A 
BRANCH  47  61
ATOM     61  C   UNL A   1      46.524  28.865  29.384  1.00  0.00     0.064 A 
ATOM     62  C   UNL A   1      47.249  28.944  28.185  1.00  0.00     0.173 A 
ATOM     63  C   UNL A   1      47.122  28.206  30.468  1.00  0.00     0.173 A 
ATOM     64  F   UNL A   1      46.716  29.549  27.112  1.00  0.00    -0.203 F 
ATOM     65  C   UNL A   1      48.506  28.359  28.065  1.00  0.00     0.198 A 
ATOM     66  C   UNL A   1      48.396  27.652  30.355  1.00  0.00     0.198 A 
ATOM     67  F   UNL A   1      46.476  28.102  31.639  1.00  0.00    -0.203 F 
ATOM     68  F   UNL A   1      49.153  28.398  26.891  1.00  0.00    -0.200 F 
ATOM     69  C   UNL A   1      49.082  27.720  29.152  1.00  0.00     0.200 A 
ATOM     70  F   UNL A   1      48.957  27.046  31.410  1.00  0.00    -0.200 F 
ATOM     71  F   UNL A   1      50.295  27.163  29.037  1.00  0.00    -0.200 F 
ENDBRANCH  47  61
BRANCH  48  72
ATOM     72  C   UNL A   1      37.233  32.532  30.058  1.00  0.00     0.064 A 
ATOM     73  C   UNL A   1      36.405  32.264  31.157  1.00  0.00     0.173 A 
ATOM     74  C   UNL A   1      36.733  33.377  29.056  1.00  0.00     0.173 A 
ATOM     75  F   UNL A   1      36.832  31.448  32.132  1.00  0.00    -0.203 F 
ATOM     76  C   UNL A   1      35.131  32.820  31.252  1.00  0.00     0.198 A 
ATOM     77  C   UNL A   1      35.469  33.953  29.164  1.00  0.00     0.198 A 
ATOM     78  F   UNL A   1      37.488  33.672  27.987  1.00  0.00    -0.203 F 
ATOM     79  F   UNL A   1      34.354  32.529  32.304  1.00  0.00    -0.200 F 
ATOM     80  C   UNL A   1      34.668  33.671  30.261  1.00  0.00     0.200 A 
ATOM     81  F   UNL A   1      35.032  34.791  28.213  1.00  0.00    -0.200 F 
ATOM     82  F   UNL A   1      33.450  34.222  30.363  1.00  0.00    -0.200 F 
ENDBRANCH  48  72
BRANCH  60  83
ATOM     83  C   UNL A   1      43.574  35.093  31.490  1.00  0.00     0.064 A 
ATOM     84  C   UNL A   1      43.805  36.186  30.643  1.00  0.00     0.173 A 
ATOM     85  C   UNL A   1      43.706  35.292  32.873  1.00  0.00     0.173 A 
ATOM     86  F   UNL A   1      43.703  36.042  29.313  1.00  0.00    -0.203 F 
ATOM     87  C   UNL A   1      44.162  37.427  31.159  1.00  0.00     0.198 A 
ATOM     88  C   UNL A   1      44.033  36.544  33.388  1.00  0.00     0.198 A 
ATOM     89  F   UNL A   1      43.487  34.282  33.726  1.00  0.00    -0.203 F 
ATOM     90  F   UNL A   1      44.409  38.450  30.328  1.00  0.00    -0.200 F 
ATOM     91  C   UNL A   1      44.264  37.609  32.530  1.00  0.00     0.200 A 
ATOM     92  F   UNL A   1      44.111  36.721  34.714  1.00  0.00    -0.200 F 
ATOM     93  F   UNL A   1      44.585  38.812  33.026  1.00  0.00    -0.200 F 
ENDBRANCH  60  83
ENDBRANCH  34  35
ENDBRANCH  26  29
ENDBRANCH  24  25
ENDBRANCH   1  24
TORSDOF 11
ENDMDL
MODEL 3
REMARK VINA RESULT:     -12.4      3.574      8.949
REMARK SMILES Cc1cc2c(c(C)c1Cl)C=C(C(=O)NCCCNC(=O)c1ccc(-c3c4nc(c(-c5c(F)c(F)c(F)c(F)c5F)c5ccc([nH]5)c(-c5c(F)c(F)c(F)c(F)c5F)c5nc(c(-c6c(F)c(F)c(F)c(F)c6F)c6ccc3[nH]6)C=C5)C=C4)cc1)[C@@H](C(F)(F)F)O2
REMARK SMILES IDX 16 1 15 2 14 3 12 4 13 5 11 7 1 8 2 9 3 10 8 11 4 12 6 13
REMARK SMILES IDX 9 14 5 15 89 16 7 17 10 18 84 19 85 20 86 21 87 22 88 23
REMARK SMILES IDX 17 24 18 25 19 26 20 28 21 29 22 30 83 31 23 32 82 33 24 34
REMARK SMILES IDX 25 35 26 36 76 37 27 38 81 39 75 40 77 41 28 42 80 43 74 44
REMARK SMILES IDX 73 45 29 47 61 48 41 49 60 50 42 51 45 52 59 53 78 54 43 55
REMARK SMILES IDX 44 56 58 58 79 59 46 60 30 61 31 62 39 63 32 64 33 65 37 66
REMARK SMILES IDX 40 67 34 68 35 69 38 70 36 71 62 72 63 73 71 74 64 75 65 76
REMARK SMILES IDX 69 77 72 78 66 79 67 80 70 81 68 82 47 83 48 84 56 85 49 86
REMARK SMILES IDX 50 87 54 88 57 89 51 90 52 91 55 92 53 93
REMARK H PARENT 14 6 18 27 77 46 45 57
REMARK Flexibility Score: inf
ROOT
ATOM      1  C   UNL A   1      35.187  23.772  26.280  1.00  0.00     0.042 C 
ENDROOT
BRANCH   1   2
ATOM      2  C   UNL A   1      33.968  23.302  25.504  1.00  0.00     0.118 C 
BRANCH   2   3
ATOM      3  N   UNL A   1      34.082  23.613  24.087  1.00  0.00    -0.352 N 
ATOM      4  C   UNL A   1      33.729  24.622  23.259  1.00  0.00     0.251 C 
ATOM      5  O   UNL A   1      34.019  24.452  22.071  1.00  0.00    -0.270 OA
ATOM      6  H   UNL A   1      34.542  22.893  23.597  1.00  0.00     0.163 HD
BRANCH   4   7
ATOM      7  C   UNL A   1      33.038  25.874  23.682  1.00  0.00     0.067 C 
ATOM      8  C   UNL A   1      31.017  31.539  26.127  1.00  0.00     0.046 C 
ATOM      9  C   UNL A   1      31.813  30.324  25.737  1.00  0.00    -0.028 A 
ATOM     10  C   UNL A   1      31.272  29.500  24.747  1.00  0.00     0.052 A 
ATOM     11  C   UNL A   1      33.023  29.940  26.353  1.00  0.00     0.047 A 
ATOM     12  C   UNL A   1      31.917  28.329  24.371  1.00  0.00     0.128 A 
ATOM     13  C   UNL A   1      33.706  28.761  25.958  1.00  0.00    -0.021 A 
ATOM     14  Cl  UNL A   1      33.665  30.940  27.620  1.00  0.00    -0.084 Cl
ATOM     15  C   UNL A   1      33.129  27.946  24.953  1.00  0.00     0.022 A 
ATOM     16  O   UNL A   1      31.301  27.618  23.381  1.00  0.00    -0.475 OA
ATOM     17  C   UNL A   1      35.018  28.348  26.583  1.00  0.00     0.047 C 
ATOM     18  C   UNL A   1      33.751  26.711  24.460  1.00  0.00     0.026 C 
ATOM     19  C   UNL A   1      31.625  26.209  23.317  1.00  0.00     0.314 C 
BRANCH  19  20
ATOM     20  C   UNL A   1      30.588  25.402  24.124  1.00  0.00     0.429 C 
ATOM     21  F   UNL A   1      30.280  24.252  23.473  1.00  0.00    -0.167 F 
ATOM     22  F   UNL A   1      31.048  25.037  25.345  1.00  0.00    -0.167 F 
ATOM     23  F   UNL A   1      29.437  26.078  24.325  1.00  0.00    -0.167 F 
ENDBRANCH  19  20
ENDBRANCH   4   7
ENDBRANCH   2   3
ENDBRANCH   1   2
BRANCH   1  24
ATOM     24  C   UNL A   1      36.439  23.785  25.414  1.00  0.00     0.118 C 
BRANCH  24  25
ATOM     25  N   UNL A   1      37.373  22.730  25.803  1.00  0.00    -0.352 N 
ATOM     26  C   UNL A   1      38.654  22.817  26.283  1.00  0.00     0.251 C 
ATOM     27  H   UNL A   1      37.028  21.814  25.704  1.00  0.00     0.163 HD
ATOM     28  O   UNL A   1      39.383  21.826  26.269  1.00  0.00    -0.269 OA
BRANCH  26  29
ATOM     29  C   UNL A   1      39.156  24.095  26.817  1.00  0.00     0.039 A 
ATOM     30  C   UNL A   1      39.901  24.942  25.994  1.00  0.00     0.014 A 
ATOM     31  C   UNL A   1      38.916  24.438  28.150  1.00  0.00     0.014 A 
ATOM     32  C   UNL A   1      40.356  26.161  26.495  1.00  0.00     0.010 A 
ATOM     33  C   UNL A   1      39.270  25.696  28.612  1.00  0.00     0.010 A 
ATOM     34  C   UNL A   1      40.017  26.557  27.800  1.00  0.00    -0.014 A 
BRANCH  34  35
ATOM     35  C   UNL A   1      40.482  27.846  28.361  1.00  0.00     0.031 A 
ATOM     36  C   UNL A   1      41.946  28.054  28.629  1.00  0.00     0.074 A 
ATOM     37  C   UNL A   1      39.586  28.799  28.676  1.00  0.00     0.049 A 
ATOM     38  N   UNL A   1      42.551  29.081  29.166  1.00  0.00    -0.248 NA
ATOM     39  C   UNL A   1      42.848  26.944  28.275  1.00  0.00     0.031 C 
ATOM     40  C   UNL A   1      38.137  28.687  28.500  1.00  0.00     0.029 A 
ATOM     41  N   UNL A   1      39.761  30.049  29.211  1.00  0.00    -0.354 N 
ATOM     42  C   UNL A   1      43.895  28.737  29.218  1.00  0.00     0.074 A 
ATOM     43  C   UNL A   1      44.009  27.379  28.738  1.00  0.00     0.031 C 
ATOM     44  C   UNL A   1      37.560  29.839  28.876  1.00  0.00     0.029 A 
ATOM     45  C   UNL A   1      38.592  30.752  29.357  1.00  0.00     0.049 A 
ATOM     46  H   UNL A   1      40.642  30.407  29.465  1.00  0.00     0.167 HD
ATOM     47  C   UNL A   1      44.947  29.501  29.594  1.00  0.00     0.037 A 
ATOM     48  C   UNL A   1      38.382  31.998  29.824  1.00  0.00     0.037 A 
ATOM     49  C   UNL A   1      44.826  30.860  30.047  1.00  0.00     0.049 A 
ATOM     50  C   UNL A   1      39.560  32.818  30.269  1.00  0.00     0.074 A 
ATOM     51  C   UNL A   1      45.828  31.741  30.408  1.00  0.00     0.029 A 
ATOM     52  N   UNL A   1      43.622  31.534  30.200  1.00  0.00    -0.354 N 
ATOM     53  N   UNL A   1      40.835  32.508  30.257  1.00  0.00    -0.248 NA
ATOM     54  C   UNL A   1      39.274  34.160  30.793  1.00  0.00     0.031 C 
ATOM     55  C   UNL A   1      45.228  32.932  30.828  1.00  0.00     0.029 A 
ATOM     56  C   UNL A   1      43.854  32.812  30.680  1.00  0.00     0.049 A 
ATOM     57  H   UNL A   1      42.734  31.159  29.998  1.00  0.00     0.167 HD
ATOM     58  C   UNL A   1      41.504  33.617  30.755  1.00  0.00     0.074 A 
ATOM     59  C   UNL A   1      40.495  34.618  31.040  1.00  0.00     0.031 C 
ATOM     60  C   UNL A   1      42.833  33.790  30.962  1.00  0.00     0.037 A 
BRANCH  47  61
ATOM     61  C   UNL A   1      46.314  28.888  29.510  1.00  0.00     0.064 A 
ATOM     62  C   UNL A   1      46.884  28.212  30.600  1.00  0.00     0.173 A 
ATOM     63  C   UNL A   1      47.058  28.957  28.323  1.00  0.00     0.173 A 
ATOM     64  F   UNL A   1      46.221  28.130  31.765  1.00  0.00    -0.203 F 
ATOM     65  C   UNL A   1      48.158  27.658  30.517  1.00  0.00     0.198 A 
ATOM     66  C   UNL A   1      48.319  28.371  28.232  1.00  0.00     0.198 A 
ATOM     67  F   UNL A   1      46.562  29.588  27.248  1.00  0.00    -0.203 F 
ATOM     68  F   UNL A   1      48.703  27.069  31.592  1.00  0.00    -0.200 F 
ATOM     69  C   UNL A   1      48.871  27.731  29.331  1.00  0.00     0.200 A 
ATOM     70  F   UNL A   1      49.002  28.431  27.081  1.00  0.00    -0.200 F 
ATOM     71  F   UNL A   1      50.095  27.192  29.250  1.00  0.00    -0.200 F 
ENDBRANCH  47  61
BRANCH  48  72
ATOM     72  C   UNL A   1      37.003  32.550  29.834  1.00  0.00     0.064 A 
ATOM     73  C   UNL A   1      36.185  32.406  30.963  1.00  0.00     0.173 A 
ATOM     74  C   UNL A   1      36.492  33.275  28.747  1.00  0.00     0.173 A 
ATOM     75  F   UNL A   1      36.623  31.708  32.021  1.00  0.00    -0.203 F 
ATOM     76  C   UNL A   1      34.909  32.966  31.005  1.00  0.00     0.198 A 
ATOM     77  C   UNL A   1      35.226  33.855  28.799  1.00  0.00     0.198 A 
ATOM     78  F   UNL A   1      37.237  33.448  27.645  1.00  0.00    -0.203 F 
ATOM     79  F   UNL A   1      34.142  32.794  32.089  1.00  0.00    -0.200 F 
ATOM     80  C   UNL A   1      34.435  33.698  29.927  1.00  0.00     0.200 A 
ATOM     81  F   UNL A   1      34.779  34.578  27.763  1.00  0.00    -0.200 F 
ATOM     82  F   UNL A   1      33.216  34.253  29.977  1.00  0.00    -0.200 F 
ENDBRANCH  48  72
BRANCH  60  83
ATOM     83  C   UNL A   1      43.282  35.107  31.523  1.00  0.00     0.064 A 
ATOM     84  C   UNL A   1      43.637  36.174  30.686  1.00  0.00     0.173 A 
ATOM     85  C   UNL A   1      43.268  35.333  32.908  1.00  0.00     0.173 A 
ATOM     86  F   UNL A   1      43.677  36.003  29.356  1.00  0.00    -0.203 F 
ATOM     87  C   UNL A   1      43.973  37.416  31.215  1.00  0.00     0.198 A 
ATOM     88  C   UNL A   1      43.575  36.586  33.432  1.00  0.00     0.198 A 
ATOM     89  F   UNL A   1      42.927  34.348  33.752  1.00  0.00    -0.203 F 
ATOM     90  F   UNL A   1      44.340  38.413  30.397  1.00  0.00    -0.200 F 
ATOM     91  C   UNL A   1      43.931  37.625  32.586  1.00  0.00     0.200 A 
ATOM     92  F   UNL A   1      43.513  36.790  34.755  1.00  0.00    -0.200 F 
ATOM     93  F   UNL A   1      44.232  38.829  33.091  1.00  0.00    -0.200 F 
ENDBRANCH  60  83
ENDBRANCH  34  35
ENDBRANCH  26  29
ENDBRANCH  24  25
ENDBRANCH   1  24
TORSDOF 11
ENDMDL
