MODEL 1
REMARK VINA RESULT:     -10.4      0.000      0.000
REMARK SMILES Cc1nsc(NC(=O)CC[C@H](C)CC[NH3+])c1C(=O)NCCCNC(=O)c1ccc(-c2c3nc(c(-c4c(F)c(F)c(F)c(F)c4F)c4ccc([nH]4)c(-c4c(F)c(F)c(F)c(F)c4F)c4nc(c(-c5c(F)c(F)c(F)c(F)c5F)c5ccc2[nH]5)C=C4)C=C3)cc1
REMARK SMILES IDX 1 1 2 2 3 3 4 4 5 5 16 6 17 7 18 8 19 9 20 11 21 12 22 13
REMARK SMILES IDX 23 14 24 15 25 17 26 18 27 19 88 20 28 21 87 22 29 23 30 24
REMARK SMILES IDX 31 25 81 26 32 27 86 28 80 29 82 30 33 31 85 32 79 33 78 34
REMARK SMILES IDX 34 36 66 37 46 38 65 39 47 40 50 41 64 42 83 43 48 44 49 45
REMARK SMILES IDX 63 47 84 48 51 49 35 50 36 51 44 52 37 53 38 54 42 55 45 56
REMARK SMILES IDX 39 57 40 58 43 59 41 60 67 61 68 62 76 63 69 64 70 65 74 66
REMARK SMILES IDX 77 67 71 68 72 69 75 70 73 71 52 72 53 73 61 74 54 75 55 76
REMARK SMILES IDX 59 77 62 78 56 79 57 80 60 81 58 82 6 83 7 84 8 86 9 87
REMARK SMILES IDX 10 88 11 89 12 90 13 91 14 92 15 93
REMARK H PARENT 19 10 23 16 82 35 50 46 6 85 15 94 15 95 15 96
REMARK Flexibility Score: inf
ROOT
ATOM      1  C   UNL A   1      43.631  25.578  25.081  1.00  0.00     0.069 C 
ATOM      2  C   UNL A   1      44.796  25.353  25.975  1.00  0.00     0.066 A 
ATOM      3  N   UNL A   1      44.717  25.987  27.148  1.00  0.00    -0.195 NA
ATOM      4  S   UNL A   1      46.186  25.927  27.886  1.00  0.00    -0.017 S 
ATOM      5  C   UNL A   1      46.983  25.190  26.582  1.00  0.00     0.129 A 
ATOM      6  C   UNL A   1      46.038  24.642  25.709  1.00  0.00     0.097 A 
ENDROOT
BRANCH   6   7
ATOM      7  C   UNL A   1      46.465  23.729  24.642  1.00  0.00     0.256 C 
ATOM      8  O   UNL A   1      47.202  24.122  23.733  1.00  0.00    -0.269 OA
ATOM      9  N   UNL A   1      46.171  22.392  24.600  1.00  0.00    -0.352 N 
ATOM     10  H   UNL A   1      46.500  21.947  23.785  1.00  0.00     0.163 HD
BRANCH   9  11
ATOM     11  C   UNL A   1      45.476  21.495  25.502  1.00  0.00     0.118 C 
BRANCH  11  12
ATOM     12  C   UNL A   1      43.956  21.561  25.289  1.00  0.00     0.042 C 
BRANCH  12  13
ATOM     13  C   UNL A   1      43.177  21.938  26.534  1.00  0.00     0.118 C 
BRANCH  13  14
ATOM     14  N   UNL A   1      41.740  21.710  26.364  1.00  0.00    -0.352 N 
ATOM     15  C   UNL A   1      40.675  22.481  26.794  1.00  0.00     0.251 C 
ATOM     16  H   UNL A   1      41.497  20.891  25.873  1.00  0.00     0.163 HD
ATOM     17  O   UNL A   1      39.560  22.007  26.909  1.00  0.00    -0.269 OA
BRANCH  15  18
ATOM     18  C   UNL A   1      40.928  23.895  27.112  1.00  0.00     0.039 A 
ATOM     19  C   UNL A   1      40.299  24.929  26.415  1.00  0.00     0.014 A 
ATOM     20  C   UNL A   1      41.761  24.158  28.192  1.00  0.00     0.014 A 
ATOM     21  C   UNL A   1      40.453  26.231  26.883  1.00  0.00     0.010 A 
ATOM     22  C   UNL A   1      41.716  25.388  28.778  1.00  0.00     0.010 A 
ATOM     23  C   UNL A   1      41.146  26.445  28.084  1.00  0.00    -0.014 A 
BRANCH  23  24
ATOM     24  C   UNL A   1      41.215  27.759  28.705  1.00  0.00     0.031 A 
ATOM     25  C   UNL A   1      42.372  28.579  28.267  1.00  0.00     0.074 A 
ATOM     26  C   UNL A   1      40.192  28.267  29.428  1.00  0.00     0.049 A 
ATOM     27  N   UNL A   1      43.397  28.926  28.969  1.00  0.00    -0.248 NA
ATOM     28  C   UNL A   1      42.484  28.924  26.839  1.00  0.00     0.031 C 
ATOM     29  C   UNL A   1      38.858  27.692  29.655  1.00  0.00     0.029 A 
ATOM     30  N   UNL A   1      40.095  29.477  30.039  1.00  0.00    -0.354 N 
ATOM     31  C   UNL A   1      44.183  29.716  28.133  1.00  0.00     0.074 A 
ATOM     32  C   UNL A   1      43.685  29.507  26.800  1.00  0.00     0.031 C 
ATOM     33  C   UNL A   1      38.027  28.641  30.137  1.00  0.00     0.029 A 
ATOM     34  C   UNL A   1      38.808  29.826  30.430  1.00  0.00     0.049 A 
ATOM     35  H   UNL A   1      40.874  30.059  30.191  1.00  0.00     0.167 HD
ATOM     36  C   UNL A   1      44.996  30.677  28.656  1.00  0.00     0.037 A 
ATOM     37  C   UNL A   1      38.413  31.016  30.945  1.00  0.00     0.037 A 
ATOM     38  C   UNL A   1      45.179  30.470  30.073  1.00  0.00     0.049 A 
ATOM     39  C   UNL A   1      39.633  31.698  31.446  1.00  0.00     0.074 A 
ATOM     40  C   UNL A   1      45.702  29.456  30.850  1.00  0.00     0.029 A 
ATOM     41  N   UNL A   1      44.420  31.238  30.923  1.00  0.00    -0.354 N 
ATOM     42  N   UNL A   1      40.334  31.271  32.460  1.00  0.00    -0.248 NA
ATOM     43  C   UNL A   1      40.334  32.580  30.527  1.00  0.00     0.031 C 
ATOM     44  C   UNL A   1      44.856  29.395  31.998  1.00  0.00     0.029 A 
ATOM     45  C   UNL A   1      43.915  30.421  31.900  1.00  0.00     0.049 A 
ATOM     46  H   UNL A   1      44.265  32.207  30.844  1.00  0.00     0.167 HD
ATOM     47  C   UNL A   1      41.654  31.459  32.076  1.00  0.00     0.074 A 
ATOM     48  C   UNL A   1      41.591  32.353  30.922  1.00  0.00     0.031 C 
ATOM     49  C   UNL A   1      42.640  30.638  32.546  1.00  0.00     0.037 A 
BRANCH  36  50
ATOM     50  C   UNL A   1      45.285  32.014  28.006  1.00  0.00     0.064 A 
ATOM     51  C   UNL A   1      44.202  32.872  27.718  1.00  0.00     0.173 A 
ATOM     52  C   UNL A   1      46.503  32.351  27.379  1.00  0.00     0.173 A 
ATOM     53  F   UNL A   1      42.992  32.649  28.254  1.00  0.00    -0.203 F 
ATOM     54  C   UNL A   1      44.307  33.914  26.793  1.00  0.00     0.198 A 
ATOM     55  C   UNL A   1      46.618  33.426  26.498  1.00  0.00     0.198 A 
ATOM     56  F   UNL A   1      47.605  31.604  27.495  1.00  0.00    -0.203 F 
ATOM     57  F   UNL A   1      43.215  34.608  26.446  1.00  0.00    -0.200 F 
ATOM     58  C   UNL A   1      45.513  34.183  26.176  1.00  0.00     0.200 A 
ATOM     59  F   UNL A   1      47.794  33.662  25.899  1.00  0.00    -0.200 F 
ATOM     60  F   UNL A   1      45.601  35.134  25.237  1.00  0.00    -0.200 F 
ENDBRANCH  36  50
BRANCH  37  61
ATOM     61  C   UNL A   1      37.122  31.717  30.758  1.00  0.00     0.064 A 
ATOM     62  C   UNL A   1      36.164  31.765  31.782  1.00  0.00     0.173 A 
ATOM     63  C   UNL A   1      36.924  32.592  29.671  1.00  0.00     0.173 A 
ATOM     64  F   UNL A   1      36.306  30.999  32.873  1.00  0.00    -0.203 F 
ATOM     65  C   UNL A   1      35.082  32.652  31.734  1.00  0.00     0.198 A 
ATOM     66  C   UNL A   1      35.842  33.474  29.622  1.00  0.00     0.198 A 
ATOM     67  F   UNL A   1      37.828  32.675  28.684  1.00  0.00    -0.203 F 
ATOM     68  F   UNL A   1      34.221  32.713  32.759  1.00  0.00    -0.200 F 
ATOM     69  C   UNL A   1      34.930  33.514  30.659  1.00  0.00     0.200 A 
ATOM     70  F   UNL A   1      35.730  34.330  28.597  1.00  0.00    -0.200 F 
ATOM     71  F   UNL A   1      33.931  34.407  30.643  1.00  0.00    -0.200 F 
ENDBRANCH  37  61
BRANCH  49  72
ATOM     72  C   UNL A   1      42.305  29.730  33.699  1.00  0.00     0.064 A 
ATOM     73  C   UNL A   1      41.798  28.425  33.563  1.00  0.00     0.173 A 
ATOM     74  C   UNL A   1      42.648  30.154  34.989  1.00  0.00     0.173 A 
ATOM     75  F   UNL A   1      41.535  27.908  32.359  1.00  0.00    -0.203 F 
ATOM     76  C   UNL A   1      41.608  27.603  34.674  1.00  0.00     0.198 A 
ATOM     77  C   UNL A   1      42.494  29.318  36.092  1.00  0.00     0.198 A 
ATOM     78  F   UNL A   1      43.186  31.370  35.175  1.00  0.00    -0.203 F 
ATOM     79  F   UNL A   1      41.112  26.367  34.518  1.00  0.00    -0.200 F 
ATOM     80  C   UNL A   1      41.964  28.048  35.936  1.00  0.00     0.200 A 
ATOM     81  F   UNL A   1      42.886  29.736  37.302  1.00  0.00    -0.200 F 
ATOM     82  F   UNL A   1      41.822  27.243  36.998  1.00  0.00    -0.200 F 
ENDBRANCH  49  72
ENDBRANCH  23  24
ENDBRANCH  15  18
ENDBRANCH  13  14
ENDBRANCH  12  13
ENDBRANCH  11  12
ENDBRANCH   9  11
ENDBRANCH   6   7
BRANCH   5  83
ATOM     83  N   UNL A   1      48.360  25.114  26.532  1.00  0.00    -0.316 N 
ATOM     84  C   UNL A   1      49.248  26.023  26.021  1.00  0.00     0.225 C 
ATOM     85  H   UNL A   1      48.756  24.297  26.913  1.00  0.00     0.170 HD
ATOM     86  O   UNL A   1      50.439  25.690  25.967  1.00  0.00    -0.275 OA
BRANCH  84  87
ATOM     87  C   UNL A   1      48.833  27.363  25.426  1.00  0.00     0.101 C 
BRANCH  87  88
ATOM     88  C   UNL A   1      48.224  27.346  24.009  1.00  0.00     0.013 C 
BRANCH  88  89
ATOM     89  C   UNL A   1      49.198  27.084  22.840  1.00  0.00    -0.008 C 
ATOM     90  C   UNL A   1      50.559  27.741  23.109  1.00  0.00     0.008 C 
BRANCH  89  91
ATOM     91  C   UNL A   1      48.657  27.600  21.485  1.00  0.00     0.064 C 
BRANCH  91  92
ATOM     92  C   UNL A   1      49.331  26.921  20.280  1.00  0.00     0.259 C 
BRANCH  92  93
ATOM     93  N   UNL A   1      48.930  25.524  20.172  1.00  0.00    -0.358 N 
ATOM     94  H   UNL A   1      48.631  25.184  21.086  1.00  0.00     0.344 HD
ATOM     95  H   UNL A   1      49.721  24.968  19.845  1.00  0.00     0.344 HD
ATOM     96  H   UNL A   1      48.159  25.441  19.511  1.00  0.00     0.344 HD
ENDBRANCH  92  93
ENDBRANCH  91  92
ENDBRANCH  89  91
ENDBRANCH  88  89
ENDBRANCH  87  88
ENDBRANCH  84  87
ENDBRANCH   5  83
TORSDOF 17
ENDMDL
MODEL 2
REMARK VINA RESULT:     -10.4      5.114     11.271
REMARK SMILES Cc1nsc(NC(=O)CC[C@H](C)CC[NH3+])c1C(=O)NCCCNC(=O)c1ccc(-c2c3nc(c(-c4c(F)c(F)c(F)c(F)c4F)c4ccc([nH]4)c(-c4c(F)c(F)c(F)c(F)c4F)c4nc(c(-c5c(F)c(F)c(F)c(F)c5F)c5ccc2[nH]5)C=C4)C=C3)cc1
REMARK SMILES IDX 1 1 2 2 3 3 4 4 5 5 16 6 17 7 18 8 19 9 20 11 21 12 22 13
REMARK SMILES IDX 23 14 24 15 25 17 26 18 27 19 88 20 28 21 87 22 29 23 30 24
REMARK SMILES IDX 31 25 81 26 32 27 86 28 80 29 82 30 33 31 85 32 79 33 78 34
REMARK SMILES IDX 34 36 66 37 46 38 65 39 47 40 50 41 64 42 83 43 48 44 49 45
REMARK SMILES IDX 63 47 84 48 51 49 35 50 36 51 44 52 37 53 38 54 42 55 45 56
REMARK SMILES IDX 39 57 40 58 43 59 41 60 67 61 68 62 76 63 69 64 70 65 74 66
REMARK SMILES IDX 77 67 71 68 72 69 75 70 73 71 52 72 53 73 61 74 54 75 55 76
REMARK SMILES IDX 59 77 62 78 56 79 57 80 60 81 58 82 6 83 7 84 8 86 9 87
REMARK SMILES IDX 10 88 11 89 12 90 13 91 14 92 15 93
REMARK H PARENT 19 10 23 16 82 35 50 46 6 85 15 94 15 95 15 96
REMARK Flexibility Score: inf
ROOT
ATOM      1  C   UNL A   1      30.994  29.331  23.994  1.00  0.00     0.069 C 
ATOM      2  C   UNL A   1      32.060  28.320  24.213  1.00  0.00     0.066 A 
ATOM      3  N   UNL A   1      32.645  27.889  23.093  1.00  0.00    -0.195 NA
ATOM      4  S   UNL A   1      33.549  26.559  23.440  1.00  0.00    -0.017 S 
ATOM      5  C   UNL A   1      33.047  26.452  25.057  1.00  0.00     0.129 A 
ATOM      6  C   UNL A   1      32.468  27.664  25.447  1.00  0.00     0.097 A 
ENDROOT
BRANCH   6   7
ATOM      7  C   UNL A   1      32.188  27.924  26.864  1.00  0.00     0.256 C 
ATOM      8  O   UNL A   1      31.384  27.224  27.486  1.00  0.00    -0.269 OA
ATOM      9  N   UNL A   1      32.825  28.870  27.621  1.00  0.00    -0.352 N 
ATOM     10  H   UNL A   1      32.474  28.936  28.539  1.00  0.00     0.163 HD
BRANCH   9  11
ATOM     11  C   UNL A   1      33.908  29.797  27.355  1.00  0.00     0.118 C 
BRANCH  11  12
ATOM     12  C   UNL A   1      33.450  31.253  27.532  1.00  0.00     0.042 C 
BRANCH  12  13
ATOM     13  C   UNL A   1      34.561  32.201  27.934  1.00  0.00     0.118 C 
BRANCH  13  14
ATOM     14  N   UNL A   1      34.490  32.548  29.356  1.00  0.00    -0.352 N 
ATOM     15  C   UNL A   1      35.206  32.028  30.420  1.00  0.00     0.251 C 
ATOM     16  H   UNL A   1      33.841  33.251  29.587  1.00  0.00     0.163 HD
ATOM     17  O   UNL A   1      34.801  32.135  31.563  1.00  0.00    -0.269 OA
BRANCH  15  18
ATOM     18  C   UNL A   1      36.471  31.337  30.132  1.00  0.00     0.039 A 
ATOM     19  C   UNL A   1      37.670  32.037  29.967  1.00  0.00     0.014 A 
ATOM     20  C   UNL A   1      36.441  29.949  30.108  1.00  0.00     0.014 A 
ATOM     21  C   UNL A   1      38.852  31.309  29.870  1.00  0.00     0.010 A 
ATOM     22  C   UNL A   1      37.608  29.258  30.249  1.00  0.00     0.010 A 
ATOM     23  C   UNL A   1      38.810  29.917  30.038  1.00  0.00    -0.014 A 
BRANCH  23  24
ATOM     24  C   UNL A   1      40.023  29.115  30.095  1.00  0.00     0.031 A 
ATOM     25  C   UNL A   1      40.554  28.913  31.467  1.00  0.00     0.074 A 
ATOM     26  C   UNL A   1      40.480  28.427  29.026  1.00  0.00     0.049 A 
ATOM     27  N   UNL A   1      41.643  29.394  31.964  1.00  0.00    -0.248 NA
ATOM     28  C   UNL A   1      39.703  28.225  32.452  1.00  0.00     0.031 C 
ATOM     29  C   UNL A   1      39.860  28.275  27.702  1.00  0.00     0.029 A 
ATOM     30  N   UNL A   1      41.570  27.620  28.931  1.00  0.00    -0.354 N 
ATOM     31  C   UNL A   1      41.724  28.895  33.261  1.00  0.00     0.074 A 
ATOM     32  C   UNL A   1      40.422  28.365  33.568  1.00  0.00     0.031 C 
ATOM     33  C   UNL A   1      40.446  27.256  27.036  1.00  0.00     0.029 A 
ATOM     34  C   UNL A   1      41.596  26.813  27.800  1.00  0.00     0.049 A 
ATOM     35  H   UNL A   1      42.283  27.607  29.610  1.00  0.00     0.167 HD
ATOM     36  C   UNL A   1      42.936  28.722  33.860  1.00  0.00     0.037 A 
ATOM     37  C   UNL A   1      42.494  25.838  27.521  1.00  0.00     0.037 A 
ATOM     38  C   UNL A   1      43.961  29.447  33.147  1.00  0.00     0.049 A 
ATOM     39  C   UNL A   1      43.683  26.086  28.374  1.00  0.00     0.074 A 
ATOM     40  C   UNL A   1      44.182  30.776  32.845  1.00  0.00     0.029 A 
ATOM     41  N   UNL A   1      44.752  28.730  32.282  1.00  0.00    -0.354 N 
ATOM     42  N   UNL A   1      44.468  27.119  28.235  1.00  0.00    -0.248 NA
ATOM     43  C   UNL A   1      43.721  25.443  29.678  1.00  0.00     0.031 C 
ATOM     44  C   UNL A   1      44.714  30.770  31.520  1.00  0.00     0.029 A 
ATOM     45  C   UNL A   1      44.864  29.442  31.117  1.00  0.00     0.049 A 
ATOM     46  H   UNL A   1      45.167  27.856  32.467  1.00  0.00     0.167 HD
ATOM     47  C   UNL A   1      44.754  27.519  29.532  1.00  0.00     0.074 A 
ATOM     48  C   UNL A   1      44.347  26.397  30.375  1.00  0.00     0.031 C 
ATOM     49  C   UNL A   1      45.014  28.830  29.815  1.00  0.00     0.037 A 
BRANCH  36  50
ATOM     50  C   UNL A   1      43.279  27.595  34.812  1.00  0.00     0.064 A 
ATOM     51  C   UNL A   1      43.615  27.915  36.144  1.00  0.00     0.173 A 
ATOM     52  C   UNL A   1      43.596  26.279  34.410  1.00  0.00     0.173 A 
ATOM     53  F   UNL A   1      43.364  29.137  36.637  1.00  0.00    -0.203 F 
ATOM     54  C   UNL A   1      44.309  27.025  36.968  1.00  0.00     0.198 A 
ATOM     55  C   UNL A   1      44.240  25.375  35.255  1.00  0.00     0.198 A 
ATOM     56  F   UNL A   1      43.404  25.840  33.163  1.00  0.00    -0.203 F 
ATOM     57  F   UNL A   1      44.731  27.428  38.174  1.00  0.00    -0.200 F 
ATOM     58  C   UNL A   1      44.631  25.759  36.519  1.00  0.00     0.200 A 
ATOM     59  F   UNL A   1      44.556  24.156  34.794  1.00  0.00    -0.200 F 
ATOM     60  F   UNL A   1      45.357  24.930  37.279  1.00  0.00    -0.200 F 
ENDBRANCH  36  50
BRANCH  37  61
ATOM     61  C   UNL A   1      42.273  24.559  26.808  1.00  0.00     0.064 A 
ATOM     62  C   UNL A   1      43.079  24.182  25.723  1.00  0.00     0.173 A 
ATOM     63  C   UNL A   1      41.448  23.557  27.356  1.00  0.00     0.173 A 
ATOM     64  F   UNL A   1      43.926  25.063  25.175  1.00  0.00    -0.203 F 
ATOM     65  C   UNL A   1      43.078  22.871  25.229  1.00  0.00     0.198 A 
ATOM     66  C   UNL A   1      41.445  22.251  26.860  1.00  0.00     0.198 A 
ATOM     67  F   UNL A   1      40.704  23.801  28.444  1.00  0.00    -0.203 F 
ATOM     68  F   UNL A   1      43.905  22.532  24.231  1.00  0.00    -0.200 F 
ATOM     69  C   UNL A   1      42.269  21.905  25.806  1.00  0.00     0.200 A 
ATOM     70  F   UNL A   1      40.689  21.317  27.455  1.00  0.00    -0.200 F 
ATOM     71  F   UNL A   1      42.314  20.637  25.375  1.00  0.00    -0.200 F 
ENDBRANCH  37  61
BRANCH  49  72
ATOM     72  C   UNL A   1      45.271  29.759  28.659  1.00  0.00     0.064 A 
ATOM     73  C   UNL A   1      44.274  30.495  27.994  1.00  0.00     0.173 A 
ATOM     74  C   UNL A   1      46.601  30.019  28.308  1.00  0.00     0.173 A 
ATOM     75  F   UNL A   1      42.986  30.379  28.333  1.00  0.00    -0.203 F 
ATOM     76  C   UNL A   1      44.597  31.416  26.997  1.00  0.00     0.198 A 
ATOM     77  C   UNL A   1      46.924  30.966  27.340  1.00  0.00     0.198 A 
ATOM     78  F   UNL A   1      47.599  29.386  28.946  1.00  0.00    -0.203 F 
ATOM     79  F   UNL A   1      43.627  32.096  26.370  1.00  0.00    -0.200 F 
ATOM     80  C   UNL A   1      45.923  31.656  26.678  1.00  0.00     0.200 A 
ATOM     81  F   UNL A   1      48.209  31.230  27.072  1.00  0.00    -0.200 F 
ATOM     82  F   UNL A   1      46.237  32.572  25.751  1.00  0.00    -0.200 F 
ENDBRANCH  49  72
ENDBRANCH  23  24
ENDBRANCH  15  18
ENDBRANCH  13  14
ENDBRANCH  12  13
ENDBRANCH  11  12
ENDBRANCH   9  11
ENDBRANCH   6   7
BRANCH   5  83
ATOM     83  N   UNL A   1      33.303  25.328  25.817  1.00  0.00    -0.316 N 
ATOM     84  C   UNL A   1      32.556  24.185  25.931  1.00  0.00     0.225 C 
ATOM     85  H   UNL A   1      34.133  25.351  26.347  1.00  0.00     0.170 HD
ATOM     86  O   UNL A   1      32.915  23.351  26.771  1.00  0.00    -0.275 OA
BRANCH  84  87
ATOM     87  C   UNL A   1      31.265  23.943  25.159  1.00  0.00     0.101 C 
BRANCH  87  88
ATOM     88  C   UNL A   1      31.394  23.383  23.727  1.00  0.00     0.013 C 
BRANCH  88  89
ATOM     89  C   UNL A   1      32.704  22.640  23.389  1.00  0.00    -0.008 C 
ATOM     90  C   UNL A   1      33.252  23.098  22.030  1.00  0.00     0.008 C 
BRANCH  89  91
ATOM     91  C   UNL A   1      32.529  21.103  23.361  1.00  0.00     0.064 C 
BRANCH  91  92
ATOM     92  C   UNL A   1      33.128  20.415  24.600  1.00  0.00     0.259 C 
BRANCH  92  93
ATOM     93  N   UNL A   1      32.243  20.543  25.751  1.00  0.00    -0.358 N 
ATOM     94  H   UNL A   1      31.494  21.200  25.533  1.00  0.00     0.344 HD
ATOM     95  H   UNL A   1      32.774  20.887  26.552  1.00  0.00     0.344 HD
ATOM     96  H   UNL A   1      31.842  19.633  25.975  1.00  0.00     0.344 HD
ENDBRANCH  92  93
ENDBRANCH  91  92
ENDBRANCH  89  91
ENDBRANCH  88  89
ENDBRANCH  87  88
ENDBRANCH  84  87
ENDBRANCH   5  83
TORSDOF 17
ENDMDL
MODEL 3
REMARK VINA RESULT:     -10.4      4.341      7.643
REMARK SMILES Cc1nsc(NC(=O)CC[C@H](C)CC[NH3+])c1C(=O)NCCCNC(=O)c1ccc(-c2c3nc(c(-c4c(F)c(F)c(F)c(F)c4F)c4ccc([nH]4)c(-c4c(F)c(F)c(F)c(F)c4F)c4nc(c(-c5c(F)c(F)c(F)c(F)c5F)c5ccc2[nH]5)C=C4)C=C3)cc1
REMARK SMILES IDX 1 1 2 2 3 3 4 4 5 5 16 6 17 7 18 8 19 9 20 11 21 12 22 13
REMARK SMILES IDX 23 14 24 15 25 17 26 18 27 19 88 20 28 21 87 22 29 23 30 24
REMARK SMILES IDX 31 25 81 26 32 27 86 28 80 29 82 30 33 31 85 32 79 33 78 34
REMARK SMILES IDX 34 36 66 37 46 38 65 39 47 40 50 41 64 42 83 43 48 44 49 45
REMARK SMILES IDX 63 47 84 48 51 49 35 50 36 51 44 52 37 53 38 54 42 55 45 56
REMARK SMILES IDX 39 57 40 58 43 59 41 60 67 61 68 62 76 63 69 64 70 65 74 66
REMARK SMILES IDX 77 67 71 68 72 69 75 70 73 71 52 72 53 73 61 74 54 75 55 76
REMARK SMILES IDX 59 77 62 78 56 79 57 80 60 81 58 82 6 83 7 84 8 86 9 87
REMARK SMILES IDX 10 88 11 89 12 90 13 91 14 92 15 93
REMARK H PARENT 19 10 23 16 82 35 50 46 6 85 15 94 15 95 15 96
REMARK Flexibility Score: inf
ROOT
ATOM      1  C   UNL A   1      33.261  18.520  24.244  1.00  0.00     0.069 C 
ATOM      2  C   UNL A   1      32.938  19.957  24.051  1.00  0.00     0.066 A 
ATOM      3  N   UNL A   1      32.153  20.205  22.999  1.00  0.00    -0.195 NA
ATOM      4  S   UNL A   1      32.149  21.824  22.709  1.00  0.00    -0.017 S 
ATOM      5  C   UNL A   1      33.314  22.194  23.884  1.00  0.00     0.129 A 
ATOM      6  C   UNL A   1      33.441  21.119  24.769  1.00  0.00     0.097 A 
ENDROOT
BRANCH   6   7
ATOM      7  C   UNL A   1      34.189  21.280  26.022  1.00  0.00     0.256 C 
ATOM      8  O   UNL A   1      33.600  21.514  27.081  1.00  0.00    -0.269 OA
ATOM      9  N   UNL A   1      35.542  21.108  26.147  1.00  0.00    -0.352 N 
ATOM     10  H   UNL A   1      35.877  21.304  27.051  1.00  0.00     0.163 HD
BRANCH   9  11
ATOM     11  C   UNL A   1      36.584  20.700  25.225  1.00  0.00     0.118 C 
BRANCH  11  12
ATOM     12  C   UNL A   1      37.307  21.918  24.629  1.00  0.00     0.042 C 
BRANCH  12  13
ATOM     13  C   UNL A   1      37.968  22.807  25.663  1.00  0.00     0.118 C 
BRANCH  13  14
ATOM     14  N   UNL A   1      38.909  22.058  26.500  1.00  0.00    -0.352 N 
ATOM     15  C   UNL A   1      40.053  22.499  27.140  1.00  0.00     0.251 C 
ATOM     16  H   UNL A   1      38.696  21.104  26.625  1.00  0.00     0.163 HD
ATOM     17  O   UNL A   1      40.921  21.719  27.487  1.00  0.00    -0.269 OA
BRANCH  15  18
ATOM     18  C   UNL A   1      40.195  23.942  27.387  1.00  0.00     0.039 A 
ATOM     19  C   UNL A   1      39.122  24.823  27.232  1.00  0.00     0.014 A 
ATOM     20  C   UNL A   1      41.424  24.383  27.861  1.00  0.00     0.014 A 
ATOM     21  C   UNL A   1      39.283  26.141  27.649  1.00  0.00     0.010 A 
ATOM     22  C   UNL A   1      41.499  25.596  28.478  1.00  0.00     0.010 A 
ATOM     23  C   UNL A   1      40.472  26.510  28.296  1.00  0.00    -0.014 A 
BRANCH  23  24
ATOM     24  C   UNL A   1      40.646  27.828  28.887  1.00  0.00     0.031 A 
ATOM     25  C   UNL A   1      41.737  28.629  28.279  1.00  0.00     0.074 A 
ATOM     26  C   UNL A   1      39.743  28.354  29.744  1.00  0.00     0.049 A 
ATOM     27  N   UNL A   1      42.856  28.969  28.822  1.00  0.00    -0.248 NA
ATOM     28  C   UNL A   1      41.646  28.962  26.847  1.00  0.00     0.031 C 
ATOM     29  C   UNL A   1      38.449  27.799  30.167  1.00  0.00     0.029 A 
ATOM     30  N   UNL A   1      39.750  29.571  30.351  1.00  0.00    -0.354 N 
ATOM     31  C   UNL A   1      43.523  29.741  27.875  1.00  0.00     0.074 A 
ATOM     32  C   UNL A   1      42.835  29.528  26.630  1.00  0.00     0.031 C 
ATOM     33  C   UNL A   1      37.707  28.763  30.755  1.00  0.00     0.029 A 
ATOM     34  C   UNL A   1      38.536  29.940  30.921  1.00  0.00     0.049 A 
ATOM     35  H   UNL A   1      40.549  30.144  30.384  1.00  0.00     0.167 HD
ATOM     36  C   UNL A   1      44.414  30.696  28.266  1.00  0.00     0.037 A 
ATOM     37  C   UNL A   1      38.234  31.138  31.475  1.00  0.00     0.037 A 
ATOM     38  C   UNL A   1      44.796  30.498  29.644  1.00  0.00     0.049 A 
ATOM     39  C   UNL A   1      39.521  31.809  31.789  1.00  0.00     0.074 A 
ATOM     40  C   UNL A   1      45.414  29.483  30.347  1.00  0.00     0.029 A 
ATOM     41  N   UNL A   1      44.177  31.282  30.587  1.00  0.00    -0.354 N 
ATOM     42  N   UNL A   1      40.356  31.380  32.695  1.00  0.00    -0.248 NA
ATOM     43  C   UNL A   1      40.093  32.674  30.770  1.00  0.00     0.031 C 
ATOM     44  C   UNL A   1      44.742  29.442  31.605  1.00  0.00     0.029 A 
ATOM     45  C   UNL A   1      43.809  30.480  31.634  1.00  0.00     0.049 A 
ATOM     46  H   UNL A   1      44.024  32.253  30.522  1.00  0.00     0.167 HD
ATOM     47  C   UNL A   1      41.609  31.549  32.124  1.00  0.00     0.074 A 
ATOM     48  C   UNL A   1      41.391  32.434  30.982  1.00  0.00     0.031 C 
ATOM     49  C   UNL A   1      42.642  30.718  32.455  1.00  0.00     0.037 A 
BRANCH  36  50
ATOM     50  C   UNL A   1      44.622  32.024  27.568  1.00  0.00     0.064 A 
ATOM     51  C   UNL A   1      45.812  32.223  26.837  1.00  0.00     0.173 A 
ATOM     52  C   UNL A   1      43.878  33.193  27.838  1.00  0.00     0.173 A 
ATOM     53  F   UNL A   1      46.603  31.187  26.523  1.00  0.00    -0.203 F 
ATOM     54  C   UNL A   1      46.270  33.500  26.500  1.00  0.00     0.198 A 
ATOM     55  C   UNL A   1      44.312  34.460  27.453  1.00  0.00     0.198 A 
ATOM     56  F   UNL A   1      42.764  33.184  28.576  1.00  0.00    -0.203 F 
ATOM     57  F   UNL A   1      47.475  33.645  25.933  1.00  0.00    -0.200 F 
ATOM     58  C   UNL A   1      45.525  34.618  26.818  1.00  0.00     0.200 A 
ATOM     59  F   UNL A   1      43.580  35.534  27.784  1.00  0.00    -0.200 F 
ATOM     60  F   UNL A   1      45.994  35.846  26.562  1.00  0.00    -0.200 F 
ENDBRANCH  36  50
BRANCH  37  61
ATOM     61  C   UNL A   1      36.938  31.854  31.470  1.00  0.00     0.064 A 
ATOM     62  C   UNL A   1      36.256  32.136  32.663  1.00  0.00     0.173 A 
ATOM     63  C   UNL A   1      36.485  32.522  30.315  1.00  0.00     0.173 A 
ATOM     64  F   UNL A   1      36.656  31.579  33.814  1.00  0.00    -0.203 F 
ATOM     65  C   UNL A   1      35.197  33.051  32.705  1.00  0.00     0.198 A 
ATOM     66  C   UNL A   1      35.425  33.431  30.356  1.00  0.00     0.198 A 
ATOM     67  F   UNL A   1      37.124  32.379  29.144  1.00  0.00    -0.203 F 
ATOM     68  F   UNL A   1      34.609  33.341  33.873  1.00  0.00    -0.200 F 
ATOM     69  C   UNL A   1      34.791  33.706  31.553  1.00  0.00     0.200 A 
ATOM     70  F   UNL A   1      35.071  34.088  29.243  1.00  0.00    -0.200 F 
ATOM     71  F   UNL A   1      33.819  34.628  31.603  1.00  0.00    -0.200 F 
ENDBRANCH  37  61
BRANCH  49  72
ATOM     72  C   UNL A   1      42.467  29.824  33.653  1.00  0.00     0.064 A 
ATOM     73  C   UNL A   1      41.934  28.523  33.603  1.00  0.00     0.173 A 
ATOM     74  C   UNL A   1      42.993  30.255  34.877  1.00  0.00     0.173 A 
ATOM     75  F   UNL A   1      41.498  27.998  32.454  1.00  0.00    -0.203 F 
ATOM     76  C   UNL A   1      41.896  27.713  34.738  1.00  0.00     0.198 A 
ATOM     77  C   UNL A   1      42.989  29.431  35.999  1.00  0.00     0.198 A 
ATOM     78  F   UNL A   1      43.563  31.467  34.973  1.00  0.00    -0.203 F 
ATOM     79  F   UNL A   1      41.373  26.480  34.667  1.00  0.00    -0.200 F 
ATOM     80  C   UNL A   1      42.431  28.165  35.932  1.00  0.00     0.200 A 
ATOM     81  F   UNL A   1      43.553  29.855  37.137  1.00  0.00    -0.200 F 
ATOM     82  F   UNL A   1      42.435  27.371  37.012  1.00  0.00    -0.200 F 
ENDBRANCH  49  72
ENDBRANCH  23  24
ENDBRANCH  15  18
ENDBRANCH  13  14
ENDBRANCH  12  13
ENDBRANCH  11  12
ENDBRANCH   9  11
ENDBRANCH   6   7
BRANCH   5  83
ATOM     83  N   UNL A   1      33.920  23.434  23.931  1.00  0.00    -0.316 N 
ATOM     84  C   UNL A   1      33.472  24.582  24.530  1.00  0.00     0.225 C 
ATOM     85  H   UNL A   1      34.789  23.502  23.474  1.00  0.00     0.170 HD
ATOM     86  O   UNL A   1      34.123  25.617  24.338  1.00  0.00    -0.275 OA
BRANCH  84  87
ATOM     87  C   UNL A   1      32.172  24.667  25.321  1.00  0.00     0.101 C 
BRANCH  87  88
ATOM     88  C   UNL A   1      30.888  24.994  24.531  1.00  0.00     0.013 C 
BRANCH  88  89
ATOM     89  C   UNL A   1      30.177  26.319  24.881  1.00  0.00    -0.008 C 
ATOM     90  C   UNL A   1      29.054  26.614  23.877  1.00  0.00     0.008 C 
BRANCH  89  91
ATOM     91  C   UNL A   1      31.145  27.526  24.913  1.00  0.00     0.064 C 
BRANCH  91  92
ATOM     92  C   UNL A   1      30.897  28.516  23.762  1.00  0.00     0.259 C 
BRANCH  92  93
ATOM     93  N   UNL A   1      30.771  29.880  24.260  1.00  0.00    -0.358 N 
ATOM     94  H   UNL A   1      30.465  29.860  25.233  1.00  0.00     0.344 HD
ATOM     95  H   UNL A   1      30.085  30.386  23.698  1.00  0.00     0.344 HD
ATOM     96  H   UNL A   1      31.674  30.349  24.198  1.00  0.00     0.344 HD
ENDBRANCH  92  93
ENDBRANCH  91  92
ENDBRANCH  89  91
ENDBRANCH  88  89
ENDBRANCH  87  88
ENDBRANCH  84  87
ENDBRANCH   5  83
TORSDOF 17
ENDMDL
