MODEL 1
REMARK VINA RESULT:     -12.6      0.000      0.000
REMARK SMILES O=C(NCCCNC(=O)[C@H]1C=C[C@@H](NS(=O)(=O)c2ccccc2)C1)c1ccc(-c2c3nc(c(-c4c(F)c(F)c(F)c(F)c4F)c4ccc([nH]4)c(-c4c(F)c(F)c(F)c(F)c4F)c4nc(c(-c5c(F)c(F)c(F)c(F)c5F)c5ccc2[nH]5)C=C4)C=C3)cc1
REMARK SMILES IDX 5 1 4 2 3 3 1 4 2 5 25 7 26 8 87 9 27 10 86 11 28 12 29 13
REMARK SMILES IDX 30 14 80 15 31 16 85 17 79 18 81 19 32 20 84 21 78 22 77 23
REMARK SMILES IDX 33 25 65 26 45 27 64 28 46 29 49 30 63 31 82 32 47 33 48 34
REMARK SMILES IDX 62 36 83 37 50 38 34 39 35 40 43 41 36 42 37 43 41 44 44 45
REMARK SMILES IDX 38 46 39 47 42 48 40 49 66 50 67 51 75 52 68 53 69 54 73 55
REMARK SMILES IDX 76 56 70 57 71 58 74 59 72 60 51 61 52 62 60 63 53 64 54 65
REMARK SMILES IDX 58 66 61 67 55 68 56 69 59 70 57 71 6 72 7 73 8 74 9 76
REMARK SMILES IDX 10 77 11 78 24 79 12 80 13 81 14 82 15 84 16 85 17 86 18 87
REMARK SMILES IDX 19 88 23 89 20 90 22 91 21 92
REMARK H PARENT 3 6 81 24 49 35 7 75 14 83
REMARK Flexibility Score: inf
ROOT
ATOM      1  C   UNL A   1      31.469  32.229  26.594  1.00  0.00     0.042 C 
ENDROOT
BRANCH   1   2
ATOM      2  C   UNL A   1      32.703  32.835  27.251  1.00  0.00     0.118 C 
BRANCH   2   3
ATOM      3  N   UNL A   1      32.494  34.221  27.645  1.00  0.00    -0.352 N 
ATOM      4  O   UNL A   1      32.607  36.036  28.969  1.00  0.00    -0.269 OA
ATOM      5  C   UNL A   1      33.056  34.933  28.673  1.00  0.00     0.251 C 
ATOM      6  H   UNL A   1      31.853  34.722  27.090  1.00  0.00     0.163 HD
BRANCH   5   7
ATOM      7  C   UNL A   1      34.199  34.378  29.426  1.00  0.00     0.039 A 
ATOM      8  C   UNL A   1      33.996  33.638  30.594  1.00  0.00     0.014 A 
ATOM      9  C   UNL A   1      35.490  34.544  28.917  1.00  0.00     0.014 A 
ATOM     10  C   UNL A   1      35.086  33.147  31.304  1.00  0.00     0.010 A 
ATOM     11  C   UNL A   1      36.580  33.986  29.590  1.00  0.00     0.010 A 
ATOM     12  C   UNL A   1      36.385  33.289  30.791  1.00  0.00    -0.014 A 
BRANCH  12  13
ATOM     13  C   UNL A   1      37.508  32.589  31.459  1.00  0.00     0.031 A 
ATOM     14  C   UNL A   1      38.203  31.431  30.810  1.00  0.00     0.074 A 
ATOM     15  C   UNL A   1      37.884  33.018  32.680  1.00  0.00     0.049 A 
ATOM     16  N   UNL A   1      39.191  30.705  31.269  1.00  0.00    -0.248 NA
ATOM     17  C   UNL A   1      37.728  31.024  29.478  1.00  0.00     0.031 C 
ATOM     18  C   UNL A   1      37.254  34.119  33.415  1.00  0.00     0.029 A 
ATOM     19  N   UNL A   1      38.878  32.587  33.518  1.00  0.00    -0.354 N 
ATOM     20  C   UNL A   1      39.446  29.749  30.296  1.00  0.00     0.074 A 
ATOM     21  C   UNL A   1      38.499  29.974  29.224  1.00  0.00     0.031 C 
ATOM     22  C   UNL A   1      37.889  34.291  34.582  1.00  0.00     0.029 A 
ATOM     23  C   UNL A   1      38.932  33.279  34.703  1.00  0.00     0.049 A 
ATOM     24  H   UNL A   1      39.494  31.853  33.294  1.00  0.00     0.167 HD
ATOM     25  C   UNL A   1      40.390  28.778  30.304  1.00  0.00     0.037 A 
ATOM     26  C   UNL A   1      39.715  33.101  35.783  1.00  0.00     0.037 A 
ATOM     27  C   UNL A   1      41.344  28.582  31.365  1.00  0.00     0.049 A 
ATOM     28  C   UNL A   1      40.736  32.001  35.764  1.00  0.00     0.074 A 
ATOM     29  C   UNL A   1      42.398  27.686  31.421  1.00  0.00     0.029 A 
ATOM     30  N   UNL A   1      41.353  29.284  32.560  1.00  0.00    -0.354 N 
ATOM     31  N   UNL A   1      41.017  31.152  34.806  1.00  0.00    -0.248 NA
ATOM     32  C   UNL A   1      41.544  31.828  36.978  1.00  0.00     0.031 C 
ATOM     33  C   UNL A   1      43.011  27.809  32.672  1.00  0.00     0.029 A 
ATOM     34  C   UNL A   1      42.367  28.812  33.378  1.00  0.00     0.049 A 
ATOM     35  H   UNL A   1      40.731  30.011  32.794  1.00  0.00     0.167 HD
ATOM     36  C   UNL A   1      42.032  30.347  35.298  1.00  0.00     0.074 A 
ATOM     37  C   UNL A   1      42.341  30.829  36.629  1.00  0.00     0.031 C 
ATOM     38  C   UNL A   1      42.648  29.295  34.705  1.00  0.00     0.037 A 
BRANCH  25  39
ATOM     39  C   UNL A   1      40.449  27.837  29.139  1.00  0.00     0.064 A 
ATOM     40  C   UNL A   1      39.660  26.680  29.087  1.00  0.00     0.173 A 
ATOM     41  C   UNL A   1      41.230  28.152  28.016  1.00  0.00     0.173 A 
ATOM     42  F   UNL A   1      38.903  26.331  30.137  1.00  0.00    -0.203 F 
ATOM     43  C   UNL A   1      39.652  25.870  27.954  1.00  0.00     0.198 A 
ATOM     44  C   UNL A   1      41.205  27.352  26.877  1.00  0.00     0.198 A 
ATOM     45  F   UNL A   1      41.999  29.252  28.014  1.00  0.00    -0.203 F 
ATOM     46  F   UNL A   1      38.903  24.759  27.931  1.00  0.00    -0.200 F 
ATOM     47  C   UNL A   1      40.416  26.212  26.847  1.00  0.00     0.200 A 
ATOM     48  F   UNL A   1      41.934  27.689  25.805  1.00  0.00    -0.200 F 
ATOM     49  F   UNL A   1      40.391  25.442  25.750  1.00  0.00    -0.200 F 
ENDBRANCH  25  39
BRANCH  26  50
ATOM     50  C   UNL A   1      39.535  33.963  36.978  1.00  0.00     0.064 A 
ATOM     51  C   UNL A   1      40.139  35.224  37.060  1.00  0.00     0.173 A 
ATOM     52  C   UNL A   1      38.758  33.538  38.066  1.00  0.00     0.173 A 
ATOM     53  F   UNL A   1      40.909  35.665  36.054  1.00  0.00    -0.203 F 
ATOM     54  C   UNL A   1      39.989  36.019  38.195  1.00  0.00     0.198 A 
ATOM     55  C   UNL A   1      38.583  34.347  39.186  1.00  0.00     0.198 A 
ATOM     56  F   UNL A   1      38.156  32.340  38.035  1.00  0.00    -0.203 F 
ATOM     57  F   UNL A   1      40.615  37.202  38.268  1.00  0.00    -0.200 F 
ATOM     58  C   UNL A   1      39.207  35.583  39.254  1.00  0.00     0.200 A 
ATOM     59  F   UNL A   1      37.814  33.927  40.200  1.00  0.00    -0.200 F 
ATOM     60  F   UNL A   1      39.060  36.350  40.341  1.00  0.00    -0.200 F 
ENDBRANCH  26  50
BRANCH  38  61
ATOM     61  C   UNL A   1      43.709  28.597  35.499  1.00  0.00     0.064 A 
ATOM     62  C   UNL A   1      45.060  28.957  35.380  1.00  0.00     0.173 A 
ATOM     63  C   UNL A   1      43.373  27.578  36.402  1.00  0.00     0.173 A 
ATOM     64  F   UNL A   1      45.430  29.911  34.514  1.00  0.00    -0.203 F 
ATOM     65  C   UNL A   1      46.039  28.305  36.124  1.00  0.00     0.198 A 
ATOM     66  C   UNL A   1      44.353  26.949  37.164  1.00  0.00     0.198 A 
ATOM     67  F   UNL A   1      42.095  27.201  36.552  1.00  0.00    -0.203 F 
ATOM     68  F   UNL A   1      47.329  28.634  35.962  1.00  0.00    -0.200 F 
ATOM     69  C   UNL A   1      45.685  27.308  37.020  1.00  0.00     0.200 A 
ATOM     70  F   UNL A   1      44.008  25.991  38.036  1.00  0.00    -0.200 F 
ATOM     71  F   UNL A   1      46.629  26.684  37.738  1.00  0.00    -0.200 F 
ENDBRANCH  38  61
ENDBRANCH  12  13
ENDBRANCH   5   7
ENDBRANCH   2   3
ENDBRANCH   1   2
BRANCH   1  72
ATOM     72  C   UNL A   1      31.702  30.820  26.063  1.00  0.00     0.117 C 
BRANCH  72  73
ATOM     73  N   UNL A   1      31.636  29.838  27.130  1.00  0.00    -0.356 N 
ATOM     74  C   UNL A   1      31.778  28.478  27.053  1.00  0.00     0.226 C 
ATOM     75  H   UNL A   1      31.466  30.197  28.031  1.00  0.00     0.163 HD
ATOM     76  O   UNL A   1      31.587  27.814  28.070  1.00  0.00    -0.274 OA
BRANCH  74  77
ATOM     77  C   UNL A   1      32.205  27.875  25.717  1.00  0.00     0.103 C 
ATOM     78  C   UNL A   1      33.650  27.483  25.824  1.00  0.00    -0.016 C 
ATOM     79  C   UNL A   1      31.525  26.541  25.382  1.00  0.00     0.042 C 
ATOM     80  C   UNL A   1      33.869  26.242  25.383  1.00  0.00    -0.011 C 
ATOM     81  C   UNL A   1      32.633  25.616  24.847  1.00  0.00     0.093 C 
BRANCH  81  82
ATOM     82  N   UNL A   1      32.419  24.268  25.339  1.00  0.00    -0.204 NA
ATOM     83  H   UNL A   1      31.466  24.248  25.702  1.00  0.00     0.142 HD
BRANCH  82  84
ATOM     84  S   UNL A   1      32.573  22.914  24.368  1.00  0.00     0.241 S 
ATOM     85  O   UNL A   1      31.852  21.827  24.992  1.00  0.00    -0.207 OA
ATOM     86  O   UNL A   1      32.261  23.349  23.025  1.00  0.00    -0.207 OA
BRANCH  84  87
ATOM     87  C   UNL A   1      34.297  22.505  24.395  1.00  0.00     0.082 A 
ATOM     88  C   UNL A   1      34.779  21.439  25.159  1.00  0.00     0.022 A 
ATOM     89  C   UNL A   1      35.159  23.235  23.567  1.00  0.00     0.022 A 
ATOM     90  C   UNL A   1      36.128  21.092  25.075  1.00  0.00     0.001 A 
ATOM     91  C   UNL A   1      36.509  22.894  23.502  1.00  0.00     0.001 A 
ATOM     92  C   UNL A   1      36.990  21.818  24.248  1.00  0.00     0.000 A 
ENDBRANCH  84  87
ENDBRANCH  82  84
ENDBRANCH  81  82
ENDBRANCH  74  77
ENDBRANCH  72  73
ENDBRANCH   1  72
TORSDOF 13
ENDMDL
MODEL 2
REMARK VINA RESULT:     -12.5      5.768     11.346
REMARK SMILES O=C(NCCCNC(=O)[C@H]1C=C[C@@H](NS(=O)(=O)c2ccccc2)C1)c1ccc(-c2c3nc(c(-c4c(F)c(F)c(F)c(F)c4F)c4ccc([nH]4)c(-c4c(F)c(F)c(F)c(F)c4F)c4nc(c(-c5c(F)c(F)c(F)c(F)c5F)c5ccc2[nH]5)C=C4)C=C3)cc1
REMARK SMILES IDX 5 1 4 2 3 3 1 4 2 5 25 7 26 8 87 9 27 10 86 11 28 12 29 13
REMARK SMILES IDX 30 14 80 15 31 16 85 17 79 18 81 19 32 20 84 21 78 22 77 23
REMARK SMILES IDX 33 25 65 26 45 27 64 28 46 29 49 30 63 31 82 32 47 33 48 34
REMARK SMILES IDX 62 36 83 37 50 38 34 39 35 40 43 41 36 42 37 43 41 44 44 45
REMARK SMILES IDX 38 46 39 47 42 48 40 49 66 50 67 51 75 52 68 53 69 54 73 55
REMARK SMILES IDX 76 56 70 57 71 58 74 59 72 60 51 61 52 62 60 63 53 64 54 65
REMARK SMILES IDX 58 66 61 67 55 68 56 69 59 70 57 71 6 72 7 73 8 74 9 76
REMARK SMILES IDX 10 77 11 78 24 79 12 80 13 81 14 82 15 84 16 85 17 86 18 87
REMARK SMILES IDX 19 88 23 89 20 90 22 91 21 92
REMARK H PARENT 3 6 81 24 49 35 7 75 14 83
REMARK Flexibility Score: inf
ROOT
ATOM      1  C   UNL A   1      37.916  19.656  24.998  1.00  0.00     0.042 C 
ENDROOT
BRANCH   1   2
ATOM      2  C   UNL A   1      39.122  20.201  25.752  1.00  0.00     0.118 C 
BRANCH   2   3
ATOM      3  N   UNL A   1      40.156  19.195  25.943  1.00  0.00    -0.352 N 
ATOM      4  O   UNL A   1      42.246  18.374  26.075  1.00  0.00    -0.269 OA
ATOM      5  C   UNL A   1      41.505  19.351  26.131  1.00  0.00     0.251 C 
ATOM      6  H   UNL A   1      39.839  18.263  25.935  1.00  0.00     0.163 HD
BRANCH   5   7
ATOM      7  C   UNL A   1      42.071  20.689  26.398  1.00  0.00     0.039 A 
ATOM      8  C   UNL A   1      42.326  21.581  25.353  1.00  0.00     0.014 A 
ATOM      9  C   UNL A   1      42.284  21.081  27.723  1.00  0.00     0.014 A 
ATOM     10  C   UNL A   1      42.884  22.825  25.624  1.00  0.00     0.010 A 
ATOM     11  C   UNL A   1      42.774  22.359  28.000  1.00  0.00     0.010 A 
ATOM     12  C   UNL A   1      43.082  23.237  26.951  1.00  0.00    -0.014 A 
BRANCH  12  13
ATOM     13  C   UNL A   1      43.490  24.637  27.221  1.00  0.00     0.031 A 
ATOM     14  C   UNL A   1      42.506  25.657  27.707  1.00  0.00     0.074 A 
ATOM     15  C   UNL A   1      44.777  24.974  27.007  1.00  0.00     0.049 A 
ATOM     16  N   UNL A   1      42.702  26.923  27.976  1.00  0.00    -0.248 NA
ATOM     17  C   UNL A   1      41.120  25.207  27.912  1.00  0.00     0.031 C 
ATOM     18  C   UNL A   1      45.811  24.064  26.505  1.00  0.00     0.029 A 
ATOM     19  N   UNL A   1      45.437  26.162  27.179  1.00  0.00    -0.354 N 
ATOM     20  C   UNL A   1      41.468  27.426  28.365  1.00  0.00     0.074 A 
ATOM     21  C   UNL A   1      40.522  26.333  28.283  1.00  0.00     0.031 C 
ATOM     22  C   UNL A   1      46.978  24.719  26.432  1.00  0.00     0.029 A 
ATOM     23  C   UNL A   1      46.763  26.106  26.825  1.00  0.00     0.049 A 
ATOM     24  H   UNL A   1      45.005  26.976  27.522  1.00  0.00     0.167 HD
ATOM     25  C   UNL A   1      41.164  28.686  28.757  1.00  0.00     0.037 A 
ATOM     26  C   UNL A   1      47.698  27.073  26.791  1.00  0.00     0.037 A 
ATOM     27  C   UNL A   1      42.121  29.758  28.860  1.00  0.00     0.049 A 
ATOM     28  C   UNL A   1      47.319  28.463  27.213  1.00  0.00     0.074 A 
ATOM     29  C   UNL A   1      41.926  31.043  29.336  1.00  0.00     0.029 A 
ATOM     30  N   UNL A   1      43.448  29.673  28.469  1.00  0.00    -0.354 N 
ATOM     31  N   UNL A   1      46.166  28.907  27.650  1.00  0.00    -0.248 NA
ATOM     32  C   UNL A   1      48.367  29.488  27.129  1.00  0.00     0.031 C 
ATOM     33  C   UNL A   1      43.123  31.752  29.184  1.00  0.00     0.029 A 
ATOM     34  C   UNL A   1      44.074  30.895  28.653  1.00  0.00     0.049 A 
ATOM     35  H   UNL A   1      43.883  28.864  28.113  1.00  0.00     0.167 HD
ATOM     36  C   UNL A   1      46.348  30.259  27.895  1.00  0.00     0.074 A 
ATOM     37  C   UNL A   1      47.732  30.557  27.589  1.00  0.00     0.031 C 
ATOM     38  C   UNL A   1      45.448  31.175  28.327  1.00  0.00     0.037 A 
BRANCH  25  39
ATOM     39  C   UNL A   1      39.739  28.996  29.102  1.00  0.00     0.064 A 
ATOM     40  C   UNL A   1      38.821  29.418  28.130  1.00  0.00     0.173 A 
ATOM     41  C   UNL A   1      39.262  28.770  30.403  1.00  0.00     0.173 A 
ATOM     42  F   UNL A   1      39.229  29.656  26.875  1.00  0.00    -0.203 F 
ATOM     43  C   UNL A   1      37.478  29.605  28.448  1.00  0.00     0.198 A 
ATOM     44  C   UNL A   1      37.915  28.938  30.713  1.00  0.00     0.198 A 
ATOM     45  F   UNL A   1      40.099  28.360  31.368  1.00  0.00    -0.203 F 
ATOM     46  F   UNL A   1      36.620  30.025  27.508  1.00  0.00    -0.200 F 
ATOM     47  C   UNL A   1      37.025  29.355  29.735  1.00  0.00     0.200 A 
ATOM     48  F   UNL A   1      37.477  28.686  31.953  1.00  0.00    -0.200 F 
ATOM     49  F   UNL A   1      35.728  29.516  30.034  1.00  0.00    -0.200 F 
ENDBRANCH  25  39
BRANCH  26  50
ATOM     50  C   UNL A   1      49.068  26.763  26.310  1.00  0.00     0.064 A 
ATOM     51  C   UNL A   1      49.419  26.929  24.965  1.00  0.00     0.173 A 
ATOM     52  C   UNL A   1      50.053  26.289  27.190  1.00  0.00     0.173 A 
ATOM     53  F   UNL A   1      48.505  27.359  24.082  1.00  0.00    -0.203 F 
ATOM     54  C   UNL A   1      50.698  26.612  24.512  1.00  0.00     0.198 A 
ATOM     55  C   UNL A   1      51.341  26.003  26.743  1.00  0.00     0.198 A 
ATOM     56  F   UNL A   1      49.768  26.117  28.489  1.00  0.00    -0.203 F 
ATOM     57  F   UNL A   1      50.995  26.735  23.211  1.00  0.00    -0.200 F 
ATOM     58  C   UNL A   1      51.659  26.155  25.402  1.00  0.00     0.200 A 
ATOM     59  F   UNL A   1      52.269  25.577  27.609  1.00  0.00    -0.200 F 
ATOM     60  F   UNL A   1      52.890  25.856  24.967  1.00  0.00    -0.200 F 
ENDBRANCH  26  50
BRANCH  38  61
ATOM     61  C   UNL A   1      45.936  32.583  28.484  1.00  0.00     0.064 A 
ATOM     62  C   UNL A   1      46.522  33.020  29.681  1.00  0.00     0.173 A 
ATOM     63  C   UNL A   1      45.841  33.495  27.422  1.00  0.00     0.173 A 
ATOM     64  F   UNL A   1      46.616  32.189  30.728  1.00  0.00    -0.203 F 
ATOM     65  C   UNL A   1      46.976  34.328  29.816  1.00  0.00     0.198 A 
ATOM     66  C   UNL A   1      46.322  34.794  27.553  1.00  0.00     0.198 A 
ATOM     67  F   UNL A   1      45.291  33.122  26.257  1.00  0.00    -0.203 F 
ATOM     68  F   UNL A   1      47.492  34.738  30.984  1.00  0.00    -0.200 F 
ATOM     69  C   UNL A   1      46.883  35.211  28.751  1.00  0.00     0.200 A 
ATOM     70  F   UNL A   1      46.239  35.644  26.521  1.00  0.00    -0.200 F 
ATOM     71  F   UNL A   1      47.324  36.470  28.882  1.00  0.00    -0.200 F 
ENDBRANCH  38  61
ENDBRANCH  12  13
ENDBRANCH   5   7
ENDBRANCH   2   3
ENDBRANCH   1   2
BRANCH   1  72
ATOM     72  C   UNL A   1      36.730  20.611  24.988  1.00  0.00     0.117 C 
BRANCH  72  73
ATOM     73  N   UNL A   1      35.483  19.907  25.225  1.00  0.00    -0.356 N 
ATOM     74  C   UNL A   1      34.201  20.342  25.024  1.00  0.00     0.226 C 
ATOM     75  H   UNL A   1      35.571  18.992  25.578  1.00  0.00     0.163 HD
ATOM     76  O   UNL A   1      33.276  19.616  25.385  1.00  0.00    -0.274 OA
BRANCH  74  77
ATOM     77  C   UNL A   1      33.999  21.684  24.326  1.00  0.00     0.103 C 
ATOM     78  C   UNL A   1      32.739  21.603  23.515  1.00  0.00    -0.016 C 
ATOM     79  C   UNL A   1      33.703  22.851  25.279  1.00  0.00     0.042 C 
ATOM     80  C   UNL A   1      31.942  22.654  23.716  1.00  0.00    -0.011 C 
ATOM     81  C   UNL A   1      32.551  23.646  24.639  1.00  0.00     0.093 C 
BRANCH  81  82
ATOM     82  N   UNL A   1      31.638  24.095  25.674  1.00  0.00    -0.204 NA
ATOM     83  H   UNL A   1      32.197  24.185  26.523  1.00  0.00     0.142 HD
BRANCH  82  84
ATOM     84  S   UNL A   1      30.753  25.509  25.550  1.00  0.00     0.241 S 
ATOM     85  O   UNL A   1      30.494  25.757  24.149  1.00  0.00    -0.207 OA
ATOM     86  O   UNL A   1      29.672  25.388  26.502  1.00  0.00    -0.207 OA
BRANCH  84  87
ATOM     87  C   UNL A   1      31.823  26.792  26.139  1.00  0.00     0.082 A 
ATOM     88  C   UNL A   1      31.404  27.694  27.120  1.00  0.00     0.022 A 
ATOM     89  C   UNL A   1      33.134  26.833  25.648  1.00  0.00     0.022 A 
ATOM     90  C   UNL A   1      32.311  28.627  27.624  1.00  0.00     0.001 A 
ATOM     91  C   UNL A   1      34.028  27.780  26.142  1.00  0.00     0.001 A 
ATOM     92  C   UNL A   1      33.620  28.669  27.136  1.00  0.00     0.000 A 
ENDBRANCH  84  87
ENDBRANCH  82  84
ENDBRANCH  81  82
ENDBRANCH  74  77
ENDBRANCH  72  73
ENDBRANCH   1  72
TORSDOF 13
ENDMDL
MODEL 3
REMARK VINA RESULT:     -12.5      1.079      2.050
REMARK SMILES O=C(NCCCNC(=O)[C@H]1C=C[C@@H](NS(=O)(=O)c2ccccc2)C1)c1ccc(-c2c3nc(c(-c4c(F)c(F)c(F)c(F)c4F)c4ccc([nH]4)c(-c4c(F)c(F)c(F)c(F)c4F)c4nc(c(-c5c(F)c(F)c(F)c(F)c5F)c5ccc2[nH]5)C=C4)C=C3)cc1
REMARK SMILES IDX 5 1 4 2 3 3 1 4 2 5 25 7 26 8 87 9 27 10 86 11 28 12 29 13
REMARK SMILES IDX 30 14 80 15 31 16 85 17 79 18 81 19 32 20 84 21 78 22 77 23
REMARK SMILES IDX 33 25 65 26 45 27 64 28 46 29 49 30 63 31 82 32 47 33 48 34
REMARK SMILES IDX 62 36 83 37 50 38 34 39 35 40 43 41 36 42 37 43 41 44 44 45
REMARK SMILES IDX 38 46 39 47 42 48 40 49 66 50 67 51 75 52 68 53 69 54 73 55
REMARK SMILES IDX 76 56 70 57 71 58 74 59 72 60 51 61 52 62 60 63 53 64 54 65
REMARK SMILES IDX 58 66 61 67 55 68 56 69 59 70 57 71 6 72 7 73 8 74 9 76
REMARK SMILES IDX 10 77 11 78 24 79 12 80 13 81 14 82 15 84 16 85 17 86 18 87
REMARK SMILES IDX 19 88 23 89 20 90 22 91 21 92
REMARK H PARENT 3 6 81 24 49 35 7 75 14 83
REMARK Flexibility Score: inf
ROOT
ATOM      1  C   UNL A   1      31.373  31.941  26.512  1.00  0.00     0.042 C 
ENDROOT
BRANCH   1   2
ATOM      2  C   UNL A   1      32.589  32.517  27.225  1.00  0.00     0.118 C 
BRANCH   2   3
ATOM      3  N   UNL A   1      32.426  33.927  27.546  1.00  0.00    -0.352 N 
ATOM      4  O   UNL A   1      32.632  35.813  28.756  1.00  0.00    -0.269 OA
ATOM      5  C   UNL A   1      33.045  34.684  28.506  1.00  0.00     0.251 C 
ATOM      6  H   UNL A   1      31.772  34.410  26.990  1.00  0.00     0.163 HD
BRANCH   5   7
ATOM      7  C   UNL A   1      34.208  34.148  29.243  1.00  0.00     0.039 A 
ATOM      8  C   UNL A   1      34.032  33.309  30.347  1.00  0.00     0.014 A 
ATOM      9  C   UNL A   1      35.495  34.436  28.779  1.00  0.00     0.014 A 
ATOM     10  C   UNL A   1      35.138  32.837  31.043  1.00  0.00     0.010 A 
ATOM     11  C   UNL A   1      36.606  33.900  29.434  1.00  0.00     0.010 A 
ATOM     12  C   UNL A   1      36.435  33.101  30.573  1.00  0.00    -0.014 A 
BRANCH  12  13
ATOM     13  C   UNL A   1      37.589  32.426  31.214  1.00  0.00     0.031 A 
ATOM     14  C   UNL A   1      38.293  31.283  30.548  1.00  0.00     0.074 A 
ATOM     15  C   UNL A   1      37.985  32.863  32.426  1.00  0.00     0.049 A 
ATOM     16  N   UNL A   1      39.308  30.579  30.982  1.00  0.00    -0.248 NA
ATOM     17  C   UNL A   1      37.795  30.866  29.227  1.00  0.00     0.031 C 
ATOM     18  C   UNL A   1      37.349  33.949  33.176  1.00  0.00     0.029 A 
ATOM     19  N   UNL A   1      39.008  32.453  33.239  1.00  0.00    -0.354 N 
ATOM     20  C   UNL A   1      39.560  29.629  30.002  1.00  0.00     0.074 A 
ATOM     21  C   UNL A   1      38.582  29.833  28.954  1.00  0.00     0.031 C 
ATOM     22  C   UNL A   1      38.008  34.136  34.328  1.00  0.00     0.029 A 
ATOM     23  C   UNL A   1      39.075  33.147  34.423  1.00  0.00     0.049 A 
ATOM     24  H   UNL A   1      39.634  31.733  33.000  1.00  0.00     0.167 HD
ATOM     25  C   UNL A   1      40.525  28.680  29.987  1.00  0.00     0.037 A 
ATOM     26  C   UNL A   1      39.888  32.985  35.483  1.00  0.00     0.037 A 
ATOM     27  C   UNL A   1      41.509  28.504  31.025  1.00  0.00     0.049 A 
ATOM     28  C   UNL A   1      40.932  31.908  35.440  1.00  0.00     0.074 A 
ATOM     29  C   UNL A   1      42.583  27.631  31.055  1.00  0.00     0.029 A 
ATOM     30  N   UNL A   1      41.531  29.206  32.220  1.00  0.00    -0.354 N 
ATOM     31  N   UNL A   1      41.208  31.066  34.474  1.00  0.00    -0.248 NA
ATOM     32  C   UNL A   1      41.773  31.753  36.633  1.00  0.00     0.031 C 
ATOM     33  C   UNL A   1      43.224  27.768  32.290  1.00  0.00     0.029 A 
ATOM     34  C   UNL A   1      42.575  28.756  33.013  1.00  0.00     0.049 A 
ATOM     35  H   UNL A   1      40.899  29.919  32.469  1.00  0.00     0.167 HD
ATOM     36  C   UNL A   1      42.252  30.283  34.941  1.00  0.00     0.074 A 
ATOM     37  C   UNL A   1      42.583  30.772  36.264  1.00  0.00     0.031 C 
ATOM     38  C   UNL A   1      42.877  29.245  34.332  1.00  0.00     0.037 A 
BRANCH  25  39
ATOM     39  C   UNL A   1      40.577  27.740  28.820  1.00  0.00     0.064 A 
ATOM     40  C   UNL A   1      39.812  26.566  28.786  1.00  0.00     0.173 A 
ATOM     41  C   UNL A   1      41.323  28.073  27.679  1.00  0.00     0.173 A 
ATOM     42  F   UNL A   1      39.089  26.200  29.855  1.00  0.00    -0.203 F 
ATOM     43  C   UNL A   1      39.795  25.756  27.653  1.00  0.00     0.198 A 
ATOM     44  C   UNL A   1      41.288  27.272  26.540  1.00  0.00     0.198 A 
ATOM     45  F   UNL A   1      42.067  29.189  27.659  1.00  0.00    -0.203 F 
ATOM     46  F   UNL A   1      39.070  24.629  27.647  1.00  0.00    -0.200 F 
ATOM     47  C   UNL A   1      40.523  26.115  26.528  1.00  0.00     0.200 A 
ATOM     48  F   UNL A   1      41.983  27.625  25.451  1.00  0.00    -0.200 F 
ATOM     49  F   UNL A   1      40.489  25.344  25.432  1.00  0.00    -0.200 F 
ENDBRANCH  25  39
BRANCH  26  50
ATOM     50  C   UNL A   1      39.718  33.843  36.684  1.00  0.00     0.064 A 
ATOM     51  C   UNL A   1      38.902  33.446  37.750  1.00  0.00     0.173 A 
ATOM     52  C   UNL A   1      40.370  35.082  36.784  1.00  0.00     0.173 A 
ATOM     53  F   UNL A   1      38.243  32.279  37.689  1.00  0.00    -0.203 F 
ATOM     54  C   UNL A   1      38.726  34.266  38.863  1.00  0.00     0.198 A 
ATOM     55  C   UNL A   1      40.218  35.886  37.911  1.00  0.00     0.198 A 
ATOM     56  F   UNL A   1      41.166  35.506  35.791  1.00  0.00    -0.203 F 
ATOM     57  F   UNL A   1      37.902  33.884  39.849  1.00  0.00    -0.200 F 
ATOM     58  C   UNL A   1      39.388  35.481  38.945  1.00  0.00     0.200 A 
ATOM     59  F   UNL A   1      40.872  37.052  37.992  1.00  0.00    -0.200 F 
ATOM     60  F   UNL A   1      39.222  36.266  40.018  1.00  0.00    -0.200 F 
ENDBRANCH  26  50
BRANCH  38  61
ATOM     61  C   UNL A   1      43.972  28.570  35.100  1.00  0.00     0.064 A 
ATOM     62  C   UNL A   1      43.708  27.468  35.926  1.00  0.00     0.173 A 
ATOM     63  C   UNL A   1      45.299  29.011  34.990  1.00  0.00     0.173 A 
ATOM     64  F   UNL A   1      42.452  27.025  36.077  1.00  0.00    -0.203 F 
ATOM     65  C   UNL A   1      44.732  26.845  36.632  1.00  0.00     0.198 A 
ATOM     66  C   UNL A   1      46.324  28.367  35.677  1.00  0.00     0.198 A 
ATOM     67  F   UNL A   1      45.601  30.060  34.210  1.00  0.00    -0.203 F 
ATOM     68  F   UNL A   1      44.450  25.822  37.452  1.00  0.00    -0.200 F 
ATOM     69  C   UNL A   1      46.038  27.289  36.502  1.00  0.00     0.200 A 
ATOM     70  F   UNL A   1      47.588  28.792  35.543  1.00  0.00    -0.200 F 
ATOM     71  F   UNL A   1      47.024  26.685  37.180  1.00  0.00    -0.200 F 
ENDBRANCH  38  61
ENDBRANCH  12  13
ENDBRANCH   5   7
ENDBRANCH   2   3
ENDBRANCH   1   2
BRANCH   1  72
ATOM     72  C   UNL A   1      31.600  30.533  25.976  1.00  0.00     0.117 C 
BRANCH  72  73
ATOM     73  N   UNL A   1      31.050  30.381  24.642  1.00  0.00    -0.356 N 
ATOM     74  C   UNL A   1      30.847  29.234  23.923  1.00  0.00     0.226 C 
ATOM     75  H   UNL A   1      30.785  31.217  24.192  1.00  0.00     0.163 HD
ATOM     76  O   UNL A   1      30.457  29.335  22.762  1.00  0.00    -0.274 OA
BRANCH  74  77
ATOM     77  C   UNL A   1      31.080  27.898  24.624  1.00  0.00     0.103 C 
ATOM     78  C   UNL A   1      29.973  26.965  24.229  1.00  0.00    -0.016 C 
ATOM     79  C   UNL A   1      32.330  27.146  24.146  1.00  0.00     0.042 C 
ATOM     80  C   UNL A   1      30.432  25.772  23.844  1.00  0.00    -0.011 C 
ATOM     81  C   UNL A   1      31.909  25.676  23.975  1.00  0.00     0.093 C 
BRANCH  81  82
ATOM     82  N   UNL A   1      32.549  25.121  22.796  1.00  0.00    -0.204 NA
ATOM     83  H   UNL A   1      33.334  25.738  22.586  1.00  0.00     0.142 HD
BRANCH  82  84
ATOM     84  S   UNL A   1      33.155  23.563  22.743  1.00  0.00     0.241 S 
ATOM     85  O   UNL A   1      32.226  22.694  23.431  1.00  0.00    -0.207 OA
ATOM     86  O   UNL A   1      33.524  23.326  21.366  1.00  0.00    -0.207 OA
BRANCH  84  87
ATOM     87  C   UNL A   1      34.656  23.606  23.684  1.00  0.00     0.082 A 
ATOM     88  C   UNL A   1      34.710  24.227  24.935  1.00  0.00     0.022 A 
ATOM     89  C   UNL A   1      35.772  22.933  23.173  1.00  0.00     0.022 A 
ATOM     90  C   UNL A   1      35.886  24.152  25.684  1.00  0.00     0.001 A 
ATOM     91  C   UNL A   1      36.948  22.879  23.919  1.00  0.00     0.001 A 
ATOM     92  C   UNL A   1      37.001  23.480  25.176  1.00  0.00     0.000 A 
ENDBRANCH  84  87
ENDBRANCH  82  84
ENDBRANCH  81  82
ENDBRANCH  74  77
ENDBRANCH  72  73
ENDBRANCH   1  72
TORSDOF 13
ENDMDL
