MODEL 1
REMARK VINA RESULT:     -11.8      0.000      0.000
REMARK SMILES CN([C@H]1CCSC1)S(=O)(=O)c1cccc(C(=O)NCCCNC(=O)c2ccc(-c3c4nc(c(-c5c(F)c(F)c(F)c(F)c5F)c5ccc([nH]5)c(-c5c(F)c(F)c(F)c(F)c5F)c5nc(c(-c6c(F)c(F)c(F)c(F)c6F)c6ccc3[nH]6)C=C5)C=C4)cc2)c1
REMARK SMILES IDX 19 1 18 2 16 3 17 4 15 6 11 7 12 8 88 9 13 10 14 11 8 12
REMARK SMILES IDX 9 13 10 14 2 15 1 16 3 17 4 18 7 19 5 20 6 21 20 22 21 23
REMARK SMILES IDX 22 24 23 25 24 27 25 28 26 29 87 30 27 31 86 32 28 33 29 34
REMARK SMILES IDX 30 35 80 36 31 37 85 38 79 39 81 40 32 41 84 42 78 43 77 44
REMARK SMILES IDX 33 46 65 47 45 48 64 49 46 50 49 51 63 52 82 53 47 54 48 55
REMARK SMILES IDX 62 57 83 58 50 59 34 60 35 61 43 62 36 63 37 64 41 65 44 66
REMARK SMILES IDX 38 67 39 68 42 69 40 70 66 71 67 72 75 73 68 74 69 75 73 76
REMARK SMILES IDX 76 77 70 78 71 79 74 80 72 81 51 82 52 83 60 84 53 85 54 86
REMARK SMILES IDX 58 87 61 88 55 89 56 90 59 91 57 92
REMARK H PARENT 18 5 22 26 81 45 49 56
REMARK Flexibility Score: inf
ROOT
ATOM      1  C   UNL A   1      31.635  30.703  26.615  1.00  0.00     0.118 C 
ENDROOT
BRANCH   1   2
ATOM      2  N   UNL A   1      32.902  30.236  27.148  1.00  0.00    -0.352 N 
ATOM      3  C   UNL A   1      33.719  29.160  26.914  1.00  0.00     0.251 C 
ATOM      4  O   UNL A   1      34.787  29.153  27.534  1.00  0.00    -0.269 OA
ATOM      5  H   UNL A   1      33.260  30.834  27.843  1.00  0.00     0.163 HD
BRANCH   3   6
ATOM      6  C   UNL A   1      33.420  28.012  26.002  1.00  0.00     0.041 A 
ATOM      7  C   UNL A   1      32.742  25.735  25.471  1.00  0.00     0.083 A 
ATOM      8  C   UNL A   1      33.012  25.922  24.119  1.00  0.00     0.022 A 
ATOM      9  C   UNL A   1      32.950  26.765  26.403  1.00  0.00     0.035 A 
ATOM     10  C   UNL A   1      33.481  27.165  23.698  1.00  0.00     0.002 A 
ATOM     11  C   UNL A   1      33.678  28.196  24.630  1.00  0.00     0.014 A 
BRANCH   7  12
ATOM     12  S   UNL A   1      32.242  24.154  26.101  1.00  0.00     0.243 S 
ATOM     13  O   UNL A   1      31.718  23.372  24.999  1.00  0.00    -0.207 OA
ATOM     14  O   UNL A   1      31.414  24.447  27.251  1.00  0.00    -0.207 OA
BRANCH  12  15
ATOM     15  N   UNL A   1      33.645  23.359  26.651  1.00  0.00    -0.197 NA
ATOM     16  C   UNL A   1      33.274  22.158  27.467  1.00  0.00     0.125 C 
BRANCH  15  17
ATOM     17  C   UNL A   1      34.797  23.015  25.747  1.00  0.00     0.083 C 
ATOM     18  C   UNL A   1      36.023  23.922  25.749  1.00  0.00     0.032 C 
ATOM     19  C   UNL A   1      35.320  21.623  26.124  1.00  0.00     0.089 C 
ATOM     20  C   UNL A   1      37.060  23.226  24.875  1.00  0.00     0.071 C 
ATOM     21  S   UNL A   1      36.939  21.473  25.319  1.00  0.00    -0.160 SA
ENDBRANCH  15  17
ENDBRANCH  12  15
ENDBRANCH   7  12
ENDBRANCH   3   6
ENDBRANCH   1   2
BRANCH   1  22
ATOM     22  C   UNL A   1      31.400  32.192  26.876  1.00  0.00     0.042 C 
BRANCH  22  23
ATOM     23  C   UNL A   1      32.699  33.002  26.937  1.00  0.00     0.118 C 
BRANCH  23  24
ATOM     24  N   UNL A   1      32.517  34.278  27.622  1.00  0.00    -0.352 N 
ATOM     25  C   UNL A   1      33.037  34.765  28.792  1.00  0.00     0.251 C 
ATOM     26  H   UNL A   1      31.910  34.901  27.161  1.00  0.00     0.163 HD
ATOM     27  O   UNL A   1      32.522  35.753  29.311  1.00  0.00    -0.269 OA
BRANCH  25  28
ATOM     28  C   UNL A   1      34.214  34.139  29.433  1.00  0.00     0.039 A 
ATOM     29  C   UNL A   1      35.493  34.507  29.001  1.00  0.00     0.014 A 
ATOM     30  C   UNL A   1      34.066  33.130  30.386  1.00  0.00     0.014 A 
ATOM     31  C   UNL A   1      36.621  33.902  29.561  1.00  0.00     0.010 A 
ATOM     32  C   UNL A   1      35.189  32.581  30.998  1.00  0.00     0.010 A 
ATOM     33  C   UNL A   1      36.477  32.954  30.585  1.00  0.00    -0.014 A 
BRANCH  33  34
ATOM     34  C   UNL A   1      37.656  32.327  31.235  1.00  0.00     0.031 A 
ATOM     35  C   UNL A   1      38.394  31.215  30.544  1.00  0.00     0.074 A 
ATOM     36  C   UNL A   1      38.007  32.702  32.479  1.00  0.00     0.049 A 
ATOM     37  N   UNL A   1      39.365  30.457  30.992  1.00  0.00    -0.248 NA
ATOM     38  C   UNL A   1      37.961  30.886  29.176  1.00  0.00     0.031 C 
ATOM     39  C   UNL A   1      37.339  33.736  33.270  1.00  0.00     0.029 A 
ATOM     40  N   UNL A   1      39.001  32.242  33.305  1.00  0.00    -0.354 N 
ATOM     41  C   UNL A   1      39.633  29.547  29.977  1.00  0.00     0.074 A 
ATOM     42  C   UNL A   1      38.698  29.817  28.908  1.00  0.00     0.031 C 
ATOM     43  C   UNL A   1      37.952  33.845  34.460  1.00  0.00     0.029 A 
ATOM     44  C   UNL A   1      39.030  32.863  34.529  1.00  0.00     0.049 A 
ATOM     45  H   UNL A   1      39.635  31.534  33.044  1.00  0.00     0.167 HD
ATOM     46  C   UNL A   1      40.587  28.587  29.936  1.00  0.00     0.037 A 
ATOM     47  C   UNL A   1      39.830  32.656  35.592  1.00  0.00     0.037 A 
ATOM     48  C   UNL A   1      41.543  28.352  30.986  1.00  0.00     0.049 A 
ATOM     49  C   UNL A   1      40.897  31.598  35.511  1.00  0.00     0.074 A 
ATOM     50  C   UNL A   1      42.595  27.453  31.012  1.00  0.00     0.029 A 
ATOM     51  N   UNL A   1      41.565  29.030  32.196  1.00  0.00    -0.354 N 
ATOM     52  N   UNL A   1      41.180  30.783  34.524  1.00  0.00    -0.248 NA
ATOM     53  C   UNL A   1      41.759  31.437  36.690  1.00  0.00     0.031 C 
ATOM     54  C   UNL A   1      43.234  27.563  32.252  1.00  0.00     0.029 A 
ATOM     55  C   UNL A   1      42.604  28.558  32.982  1.00  0.00     0.049 A 
ATOM     56  H   UNL A   1      40.936  29.741  32.458  1.00  0.00     0.167 HD
ATOM     57  C   UNL A   1      42.265  30.031  34.951  1.00  0.00     0.074 A 
ATOM     58  C   UNL A   1      42.599  30.497  36.282  1.00  0.00     0.031 C 
ATOM     59  C   UNL A   1      42.926  29.043  34.300  1.00  0.00     0.037 A 
BRANCH  46  60
ATOM     60  C   UNL A   1      40.647  27.720  28.712  1.00  0.00     0.064 A 
ATOM     61  C   UNL A   1      41.468  28.042  27.620  1.00  0.00     0.173 A 
ATOM     62  C   UNL A   1      39.900  26.534  28.642  1.00  0.00     0.173 A 
ATOM     63  F   UNL A   1      42.193  29.172  27.633  1.00  0.00    -0.203 F 
ATOM     64  C   UNL A   1      41.515  27.229  26.493  1.00  0.00     0.198 A 
ATOM     65  C   UNL A   1      39.972  25.706  27.525  1.00  0.00     0.198 A 
ATOM     66  F   UNL A   1      39.104  26.174  29.660  1.00  0.00    -0.203 F 
ATOM     67  F   UNL A   1      42.268  27.583  25.442  1.00  0.00    -0.200 F 
ATOM     68  C   UNL A   1      40.773  26.058  26.448  1.00  0.00     0.200 A 
ATOM     69  F   UNL A   1      39.263  24.569  27.487  1.00  0.00    -0.200 F 
ATOM     70  F   UNL A   1      40.823  25.272  25.363  1.00  0.00    -0.200 F 
ENDBRANCH  46  60
BRANCH  47  71
ATOM     71  C   UNL A   1      39.671  33.488  36.810  1.00  0.00     0.064 A 
ATOM     72  C   UNL A   1      38.806  33.090  37.840  1.00  0.00     0.173 A 
ATOM     73  C   UNL A   1      40.377  34.689  36.977  1.00  0.00     0.173 A 
ATOM     74  F   UNL A   1      38.095  31.960  37.716  1.00  0.00    -0.203 F 
ATOM     75  C   UNL A   1      38.641  33.869  38.983  1.00  0.00     0.198 A 
ATOM     76  C   UNL A   1      40.229  35.454  38.131  1.00  0.00     0.198 A 
ATOM     77  F   UNL A   1      41.220  35.110  36.023  1.00  0.00    -0.203 F 
ATOM     78  F   UNL A   1      37.777  33.486  39.932  1.00  0.00    -0.200 F 
ATOM     79  C   UNL A   1      39.356  35.048  39.129  1.00  0.00     0.200 A 
ATOM     80  F   UNL A   1      40.931  36.587  38.277  1.00  0.00    -0.200 F 
ATOM     81  F   UNL A   1      39.199  35.795  40.231  1.00  0.00    -0.200 F 
ENDBRANCH  47  71
BRANCH  59  82
ATOM     82  C   UNL A   1      44.098  28.425  35.003  1.00  0.00     0.064 A 
ATOM     83  C   UNL A   1      43.956  27.278  35.797  1.00  0.00     0.173 A 
ATOM     84  C   UNL A   1      45.384  28.963  34.845  1.00  0.00     0.173 A 
ATOM     85  F   UNL A   1      42.743  26.737  35.991  1.00  0.00    -0.203 F 
ATOM     86  C   UNL A   1      45.057  26.706  36.427  1.00  0.00     0.198 A 
ATOM     87  C   UNL A   1      46.486  28.372  35.454  1.00  0.00     0.198 A 
ATOM     88  F   UNL A   1      45.571  30.056  34.090  1.00  0.00    -0.203 F 
ATOM     89  F   UNL A   1      44.892  25.636  37.217  1.00  0.00    -0.200 F 
ATOM     90  C   UNL A   1      46.321  27.248  36.250  1.00  0.00     0.200 A 
ATOM     91  F   UNL A   1      47.709  28.890  35.273  1.00  0.00    -0.200 F 
ATOM     92  F   UNL A   1      47.380  26.691  36.852  1.00  0.00    -0.200 F 
ENDBRANCH  59  82
ENDBRANCH  33  34
ENDBRANCH  25  28
ENDBRANCH  23  24
ENDBRANCH  22  23
ENDBRANCH   1  22
TORSDOF 13
ENDMDL
MODEL 2
REMARK VINA RESULT:     -11.8      5.416     10.671
REMARK SMILES CN([C@H]1CCSC1)S(=O)(=O)c1cccc(C(=O)NCCCNC(=O)c2ccc(-c3c4nc(c(-c5c(F)c(F)c(F)c(F)c5F)c5ccc([nH]5)c(-c5c(F)c(F)c(F)c(F)c5F)c5nc(c(-c6c(F)c(F)c(F)c(F)c6F)c6ccc3[nH]6)C=C5)C=C4)cc2)c1
REMARK SMILES IDX 19 1 18 2 16 3 17 4 15 6 11 7 12 8 88 9 13 10 14 11 8 12
REMARK SMILES IDX 9 13 10 14 2 15 1 16 3 17 4 18 7 19 5 20 6 21 20 22 21 23
REMARK SMILES IDX 22 24 23 25 24 27 25 28 26 29 87 30 27 31 86 32 28 33 29 34
REMARK SMILES IDX 30 35 80 36 31 37 85 38 79 39 81 40 32 41 84 42 78 43 77 44
REMARK SMILES IDX 33 46 65 47 45 48 64 49 46 50 49 51 63 52 82 53 47 54 48 55
REMARK SMILES IDX 62 57 83 58 50 59 34 60 35 61 43 62 36 63 37 64 41 65 44 66
REMARK SMILES IDX 38 67 39 68 42 69 40 70 66 71 67 72 75 73 68 74 69 75 73 76
REMARK SMILES IDX 76 77 70 78 71 79 74 80 72 81 51 82 52 83 60 84 53 85 54 86
REMARK SMILES IDX 58 87 61 88 55 89 56 90 59 91 57 92
REMARK H PARENT 18 5 22 26 81 45 49 56
REMARK Flexibility Score: inf
ROOT
ATOM      1  C   UNL A   1      37.410  20.816  24.539  1.00  0.00     0.118 C 
ENDROOT
BRANCH   1   2
ATOM      2  N   UNL A   1      37.857  22.042  25.178  1.00  0.00    -0.352 N 
ATOM      3  C   UNL A   1      37.244  23.173  25.651  1.00  0.00     0.251 C 
ATOM      4  O   UNL A   1      37.981  23.986  26.217  1.00  0.00    -0.269 OA
ATOM      5  H   UNL A   1      38.834  22.066  25.299  1.00  0.00     0.163 HD
BRANCH   3   6
ATOM      6  C   UNL A   1      35.789  23.501  25.525  1.00  0.00     0.041 A 
ATOM      7  C   UNL A   1      33.847  24.561  24.511  1.00  0.00     0.083 A 
ATOM      8  C   UNL A   1      33.010  24.098  25.522  1.00  0.00     0.022 A 
ATOM      9  C   UNL A   1      35.221  24.272  24.516  1.00  0.00     0.035 A 
ATOM     10  C   UNL A   1      33.560  23.322  26.540  1.00  0.00     0.002 A 
ATOM     11  C   UNL A   1      34.932  23.026  26.537  1.00  0.00     0.014 A 
BRANCH   7  12
ATOM     12  S   UNL A   1      33.244  25.639  23.237  1.00  0.00     0.243 S 
ATOM     13  O   UNL A   1      31.798  25.540  23.206  1.00  0.00    -0.207 OA
ATOM     14  O   UNL A   1      34.027  25.316  22.064  1.00  0.00    -0.207 OA
BRANCH  12  15
ATOM     15  N   UNL A   1      33.623  27.234  23.701  1.00  0.00    -0.197 NA
ATOM     16  C   UNL A   1      33.391  28.175  22.558  1.00  0.00     0.125 C 
BRANCH  15  17
ATOM     17  C   UNL A   1      33.119  27.857  24.974  1.00  0.00     0.083 C 
ATOM     18  C   UNL A   1      34.029  27.859  26.197  1.00  0.00     0.032 C 
ATOM     19  C   UNL A   1      32.795  29.333  24.705  1.00  0.00     0.089 C 
ATOM     20  C   UNL A   1      33.313  28.695  27.251  1.00  0.00     0.071 C 
ATOM     21  S   UNL A   1      32.627  30.103  26.339  1.00  0.00    -0.160 SA
ENDBRANCH  15  17
ENDBRANCH  12  15
ENDBRANCH   7  12
ENDBRANCH   3   6
ENDBRANCH   1   2
BRANCH   1  22
ATOM     22  C   UNL A   1      38.207  19.592  24.993  1.00  0.00     0.042 C 
BRANCH  22  23
ATOM     23  C   UNL A   1      39.188  19.902  26.127  1.00  0.00     0.118 C 
BRANCH  23  24
ATOM     24  N   UNL A   1      40.406  19.101  26.033  1.00  0.00    -0.352 N 
ATOM     25  C   UNL A   1      41.728  19.458  26.000  1.00  0.00     0.251 C 
ATOM     26  H   UNL A   1      40.248  18.131  25.982  1.00  0.00     0.163 HD
ATOM     27  O   UNL A   1      42.562  18.632  25.634  1.00  0.00    -0.269 OA
BRANCH  25  28
ATOM     28  C   UNL A   1      42.174  20.806  26.412  1.00  0.00     0.039 A 
ATOM     29  C   UNL A   1      42.535  21.728  25.424  1.00  0.00     0.014 A 
ATOM     30  C   UNL A   1      42.329  21.136  27.759  1.00  0.00     0.014 A 
ATOM     31  C   UNL A   1      42.997  22.996  25.786  1.00  0.00     0.010 A 
ATOM     32  C   UNL A   1      42.718  22.422  28.121  1.00  0.00     0.010 A 
ATOM     33  C   UNL A   1      43.065  23.362  27.139  1.00  0.00    -0.014 A 
BRANCH  33  34
ATOM     34  C   UNL A   1      43.507  24.717  27.556  1.00  0.00     0.031 A 
ATOM     35  C   UNL A   1      42.492  25.755  27.943  1.00  0.00     0.074 A 
ATOM     36  C   UNL A   1      44.815  25.034  27.504  1.00  0.00     0.049 A 
ATOM     37  N   UNL A   1      42.664  27.025  28.215  1.00  0.00    -0.248 NA
ATOM     38  C   UNL A   1      41.088  25.317  27.997  1.00  0.00     0.031 C 
ATOM     39  C   UNL A   1      45.890  24.126  27.101  1.00  0.00     0.029 A 
ATOM     40  N   UNL A   1      45.460  26.214  27.775  1.00  0.00    -0.354 N 
ATOM     41  C   UNL A   1      41.394  27.539  28.441  1.00  0.00     0.074 A 
ATOM     42  C   UNL A   1      40.456  26.458  28.232  1.00  0.00     0.031 C 
ATOM     43  C   UNL A   1      47.063  24.777  27.167  1.00  0.00     0.029 A 
ATOM     44  C   UNL A   1      46.818  26.155  27.580  1.00  0.00     0.049 A 
ATOM     45  H   UNL A   1      44.994  27.026  28.082  1.00  0.00     0.167 HD
ATOM     46  C   UNL A   1      41.045  28.796  28.807  1.00  0.00     0.037 A 
ATOM     47  C   UNL A   1      47.758  27.110  27.709  1.00  0.00     0.037 A 
ATOM     48  C   UNL A   1      41.986  29.856  29.056  1.00  0.00     0.049 A 
ATOM     49  C   UNL A   1      47.347  28.491  28.140  1.00  0.00     0.074 A 
ATOM     50  C   UNL A   1      41.741  31.142  29.501  1.00  0.00     0.029 A 
ATOM     51  N   UNL A   1      43.358  29.746  28.885  1.00  0.00    -0.354 N 
ATOM     52  N   UNL A   1      46.148  28.950  28.407  1.00  0.00    -0.248 NA
ATOM     53  C   UNL A   1      48.419  29.483  28.293  1.00  0.00     0.031 C 
ATOM     54  C   UNL A   1      42.962  31.823  29.568  1.00  0.00     0.029 A 
ATOM     55  C   UNL A   1      43.972  30.947  29.202  1.00  0.00     0.049 A 
ATOM     56  H   UNL A   1      43.828  28.934  28.583  1.00  0.00     0.167 HD
ATOM     57  C   UNL A   1      46.324  30.274  28.784  1.00  0.00     0.074 A 
ATOM     58  C   UNL A   1      47.747  30.541  28.723  1.00  0.00     0.031 C 
ATOM     59  C   UNL A   1      45.391  31.188  29.146  1.00  0.00     0.037 A 
BRANCH  46  60
ATOM     60  C   UNL A   1      39.582  29.091  28.967  1.00  0.00     0.064 A 
ATOM     61  C   UNL A   1      38.776  29.434  27.871  1.00  0.00     0.173 A 
ATOM     62  C   UNL A   1      38.970  28.997  30.227  1.00  0.00     0.173 A 
ATOM     63  F   UNL A   1      39.315  29.548  26.647  1.00  0.00    -0.203 F 
ATOM     64  C   UNL A   1      37.420  29.703  28.034  1.00  0.00     0.198 A 
ATOM     65  C   UNL A   1      37.607  29.238  30.381  1.00  0.00     0.198 A 
ATOM     66  F   UNL A   1      39.692  28.667  31.308  1.00  0.00    -0.203 F 
ATOM     67  F   UNL A   1      36.681  30.077  26.980  1.00  0.00    -0.200 F 
ATOM     68  C   UNL A   1      36.836  29.598  29.287  1.00  0.00     0.200 A 
ATOM     69  F   UNL A   1      37.041  29.125  31.591  1.00  0.00    -0.200 F 
ATOM     70  F   UNL A   1      35.528  29.852  29.441  1.00  0.00    -0.200 F 
ENDBRANCH  46  60
BRANCH  47  71
ATOM     71  C   UNL A   1      49.184  26.782  27.456  1.00  0.00     0.064 A 
ATOM     72  C   UNL A   1      49.690  26.756  26.149  1.00  0.00     0.173 A 
ATOM     73  C   UNL A   1      50.069  26.495  28.506  1.00  0.00     0.173 A 
ATOM     74  F   UNL A   1      48.876  27.003  25.112  1.00  0.00    -0.203 F 
ATOM     75  C   UNL A   1      51.024  26.438  25.899  1.00  0.00     0.198 A 
ATOM     76  C   UNL A   1      51.408  26.203  28.257  1.00  0.00     0.198 A 
ATOM     77  F   UNL A   1      49.634  26.513  29.774  1.00  0.00    -0.203 F 
ATOM     78  F   UNL A   1      51.470  26.380  24.638  1.00  0.00    -0.200 F 
ATOM     79  C   UNL A   1      51.882  26.167  26.954  1.00  0.00     0.200 A 
ATOM     80  F   UNL A   1      52.239  25.954  29.278  1.00  0.00    -0.200 F 
ATOM     81  F   UNL A   1      53.165  25.866  26.713  1.00  0.00    -0.200 F 
ENDBRANCH  47  71
BRANCH  59  82
ATOM     82  C   UNL A   1      45.882  32.549  29.540  1.00  0.00     0.064 A 
ATOM     83  C   UNL A   1      45.988  33.590  28.606  1.00  0.00     0.173 A 
ATOM     84  C   UNL A   1      46.211  32.825  30.876  1.00  0.00     0.173 A 
ATOM     85  F   UNL A   1      45.701  33.369  27.314  1.00  0.00    -0.203 F 
ATOM     86  C   UNL A   1      46.428  34.852  28.992  1.00  0.00     0.198 A 
ATOM     87  C   UNL A   1      46.624  34.096  31.262  1.00  0.00     0.198 A 
ATOM     88  F   UNL A   1      46.120  31.864  31.807  1.00  0.00    -0.203 F 
ATOM     89  F   UNL A   1      46.563  35.821  28.075  1.00  0.00    -0.200 F 
ATOM     90  C   UNL A   1      46.739  35.107  30.319  1.00  0.00     0.200 A 
ATOM     91  F   UNL A   1      46.912  34.344  32.547  1.00  0.00    -0.200 F 
ATOM     92  F   UNL A   1      47.154  36.325  30.689  1.00  0.00    -0.200 F 
ENDBRANCH  59  82
ENDBRANCH  33  34
ENDBRANCH  25  28
ENDBRANCH  23  24
ENDBRANCH  22  23
ENDBRANCH   1  22
TORSDOF 13
ENDMDL
MODEL 3
REMARK VINA RESULT:     -11.7      0.376      1.641
REMARK SMILES CN([C@H]1CCSC1)S(=O)(=O)c1cccc(C(=O)NCCCNC(=O)c2ccc(-c3c4nc(c(-c5c(F)c(F)c(F)c(F)c5F)c5ccc([nH]5)c(-c5c(F)c(F)c(F)c(F)c5F)c5nc(c(-c6c(F)c(F)c(F)c(F)c6F)c6ccc3[nH]6)C=C5)C=C4)cc2)c1
REMARK SMILES IDX 19 1 18 2 16 3 17 4 15 6 11 7 12 8 88 9 13 10 14 11 8 12
REMARK SMILES IDX 9 13 10 14 2 15 1 16 3 17 4 18 7 19 5 20 6 21 20 22 21 23
REMARK SMILES IDX 22 24 23 25 24 27 25 28 26 29 87 30 27 31 86 32 28 33 29 34
REMARK SMILES IDX 30 35 80 36 31 37 85 38 79 39 81 40 32 41 84 42 78 43 77 44
REMARK SMILES IDX 33 46 65 47 45 48 64 49 46 50 49 51 63 52 82 53 47 54 48 55
REMARK SMILES IDX 62 57 83 58 50 59 34 60 35 61 43 62 36 63 37 64 41 65 44 66
REMARK SMILES IDX 38 67 39 68 42 69 40 70 66 71 67 72 75 73 68 74 69 75 73 76
REMARK SMILES IDX 76 77 70 78 71 79 74 80 72 81 51 82 52 83 60 84 53 85 54 86
REMARK SMILES IDX 58 87 61 88 55 89 56 90 59 91 57 92
REMARK H PARENT 18 5 22 26 81 45 49 56
REMARK Flexibility Score: inf
ROOT
ATOM      1  C   UNL A   1      31.595  30.634  26.701  1.00  0.00     0.118 C 
ENDROOT
BRANCH   1   2
ATOM      2  N   UNL A   1      32.902  30.196  27.159  1.00  0.00    -0.352 N 
ATOM      3  C   UNL A   1      33.736  29.149  26.864  1.00  0.00     0.251 C 
ATOM      4  O   UNL A   1      34.835  29.164  27.426  1.00  0.00    -0.269 OA
ATOM      5  H   UNL A   1      33.278  30.793  27.845  1.00  0.00     0.163 HD
BRANCH   3   6
ATOM      6  C   UNL A   1      33.422  28.008  25.948  1.00  0.00     0.041 A 
ATOM      7  C   UNL A   1      32.742  25.733  25.412  1.00  0.00     0.083 A 
ATOM      8  C   UNL A   1      32.983  25.932  24.056  1.00  0.00     0.022 A 
ATOM      9  C   UNL A   1      32.966  26.755  26.348  1.00  0.00     0.035 A 
ATOM     10  C   UNL A   1      33.438  27.180  23.636  1.00  0.00     0.002 A 
ATOM     11  C   UNL A   1      33.650  28.204  24.572  1.00  0.00     0.014 A 
BRANCH   7  12
ATOM     12  S   UNL A   1      32.262  24.144  26.038  1.00  0.00     0.243 S 
ATOM     13  O   UNL A   1      31.650  23.397  24.958  1.00  0.00    -0.207 OA
ATOM     14  O   UNL A   1      31.521  24.421  27.250  1.00  0.00    -0.207 OA
BRANCH  12  15
ATOM     15  N   UNL A   1      33.687  23.316  26.471  1.00  0.00    -0.197 NA
ATOM     16  C   UNL A   1      33.399  22.321  27.553  1.00  0.00     0.125 C 
BRANCH  15  17
ATOM     17  C   UNL A   1      34.615  22.703  25.458  1.00  0.00     0.083 C 
ATOM     18  C   UNL A   1      35.692  23.579  24.829  1.00  0.00     0.032 C 
ATOM     19  C   UNL A   1      35.370  21.544  26.122  1.00  0.00     0.089 C 
ATOM     20  C   UNL A   1      36.557  22.645  23.991  1.00  0.00     0.071 C 
ATOM     21  S   UNL A   1      36.750  21.157  25.008  1.00  0.00    -0.160 SA
ENDBRANCH  15  17
ENDBRANCH  12  15
ENDBRANCH   7  12
ENDBRANCH   3   6
ENDBRANCH   1   2
BRANCH   1  22
ATOM     22  C   UNL A   1      31.407  32.147  26.819  1.00  0.00     0.042 C 
BRANCH  22  23
ATOM     23  C   UNL A   1      32.729  32.905  26.974  1.00  0.00     0.118 C 
BRANCH  23  24
ATOM     24  N   UNL A   1      32.542  34.211  27.600  1.00  0.00    -0.352 N 
ATOM     25  C   UNL A   1      33.048  34.747  28.755  1.00  0.00     0.251 C 
ATOM     26  H   UNL A   1      31.945  34.816  27.103  1.00  0.00     0.163 HD
ATOM     27  O   UNL A   1      32.529  35.759  29.223  1.00  0.00    -0.269 OA
BRANCH  25  28
ATOM     28  C   UNL A   1      34.212  34.146  29.439  1.00  0.00     0.039 A 
ATOM     29  C   UNL A   1      35.499  34.529  29.045  1.00  0.00     0.014 A 
ATOM     30  C   UNL A   1      34.050  33.144  30.398  1.00  0.00     0.014 A 
ATOM     31  C   UNL A   1      36.617  33.947  29.647  1.00  0.00     0.010 A 
ATOM     32  C   UNL A   1      35.161  32.619  31.051  1.00  0.00     0.010 A 
ATOM     33  C   UNL A   1      36.455  33.008  30.676  1.00  0.00    -0.014 A 
BRANCH  33  34
ATOM     34  C   UNL A   1      37.622  32.405  31.369  1.00  0.00     0.031 A 
ATOM     35  C   UNL A   1      38.372  31.268  30.734  1.00  0.00     0.074 A 
ATOM     36  C   UNL A   1      37.951  32.827  32.605  1.00  0.00     0.049 A 
ATOM     37  N   UNL A   1      39.333  30.528  31.228  1.00  0.00    -0.248 NA
ATOM     38  C   UNL A   1      37.962  30.888  29.372  1.00  0.00     0.031 C 
ATOM     39  C   UNL A   1      37.271  33.891  33.344  1.00  0.00     0.029 A 
ATOM     40  N   UNL A   1      38.931  32.399  33.465  1.00  0.00    -0.354 N 
ATOM     41  C   UNL A   1      39.619  29.580  30.253  1.00  0.00     0.074 A 
ATOM     42  C   UNL A   1      38.703  29.810  29.158  1.00  0.00     0.031 C 
ATOM     43  C   UNL A   1      37.863  34.045  34.540  1.00  0.00     0.029 A 
ATOM     44  C   UNL A   1      38.938  33.066  34.665  1.00  0.00     0.049 A 
ATOM     45  H   UNL A   1      39.568  31.682  33.242  1.00  0.00     0.167 HD
ATOM     46  C   UNL A   1      40.573  28.619  30.265  1.00  0.00     0.037 A 
ATOM     47  C   UNL A   1      39.720  32.899  35.749  1.00  0.00     0.037 A 
ATOM     48  C   UNL A   1      41.510  28.424  31.340  1.00  0.00     0.049 A 
ATOM     49  C   UNL A   1      40.787  31.839  35.727  1.00  0.00     0.074 A 
ATOM     50  C   UNL A   1      42.560  27.527  31.418  1.00  0.00     0.029 A 
ATOM     51  N   UNL A   1      41.512  29.147  32.524  1.00  0.00    -0.354 N 
ATOM     52  N   UNL A   1      41.086  30.987  34.777  1.00  0.00    -0.248 NA
ATOM     53  C   UNL A   1      41.628  31.723  36.926  1.00  0.00     0.031 C 
ATOM     54  C   UNL A   1      43.178  27.683  32.665  1.00  0.00     0.029 A 
ATOM     55  C   UNL A   1      42.536  28.706  33.346  1.00  0.00     0.049 A 
ATOM     56  H   UNL A   1      40.878  29.867  32.747  1.00  0.00     0.167 HD
ATOM     57  C   UNL A   1      42.164  30.252  35.251  1.00  0.00     0.074 A 
ATOM     58  C   UNL A   1      42.474  30.768  36.569  1.00  0.00     0.031 C 
ATOM     59  C   UNL A   1      42.835  29.240  34.649  1.00  0.00     0.037 A 
BRANCH  46  60
ATOM     60  C   UNL A   1      40.654  27.706  29.076  1.00  0.00     0.064 A 
ATOM     61  C   UNL A   1      39.798  26.603  28.935  1.00  0.00     0.173 A 
ATOM     62  C   UNL A   1      41.575  27.956  28.047  1.00  0.00     0.173 A 
ATOM     63  F   UNL A   1      38.907  26.313  29.897  1.00  0.00    -0.203 F 
ATOM     64  C   UNL A   1      39.883  25.766  27.826  1.00  0.00     0.198 A 
ATOM     65  C   UNL A   1      41.636  27.135  26.925  1.00  0.00     0.198 A 
ATOM     66  F   UNL A   1      42.412  29.001  28.128  1.00  0.00    -0.203 F 
ATOM     67  F   UNL A   1      39.089  24.690  27.738  1.00  0.00    -0.200 F 
ATOM     68  C   UNL A   1      40.797  26.037  26.819  1.00  0.00     0.200 A 
ATOM     69  F   UNL A   1      42.513  27.404  25.946  1.00  0.00    -0.200 F 
ATOM     70  F   UNL A   1      40.873  25.233  25.748  1.00  0.00    -0.200 F 
ENDBRANCH  46  60
BRANCH  47  71
ATOM     71  C   UNL A   1      39.540  33.777  36.932  1.00  0.00     0.064 A 
ATOM     72  C   UNL A   1      40.171  35.028  36.996  1.00  0.00     0.173 A 
ATOM     73  C   UNL A   1      38.737  33.394  38.016  1.00  0.00     0.173 A 
ATOM     74  F   UNL A   1      40.965  35.428  35.992  1.00  0.00    -0.203 F 
ATOM     75  C   UNL A   1      40.018  35.855  38.107  1.00  0.00     0.198 A 
ATOM     76  C   UNL A   1      38.565  34.233  39.114  1.00  0.00     0.198 A 
ATOM     77  F   UNL A   1      38.108  32.209  38.000  1.00  0.00    -0.203 F 
ATOM     78  F   UNL A   1      40.665  37.027  38.159  1.00  0.00    -0.200 F 
ATOM     79  C   UNL A   1      39.211  35.459  39.162  1.00  0.00     0.200 A 
ATOM     80  F   UNL A   1      37.775  33.853  40.128  1.00  0.00    -0.200 F 
ATOM     81  F   UNL A   1      39.062  36.257  40.228  1.00  0.00    -0.200 F 
ENDBRANCH  47  71
BRANCH  59  82
ATOM     82  C   UNL A   1      43.994  28.649  35.395  1.00  0.00     0.064 A 
ATOM     83  C   UNL A   1      43.835  27.539  36.237  1.00  0.00     0.173 A 
ATOM     84  C   UNL A   1      45.285  29.175  35.233  1.00  0.00     0.173 A 
ATOM     85  F   UNL A   1      42.617  27.011  36.437  1.00  0.00    -0.203 F 
ATOM     86  C   UNL A   1      44.925  26.990  36.907  1.00  0.00     0.198 A 
ATOM     87  C   UNL A   1      46.375  28.606  35.884  1.00  0.00     0.198 A 
ATOM     88  F   UNL A   1      45.488  30.233  34.434  1.00  0.00    -0.203 F 
ATOM     89  F   UNL A   1      44.744  25.956  37.741  1.00  0.00    -0.200 F 
ATOM     90  C   UNL A   1      46.194  27.519  36.725  1.00  0.00     0.200 A 
ATOM     91  F   UNL A   1      47.602  29.112  35.697  1.00  0.00    -0.200 F 
ATOM     92  F   UNL A   1      47.241  26.985  37.366  1.00  0.00    -0.200 F 
ENDBRANCH  59  82
ENDBRANCH  33  34
ENDBRANCH  25  28
ENDBRANCH  23  24
ENDBRANCH  22  23
ENDBRANCH   1  22
TORSDOF 13
ENDMDL
