MODEL 1
REMARK VINA RESULT:     -14.7      0.000      0.000
REMARK SMILES O=C(NCCCNC(=O)[C@H]1CCCN(c2cc(-c3ccccn3)nc(-c3ccccc3F)n2)C1)c1ccc(-c2c3nc(c(-c4c(F)c(F)c(F)c(F)c4F)c4ccc([nH]4)c(-c4c(F)c(F)c(F)c(F)c4F)c4nc(c(-c5c(F)c(F)c(F)c(F)c5F)c5ccc2[nH]5)C=C4)C=C3)cc1
REMARK SMILES IDX 5 1 4 2 3 3 1 4 2 5 35 7 36 8 97 9 37 10 96 11 38 12 39 13
REMARK SMILES IDX 40 14 90 15 41 16 95 17 89 18 91 19 42 20 94 21 88 22 87 23
REMARK SMILES IDX 43 25 75 26 55 27 74 28 56 29 59 30 73 31 92 32 57 33 58 34
REMARK SMILES IDX 72 36 93 37 60 38 44 39 45 40 53 41 46 42 47 43 51 44 54 45
REMARK SMILES IDX 48 46 49 47 52 48 50 49 76 50 77 51 85 52 78 53 79 54 83 55
REMARK SMILES IDX 86 56 80 57 81 58 84 59 82 60 61 61 62 62 70 63 63 64 64 65
REMARK SMILES IDX 68 66 71 67 65 68 66 69 69 70 67 71 6 72 7 73 8 74 9 76
REMARK SMILES IDX 10 77 11 78 34 79 12 80 14 81 13 82 15 83 16 84 33 85 17 86
REMARK SMILES IDX 25 87 24 88 18 89 19 90 23 91 20 92 22 93 21 94 26 95 27 96
REMARK SMILES IDX 31 97 28 98 30 99 32 100 29 101
REMARK H PARENT 3 6 91 24 59 35 7 75
REMARK Flexibility Score: inf
ROOT
ATOM      1  C   UNL A   1      33.018  28.769  24.276  1.00  0.00     0.042 C 
ENDROOT
BRANCH   1   2
ATOM      2  C   UNL A   1      33.144  29.104  25.754  1.00  0.00     0.118 C 
BRANCH   2   3
ATOM      3  N   UNL A   1      32.732  30.471  26.044  1.00  0.00    -0.352 N 
ATOM      4  O   UNL A   1      32.622  32.390  27.224  1.00  0.00    -0.269 OA
ATOM      5  C   UNL A   1      33.230  31.353  26.969  1.00  0.00     0.251 C 
ATOM      6  H   UNL A   1      31.987  30.811  25.497  1.00  0.00     0.163 HD
BRANCH   5   7
ATOM      7  C   UNL A   1      34.494  31.050  27.666  1.00  0.00     0.039 A 
ATOM      8  C   UNL A   1      34.746  29.762  28.144  1.00  0.00     0.014 A 
ATOM      9  C   UNL A   1      35.446  32.059  27.832  1.00  0.00     0.014 A 
ATOM     10  C   UNL A   1      35.871  29.523  28.918  1.00  0.00     0.010 A 
ATOM     11  C   UNL A   1      36.629  31.789  28.522  1.00  0.00     0.010 A 
ATOM     12  C   UNL A   1      36.838  30.527  29.097  1.00  0.00    -0.014 A 
BRANCH  12  13
ATOM     13  C   UNL A   1      38.083  30.199  29.832  1.00  0.00     0.031 A 
ATOM     14  C   UNL A   1      38.307  30.674  31.238  1.00  0.00     0.074 A 
ATOM     15  C   UNL A   1      38.997  29.419  29.225  1.00  0.00     0.049 A 
ATOM     16  N   UNL A   1      39.322  30.444  32.033  1.00  0.00    -0.248 NA
ATOM     17  C   UNL A   1      37.263  31.523  31.832  1.00  0.00     0.031 C 
ATOM     18  C   UNL A   1      38.883  28.903  27.859  1.00  0.00     0.029 A 
ATOM     19  N   UNL A   1      40.179  28.894  29.679  1.00  0.00    -0.354 N 
ATOM     20  C   UNL A   1      39.047  31.123  33.211  1.00  0.00     0.074 A 
ATOM     21  C   UNL A   1      37.785  31.806  33.018  1.00  0.00     0.031 C 
ATOM     22  C   UNL A   1      39.912  28.083  27.610  1.00  0.00     0.029 A 
ATOM     23  C   UNL A   1      40.795  28.071  28.770  1.00  0.00     0.049 A 
ATOM     24  H   UNL A   1      40.550  29.088  30.571  1.00  0.00     0.167 HD
ATOM     25  C   UNL A   1      39.777  31.160  34.351  1.00  0.00     0.037 A 
ATOM     26  C   UNL A   1      41.951  27.386  28.853  1.00  0.00     0.037 A 
ATOM     27  C   UNL A   1      41.029  30.470  34.533  1.00  0.00     0.049 A 
ATOM     28  C   UNL A   1      42.758  27.475  30.114  1.00  0.00     0.074 A 
ATOM     29  C   UNL A   1      41.840  30.438  35.654  1.00  0.00     0.029 A 
ATOM     30  N   UNL A   1      41.651  29.690  33.568  1.00  0.00    -0.354 N 
ATOM     31  N   UNL A   1      42.486  28.117  31.223  1.00  0.00    -0.248 NA
ATOM     32  C   UNL A   1      44.036  26.753  30.134  1.00  0.00     0.031 C 
ATOM     33  C   UNL A   1      42.975  29.678  35.352  1.00  0.00     0.029 A 
ATOM     34  C   UNL A   1      42.846  29.188  34.062  1.00  0.00     0.049 A 
ATOM     35  H   UNL A   1      41.297  29.518  32.666  1.00  0.00     0.167 HD
ATOM     36  C   UNL A   1      43.549  27.871  32.077  1.00  0.00     0.074 A 
ATOM     37  C   UNL A   1      44.464  27.002  31.364  1.00  0.00     0.031 C 
ATOM     38  C   UNL A   1      43.748  28.327  33.338  1.00  0.00     0.037 A 
BRANCH  25  39
ATOM     39  C   UNL A   1      39.250  31.982  35.492  1.00  0.00     0.064 A 
ATOM     40  C   UNL A   1      39.629  33.325  35.638  1.00  0.00     0.173 A 
ATOM     41  C   UNL A   1      38.421  31.426  36.478  1.00  0.00     0.173 A 
ATOM     42  F   UNL A   1      40.427  33.906  34.729  1.00  0.00    -0.203 F 
ATOM     43  C   UNL A   1      39.204  34.077  36.731  1.00  0.00     0.198 A 
ATOM     44  C   UNL A   1      37.975  32.188  37.555  1.00  0.00     0.198 A 
ATOM     45  F   UNL A   1      38.022  30.149  36.383  1.00  0.00    -0.203 F 
ATOM     46  F   UNL A   1      39.604  35.349  36.864  1.00  0.00    -0.200 F 
ATOM     47  C   UNL A   1      38.374  33.511  37.685  1.00  0.00     0.200 A 
ATOM     48  F   UNL A   1      37.153  31.645  38.464  1.00  0.00    -0.200 F 
ATOM     49  F   UNL A   1      37.956  34.238  38.730  1.00  0.00    -0.200 F 
ENDBRANCH  25  39
BRANCH  26  50
ATOM     50  C   UNL A   1      42.381  26.550  27.705  1.00  0.00     0.064 A 
ATOM     51  C   UNL A   1      41.982  25.209  27.591  1.00  0.00     0.173 A 
ATOM     52  C   UNL A   1      43.258  27.056  26.737  1.00  0.00     0.173 A 
ATOM     53  F   UNL A   1      41.150  24.677  28.498  1.00  0.00    -0.203 F 
ATOM     54  C   UNL A   1      42.473  24.397  26.571  1.00  0.00     0.198 A 
ATOM     55  C   UNL A   1      43.726  26.250  25.702  1.00  0.00     0.198 A 
ATOM     56  F   UNL A   1      43.654  28.335  26.796  1.00  0.00    -0.203 F 
ATOM     57  F   UNL A   1      42.118  23.106  26.516  1.00  0.00    -0.200 F 
ATOM     58  C   UNL A   1      43.343  24.919  25.627  1.00  0.00     0.200 A 
ATOM     59  F   UNL A   1      44.552  26.762  24.778  1.00  0.00    -0.200 F 
ATOM     60  F   UNL A   1      43.815  24.138  24.645  1.00  0.00    -0.200 F 
ENDBRANCH  26  50
BRANCH  38  61
ATOM     61  C   UNL A   1      44.998  27.886  34.040  1.00  0.00     0.064 A 
ATOM     62  C   UNL A   1      45.000  26.720  34.821  1.00  0.00     0.173 A 
ATOM     63  C   UNL A   1      46.174  28.648  33.993  1.00  0.00     0.173 A 
ATOM     64  F   UNL A   1      43.898  25.959  34.903  1.00  0.00    -0.203 F 
ATOM     65  C   UNL A   1      46.130  26.341  35.539  1.00  0.00     0.198 A 
ATOM     66  C   UNL A   1      47.312  28.250  34.689  1.00  0.00     0.198 A 
ATOM     67  F   UNL A   1      46.227  29.763  33.248  1.00  0.00    -0.203 F 
ATOM     68  F   UNL A   1      46.099  25.240  36.303  1.00  0.00    -0.200 F 
ATOM     69  C   UNL A   1      47.286  27.103  35.469  1.00  0.00     0.200 A 
ATOM     70  F   UNL A   1      48.436  28.974  34.601  1.00  0.00    -0.200 F 
ATOM     71  F   UNL A   1      48.378  26.731  36.150  1.00  0.00    -0.200 F 
ENDBRANCH  38  61
ENDBRANCH  12  13
ENDBRANCH   5   7
ENDBRANCH   2   3
ENDBRANCH   1   2
BRANCH   1  72
ATOM     72  C   UNL A   1      34.024  27.718  23.830  1.00  0.00     0.117 C 
BRANCH  72  73
ATOM     73  N   UNL A   1      33.860  27.403  22.418  1.00  0.00    -0.356 N 
ATOM     74  C   UNL A   1      33.309  26.290  21.851  1.00  0.00     0.224 C 
ATOM     75  H   UNL A   1      34.190  28.084  21.789  1.00  0.00     0.163 HD
ATOM     76  O   UNL A   1      33.332  26.182  20.626  1.00  0.00    -0.275 OA
BRANCH  74  77
ATOM     77  C   UNL A   1      32.690  25.246  22.757  1.00  0.00     0.098 C 
ATOM     78  C   UNL A   1      31.206  25.516  23.037  1.00  0.00     0.017 C 
ATOM     79  C   UNL A   1      32.815  23.861  22.131  1.00  0.00     0.131 C 
ATOM     80  C   UNL A   1      30.668  24.456  24.004  1.00  0.00     0.022 C 
ATOM     81  N   UNL A   1      32.288  22.859  23.052  1.00  0.00    -0.356 N 
ATOM     82  C   UNL A   1      30.906  23.027  23.495  1.00  0.00     0.118 C 
BRANCH  81  83
ATOM     83  C   UNL A   1      33.178  22.074  23.765  1.00  0.00     0.133 A 
ATOM     84  C   UNL A   1      32.874  20.747  23.993  1.00  0.00     0.077 A 
ATOM     85  N   UNL A   1      34.361  22.590  24.151  1.00  0.00    -0.211 NA
ATOM     86  C   UNL A   1      33.836  19.959  24.596  1.00  0.00     0.095 A 
ATOM     87  C   UNL A   1      35.228  21.759  24.766  1.00  0.00     0.165 A 
ATOM     88  N   UNL A   1      35.018  20.457  24.998  1.00  0.00    -0.226 NA
BRANCH  86  89
ATOM     89  C   UNL A   1      33.643  18.512  24.762  1.00  0.00     0.089 A 
ATOM     90  C   UNL A   1      34.540  17.594  24.211  1.00  0.00     0.030 A 
ATOM     91  N   UNL A   1      32.549  18.119  25.463  1.00  0.00    -0.255 NA
ATOM     92  C   UNL A   1      34.312  16.232  24.388  1.00  0.00     0.004 A 
ATOM     93  C   UNL A   1      32.359  16.792  25.628  1.00  0.00     0.112 A 
ATOM     94  C   UNL A   1      33.202  15.821  25.112  1.00  0.00     0.020 A 
ENDBRANCH  86  89
BRANCH  87  95
ATOM     95  C   UNL A   1      36.478  22.315  25.275  1.00  0.00     0.055 A 
ATOM     96  C   UNL A   1      36.527  23.600  25.846  1.00  0.00     0.015 A 
ATOM     97  C   UNL A   1      37.658  21.561  25.271  1.00  0.00     0.134 A 
ATOM     98  C   UNL A   1      37.708  24.092  26.413  1.00  0.00     0.001 A 
ATOM     99  C   UNL A   1      38.840  22.047  25.828  1.00  0.00     0.040 A 
ATOM    100  F   UNL A   1      37.681  20.340  24.713  1.00  0.00    -0.206 F 
ATOM    101  C   UNL A   1      38.864  23.314  26.408  1.00  0.00     0.003 A 
ENDBRANCH  87  95
ENDBRANCH  81  83
ENDBRANCH  74  77
ENDBRANCH  72  73
ENDBRANCH   1  72
TORSDOF 13
ENDMDL
MODEL 2
REMARK VINA RESULT:     -14.5      1.748      2.699
REMARK SMILES O=C(NCCCNC(=O)[C@H]1CCCN(c2cc(-c3ccccn3)nc(-c3ccccc3F)n2)C1)c1ccc(-c2c3nc(c(-c4c(F)c(F)c(F)c(F)c4F)c4ccc([nH]4)c(-c4c(F)c(F)c(F)c(F)c4F)c4nc(c(-c5c(F)c(F)c(F)c(F)c5F)c5ccc2[nH]5)C=C4)C=C3)cc1
REMARK SMILES IDX 5 1 4 2 3 3 1 4 2 5 35 7 36 8 97 9 37 10 96 11 38 12 39 13
REMARK SMILES IDX 40 14 90 15 41 16 95 17 89 18 91 19 42 20 94 21 88 22 87 23
REMARK SMILES IDX 43 25 75 26 55 27 74 28 56 29 59 30 73 31 92 32 57 33 58 34
REMARK SMILES IDX 72 36 93 37 60 38 44 39 45 40 53 41 46 42 47 43 51 44 54 45
REMARK SMILES IDX 48 46 49 47 52 48 50 49 76 50 77 51 85 52 78 53 79 54 83 55
REMARK SMILES IDX 86 56 80 57 81 58 84 59 82 60 61 61 62 62 70 63 63 64 64 65
REMARK SMILES IDX 68 66 71 67 65 68 66 69 69 70 67 71 6 72 7 73 8 74 9 76
REMARK SMILES IDX 10 77 11 78 34 79 12 80 14 81 13 82 15 83 16 84 33 85 17 86
REMARK SMILES IDX 25 87 24 88 18 89 19 90 23 91 20 92 22 93 21 94 26 95 27 96
REMARK SMILES IDX 31 97 28 98 30 99 32 100 29 101
REMARK H PARENT 3 6 91 24 59 35 7 75
REMARK Flexibility Score: inf
ROOT
ATOM      1  C   UNL A   1      34.046  27.758  25.486  1.00  0.00     0.042 C 
ENDROOT
BRANCH   1   2
ATOM      2  C   UNL A   1      33.703  28.173  26.908  1.00  0.00     0.118 C 
BRANCH   2   3
ATOM      3  N   UNL A   1      33.554  29.617  27.038  1.00  0.00    -0.352 N 
ATOM      4  O   UNL A   1      33.956  31.668  27.884  1.00  0.00    -0.269 OA
ATOM      5  C   UNL A   1      34.349  30.519  27.698  1.00  0.00     0.251 C 
ATOM      6  H   UNL A   1      32.768  30.001  26.586  1.00  0.00     0.163 HD
BRANCH   5   7
ATOM      7  C   UNL A   1      35.675  30.102  28.195  1.00  0.00     0.039 A 
ATOM      8  C   UNL A   1      35.817  29.594  29.488  1.00  0.00     0.014 A 
ATOM      9  C   UNL A   1      36.786  30.208  27.355  1.00  0.00     0.014 A 
ATOM     10  C   UNL A   1      37.084  29.339  29.991  1.00  0.00     0.010 A 
ATOM     11  C   UNL A   1      38.050  29.851  27.829  1.00  0.00     0.010 A 
ATOM     12  C   UNL A   1      38.213  29.442  29.161  1.00  0.00    -0.014 A 
BRANCH  12  13
ATOM     13  C   UNL A   1      39.537  29.048  29.701  1.00  0.00     0.031 A 
ATOM     14  C   UNL A   1      40.143  29.760  30.874  1.00  0.00     0.074 A 
ATOM     15  C   UNL A   1      40.167  27.997  29.143  1.00  0.00     0.049 A 
ATOM     16  N   UNL A   1      41.273  29.515  31.491  1.00  0.00    -0.248 NA
ATOM     17  C   UNL A   1      39.394  30.898  31.427  1.00  0.00     0.031 C 
ATOM     18  C   UNL A   1      39.669  27.234  27.997  1.00  0.00     0.029 A 
ATOM     19  N   UNL A   1      41.337  27.366  29.477  1.00  0.00    -0.354 N 
ATOM     20  C   UNL A   1      41.375  30.470  32.493  1.00  0.00     0.074 A 
ATOM     21  C   UNL A   1      40.211  31.322  32.382  1.00  0.00     0.031 C 
ATOM     22  C   UNL A   1      40.488  26.199  27.767  1.00  0.00     0.029 A 
ATOM     23  C   UNL A   1      41.605  26.267  28.701  1.00  0.00     0.049 A 
ATOM     24  H   UNL A   1      41.927  27.672  30.204  1.00  0.00     0.167 HD
ATOM     25  C   UNL A   1      42.348  30.609  33.425  1.00  0.00     0.037 A 
ATOM     26  C   UNL A   1      42.642  25.409  28.728  1.00  0.00     0.037 A 
ATOM     27  C   UNL A   1      43.499  29.749  33.529  1.00  0.00     0.049 A 
ATOM     28  C   UNL A   1      43.724  25.609  29.748  1.00  0.00     0.074 A 
ATOM     29  C   UNL A   1      44.535  29.803  34.445  1.00  0.00     0.029 A 
ATOM     30  N   UNL A   1      43.766  28.677  32.687  1.00  0.00    -0.354 N 
ATOM     31  N   UNL A   1      43.807  26.513  30.693  1.00  0.00    -0.248 NA
ATOM     32  C   UNL A   1      44.858  24.678  29.700  1.00  0.00     0.031 C 
ATOM     33  C   UNL A   1      45.452  28.795  34.129  1.00  0.00     0.029 A 
ATOM     34  C   UNL A   1      44.961  28.075  33.052  1.00  0.00     0.049 A 
ATOM     35  H   UNL A   1      43.192  28.388  31.942  1.00  0.00     0.167 HD
ATOM     36  C   UNL A   1      44.994  26.256  31.361  1.00  0.00     0.074 A 
ATOM     37  C   UNL A   1      45.589  25.098  30.724  1.00  0.00     0.031 C 
ATOM     38  C   UNL A   1      45.542  26.925  32.405  1.00  0.00     0.037 A 
BRANCH  25  39
ATOM     39  C   UNL A   1      42.219  31.740  34.405  1.00  0.00     0.064 A 
ATOM     40  C   UNL A   1      41.487  31.576  35.591  1.00  0.00     0.173 A 
ATOM     41  C   UNL A   1      42.766  33.005  34.145  1.00  0.00     0.173 A 
ATOM     42  F   UNL A   1      40.935  30.390  35.887  1.00  0.00    -0.203 F 
ATOM     43  C   UNL A   1      41.301  32.638  36.473  1.00  0.00     0.198 A 
ATOM     44  C   UNL A   1      42.602  34.058  35.042  1.00  0.00     0.198 A 
ATOM     45  F   UNL A   1      43.483  33.214  33.030  1.00  0.00    -0.203 F 
ATOM     46  F   UNL A   1      40.571  32.465  37.584  1.00  0.00    -0.200 F 
ATOM     47  C   UNL A   1      41.862  33.876  36.201  1.00  0.00     0.200 A 
ATOM     48  F   UNL A   1      43.167  35.247  34.789  1.00  0.00    -0.200 F 
ATOM     49  F   UNL A   1      41.693  34.894  37.057  1.00  0.00    -0.200 F 
ENDBRANCH  25  39
BRANCH  26  50
ATOM     50  C   UNL A   1      42.673  24.281  27.764  1.00  0.00     0.064 A 
ATOM     51  C   UNL A   1      42.314  22.981  28.151  1.00  0.00     0.173 A 
ATOM     52  C   UNL A   1      43.133  24.470  26.454  1.00  0.00     0.173 A 
ATOM     53  F   UNL A   1      41.878  22.749  29.397  1.00  0.00    -0.203 F 
ATOM     54  C   UNL A   1      42.448  21.907  27.275  1.00  0.00     0.198 A 
ATOM     55  C   UNL A   1      43.238  23.399  25.569  1.00  0.00     0.198 A 
ATOM     56  F   UNL A   1      43.471  25.697  26.033  1.00  0.00    -0.203 F 
ATOM     57  F   UNL A   1      42.149  20.668  27.687  1.00  0.00    -0.200 F 
ATOM     58  C   UNL A   1      42.908  22.117  25.984  1.00  0.00     0.200 A 
ATOM     59  F   UNL A   1      43.664  23.608  24.316  1.00  0.00    -0.200 F 
ATOM     60  F   UNL A   1      43.035  21.084  25.140  1.00  0.00    -0.200 F 
ENDBRANCH  26  50
BRANCH  38  61
ATOM     61  C   UNL A   1      46.846  26.414  32.941  1.00  0.00     0.064 A 
ATOM     62  C   UNL A   1      48.062  26.903  32.439  1.00  0.00     0.173 A 
ATOM     63  C   UNL A   1      46.895  25.396  33.905  1.00  0.00     0.173 A 
ATOM     64  F   UNL A   1      48.069  27.873  31.512  1.00  0.00    -0.203 F 
ATOM     65  C   UNL A   1      49.277  26.383  32.873  1.00  0.00     0.198 A 
ATOM     66  C   UNL A   1      48.113  24.898  34.358  1.00  0.00     0.198 A 
ATOM     67  F   UNL A   1      45.760  24.906  34.427  1.00  0.00    -0.203 F 
ATOM     68  F   UNL A   1      50.424  26.844  32.357  1.00  0.00    -0.200 F 
ATOM     69  C   UNL A   1      49.302  25.385  33.836  1.00  0.00     0.200 A 
ATOM     70  F   UNL A   1      48.137  23.951  35.306  1.00  0.00    -0.200 F 
ATOM     71  F   UNL A   1      50.473  24.893  34.262  1.00  0.00    -0.200 F 
ENDBRANCH  38  61
ENDBRANCH  12  13
ENDBRANCH   5   7
ENDBRANCH   2   3
ENDBRANCH   1   2
BRANCH   1  72
ATOM     72  C   UNL A   1      32.912  28.038  24.509  1.00  0.00     0.117 C 
BRANCH  72  73
ATOM     73  N   UNL A   1      33.328  27.780  23.138  1.00  0.00    -0.356 N 
ATOM     74  C   UNL A   1      33.288  26.606  22.441  1.00  0.00     0.224 C 
ATOM     75  H   UNL A   1      33.686  28.555  22.649  1.00  0.00     0.163 HD
ATOM     76  O   UNL A   1      33.760  26.581  21.305  1.00  0.00    -0.275 OA
BRANCH  74  77
ATOM     77  C   UNL A   1      32.657  25.396  23.096  1.00  0.00     0.098 C 
ATOM     78  C   UNL A   1      31.130  25.504  23.186  1.00  0.00     0.017 C 
ATOM     79  C   UNL A   1      33.004  24.131  22.316  1.00  0.00     0.131 C 
ATOM     80  C   UNL A   1      30.573  24.275  23.911  1.00  0.00     0.022 C 
ATOM     81  N   UNL A   1      32.457  22.967  23.007  1.00  0.00    -0.356 N 
ATOM     82  C   UNL A   1      31.018  22.959  23.257  1.00  0.00     0.118 C 
BRANCH  81  83
ATOM     83  C   UNL A   1      33.315  22.158  23.733  1.00  0.00     0.133 A 
ATOM     84  C   UNL A   1      32.970  20.841  23.960  1.00  0.00     0.077 A 
ATOM     85  N   UNL A   1      34.507  22.640  24.133  1.00  0.00    -0.211 NA
ATOM     86  C   UNL A   1      33.900  20.027  24.577  1.00  0.00     0.095 A 
ATOM     87  C   UNL A   1      35.342  21.787  24.761  1.00  0.00     0.165 A 
ATOM     88  N   UNL A   1      35.092  20.492  24.993  1.00  0.00    -0.226 NA
BRANCH  86  89
ATOM     89  C   UNL A   1      33.663  18.587  24.743  1.00  0.00     0.089 A 
ATOM     90  C   UNL A   1      34.551  17.642  24.222  1.00  0.00     0.030 A 
ATOM     91  N   UNL A   1      32.540  18.227  25.415  1.00  0.00    -0.255 NA
ATOM     92  C   UNL A   1      34.281  16.288  24.398  1.00  0.00     0.004 A 
ATOM     93  C   UNL A   1      32.310  16.907  25.581  1.00  0.00     0.112 A 
ATOM     94  C   UNL A   1      33.140  15.910  25.093  1.00  0.00     0.020 A 
ENDBRANCH  86  89
BRANCH  87  95
ATOM     95  C   UNL A   1      36.601  22.308  25.285  1.00  0.00     0.055 A 
ATOM     96  C   UNL A   1      36.684  23.600  25.834  1.00  0.00     0.015 A 
ATOM     97  C   UNL A   1      37.753  21.513  25.317  1.00  0.00     0.134 A 
ATOM     98  C   UNL A   1      37.871  24.061  26.416  1.00  0.00     0.001 A 
ATOM     99  C   UNL A   1      38.941  21.968  25.889  1.00  0.00     0.040 A 
ATOM    100  F   UNL A   1      37.743  20.282  24.781  1.00  0.00    -0.206 F 
ATOM    101  C   UNL A   1      38.998  23.243  26.447  1.00  0.00     0.003 A 
ENDBRANCH  87  95
ENDBRANCH  81  83
ENDBRANCH  74  77
ENDBRANCH  72  73
ENDBRANCH   1  72
TORSDOF 13
ENDMDL
MODEL 3
REMARK VINA RESULT:     -14.5      2.224      7.244
REMARK SMILES O=C(NCCCNC(=O)[C@H]1CCCN(c2cc(-c3ccccn3)nc(-c3ccccc3F)n2)C1)c1ccc(-c2c3nc(c(-c4c(F)c(F)c(F)c(F)c4F)c4ccc([nH]4)c(-c4c(F)c(F)c(F)c(F)c4F)c4nc(c(-c5c(F)c(F)c(F)c(F)c5F)c5ccc2[nH]5)C=C4)C=C3)cc1
REMARK SMILES IDX 5 1 4 2 3 3 1 4 2 5 35 7 36 8 97 9 37 10 96 11 38 12 39 13
REMARK SMILES IDX 40 14 90 15 41 16 95 17 89 18 91 19 42 20 94 21 88 22 87 23
REMARK SMILES IDX 43 25 75 26 55 27 74 28 56 29 59 30 73 31 92 32 57 33 58 34
REMARK SMILES IDX 72 36 93 37 60 38 44 39 45 40 53 41 46 42 47 43 51 44 54 45
REMARK SMILES IDX 48 46 49 47 52 48 50 49 76 50 77 51 85 52 78 53 79 54 83 55
REMARK SMILES IDX 86 56 80 57 81 58 84 59 82 60 61 61 62 62 70 63 63 64 64 65
REMARK SMILES IDX 68 66 71 67 65 68 66 69 69 70 67 71 6 72 7 73 8 74 9 76
REMARK SMILES IDX 10 77 11 78 34 79 12 80 14 81 13 82 15 83 16 84 33 85 17 86
REMARK SMILES IDX 25 87 24 88 18 89 19 90 23 91 20 92 22 93 21 94 26 95 27 96
REMARK SMILES IDX 31 97 28 98 30 99 32 100 29 101
REMARK H PARENT 3 6 91 24 59 35 7 75
REMARK Flexibility Score: inf
ROOT
ATOM      1  C   UNL A   1      34.180  27.646  25.418  1.00  0.00     0.042 C 
ENDROOT
BRANCH   1   2
ATOM      2  C   UNL A   1      33.897  28.026  26.862  1.00  0.00     0.118 C 
BRANCH   2   3
ATOM      3  N   UNL A   1      33.635  29.452  27.014  1.00  0.00    -0.352 N 
ATOM      4  O   UNL A   1      33.875  31.516  27.888  1.00  0.00    -0.269 OA
ATOM      5  C   UNL A   1      34.358  30.405  27.684  1.00  0.00     0.251 C 
ATOM      6  H   UNL A   1      32.818  29.778  26.571  1.00  0.00     0.163 HD
BRANCH   5   7
ATOM      7  C   UNL A   1      35.715  30.089  28.170  1.00  0.00     0.039 A 
ATOM      8  C   UNL A   1      36.822  30.261  27.337  1.00  0.00     0.014 A 
ATOM      9  C   UNL A   1      35.884  29.629  29.478  1.00  0.00     0.014 A 
ATOM     10  C   UNL A   1      38.071  29.829  27.755  1.00  0.00     0.010 A 
ATOM     11  C   UNL A   1      37.161  29.292  29.934  1.00  0.00     0.010 A 
ATOM     12  C   UNL A   1      38.260  29.362  29.066  1.00  0.00    -0.014 A 
BRANCH  12  13
ATOM     13  C   UNL A   1      39.632  29.020  29.514  1.00  0.00     0.031 A 
ATOM     14  C   UNL A   1      40.334  27.792  29.010  1.00  0.00     0.074 A 
ATOM     15  C   UNL A   1      40.261  29.867  30.351  1.00  0.00     0.049 A 
ATOM     16  N   UNL A   1      41.546  27.371  29.273  1.00  0.00    -0.248 NA
ATOM     17  C   UNL A   1      39.581  26.918  28.099  1.00  0.00     0.031 C 
ATOM     18  C   UNL A   1      39.672  31.088  30.904  1.00  0.00     0.029 A 
ATOM     19  N   UNL A   1      41.535  29.855  30.856  1.00  0.00    -0.354 N 
ATOM     20  C   UNL A   1      41.697  26.183  28.572  1.00  0.00     0.074 A 
ATOM     21  C   UNL A   1      40.441  25.929  27.899  1.00  0.00     0.031 C 
ATOM     22  C   UNL A   1      40.601  31.743  31.613  1.00  0.00     0.029 A 
ATOM     23  C   UNL A   1      41.827  30.954  31.625  1.00  0.00     0.049 A 
ATOM     24  H   UNL A   1      42.178  29.130  30.683  1.00  0.00     0.167 HD
ATOM     25  C   UNL A   1      42.791  25.389  28.491  1.00  0.00     0.037 A 
ATOM     26  C   UNL A   1      42.955  31.289  32.279  1.00  0.00     0.037 A 
ATOM     27  C   UNL A   1      44.039  25.657  29.160  1.00  0.00     0.049 A 
ATOM     28  C   UNL A   1      44.139  30.372  32.202  1.00  0.00     0.074 A 
ATOM     29  C   UNL A   1      45.208  24.917  29.133  1.00  0.00     0.029 A 
ATOM     30  N   UNL A   1      44.279  26.753  29.978  1.00  0.00    -0.354 N 
ATOM     31  N   UNL A   1      44.271  29.253  31.533  1.00  0.00    -0.248 NA
ATOM     32  C   UNL A   1      45.325  30.756  32.976  1.00  0.00     0.031 C 
ATOM     33  C   UNL A   1      46.139  25.539  29.972  1.00  0.00     0.029 A 
ATOM     34  C   UNL A   1      45.572  26.697  30.477  1.00  0.00     0.049 A 
ATOM     35  H   UNL A   1      43.627  27.464  30.176  1.00  0.00     0.167 HD
ATOM     36  C   UNL A   1      45.556  28.804  31.794  1.00  0.00     0.074 A 
ATOM     37  C   UNL A   1      46.171  29.782  32.668  1.00  0.00     0.031 C 
ATOM     38  C   UNL A   1      46.168  27.678  31.350  1.00  0.00     0.037 A 
BRANCH  25  39
ATOM     39  C   UNL A   1      42.690  24.143  27.657  1.00  0.00     0.064 A 
ATOM     40  C   UNL A   1      42.375  22.911  28.250  1.00  0.00     0.173 A 
ATOM     41  C   UNL A   1      42.965  24.155  26.281  1.00  0.00     0.173 A 
ATOM     42  F   UNL A   1      42.111  22.841  29.564  1.00  0.00    -0.203 F 
ATOM     43  C   UNL A   1      42.349  21.738  27.499  1.00  0.00     0.198 A 
ATOM     44  C   UNL A   1      42.910  22.985  25.528  1.00  0.00     0.198 A 
ATOM     45  F   UNL A   1      43.263  25.308  25.662  1.00  0.00    -0.203 F 
ATOM     46  F   UNL A   1      42.076  20.569  28.094  1.00  0.00    -0.200 F 
ATOM     47  C   UNL A   1      42.611  21.776  26.139  1.00  0.00     0.200 A 
ATOM     48  F   UNL A   1      43.140  23.028  24.207  1.00  0.00    -0.200 F 
ATOM     49  F   UNL A   1      42.573  20.649  25.415  1.00  0.00    -0.200 F 
ENDBRANCH  25  39
BRANCH  26  50
ATOM     50  C   UNL A   1      42.999  32.564  33.038  1.00  0.00     0.064 A 
ATOM     51  C   UNL A   1      42.591  32.628  34.379  1.00  0.00     0.173 A 
ATOM     52  C   UNL A   1      43.382  33.758  32.413  1.00  0.00     0.173 A 
ATOM     53  F   UNL A   1      42.206  31.513  35.017  1.00  0.00    -0.203 F 
ATOM     54  C   UNL A   1      42.531  33.844  35.055  1.00  0.00     0.198 A 
ATOM     55  C   UNL A   1      43.349  34.969  33.100  1.00  0.00     0.198 A 
ATOM     56  F   UNL A   1      43.795  33.743  31.138  1.00  0.00    -0.203 F 
ATOM     57  F   UNL A   1      42.087  33.884  36.318  1.00  0.00    -0.200 F 
ATOM     58  C   UNL A   1      42.912  35.014  34.415  1.00  0.00     0.200 A 
ATOM     59  F   UNL A   1      43.737  36.096  32.485  1.00  0.00    -0.200 F 
ATOM     60  F   UNL A   1      42.856  36.184  35.066  1.00  0.00    -0.200 F 
ENDBRANCH  26  50
BRANCH  38  61
ATOM     61  C   UNL A   1      47.583  27.446  31.788  1.00  0.00     0.064 A 
ATOM     62  C   UNL A   1      48.653  27.931  31.020  1.00  0.00     0.173 A 
ATOM     63  C   UNL A   1      47.883  26.691  32.932  1.00  0.00     0.173 A 
ATOM     64  F   UNL A   1      48.419  28.654  29.914  1.00  0.00    -0.203 F 
ATOM     65  C   UNL A   1      49.971  27.657  31.375  1.00  0.00     0.198 A 
ATOM     66  C   UNL A   1      49.203  26.444  33.299  1.00  0.00     0.198 A 
ATOM     67  F   UNL A   1      46.895  26.219  33.707  1.00  0.00    -0.203 F 
ATOM     68  F   UNL A   1      50.976  28.104  30.609  1.00  0.00    -0.200 F 
ATOM     69  C   UNL A   1      50.245  26.918  32.516  1.00  0.00     0.200 A 
ATOM     70  F   UNL A   1      49.467  25.751  34.415  1.00  0.00    -0.200 F 
ATOM     71  F   UNL A   1      51.514  26.666  32.862  1.00  0.00    -0.200 F 
ENDBRANCH  38  61
ENDBRANCH  12  13
ENDBRANCH   5   7
ENDBRANCH   2   3
ENDBRANCH   1   2
BRANCH   1  72
ATOM     72  C   UNL A   1      33.055  28.056  24.478  1.00  0.00     0.117 C 
BRANCH  72  73
ATOM     73  N   UNL A   1      33.403  27.773  23.093  1.00  0.00    -0.356 N 
ATOM     74  C   UNL A   1      33.292  26.597  22.408  1.00  0.00     0.224 C 
ATOM     75  H   UNL A   1      33.766  28.532  22.582  1.00  0.00     0.163 HD
ATOM     76  O   UNL A   1      33.714  26.546  21.254  1.00  0.00    -0.275 OA
BRANCH  74  77
ATOM     77  C   UNL A   1      32.648  25.414  23.101  1.00  0.00     0.098 C 
ATOM     78  C   UNL A   1      31.131  25.578  23.258  1.00  0.00     0.017 C 
ATOM     79  C   UNL A   1      32.913  24.133  22.316  1.00  0.00     0.131 C 
ATOM     80  C   UNL A   1      30.563  24.374  24.016  1.00  0.00     0.022 C 
ATOM     81  N   UNL A   1      32.357  22.993  23.039  1.00  0.00    -0.356 N 
ATOM     82  C   UNL A   1      30.931  23.039  23.353  1.00  0.00     0.118 C 
BRANCH  81  83
ATOM     83  C   UNL A   1      33.217  22.159  23.732  1.00  0.00     0.133 A 
ATOM     84  C   UNL A   1      32.859  20.842  23.938  1.00  0.00     0.077 A 
ATOM     85  N   UNL A   1      34.423  22.617  24.120  1.00  0.00    -0.211 NA
ATOM     86  C   UNL A   1      33.789  20.003  24.521  1.00  0.00     0.095 A 
ATOM     87  C   UNL A   1      35.257  21.740  24.715  1.00  0.00     0.165 A 
ATOM     88  N   UNL A   1      34.994  20.444  24.925  1.00  0.00    -0.226 NA
BRANCH  86  89
ATOM     89  C   UNL A   1      33.536  18.563  24.662  1.00  0.00     0.089 A 
ATOM     90  C   UNL A   1      34.255  17.625  23.917  1.00  0.00     0.030 A 
ATOM     91  N   UNL A   1      32.567  18.196  25.540  1.00  0.00    -0.255 NA
ATOM     92  C   UNL A   1      33.976  16.271  24.079  1.00  0.00     0.004 A 
ATOM     93  C   UNL A   1      32.325  16.876  25.684  1.00  0.00     0.112 A 
ATOM     94  C   UNL A   1      32.993  15.886  24.981  1.00  0.00     0.020 A 
ENDBRANCH  86  89
BRANCH  87  95
ATOM     95  C   UNL A   1      36.532  22.234  25.226  1.00  0.00     0.055 A 
ATOM     96  C   UNL A   1      36.647  23.521  25.781  1.00  0.00     0.015 A 
ATOM     97  C   UNL A   1      37.669  21.415  25.241  1.00  0.00     0.134 A 
ATOM     98  C   UNL A   1      37.849  23.956  26.351  1.00  0.00     0.001 A 
ATOM     99  C   UNL A   1      38.872  21.844  25.801  1.00  0.00     0.040 A 
ATOM    100  F   UNL A   1      37.629  20.188  24.699  1.00  0.00    -0.206 F 
ATOM    101  C   UNL A   1      38.961  23.115  26.365  1.00  0.00     0.003 A 
ENDBRANCH  87  95
ENDBRANCH  81  83
ENDBRANCH  74  77
ENDBRANCH  72  73
ENDBRANCH   1  72
TORSDOF 13
ENDMDL
