MODEL 1
REMARK VINA RESULT:     -13.1      0.000      0.000
REMARK SMILES O=C(NCCCNC(=O)c1cc(Cl)ccc1NC(=O)c1ccc2c(c1)C(=O)N(Cc1ccco1)C2=O)c1ccc(-c2c3nc(c(-c4c(F)c(F)c(F)c(F)c4F)c4ccc([nH]4)c(-c4c(F)c(F)c(F)c(F)c4F)c4nc(c(-c5c(F)c(F)c(F)c(F)c5F)c5ccc2[nH]5)C=C4)C=C3)cc1
REMARK SMILES IDX 6 1 5 2 4 3 3 4 1 5 2 6 37 8 38 9 99 10 39 11 98 12 40 13
REMARK SMILES IDX 41 14 42 15 92 16 43 17 97 18 91 19 93 20 44 21 96 22 90 23
REMARK SMILES IDX 89 24 45 26 77 27 57 28 76 29 58 30 61 31 75 32 94 33 59 34
REMARK SMILES IDX 60 35 74 37 95 38 62 39 46 40 47 41 55 42 48 43 49 44 53 45
REMARK SMILES IDX 56 46 50 47 51 48 54 49 52 50 78 51 79 52 87 53 80 54 81 55
REMARK SMILES IDX 85 56 88 57 82 58 83 59 86 60 84 61 63 62 64 63 72 64 65 65
REMARK SMILES IDX 66 66 70 67 73 68 67 69 68 70 71 71 69 72 7 73 8 74 9 76
REMARK SMILES IDX 10 77 11 78 16 79 12 80 15 81 13 82 14 83 17 84 18 85 19 87
REMARK SMILES IDX 20 88 21 89 25 90 22 91 24 92 23 93 26 94 35 95 27 96 28 97
REMARK SMILES IDX 36 98 29 99 30 100 31 101 34 102 32 103 33 104
REMARK H PARENT 3 7 93 25 61 36 7 75 17 86
REMARK Flexibility Score: inf
ROOT
ATOM      1  C   UNL A   1      37.478  19.516  24.629  1.00  0.00     0.118 C 
ENDROOT
BRANCH   1   2
ATOM      2  C   UNL A   1      38.417  18.803  25.583  1.00  0.00     0.042 C 
BRANCH   2   3
ATOM      3  C   UNL A   1      39.658  19.609  25.919  1.00  0.00     0.118 C 
BRANCH   3   4
ATOM      4  N   UNL A   1      40.896  18.854  25.752  1.00  0.00    -0.352 N 
ATOM      5  O   UNL A   1      43.114  18.499  25.523  1.00  0.00    -0.269 OA
ATOM      6  C   UNL A   1      42.208  19.260  25.846  1.00  0.00     0.251 C 
ATOM      7  H   UNL A   1      40.773  17.901  25.536  1.00  0.00     0.163 HD
BRANCH   6   8
ATOM      8  C   UNL A   1      42.523  20.629  26.309  1.00  0.00     0.039 A 
ATOM      9  C   UNL A   1      42.837  21.621  25.385  1.00  0.00     0.014 A 
ATOM     10  C   UNL A   1      42.527  20.924  27.676  1.00  0.00     0.014 A 
ATOM     11  C   UNL A   1      43.381  22.816  25.821  1.00  0.00     0.010 A 
ATOM     12  C   UNL A   1      42.923  22.194  28.111  1.00  0.00     0.010 A 
ATOM     13  C   UNL A   1      43.394  23.139  27.188  1.00  0.00    -0.014 A 
BRANCH  13  14
ATOM     14  C   UNL A   1      43.816  24.512  27.572  1.00  0.00     0.031 A 
ATOM     15  C   UNL A   1      45.252  24.951  27.509  1.00  0.00     0.074 A 
ATOM     16  C   UNL A   1      42.852  25.395  27.902  1.00  0.00     0.049 A 
ATOM     17  N   UNL A   1      45.757  26.140  27.730  1.00  0.00    -0.248 NA
ATOM     18  C   UNL A   1      46.255  23.932  27.165  1.00  0.00     0.031 C 
ATOM     19  C   UNL A   1      41.425  25.073  28.019  1.00  0.00     0.029 A 
ATOM     20  N   UNL A   1      42.906  26.740  28.156  1.00  0.00    -0.354 N 
ATOM     21  C   UNL A   1      47.129  26.013  27.558  1.00  0.00     0.074 A 
ATOM     22  C   UNL A   1      47.386  24.622  27.252  1.00  0.00     0.031 C 
ATOM     23  C   UNL A   1      40.734  26.197  28.242  1.00  0.00     0.029 A 
ATOM     24  C   UNL A   1      41.672  27.302  28.381  1.00  0.00     0.049 A 
ATOM     25  H   UNL A   1      43.745  27.253  28.176  1.00  0.00     0.167 HD
ATOM     26  C   UNL A   1      48.080  26.976  27.634  1.00  0.00     0.037 A 
ATOM     27  C   UNL A   1      41.330  28.563  28.695  1.00  0.00     0.037 A 
ATOM     28  C   UNL A   1      47.813  28.360  27.942  1.00  0.00     0.049 A 
ATOM     29  C   UNL A   1      42.412  29.596  28.804  1.00  0.00     0.074 A 
ATOM     30  C   UNL A   1      48.708  29.412  28.039  1.00  0.00     0.029 A 
ATOM     31  N   UNL A   1      46.556  28.885  28.210  1.00  0.00    -0.354 N 
ATOM     32  N   UNL A   1      43.702  29.466  28.609  1.00  0.00    -0.248 NA
ATOM     33  C   UNL A   1      41.992  30.951  29.176  1.00  0.00     0.031 C 
ATOM     34  C   UNL A   1      48.002  30.559  28.416  1.00  0.00     0.029 A 
ATOM     35  C   UNL A   1      46.656  30.240  28.491  1.00  0.00     0.049 A 
ATOM     36  H   UNL A   1      45.716  28.371  28.201  1.00  0.00     0.167 HD
ATOM     37  C   UNL A   1      44.246  30.723  28.825  1.00  0.00     0.074 A 
ATOM     38  C   UNL A   1      43.139  31.610  29.122  1.00  0.00     0.031 C 
ATOM     39  C   UNL A   1      45.546  31.108  28.791  1.00  0.00     0.037 A 
BRANCH  26  40
ATOM     40  C   UNL A   1      49.508  26.574  27.387  1.00  0.00     0.064 A 
ATOM     41  C   UNL A   1      50.023  26.445  26.089  1.00  0.00     0.173 A 
ATOM     42  C   UNL A   1      50.393  26.385  28.461  1.00  0.00     0.173 A 
ATOM     43  F   UNL A   1      49.220  26.605  25.025  1.00  0.00    -0.203 F 
ATOM     44  C   UNL A   1      51.361  26.123  25.874  1.00  0.00     0.198 A 
ATOM     45  C   UNL A   1      51.739  26.095  28.243  1.00  0.00     0.198 A 
ATOM     46  F   UNL A   1      49.958  26.503  29.725  1.00  0.00    -0.203 F 
ATOM     47  F   UNL A   1      51.820  25.969  24.624  1.00  0.00    -0.200 F 
ATOM     48  C   UNL A   1      52.220  25.960  26.950  1.00  0.00     0.200 A 
ATOM     49  F   UNL A   1      52.569  25.953  29.284  1.00  0.00    -0.200 F 
ATOM     50  F   UNL A   1      53.512  25.668  26.742  1.00  0.00    -0.200 F 
ENDBRANCH  26  40
BRANCH  27  51
ATOM     51  C   UNL A   1      39.907  28.902  28.963  1.00  0.00     0.064 A 
ATOM     52  C   UNL A   1      39.358  28.795  30.248  1.00  0.00     0.173 A 
ATOM     53  C   UNL A   1      39.059  29.328  27.927  1.00  0.00     0.173 A 
ATOM     54  F   UNL A   1      40.121  28.379  31.269  1.00  0.00    -0.203 F 
ATOM     55  C   UNL A   1      38.011  29.066  30.479  1.00  0.00     0.198 A 
ATOM     56  C   UNL A   1      37.725  29.641  28.168  1.00  0.00     0.198 A 
ATOM     57  F   UNL A   1      39.534  29.458  26.679  1.00  0.00    -0.203 F 
ATOM     58  F   UNL A   1      37.497  28.892  31.704  1.00  0.00    -0.200 F 
ATOM     59  C   UNL A   1      37.197  29.495  29.441  1.00  0.00     0.200 A 
ATOM     60  F   UNL A   1      36.951  30.079  27.165  1.00  0.00    -0.200 F 
ATOM     61  F   UNL A   1      35.903  29.758  29.664  1.00  0.00    -0.200 F 
ENDBRANCH  27  51
BRANCH  39  62
ATOM     62  C   UNL A   1      45.826  32.560  29.059  1.00  0.00     0.064 A 
ATOM     63  C   UNL A   1      45.862  33.508  28.024  1.00  0.00     0.173 A 
ATOM     64  C   UNL A   1      46.074  33.006  30.365  1.00  0.00     0.173 A 
ATOM     65  F   UNL A   1      45.649  33.130  26.754  1.00  0.00    -0.203 F 
ATOM     66  C   UNL A   1      46.184  34.837  28.282  1.00  0.00     0.198 A 
ATOM     67  C   UNL A   1      46.356  34.345  30.624  1.00  0.00     0.198 A 
ATOM     68  F   UNL A   1      46.045  32.145  31.393  1.00  0.00    -0.203 F 
ATOM     69  F   UNL A   1      46.290  35.707  27.267  1.00  0.00    -0.200 F 
ATOM     70  C   UNL A   1      46.426  35.256  29.582  1.00  0.00     0.200 A 
ATOM     71  F   UNL A   1      46.573  34.750  31.883  1.00  0.00    -0.200 F 
ATOM     72  F   UNL A   1      46.740  36.535  29.827  1.00  0.00    -0.200 F 
ENDBRANCH  39  62
ENDBRANCH  13  14
ENDBRANCH   6   8
ENDBRANCH   3   4
ENDBRANCH   2   3
ENDBRANCH   1   2
BRANCH   1  73
ATOM     73  N   UNL A   1      36.074  19.342  24.992  1.00  0.00    -0.352 N 
ATOM     74  C   UNL A   1      35.121  20.290  25.282  1.00  0.00     0.253 C 
ATOM     75  H   UNL A   1      35.765  18.409  25.036  1.00  0.00     0.163 HD
ATOM     76  O   UNL A   1      34.051  19.960  25.785  1.00  0.00    -0.269 OA
BRANCH  74  77
ATOM     77  C   UNL A   1      35.427  21.716  25.049  1.00  0.00     0.064 A 
ATOM     78  C   UNL A   1      36.537  22.273  25.702  1.00  0.00     0.036 A 
ATOM     79  C   UNL A   1      34.590  22.508  24.242  1.00  0.00     0.054 A 
ATOM     80  C   UNL A   1      36.706  23.648  25.721  1.00  0.00     0.041 A 
ATOM     81  C   UNL A   1      34.713  23.893  24.384  1.00  0.00     0.028 A 
ATOM     82  Cl  UNL A   1      38.015  24.339  26.591  1.00  0.00    -0.084 Cl
ATOM     83  C   UNL A   1      35.770  24.465  25.102  1.00  0.00     0.023 A 
BRANCH  79  84
ATOM     84  N   UNL A   1      33.693  21.885  23.334  1.00  0.00    -0.321 N 
ATOM     85  C   UNL A   1      32.356  22.091  23.051  1.00  0.00     0.255 C 
ATOM     86  H   UNL A   1      34.104  21.165  22.803  1.00  0.00     0.170 HD
ATOM     87  O   UNL A   1      31.744  21.349  22.287  1.00  0.00    -0.269 OA
BRANCH  85  88
ATOM     88  C   UNL A   1      31.622  23.220  23.655  1.00  0.00     0.041 A 
ATOM     89  C   UNL A   1      31.176  23.059  24.988  1.00  0.00     0.015 A 
ATOM     90  C   UNL A   1      31.538  24.454  22.990  1.00  0.00     0.028 A 
ATOM     91  C   UNL A   1      30.783  24.170  25.733  1.00  0.00     0.015 A 
ATOM     92  C   UNL A   1      31.170  25.538  23.764  1.00  0.00     0.054 A 
ATOM     93  C   UNL A   1      30.840  25.399  25.102  1.00  0.00     0.053 A 
ATOM     94  C   UNL A   1      31.263  26.970  23.481  1.00  0.00     0.261 C 
ATOM     95  C   UNL A   1      30.767  26.736  25.677  1.00  0.00     0.261 C 
ATOM     96  O   UNL A   1      31.639  27.423  22.416  1.00  0.00    -0.269 OA
ATOM     97  N   UNL A   1      30.966  27.615  24.648  1.00  0.00    -0.267 N 
ATOM     98  O   UNL A   1      30.653  26.946  26.868  1.00  0.00    -0.269 OA
BRANCH  97  99
ATOM     99  C   UNL A   1      31.028  29.052  24.823  1.00  0.00     0.204 C 
BRANCH  99 100
ATOM    100  C   UNL A   1      32.188  29.389  25.689  1.00  0.00     0.123 A 
ATOM    101  C   UNL A   1      33.451  28.847  25.829  1.00  0.00     0.047 A 
ATOM    102  O   UNL A   1      32.032  30.432  26.553  1.00  0.00    -0.467 OA
ATOM    103  C   UNL A   1      34.091  29.582  26.852  1.00  0.00     0.042 A 
ATOM    104  C   UNL A   1      33.192  30.541  27.253  1.00  0.00     0.195 A 
ENDBRANCH  99 100
ENDBRANCH  97  99
ENDBRANCH  85  88
ENDBRANCH  79  84
ENDBRANCH  74  77
ENDBRANCH   1  73
TORSDOF 14
ENDMDL
MODEL 2
REMARK VINA RESULT:     -13.0      9.207     15.334
REMARK SMILES O=C(NCCCNC(=O)c1cc(Cl)ccc1NC(=O)c1ccc2c(c1)C(=O)N(Cc1ccco1)C2=O)c1ccc(-c2c3nc(c(-c4c(F)c(F)c(F)c(F)c4F)c4ccc([nH]4)c(-c4c(F)c(F)c(F)c(F)c4F)c4nc(c(-c5c(F)c(F)c(F)c(F)c5F)c5ccc2[nH]5)C=C4)C=C3)cc1
REMARK SMILES IDX 6 1 5 2 4 3 3 4 1 5 2 6 37 8 38 9 99 10 39 11 98 12 40 13
REMARK SMILES IDX 41 14 42 15 92 16 43 17 97 18 91 19 93 20 44 21 96 22 90 23
REMARK SMILES IDX 89 24 45 26 77 27 57 28 76 29 58 30 61 31 75 32 94 33 59 34
REMARK SMILES IDX 60 35 74 37 95 38 62 39 46 40 47 41 55 42 48 43 49 44 53 45
REMARK SMILES IDX 56 46 50 47 51 48 54 49 52 50 78 51 79 52 87 53 80 54 81 55
REMARK SMILES IDX 85 56 88 57 82 58 83 59 86 60 84 61 63 62 64 63 72 64 65 65
REMARK SMILES IDX 66 66 70 67 73 68 67 69 68 70 71 71 69 72 7 73 8 74 9 76
REMARK SMILES IDX 10 77 11 78 16 79 12 80 15 81 13 82 14 83 17 84 18 85 19 87
REMARK SMILES IDX 20 88 21 89 25 90 22 91 24 92 23 93 26 94 35 95 27 96 28 97
REMARK SMILES IDX 36 98 29 99 30 100 31 101 34 102 32 103 33 104
REMARK H PARENT 3 7 93 25 61 36 7 75 17 86
REMARK Flexibility Score: inf
ROOT
ATOM      1  C   UNL A   1      46.932  23.945  39.123  1.00  0.00     0.118 C 
ENDROOT
BRANCH   1   2
ATOM      2  C   UNL A   1      46.071  25.165  39.392  1.00  0.00     0.042 C 
BRANCH   2   3
ATOM      3  C   UNL A   1      46.631  26.440  38.793  1.00  0.00     0.118 C 
BRANCH   3   4
ATOM      4  N   UNL A   1      47.621  26.198  37.748  1.00  0.00    -0.352 N 
ATOM      5  O   UNL A   1      48.438  25.951  35.657  1.00  0.00    -0.269 OA
ATOM      6  C   UNL A   1      47.533  26.353  36.383  1.00  0.00     0.251 C 
ATOM      7  H   UNL A   1      48.492  25.870  38.071  1.00  0.00     0.163 HD
BRANCH   6   8
ATOM      8  C   UNL A   1      46.332  26.977  35.789  1.00  0.00     0.039 A 
ATOM      9  C   UNL A   1      45.127  26.281  35.763  1.00  0.00     0.014 A 
ATOM     10  C   UNL A   1      46.408  28.258  35.234  1.00  0.00     0.014 A 
ATOM     11  C   UNL A   1      44.083  26.748  34.984  1.00  0.00     0.010 A 
ATOM     12  C   UNL A   1      45.293  28.802  34.585  1.00  0.00     0.010 A 
ATOM     13  C   UNL A   1      44.131  28.033  34.419  1.00  0.00    -0.014 A 
BRANCH  13  14
ATOM     14  C   UNL A   1      42.904  28.545  33.756  1.00  0.00     0.031 A 
ATOM     15  C   UNL A   1      41.971  29.506  34.438  1.00  0.00     0.074 A 
ATOM     16  C   UNL A   1      42.688  28.187  32.473  1.00  0.00     0.049 A 
ATOM     17  N   UNL A   1      40.910  30.103  33.952  1.00  0.00    -0.248 NA
ATOM     18  C   UNL A   1      42.251  29.836  35.843  1.00  0.00     0.031 C 
ATOM     19  C   UNL A   1      43.516  27.240  31.717  1.00  0.00     0.029 A 
ATOM     20  N   UNL A   1      41.749  28.598  31.565  1.00  0.00    -0.354 N 
ATOM     21  C   UNL A   1      40.395  30.872  34.987  1.00  0.00     0.074 A 
ATOM     22  C   UNL A   1      41.236  30.637  36.142  1.00  0.00     0.031 C 
ATOM     23  C   UNL A   1      43.099  27.204  30.446  1.00  0.00     0.029 A 
ATOM     24  C   UNL A   1      41.918  28.045  30.318  1.00  0.00     0.049 A 
ATOM     25  H   UNL A   1      41.025  29.227  31.784  1.00  0.00     0.167 HD
ATOM     26  C   UNL A   1      39.326  31.707  34.966  1.00  0.00     0.037 A 
ATOM     27  C   UNL A   1      41.188  28.176  29.197  1.00  0.00     0.037 A 
ATOM     28  C   UNL A   1      38.494  31.932  33.810  1.00  0.00     0.049 A 
ATOM     29  C   UNL A   1      39.993  29.082  29.219  1.00  0.00     0.074 A 
ATOM     30  C   UNL A   1      37.392  32.762  33.686  1.00  0.00     0.029 A 
ATOM     31  N   UNL A   1      38.667  31.320  32.575  1.00  0.00    -0.354 N 
ATOM     32  N   UNL A   1      39.536  29.825  30.198  1.00  0.00    -0.248 NA
ATOM     33  C   UNL A   1      39.212  29.169  27.981  1.00  0.00     0.031 C 
ATOM     34  C   UNL A   1      36.869  32.611  32.398  1.00  0.00     0.029 A 
ATOM     35  C   UNL A   1      37.681  31.739  31.694  1.00  0.00     0.049 A 
ATOM     36  H   UNL A   1      39.385  30.682  32.357  1.00  0.00     0.167 HD
ATOM     37  C   UNL A   1      38.422  30.475  29.692  1.00  0.00     0.074 A 
ATOM     38  C   UNL A   1      38.299  30.071  28.305  1.00  0.00     0.031 C 
ATOM     39  C   UNL A   1      37.568  31.322  30.319  1.00  0.00     0.037 A 
BRANCH  26  40
ATOM     40  C   UNL A   1      38.985  32.443  36.232  1.00  0.00     0.064 A 
ATOM     41  C   UNL A   1      38.154  31.879  37.211  1.00  0.00     0.173 A 
ATOM     42  C   UNL A   1      39.551  33.700  36.502  1.00  0.00     0.173 A 
ATOM     43  F   UNL A   1      37.577  30.685  37.001  1.00  0.00    -0.203 F 
ATOM     44  C   UNL A   1      37.889  32.549  38.403  1.00  0.00     0.198 A 
ATOM     45  C   UNL A   1      39.309  34.354  37.709  1.00  0.00     0.198 A 
ATOM     46  F   UNL A   1      40.360  34.284  35.606  1.00  0.00    -0.203 F 
ATOM     47  F   UNL A   1      37.062  32.005  39.307  1.00  0.00    -0.200 F 
ATOM     48  C   UNL A   1      38.475  33.780  38.656  1.00  0.00     0.200 A 
ATOM     49  F   UNL A   1      39.890  35.535  37.957  1.00  0.00    -0.200 F 
ATOM     50  F   UNL A   1      38.233  34.416  39.811  1.00  0.00    -0.200 F 
ENDBRANCH  26  40
BRANCH  27  51
ATOM     51  C   UNL A   1      41.548  27.399  27.981  1.00  0.00     0.064 A 
ATOM     52  C   UNL A   1      42.343  27.951  26.968  1.00  0.00     0.173 A 
ATOM     53  C   UNL A   1      41.087  26.084  27.803  1.00  0.00     0.173 A 
ATOM     54  F   UNL A   1      42.797  29.208  27.083  1.00  0.00    -0.203 F 
ATOM     55  C   UNL A   1      42.633  27.233  25.810  1.00  0.00     0.198 A 
ATOM     56  C   UNL A   1      41.415  25.352  26.665  1.00  0.00     0.198 A 
ATOM     57  F   UNL A   1      40.331  25.502  28.746  1.00  0.00    -0.203 F 
ATOM     58  F   UNL A   1      43.340  27.808  24.828  1.00  0.00    -0.200 F 
ATOM     59  C   UNL A   1      42.175  25.932  25.663  1.00  0.00     0.200 A 
ATOM     60  F   UNL A   1      40.990  24.087  26.541  1.00  0.00    -0.200 F 
ATOM     61  F   UNL A   1      42.456  25.241  24.550  1.00  0.00    -0.200 F 
ENDBRANCH  27  51
BRANCH  39  62
ATOM     62  C   UNL A   1      36.445  31.883  29.493  1.00  0.00     0.064 A 
ATOM     63  C   UNL A   1      36.386  33.245  29.156  1.00  0.00     0.173 A 
ATOM     64  C   UNL A   1      35.410  31.051  29.043  1.00  0.00     0.173 A 
ATOM     65  F   UNL A   1      37.342  34.088  29.577  1.00  0.00    -0.203 F 
ATOM     66  C   UNL A   1      35.307  33.759  28.443  1.00  0.00     0.198 A 
ATOM     67  C   UNL A   1      34.353  31.562  28.295  1.00  0.00     0.198 A 
ATOM     68  F   UNL A   1      35.420  29.740  29.329  1.00  0.00    -0.203 F 
ATOM     69  F   UNL A   1      35.233  35.076  28.202  1.00  0.00    -0.200 F 
ATOM     70  C   UNL A   1      34.294  32.917  28.008  1.00  0.00     0.200 A 
ATOM     71  F   UNL A   1      33.384  30.744  27.862  1.00  0.00    -0.200 F 
ATOM     72  F   UNL A   1      33.254  33.415  27.326  1.00  0.00    -0.200 F 
ENDBRANCH  39  62
ENDBRANCH  13  14
ENDBRANCH   6   8
ENDBRANCH   3   4
ENDBRANCH   2   3
ENDBRANCH   1   2
BRANCH   1  73
ATOM     73  N   UNL A   1      46.595  22.820  39.992  1.00  0.00    -0.352 N 
ATOM     74  C   UNL A   1      46.142  21.564  39.662  1.00  0.00     0.253 C 
ATOM     75  H   UNL A   1      46.710  22.985  40.955  1.00  0.00     0.163 HD
ATOM     76  O   UNL A   1      45.697  20.818  40.529  1.00  0.00    -0.269 OA
BRANCH  74  77
ATOM     77  C   UNL A   1      46.130  21.150  38.244  1.00  0.00     0.064 A 
ATOM     78  C   UNL A   1      45.653  22.063  37.290  1.00  0.00     0.036 A 
ATOM     79  C   UNL A   1      46.528  19.854  37.871  1.00  0.00     0.054 A 
ATOM     80  C   UNL A   1      45.381  21.631  36.002  1.00  0.00     0.041 A 
ATOM     81  C   UNL A   1      46.125  19.417  36.605  1.00  0.00     0.028 A 
ATOM     82  Cl  UNL A   1      44.717  22.723  34.855  1.00  0.00    -0.084 Cl
ATOM     83  C   UNL A   1      45.572  20.297  35.668  1.00  0.00     0.023 A 
BRANCH  79  84
ATOM     84  N   UNL A   1      47.310  19.074  38.762  1.00  0.00    -0.321 N 
ATOM     85  C   UNL A   1      46.985  18.083  39.669  1.00  0.00     0.255 C 
ATOM     86  H   UNL A   1      48.272  19.279  38.728  1.00  0.00     0.170 HD
ATOM     87  O   UNL A   1      47.828  17.609  40.426  1.00  0.00    -0.269 OA
BRANCH  85  88
ATOM     88  C   UNL A   1      45.608  17.556  39.750  1.00  0.00     0.041 A 
ATOM     89  C   UNL A   1      45.076  16.963  38.582  1.00  0.00     0.015 A 
ATOM     90  C   UNL A   1      44.941  17.488  40.984  1.00  0.00     0.028 A 
ATOM     91  C   UNL A   1      43.941  16.157  38.660  1.00  0.00     0.015 A 
ATOM     92  C   UNL A   1      43.837  16.660  41.034  1.00  0.00     0.054 A 
ATOM     93  C   UNL A   1      43.379  15.989  39.912  1.00  0.00     0.053 A 
ATOM     94  C   UNL A   1      43.103  16.139  42.187  1.00  0.00     0.261 C 
ATOM     95  C   UNL A   1      42.390  15.015  40.357  1.00  0.00     0.261 C 
ATOM     96  O   UNL A   1      43.347  16.451  43.338  1.00  0.00    -0.269 OA
ATOM     97  N   UNL A   1      42.233  15.204  41.702  1.00  0.00    -0.267 N 
ATOM     98  O   UNL A   1      41.918  14.163  39.631  1.00  0.00    -0.269 OA
BRANCH  97  99
ATOM     99  C   UNL A   1      41.374  14.384  42.531  1.00  0.00     0.204 C 
BRANCH  99 100
ATOM    100  C   UNL A   1      42.108  13.154  42.928  1.00  0.00     0.123 A 
ATOM    101  C   UNL A   1      43.075  12.897  43.880  1.00  0.00     0.047 A 
ATOM    102  O   UNL A   1      41.818  12.012  42.241  1.00  0.00    -0.467 OA
ATOM    103  C   UNL A   1      43.413  11.531  43.750  1.00  0.00     0.042 A 
ATOM    104  C   UNL A   1      42.615  11.034  42.747  1.00  0.00     0.195 A 
ENDBRANCH  99 100
ENDBRANCH  97  99
ENDBRANCH  85  88
ENDBRANCH  79  84
ENDBRANCH  74  77
ENDBRANCH   1  73
TORSDOF 14
ENDMDL
MODEL 3
REMARK VINA RESULT:     -13.0      0.933      6.995
REMARK SMILES O=C(NCCCNC(=O)c1cc(Cl)ccc1NC(=O)c1ccc2c(c1)C(=O)N(Cc1ccco1)C2=O)c1ccc(-c2c3nc(c(-c4c(F)c(F)c(F)c(F)c4F)c4ccc([nH]4)c(-c4c(F)c(F)c(F)c(F)c4F)c4nc(c(-c5c(F)c(F)c(F)c(F)c5F)c5ccc2[nH]5)C=C4)C=C3)cc1
REMARK SMILES IDX 6 1 5 2 4 3 3 4 1 5 2 6 37 8 38 9 99 10 39 11 98 12 40 13
REMARK SMILES IDX 41 14 42 15 92 16 43 17 97 18 91 19 93 20 44 21 96 22 90 23
REMARK SMILES IDX 89 24 45 26 77 27 57 28 76 29 58 30 61 31 75 32 94 33 59 34
REMARK SMILES IDX 60 35 74 37 95 38 62 39 46 40 47 41 55 42 48 43 49 44 53 45
REMARK SMILES IDX 56 46 50 47 51 48 54 49 52 50 78 51 79 52 87 53 80 54 81 55
REMARK SMILES IDX 85 56 88 57 82 58 83 59 86 60 84 61 63 62 64 63 72 64 65 65
REMARK SMILES IDX 66 66 70 67 73 68 67 69 68 70 71 71 69 72 7 73 8 74 9 76
REMARK SMILES IDX 10 77 11 78 16 79 12 80 15 81 13 82 14 83 17 84 18 85 19 87
REMARK SMILES IDX 20 88 21 89 25 90 22 91 24 92 23 93 26 94 35 95 27 96 28 97
REMARK SMILES IDX 36 98 29 99 30 100 31 101 34 102 32 103 33 104
REMARK H PARENT 3 7 93 25 61 36 7 75 17 86
REMARK Flexibility Score: inf
ROOT
ATOM      1  C   UNL A   1      37.238  19.437  24.567  1.00  0.00     0.118 C 
ENDROOT
BRANCH   1   2
ATOM      2  C   UNL A   1      38.209  18.832  25.563  1.00  0.00     0.042 C 
BRANCH   2   3
ATOM      3  C   UNL A   1      39.409  19.716  25.844  1.00  0.00     0.118 C 
BRANCH   3   4
ATOM      4  N   UNL A   1      40.626  18.960  26.125  1.00  0.00    -0.352 N 
ATOM      5  O   UNL A   1      42.822  18.596  26.501  1.00  0.00    -0.269 OA
ATOM      6  C   UNL A   1      41.892  19.395  26.446  1.00  0.00     0.251 C 
ATOM      7  H   UNL A   1      40.525  17.981  26.078  1.00  0.00     0.163 HD
BRANCH   6   8
ATOM      8  C   UNL A   1      42.136  20.832  26.692  1.00  0.00     0.039 A 
ATOM      9  C   UNL A   1      42.144  21.729  25.628  1.00  0.00     0.014 A 
ATOM     10  C   UNL A   1      42.379  21.289  27.991  1.00  0.00     0.014 A 
ATOM     11  C   UNL A   1      42.626  23.012  25.818  1.00  0.00     0.010 A 
ATOM     12  C   UNL A   1      42.709  22.633  28.204  1.00  0.00     0.010 A 
ATOM     13  C   UNL A   1      42.875  23.499  27.113  1.00  0.00    -0.014 A 
BRANCH  13  14
ATOM     14  C   UNL A   1      43.208  24.940  27.259  1.00  0.00     0.031 A 
ATOM     15  C   UNL A   1      42.262  25.916  27.900  1.00  0.00     0.074 A 
ATOM     16  C   UNL A   1      44.436  25.341  26.872  1.00  0.00     0.049 A 
ATOM     17  N   UNL A   1      42.452  27.183  28.173  1.00  0.00    -0.248 NA
ATOM     18  C   UNL A   1      40.930  25.417  28.277  1.00  0.00     0.031 C 
ATOM     19  C   UNL A   1      45.430  24.485  26.215  1.00  0.00     0.029 A 
ATOM     20  N   UNL A   1      45.079  26.544  27.008  1.00  0.00    -0.354 N 
ATOM     21  C   UNL A   1      41.270  27.634  28.747  1.00  0.00     0.074 A 
ATOM     22  C   UNL A   1      40.352  26.515  28.747  1.00  0.00     0.031 C 
ATOM     23  C   UNL A   1      46.576  25.161  26.078  1.00  0.00     0.029 A 
ATOM     24  C   UNL A   1      46.373  26.525  26.546  1.00  0.00     0.049 A 
ATOM     25  H   UNL A   1      44.656  27.341  27.399  1.00  0.00     0.167 HD
ATOM     26  C   UNL A   1      40.988  28.866  29.239  1.00  0.00     0.037 A 
ATOM     27  C   UNL A   1      47.291  27.504  26.477  1.00  0.00     0.037 A 
ATOM     28  C   UNL A   1      41.911  29.975  29.231  1.00  0.00     0.049 A 
ATOM     29  C   UNL A   1      46.934  28.863  27.000  1.00  0.00     0.074 A 
ATOM     30  C   UNL A   1      41.721  31.260  29.710  1.00  0.00     0.029 A 
ATOM     31  N   UNL A   1      43.198  29.932  28.713  1.00  0.00    -0.354 N 
ATOM     32  N   UNL A   1      45.821  29.266  27.566  1.00  0.00    -0.248 NA
ATOM     33  C   UNL A   1      47.958  29.905  26.876  1.00  0.00     0.031 C 
ATOM     34  C   UNL A   1      42.870  32.008  29.433  1.00  0.00     0.029 A 
ATOM     35  C   UNL A   1      43.804  31.174  28.842  1.00  0.00     0.049 A 
ATOM     36  H   UNL A   1      43.620  29.138  28.312  1.00  0.00     0.167 HD
ATOM     37  C   UNL A   1      46.016  30.602  27.874  1.00  0.00     0.074 A 
ATOM     38  C   UNL A   1      47.369  30.930  27.472  1.00  0.00     0.031 C 
ATOM     39  C   UNL A   1      45.150  31.486  28.431  1.00  0.00     0.037 A 
BRANCH  26  40
ATOM     40  C   UNL A   1      39.623  29.091  29.827  1.00  0.00     0.064 A 
ATOM     41  C   UNL A   1      39.326  28.750  31.155  1.00  0.00     0.173 A 
ATOM     42  C   UNL A   1      38.617  29.722  29.075  1.00  0.00     0.173 A 
ATOM     43  F   UNL A   1      40.246  28.135  31.915  1.00  0.00    -0.203 F 
ATOM     44  C   UNL A   1      38.073  29.013  31.703  1.00  0.00     0.198 A 
ATOM     45  C   UNL A   1      37.375  30.013  29.637  1.00  0.00     0.198 A 
ATOM     46  F   UNL A   1      38.846  30.078  27.803  1.00  0.00    -0.203 F 
ATOM     47  F   UNL A   1      37.803  28.643  32.963  1.00  0.00    -0.200 F 
ATOM     48  C   UNL A   1      37.103  29.654  30.948  1.00  0.00     0.200 A 
ATOM     49  F   UNL A   1      36.445  30.647  28.910  1.00  0.00    -0.200 F 
ATOM     50  F   UNL A   1      35.903  29.923  31.482  1.00  0.00    -0.200 F 
ENDBRANCH  26  40
BRANCH  27  51
ATOM     51  C   UNL A   1      48.616  27.237  25.854  1.00  0.00     0.064 A 
ATOM     52  C   UNL A   1      49.727  26.869  26.625  1.00  0.00     0.173 A 
ATOM     53  C   UNL A   1      48.798  27.362  24.467  1.00  0.00     0.173 A 
ATOM     54  F   UNL A   1      49.608  26.750  27.956  1.00  0.00    -0.203 F 
ATOM     55  C   UNL A   1      50.974  26.671  26.038  1.00  0.00     0.198 A 
ATOM     56  C   UNL A   1      50.035  27.121  23.877  1.00  0.00     0.198 A 
ATOM     57  F   UNL A   1      47.767  27.702  23.680  1.00  0.00    -0.203 F 
ATOM     58  F   UNL A   1      52.034  26.384  26.806  1.00  0.00    -0.200 F 
ATOM     59  C   UNL A   1      51.126  26.790  24.664  1.00  0.00     0.200 A 
ATOM     60  F   UNL A   1      50.169  27.213  22.547  1.00  0.00    -0.200 F 
ATOM     61  F   UNL A   1      52.326  26.597  24.101  1.00  0.00    -0.200 F 
ENDBRANCH  27  51
BRANCH  39  62
ATOM     62  C   UNL A   1      45.660  32.880  28.656  1.00  0.00     0.064 A 
ATOM     63  C   UNL A   1      46.319  33.243  29.843  1.00  0.00     0.173 A 
ATOM     64  C   UNL A   1      45.478  33.870  27.679  1.00  0.00     0.173 A 
ATOM     65  F   UNL A   1      46.503  32.338  30.816  1.00  0.00    -0.203 F 
ATOM     66  C   UNL A   1      46.730  34.554  30.060  1.00  0.00     0.198 A 
ATOM     67  C   UNL A   1      45.927  35.172  27.885  1.00  0.00     0.198 A 
ATOM     68  F   UNL A   1      44.862  33.578  26.524  1.00  0.00    -0.203 F 
ATOM     69  F   UNL A   1      47.286  34.893  31.233  1.00  0.00    -0.200 F 
ATOM     70  C   UNL A   1      46.539  35.517  29.080  1.00  0.00     0.200 A 
ATOM     71  F   UNL A   1      45.756  36.096  26.930  1.00  0.00    -0.200 F 
ATOM     72  F   UNL A   1      46.932  36.779  29.294  1.00  0.00    -0.200 F 
ENDBRANCH  39  62
ENDBRANCH  13  14
ENDBRANCH   6   8
ENDBRANCH   3   4
ENDBRANCH   2   3
ENDBRANCH   1   2
BRANCH   1  73
ATOM     73  N   UNL A   1      35.847  19.320  24.999  1.00  0.00    -0.352 N 
ATOM     74  C   UNL A   1      34.945  20.306  25.324  1.00  0.00     0.253 C 
ATOM     75  H   UNL A   1      35.506  18.400  25.069  1.00  0.00     0.163 HD
ATOM     76  O   UNL A   1      33.890  20.023  25.881  1.00  0.00    -0.269 OA
BRANCH  74  77
ATOM     77  C   UNL A   1      35.293  21.718  25.059  1.00  0.00     0.064 A 
ATOM     78  C   UNL A   1      36.433  22.249  25.682  1.00  0.00     0.036 A 
ATOM     79  C   UNL A   1      34.467  22.521  24.253  1.00  0.00     0.054 A 
ATOM     80  C   UNL A   1      36.646  23.618  25.672  1.00  0.00     0.041 A 
ATOM     81  C   UNL A   1      34.637  23.904  24.368  1.00  0.00     0.028 A 
ATOM     82  Cl  UNL A   1      37.994  24.281  26.505  1.00  0.00    -0.084 Cl
ATOM     83  C   UNL A   1      35.725  24.454  25.056  1.00  0.00     0.023 A 
BRANCH  79  84
ATOM     84  N   UNL A   1      33.533  21.912  23.374  1.00  0.00    -0.321 N 
ATOM     85  C   UNL A   1      32.197  22.153  23.116  1.00  0.00     0.255 C 
ATOM     86  H   UNL A   1      33.912  21.174  22.845  1.00  0.00     0.170 HD
ATOM     87  O   UNL A   1      31.548  21.419  22.376  1.00  0.00    -0.269 OA
BRANCH  85  88
ATOM     88  C   UNL A   1      31.508  23.311  23.720  1.00  0.00     0.041 A 
ATOM     89  C   UNL A   1      31.027  23.157  25.041  1.00  0.00     0.015 A 
ATOM     90  C   UNL A   1      31.501  24.555  23.069  1.00  0.00     0.028 A 
ATOM     91  C   UNL A   1      30.675  24.278  25.792  1.00  0.00     0.015 A 
ATOM     92  C   UNL A   1      31.172  25.647  23.849  1.00  0.00     0.054 A 
ATOM     93  C   UNL A   1      30.807  25.510  25.178  1.00  0.00     0.053 A 
ATOM     94  C   UNL A   1      31.343  27.076  23.586  1.00  0.00     0.261 C 
ATOM     95  C   UNL A   1      30.791  26.842  25.768  1.00  0.00     0.261 C 
ATOM     96  O   UNL A   1      31.764  27.522  22.535  1.00  0.00    -0.269 OA
ATOM     97  N   UNL A   1      31.055  27.722  24.755  1.00  0.00    -0.267 N 
ATOM     98  O   UNL A   1      30.662  27.044  26.960  1.00  0.00    -0.269 OA
BRANCH  97  99
ATOM     99  C   UNL A   1      31.186  29.151  24.949  1.00  0.00     0.204 C 
BRANCH  99 100
ATOM    100  C   UNL A   1      32.410  29.425  25.747  1.00  0.00     0.123 A 
ATOM    101  C   UNL A   1      33.649  28.820  25.813  1.00  0.00     0.047 A 
ATOM    102  O   UNL A   1      32.357  30.472  26.619  1.00  0.00    -0.467 OA
ATOM    103  C   UNL A   1      34.384  29.518  26.798  1.00  0.00     0.042 A 
ATOM    104  C   UNL A   1      33.560  30.520  27.251  1.00  0.00     0.195 A 
ENDBRANCH  99 100
ENDBRANCH  97  99
ENDBRANCH  85  88
ENDBRANCH  79  84
ENDBRANCH  74  77
ENDBRANCH   1  73
TORSDOF 14
ENDMDL
