MODEL 1
REMARK VINA RESULT:     -13.3      0.000      0.000
REMARK SMILES O=C(NCCCNC(=O)c1ccc(-c2c3nc(c(-c4c(F)c(F)c(F)c(F)c4F)c4ccc([nH]4)c(-c4c(F)c(F)c(F)c(F)c4F)c4nc(c(-c5c(F)c(F)c(F)c(F)c5F)c5ccc2[nH]5)C=C4)C=C3)cc1)C1=Cc2c(ccc(Cl)c2-c2ccccc2)O[C@H]1C(F)(F)F
REMARK SMILES IDX 5 1 4 2 3 3 1 4 2 5 73 7 74 8 89 9 75 10 88 11 76 12 81 13
REMARK SMILES IDX 77 14 79 15 78 16 80 17 90 18 91 19 92 20 93 21 82 22 83 23
REMARK SMILES IDX 87 24 84 25 86 26 85 27 6 28 7 29 8 30 9 32 10 33 11 34
REMARK SMILES IDX 72 35 12 36 71 37 13 38 14 39 15 40 65 41 16 42 70 43 64 44
REMARK SMILES IDX 66 45 17 46 69 47 63 48 62 49 18 51 50 52 30 53 49 54 31 55
REMARK SMILES IDX 34 56 48 57 67 58 32 59 33 60 47 62 68 63 35 64 19 65 20 66
REMARK SMILES IDX 28 67 21 68 22 69 26 70 29 71 23 72 24 73 27 74 25 75 51 76
REMARK SMILES IDX 52 77 60 78 53 79 54 80 58 81 61 82 55 83 56 84 59 85 57 86
REMARK SMILES IDX 36 87 37 88 45 89 38 90 39 91 43 92 46 93 40 94 41 95 44 96
REMARK SMILES IDX 42 97
REMARK H PARENT 3 6 7 31 66 50 34 61
REMARK Flexibility Score: inf
ROOT
ATOM      1  C   UNL A   1      33.816  29.167  24.155  1.00  0.00     0.042 C 
ENDROOT
BRANCH   1   2
ATOM      2  C   UNL A   1      33.014  28.925  22.886  1.00  0.00     0.118 C 
BRANCH   2   3
ATOM      3  N   UNL A   1      33.441  27.782  22.098  1.00  0.00    -0.352 N 
ATOM      4  O   UNL A   1      33.624  25.620  21.516  1.00  0.00    -0.270 OA
ATOM      5  C   UNL A   1      33.150  26.458  22.278  1.00  0.00     0.251 C 
ATOM      6  H   UNL A   1      34.020  27.990  21.329  1.00  0.00     0.163 HD
BRANCH   5   7
ATOM      7  C   UNL A   1      32.267  26.021  23.380  1.00  0.00     0.067 C 
ATOM      8  C   UNL A   1      32.837  25.340  24.383  1.00  0.00     0.026 C 
ATOM      9  C   UNL A   1      30.796  25.855  23.139  1.00  0.00     0.314 C 
ATOM     10  C   UNL A   1      32.531  23.891  24.229  1.00  0.00     0.027 A 
ATOM     11  O   UNL A   1      30.343  24.469  23.327  1.00  0.00    -0.475 OA
ATOM     12  C   UNL A   1      31.290  23.537  23.675  1.00  0.00     0.128 A 
ATOM     13  C   UNL A   1      33.553  22.934  24.455  1.00  0.00     0.011 A 
ATOM     14  C   UNL A   1      31.040  22.212  23.342  1.00  0.00     0.049 A 
ATOM     15  C   UNL A   1      33.289  21.608  24.080  1.00  0.00     0.049 A 
ATOM     16  C   UNL A   1      32.045  21.254  23.527  1.00  0.00     0.025 A 
ATOM     17  Cl  UNL A   1      34.489  20.375  24.214  1.00  0.00    -0.084 Cl
BRANCH   9  18
ATOM     18  C   UNL A   1      29.973  26.826  24.012  1.00  0.00     0.429 C 
ATOM     19  F   UNL A   1      30.162  28.127  23.688  1.00  0.00    -0.167 F 
ATOM     20  F   UNL A   1      28.646  26.575  23.894  1.00  0.00    -0.167 F 
ATOM     21  F   UNL A   1      30.281  26.709  25.327  1.00  0.00    -0.167 F 
ENDBRANCH   9  18
BRANCH  13  22
ATOM     22  C   UNL A   1      34.856  23.444  24.929  1.00  0.00    -0.016 A 
ATOM     23  C   UNL A   1      35.139  23.469  26.305  1.00  0.00     0.009 A 
ATOM     24  C   UNL A   1      35.920  23.575  24.022  1.00  0.00     0.009 A 
ATOM     25  C   UNL A   1      36.458  23.505  26.758  1.00  0.00     0.001 A 
ATOM     26  C   UNL A   1      37.239  23.599  24.477  1.00  0.00     0.001 A 
ATOM     27  C   UNL A   1      37.507  23.538  25.843  1.00  0.00     0.000 A 
ENDBRANCH  13  22
ENDBRANCH   5   7
ENDBRANCH   2   3
ENDBRANCH   1   2
BRANCH   1  28
ATOM     28  C   UNL A   1      33.008  28.920  25.424  1.00  0.00     0.118 C 
BRANCH  28  29
ATOM     29  N   UNL A   1      32.564  30.139  26.100  1.00  0.00    -0.352 N 
ATOM     30  C   UNL A   1      33.173  30.995  26.993  1.00  0.00     0.251 C 
ATOM     31  H   UNL A   1      31.643  30.401  25.871  1.00  0.00     0.163 HD
ATOM     32  O   UNL A   1      32.534  31.924  27.469  1.00  0.00    -0.269 OA
BRANCH  30  33
ATOM     33  C   UNL A   1      34.565  30.773  27.443  1.00  0.00     0.039 A 
ATOM     34  C   UNL A   1      35.404  31.880  27.626  1.00  0.00     0.014 A 
ATOM     35  C   UNL A   1      35.051  29.498  27.702  1.00  0.00     0.014 A 
ATOM     36  C   UNL A   1      36.664  31.713  28.208  1.00  0.00     0.010 A 
ATOM     37  C   UNL A   1      36.240  29.345  28.399  1.00  0.00     0.010 A 
ATOM     38  C   UNL A   1      37.055  30.453  28.681  1.00  0.00    -0.014 A 
BRANCH  38  39
ATOM     39  C   UNL A   1      38.286  30.234  29.488  1.00  0.00     0.031 A 
ATOM     40  C   UNL A   1      39.350  29.303  28.975  1.00  0.00     0.074 A 
ATOM     41  C   UNL A   1      38.373  30.735  30.737  1.00  0.00     0.049 A 
ATOM     42  N   UNL A   1      40.333  28.727  29.617  1.00  0.00    -0.248 NA
ATOM     43  C   UNL A   1      39.254  28.922  27.556  1.00  0.00     0.031 C 
ATOM     44  C   UNL A   1      37.396  31.619  31.374  1.00  0.00     0.029 A 
ATOM     45  N   UNL A   1      39.323  30.541  31.711  1.00  0.00    -0.354 N 
ATOM     46  C   UNL A   1      40.928  27.870  28.701  1.00  0.00     0.074 A 
ATOM     47  C   UNL A   1      40.171  27.970  27.473  1.00  0.00     0.031 C 
ATOM     48  C   UNL A   1      37.806  31.910  32.619  1.00  0.00     0.029 A 
ATOM     49  C   UNL A   1      39.039  31.183  32.893  1.00  0.00     0.049 A 
ATOM     50  H   UNL A   1      40.131  29.995  31.574  1.00  0.00     0.167 HD
ATOM     51  C   UNL A   1      42.018  27.084  28.866  1.00  0.00     0.037 A 
ATOM     52  C   UNL A   1      39.688  31.166  34.072  1.00  0.00     0.037 A 
ATOM     53  C   UNL A   1      42.809  27.048  30.066  1.00  0.00     0.049 A 
ATOM     54  C   UNL A   1      40.922  30.318  34.218  1.00  0.00     0.074 A 
ATOM     55  C   UNL A   1      43.973  26.343  30.314  1.00  0.00     0.029 A 
ATOM     56  N   UNL A   1      42.524  27.769  31.216  1.00  0.00    -0.354 N 
ATOM     57  N   UNL A   1      41.488  29.525  33.341  1.00  0.00    -0.248 NA
ATOM     58  C   UNL A   1      41.604  30.357  35.519  1.00  0.00     0.031 C 
ATOM     59  C   UNL A   1      44.381  26.620  31.623  1.00  0.00     0.029 A 
ATOM     60  C   UNL A   1      43.492  27.527  32.177  1.00  0.00     0.049 A 
ATOM     61  H   UNL A   1      41.749  28.365  31.332  1.00  0.00     0.167 HD
ATOM     62  C   UNL A   1      42.607  29.000  33.970  1.00  0.00     0.074 A 
ATOM     63  C   UNL A   1      42.644  29.565  35.302  1.00  0.00     0.031 C 
ATOM     64  C   UNL A   1      43.524  28.126  33.486  1.00  0.00     0.037 A 
BRANCH  51  65
ATOM     65  C   UNL A   1      42.421  26.207  27.714  1.00  0.00     0.064 A 
ATOM     66  C   UNL A   1      43.424  26.592  26.811  1.00  0.00     0.173 A 
ATOM     67  C   UNL A   1      41.805  24.962  27.517  1.00  0.00     0.173 A 
ATOM     68  F   UNL A   1      44.036  27.778  26.946  1.00  0.00    -0.203 F 
ATOM     69  C   UNL A   1      43.764  25.782  25.729  1.00  0.00     0.198 A 
ATOM     70  C   UNL A   1      42.172  24.140  26.455  1.00  0.00     0.198 A 
ATOM     71  F   UNL A   1      40.845  24.541  28.355  1.00  0.00    -0.203 F 
ATOM     72  F   UNL A   1      44.678  26.202  24.844  1.00  0.00    -0.200 F 
ATOM     73  C   UNL A   1      43.142  24.556  25.556  1.00  0.00     0.200 A 
ATOM     74  F   UNL A   1      41.579  22.948  26.295  1.00  0.00    -0.200 F 
ATOM     75  F   UNL A   1      43.472  23.778  24.515  1.00  0.00    -0.200 F 
ENDBRANCH  51  65
BRANCH  52  76
ATOM     76  C   UNL A   1      39.199  32.000  35.202  1.00  0.00     0.064 A 
ATOM     77  C   UNL A   1      39.499  33.369  35.256  1.00  0.00     0.173 A 
ATOM     78  C   UNL A   1      38.428  31.459  36.241  1.00  0.00     0.173 A 
ATOM     79  F   UNL A   1      40.250  33.926  34.295  1.00  0.00    -0.203 F 
ATOM     80  C   UNL A   1      39.060  34.161  36.314  1.00  0.00     0.198 A 
ATOM     81  C   UNL A   1      37.968  32.260  37.285  1.00  0.00     0.198 A 
ATOM     82  F   UNL A   1      38.107  30.158  36.232  1.00  0.00    -0.203 F 
ATOM     83  F   UNL A   1      39.396  35.458  36.359  1.00  0.00    -0.200 F 
ATOM     84  C   UNL A   1      38.290  33.608  37.325  1.00  0.00     0.200 A 
ATOM     85  F   UNL A   1      37.212  31.725  38.254  1.00  0.00    -0.200 F 
ATOM     86  F   UNL A   1      37.865  34.372  38.340  1.00  0.00    -0.200 F 
ENDBRANCH  52  76
BRANCH  64  87
ATOM     87  C   UNL A   1      44.676  27.773  34.376  1.00  0.00     0.064 A 
ATOM     88  C   UNL A   1      45.846  28.545  34.407  1.00  0.00     0.173 A 
ATOM     89  C   UNL A   1      44.578  26.684  35.257  1.00  0.00     0.173 A 
ATOM     90  F   UNL A   1      45.991  29.584  33.571  1.00  0.00    -0.203 F 
ATOM     91  C   UNL A   1      46.882  28.232  35.282  1.00  0.00     0.198 A 
ATOM     92  C   UNL A   1      45.606  26.390  36.146  1.00  0.00     0.198 A 
ATOM     93  F   UNL A   1      43.476  25.920  35.266  1.00  0.00    -0.203 F 
ATOM     94  F   UNL A   1      48.006  28.964  35.274  1.00  0.00    -0.200 F 
ATOM     95  C   UNL A   1      46.759  27.162  36.156  1.00  0.00     0.200 A 
ATOM     96  F   UNL A   1      45.480  25.364  36.998  1.00  0.00    -0.200 F 
ATOM     97  F   UNL A   1      47.753  26.873  37.007  1.00  0.00    -0.200 F 
ENDBRANCH  64  87
ENDBRANCH  38  39
ENDBRANCH  30  33
ENDBRANCH  28  29
ENDBRANCH   1  28
TORSDOF 12
ENDMDL
MODEL 2
REMARK VINA RESULT:     -13.3      2.130      3.333
REMARK SMILES O=C(NCCCNC(=O)c1ccc(-c2c3nc(c(-c4c(F)c(F)c(F)c(F)c4F)c4ccc([nH]4)c(-c4c(F)c(F)c(F)c(F)c4F)c4nc(c(-c5c(F)c(F)c(F)c(F)c5F)c5ccc2[nH]5)C=C4)C=C3)cc1)C1=Cc2c(ccc(Cl)c2-c2ccccc2)O[C@H]1C(F)(F)F
REMARK SMILES IDX 5 1 4 2 3 3 1 4 2 5 73 7 74 8 89 9 75 10 88 11 76 12 81 13
REMARK SMILES IDX 77 14 79 15 78 16 80 17 90 18 91 19 92 20 93 21 82 22 83 23
REMARK SMILES IDX 87 24 84 25 86 26 85 27 6 28 7 29 8 30 9 32 10 33 11 34
REMARK SMILES IDX 72 35 12 36 71 37 13 38 14 39 15 40 65 41 16 42 70 43 64 44
REMARK SMILES IDX 66 45 17 46 69 47 63 48 62 49 18 51 50 52 30 53 49 54 31 55
REMARK SMILES IDX 34 56 48 57 67 58 32 59 33 60 47 62 68 63 35 64 19 65 20 66
REMARK SMILES IDX 28 67 21 68 22 69 26 70 29 71 23 72 24 73 27 74 25 75 51 76
REMARK SMILES IDX 52 77 60 78 53 79 54 80 58 81 61 82 55 83 56 84 59 85 57 86
REMARK SMILES IDX 36 87 37 88 45 89 38 90 39 91 43 92 46 93 40 94 41 95 44 96
REMARK SMILES IDX 42 97
REMARK H PARENT 3 6 7 31 66 50 34 61
REMARK Flexibility Score: inf
ROOT
ATOM      1  C   UNL A   1      31.778  31.313  26.861  1.00  0.00     0.042 C 
ENDROOT
BRANCH   1   2
ATOM      2  C   UNL A   1      32.134  29.836  26.820  1.00  0.00     0.118 C 
BRANCH   2   3
ATOM      3  N   UNL A   1      33.209  29.488  25.907  1.00  0.00    -0.352 N 
ATOM      4  O   UNL A   1      34.171  28.578  24.093  1.00  0.00    -0.270 OA
ATOM      5  C   UNL A   1      33.144  28.801  24.727  1.00  0.00     0.251 C 
ATOM      6  H   UNL A   1      34.107  29.787  26.176  1.00  0.00     0.163 HD
BRANCH   5   7
ATOM      7  C   UNL A   1      31.848  28.325  24.199  1.00  0.00     0.067 C 
ATOM      8  C   UNL A   1      31.477  27.081  24.528  1.00  0.00     0.026 C 
ATOM      9  C   UNL A   1      31.267  28.948  22.964  1.00  0.00     0.314 C 
ATOM     10  C   UNL A   1      31.714  26.175  23.370  1.00  0.00     0.027 A 
ATOM     11  O   UNL A   1      31.134  27.993  21.855  1.00  0.00    -0.475 OA
ATOM     12  C   UNL A   1      31.551  26.703  22.080  1.00  0.00     0.128 A 
ATOM     13  C   UNL A   1      32.277  24.892  23.591  1.00  0.00     0.011 A 
ATOM     14  C   UNL A   1      31.941  25.953  20.977  1.00  0.00     0.049 A 
ATOM     15  C   UNL A   1      32.693  24.168  22.464  1.00  0.00     0.049 A 
ATOM     16  C   UNL A   1      32.528  24.697  21.171  1.00  0.00     0.025 A 
ATOM     17  Cl  UNL A   1      33.482  22.640  22.612  1.00  0.00    -0.084 Cl
BRANCH   9  18
ATOM     18  C   UNL A   1      29.918  29.634  23.264  1.00  0.00     0.429 C 
ATOM     19  F   UNL A   1      28.913  28.757  23.501  1.00  0.00    -0.167 F 
ATOM     20  F   UNL A   1      30.014  30.433  24.355  1.00  0.00    -0.167 F 
ATOM     21  F   UNL A   1      29.509  30.417  22.236  1.00  0.00    -0.167 F 
ENDBRANCH   9  18
BRANCH  13  22
ATOM     22  C   UNL A   1      32.508  24.495  24.995  1.00  0.00    -0.016 A 
ATOM     23  C   UNL A   1      31.504  23.814  25.704  1.00  0.00     0.009 A 
ATOM     24  C   UNL A   1      33.817  24.482  25.504  1.00  0.00     0.009 A 
ATOM     25  C   UNL A   1      31.823  23.046  26.824  1.00  0.00     0.001 A 
ATOM     26  C   UNL A   1      34.136  23.703  26.618  1.00  0.00     0.001 A 
ATOM     27  C   UNL A   1      33.143  22.966  27.261  1.00  0.00     0.000 A 
ENDBRANCH  13  22
ENDBRANCH   5   7
ENDBRANCH   2   3
ENDBRANCH   1   2
BRANCH   1  28
ATOM     28  C   UNL A   1      32.913  32.183  27.392  1.00  0.00     0.118 C 
BRANCH  28  29
ATOM     29  N   UNL A   1      32.543  33.581  27.616  1.00  0.00    -0.352 N 
ATOM     30  C   UNL A   1      33.067  34.577  28.411  1.00  0.00     0.251 C 
ATOM     31  H   UNL A   1      31.760  33.868  27.092  1.00  0.00     0.163 HD
ATOM     32  O   UNL A   1      32.507  35.664  28.464  1.00  0.00    -0.269 OA
BRANCH  30  33
ATOM     33  C   UNL A   1      34.257  34.338  29.258  1.00  0.00     0.039 A 
ATOM     34  C   UNL A   1      34.080  33.800  30.539  1.00  0.00     0.014 A 
ATOM     35  C   UNL A   1      35.540  34.617  28.805  1.00  0.00     0.014 A 
ATOM     36  C   UNL A   1      35.192  33.409  31.292  1.00  0.00     0.010 A 
ATOM     37  C   UNL A   1      36.635  34.110  29.490  1.00  0.00     0.010 A 
ATOM     38  C   UNL A   1      36.475  33.479  30.734  1.00  0.00    -0.014 A 
BRANCH  38  39
ATOM     39  C   UNL A   1      37.679  32.899  31.388  1.00  0.00     0.031 A 
ATOM     40  C   UNL A   1      38.396  31.751  30.731  1.00  0.00     0.074 A 
ATOM     41  C   UNL A   1      38.026  33.288  32.631  1.00  0.00     0.049 A 
ATOM     42  N   UNL A   1      39.250  30.901  31.241  1.00  0.00    -0.248 NA
ATOM     43  C   UNL A   1      38.055  31.489  29.323  1.00  0.00     0.031 C 
ATOM     44  C   UNL A   1      37.393  34.361  33.399  1.00  0.00     0.029 A 
ATOM     45  N   UNL A   1      38.985  32.796  33.484  1.00  0.00    -0.354 N 
ATOM     46  C   UNL A   1      39.495  29.971  30.240  1.00  0.00     0.074 A 
ATOM     47  C   UNL A   1      38.669  30.335  29.110  1.00  0.00     0.031 C 
ATOM     48  C   UNL A   1      37.993  34.463  34.596  1.00  0.00     0.029 A 
ATOM     49  C   UNL A   1      39.008  33.423  34.707  1.00  0.00     0.049 A 
ATOM     50  H   UNL A   1      39.598  32.066  33.241  1.00  0.00     0.167 HD
ATOM     51  C   UNL A   1      40.345  28.917  30.257  1.00  0.00     0.037 A 
ATOM     52  C   UNL A   1      39.747  33.170  35.804  1.00  0.00     0.037 A 
ATOM     53  C   UNL A   1      41.218  28.607  31.357  1.00  0.00     0.049 A 
ATOM     54  C   UNL A   1      40.716  32.020  35.784  1.00  0.00     0.074 A 
ATOM     55  C   UNL A   1      42.170  27.608  31.451  1.00  0.00     0.029 A 
ATOM     56  N   UNL A   1      41.258  29.312  32.551  1.00  0.00    -0.354 N 
ATOM     57  N   UNL A   1      40.955  31.156  34.827  1.00  0.00    -0.248 NA
ATOM     58  C   UNL A   1      41.515  31.805  36.999  1.00  0.00     0.031 C 
ATOM     59  C   UNL A   1      42.771  27.694  32.711  1.00  0.00     0.029 A 
ATOM     60  C   UNL A   1      42.219  28.770  33.388  1.00  0.00     0.049 A 
ATOM     61  H   UNL A   1      40.687  30.084  32.772  1.00  0.00     0.167 HD
ATOM     62  C   UNL A   1      41.952  30.321  35.309  1.00  0.00     0.074 A 
ATOM     63  C   UNL A   1      42.277  30.781  36.643  1.00  0.00     0.031 C 
ATOM     64  C   UNL A   1      42.546  29.265  34.700  1.00  0.00     0.037 A 
BRANCH  51  65
ATOM     65  C   UNL A   1      40.378  28.031  29.045  1.00  0.00     0.064 A 
ATOM     66  C   UNL A   1      41.141  28.358  27.913  1.00  0.00     0.173 A 
ATOM     67  C   UNL A   1      39.644  26.836  29.017  1.00  0.00     0.173 A 
ATOM     68  F   UNL A   1      41.850  29.497  27.883  1.00  0.00    -0.203 F 
ATOM     69  C   UNL A   1      41.134  27.543  26.783  1.00  0.00     0.198 A 
ATOM     70  C   UNL A   1      39.668  26.006  27.899  1.00  0.00     0.198 A 
ATOM     71  F   UNL A   1      38.903  26.470  30.074  1.00  0.00    -0.203 F 
ATOM     72  F   UNL A   1      41.820  27.911  25.692  1.00  0.00    -0.200 F 
ATOM     73  C   UNL A   1      40.403  26.366  26.780  1.00  0.00     0.200 A 
ATOM     74  F   UNL A   1      38.971  24.860  27.900  1.00  0.00    -0.200 F 
ATOM     75  F   UNL A   1      40.399  25.582  25.692  1.00  0.00    -0.200 F 
ENDBRANCH  51  65
BRANCH  52  76
ATOM     76  C   UNL A   1      39.619  34.038  37.004  1.00  0.00     0.064 A 
ATOM     77  C   UNL A   1      38.805  33.649  38.078  1.00  0.00     0.173 A 
ATOM     78  C   UNL A   1      40.301  35.258  37.110  1.00  0.00     0.173 A 
ATOM     79  F   UNL A   1      38.118  32.499  38.013  1.00  0.00    -0.203 F 
ATOM     80  C   UNL A   1      38.664  34.456  39.204  1.00  0.00     0.198 A 
ATOM     81  C   UNL A   1      40.179  36.052  38.249  1.00  0.00     0.198 A 
ATOM     82  F   UNL A   1      41.099  35.671  36.115  1.00  0.00    -0.203 F 
ATOM     83  F   UNL A   1      37.848  34.078  40.197  1.00  0.00    -0.200 F 
ATOM     84  C   UNL A   1      39.356  35.655  39.292  1.00  0.00     0.200 A 
ATOM     85  F   UNL A   1      40.861  37.203  38.338  1.00  0.00    -0.200 F 
ATOM     86  F   UNL A   1      39.224  36.428  40.378  1.00  0.00    -0.200 F 
ENDBRANCH  52  76
BRANCH  64  87
ATOM     87  C   UNL A   1      43.648  28.572  35.442  1.00  0.00     0.064 A 
ATOM     88  C   UNL A   1      44.990  28.941  35.281  1.00  0.00     0.173 A 
ATOM     89  C   UNL A   1      43.345  27.569  36.376  1.00  0.00     0.173 A 
ATOM     90  F   UNL A   1      45.328  29.883  34.387  1.00  0.00    -0.203 F 
ATOM     91  C   UNL A   1      45.993  28.322  36.021  1.00  0.00     0.198 A 
ATOM     92  C   UNL A   1      44.348  26.970  37.132  1.00  0.00     0.198 A 
ATOM     93  F   UNL A   1      42.074  27.185  36.567  1.00  0.00    -0.203 F 
ATOM     94  F   UNL A   1      47.274  28.668  35.830  1.00  0.00    -0.200 F 
ATOM     95  C   UNL A   1      45.671  27.345  36.952  1.00  0.00     0.200 A 
ATOM     96  F   UNL A   1      44.034  26.035  38.038  1.00  0.00    -0.200 F 
ATOM     97  F   UNL A   1      46.638  26.761  37.673  1.00  0.00    -0.200 F 
ENDBRANCH  64  87
ENDBRANCH  38  39
ENDBRANCH  30  33
ENDBRANCH  28  29
ENDBRANCH   1  28
TORSDOF 12
ENDMDL
MODEL 3
REMARK VINA RESULT:     -13.2      1.308      2.624
REMARK SMILES O=C(NCCCNC(=O)c1ccc(-c2c3nc(c(-c4c(F)c(F)c(F)c(F)c4F)c4ccc([nH]4)c(-c4c(F)c(F)c(F)c(F)c4F)c4nc(c(-c5c(F)c(F)c(F)c(F)c5F)c5ccc2[nH]5)C=C4)C=C3)cc1)C1=Cc2c(ccc(Cl)c2-c2ccccc2)O[C@H]1C(F)(F)F
REMARK SMILES IDX 5 1 4 2 3 3 1 4 2 5 73 7 74 8 89 9 75 10 88 11 76 12 81 13
REMARK SMILES IDX 77 14 79 15 78 16 80 17 90 18 91 19 92 20 93 21 82 22 83 23
REMARK SMILES IDX 87 24 84 25 86 26 85 27 6 28 7 29 8 30 9 32 10 33 11 34
REMARK SMILES IDX 72 35 12 36 71 37 13 38 14 39 15 40 65 41 16 42 70 43 64 44
REMARK SMILES IDX 66 45 17 46 69 47 63 48 62 49 18 51 50 52 30 53 49 54 31 55
REMARK SMILES IDX 34 56 48 57 67 58 32 59 33 60 47 62 68 63 35 64 19 65 20 66
REMARK SMILES IDX 28 67 21 68 22 69 26 70 29 71 23 72 24 73 27 74 25 75 51 76
REMARK SMILES IDX 52 77 60 78 53 79 54 80 58 81 61 82 55 83 56 84 59 85 57 86
REMARK SMILES IDX 36 87 37 88 45 89 38 90 39 91 43 92 46 93 40 94 41 95 44 96
REMARK SMILES IDX 42 97
REMARK H PARENT 3 6 7 31 66 50 34 61
REMARK Flexibility Score: inf
ROOT
ATOM      1  C   UNL A   1      31.420  27.634  27.208  1.00  0.00     0.042 C 
ENDROOT
BRANCH   1   2
ATOM      2  C   UNL A   1      30.953  26.494  26.317  1.00  0.00     0.118 C 
BRANCH   2   3
ATOM      3  N   UNL A   1      31.203  25.162  26.840  1.00  0.00    -0.352 N 
ATOM      4  O   UNL A   1      31.894  23.025  26.818  1.00  0.00    -0.270 OA
ATOM      5  C   UNL A   1      31.786  24.092  26.221  1.00  0.00     0.251 C 
ATOM      6  H   UNL A   1      30.911  25.009  27.768  1.00  0.00     0.163 HD
BRANCH   5   7
ATOM      7  C   UNL A   1      32.294  24.204  24.837  1.00  0.00     0.067 C 
ATOM      8  C   UNL A   1      32.528  23.059  24.180  1.00  0.00     0.026 C 
ATOM      9  C   UNL A   1      33.012  25.445  24.400  1.00  0.00     0.314 C 
ATOM     10  C   UNL A   1      33.992  22.792  24.165  1.00  0.00     0.027 A 
ATOM     11  O   UNL A   1      34.407  25.188  24.014  1.00  0.00    -0.475 OA
ATOM     12  C   UNL A   1      34.859  23.895  24.109  1.00  0.00     0.128 A 
ATOM     13  C   UNL A   1      34.465  21.476  24.402  1.00  0.00     0.011 A 
ATOM     14  C   UNL A   1      36.225  23.703  24.280  1.00  0.00     0.049 A 
ATOM     15  C   UNL A   1      35.843  21.312  24.605  1.00  0.00     0.049 A 
ATOM     16  C   UNL A   1      36.712  22.417  24.547  1.00  0.00     0.025 A 
ATOM     17  Cl  UNL A   1      36.522  19.776  25.001  1.00  0.00    -0.084 Cl
BRANCH   9  18
ATOM     18  C   UNL A   1      32.251  26.163  23.265  1.00  0.00     0.429 C 
ATOM     19  F   UNL A   1      30.942  25.821  23.201  1.00  0.00    -0.167 F 
ATOM     20  F   UNL A   1      32.304  27.508  23.423  1.00  0.00    -0.167 F 
ATOM     21  F   UNL A   1      32.780  25.887  22.048  1.00  0.00    -0.167 F 
ENDBRANCH   9  18
BRANCH  13  22
ATOM     22  C   UNL A   1      33.447  20.417  24.559  1.00  0.00    -0.016 A 
ATOM     23  C   UNL A   1      32.902  19.796  23.423  1.00  0.00     0.009 A 
ATOM     24  C   UNL A   1      33.278  19.798  25.809  1.00  0.00     0.009 A 
ATOM     25  C   UNL A   1      32.310  18.536  23.518  1.00  0.00     0.001 A 
ATOM     26  C   UNL A   1      32.696  18.533  25.899  1.00  0.00     0.001 A 
ATOM     27  C   UNL A   1      32.236  17.893  24.751  1.00  0.00     0.000 A 
ENDBRANCH  13  22
ENDBRANCH   5   7
ENDBRANCH   2   3
ENDBRANCH   1   2
BRANCH   1  28
ATOM     28  C   UNL A   1      32.469  28.517  26.541  1.00  0.00     0.118 C 
BRANCH  28  29
ATOM     29  N   UNL A   1      32.233  29.952  26.700  1.00  0.00    -0.352 N 
ATOM     30  C   UNL A   1      33.020  30.991  27.152  1.00  0.00     0.251 C 
ATOM     31  H   UNL A   1      31.329  30.233  26.430  1.00  0.00     0.163 HD
ATOM     32  O   UNL A   1      32.539  32.112  27.251  1.00  0.00    -0.269 OA
BRANCH  30  33
ATOM     33  C   UNL A   1      34.416  30.764  27.586  1.00  0.00     0.039 A 
ATOM     34  C   UNL A   1      35.266  31.867  27.741  1.00  0.00     0.014 A 
ATOM     35  C   UNL A   1      34.895  29.490  27.859  1.00  0.00     0.014 A 
ATOM     36  C   UNL A   1      36.532  31.699  28.308  1.00  0.00     0.010 A 
ATOM     37  C   UNL A   1      36.093  29.338  28.542  1.00  0.00     0.010 A 
ATOM     38  C   UNL A   1      36.920  30.444  28.796  1.00  0.00    -0.014 A 
BRANCH  38  39
ATOM     39  C   UNL A   1      38.160  30.227  29.589  1.00  0.00     0.031 A 
ATOM     40  C   UNL A   1      39.228  29.312  29.056  1.00  0.00     0.074 A 
ATOM     41  C   UNL A   1      38.253  30.714  30.843  1.00  0.00     0.049 A 
ATOM     42  N   UNL A   1      40.222  28.738  29.684  1.00  0.00    -0.248 NA
ATOM     43  C   UNL A   1      39.123  28.947  27.634  1.00  0.00     0.031 C 
ATOM     44  C   UNL A   1      37.273  31.582  31.498  1.00  0.00     0.029 A 
ATOM     45  N   UNL A   1      39.214  30.519  31.806  1.00  0.00    -0.354 N 
ATOM     46  C   UNL A   1      40.817  27.898  28.752  1.00  0.00     0.074 A 
ATOM     47  C   UNL A   1      40.048  28.004  27.532  1.00  0.00     0.031 C 
ATOM     48  C   UNL A   1      37.692  31.863  32.743  1.00  0.00     0.029 A 
ATOM     49  C   UNL A   1      38.934  31.145  32.998  1.00  0.00     0.049 A 
ATOM     50  H   UNL A   1      40.025  29.982  31.656  1.00  0.00     0.167 HD
ATOM     51  C   UNL A   1      41.916  27.120  28.898  1.00  0.00     0.037 A 
ATOM     52  C   UNL A   1      39.593  31.121  34.171  1.00  0.00     0.037 A 
ATOM     53  C   UNL A   1      42.717  27.078  30.091  1.00  0.00     0.049 A 
ATOM     54  C   UNL A   1      40.836  30.283  34.296  1.00  0.00     0.074 A 
ATOM     55  C   UNL A   1      43.891  26.381  30.321  1.00  0.00     0.029 A 
ATOM     56  N   UNL A   1      42.436  27.783  31.252  1.00  0.00    -0.354 N 
ATOM     57  N   UNL A   1      41.402  29.505  33.406  1.00  0.00    -0.248 NA
ATOM     58  C   UNL A   1      41.529  30.314  35.593  1.00  0.00     0.031 C 
ATOM     59  C   UNL A   1      44.307  26.648  31.630  1.00  0.00     0.029 A 
ATOM     60  C   UNL A   1      43.414  27.540  32.202  1.00  0.00     0.049 A 
ATOM     61  H   UNL A   1      41.656  28.371  31.382  1.00  0.00     0.167 HD
ATOM     62  C   UNL A   1      42.532  28.984  34.019  1.00  0.00     0.074 A 
ATOM     63  C   UNL A   1      42.575  29.534  35.357  1.00  0.00     0.031 C 
ATOM     64  C   UNL A   1      43.452  28.124  33.517  1.00  0.00     0.037 A 
BRANCH  51  65
ATOM     65  C   UNL A   1      42.317  26.260  27.734  1.00  0.00     0.064 A 
ATOM     66  C   UNL A   1      43.304  26.667  26.823  1.00  0.00     0.173 A 
ATOM     67  C   UNL A   1      41.715  25.009  27.532  1.00  0.00     0.173 A 
ATOM     68  F   UNL A   1      43.901  27.860  26.963  1.00  0.00    -0.203 F 
ATOM     69  C   UNL A   1      43.642  25.873  25.729  1.00  0.00     0.198 A 
ATOM     70  C   UNL A   1      42.081  24.203  26.457  1.00  0.00     0.198 A 
ATOM     71  F   UNL A   1      40.771  24.567  28.376  1.00  0.00    -0.203 F 
ATOM     72  F   UNL A   1      44.540  26.314  24.838  1.00  0.00    -0.200 F 
ATOM     73  C   UNL A   1      43.035  24.640  25.551  1.00  0.00     0.200 A 
ATOM     74  F   UNL A   1      41.502  23.004  26.292  1.00  0.00    -0.200 F 
ATOM     75  F   UNL A   1      43.362  23.877  24.498  1.00  0.00    -0.200 F 
ENDBRANCH  51  65
BRANCH  52  76
ATOM     76  C   UNL A   1      39.107  31.937  35.315  1.00  0.00     0.064 A 
ATOM     77  C   UNL A   1      39.404  33.305  35.388  1.00  0.00     0.173 A 
ATOM     78  C   UNL A   1      38.340  31.380  36.348  1.00  0.00     0.173 A 
ATOM     79  F   UNL A   1      40.151  33.878  34.433  1.00  0.00    -0.203 F 
ATOM     80  C   UNL A   1      38.968  34.082  36.459  1.00  0.00     0.198 A 
ATOM     81  C   UNL A   1      37.882  32.164  37.405  1.00  0.00     0.198 A 
ATOM     82  F   UNL A   1      38.021  30.078  36.321  1.00  0.00    -0.203 F 
ATOM     83  F   UNL A   1      39.301  35.378  36.522  1.00  0.00    -0.200 F 
ATOM     84  C   UNL A   1      38.202  33.512  37.464  1.00  0.00     0.200 A 
ATOM     85  F   UNL A   1      37.129  31.613  38.368  1.00  0.00    -0.200 F 
ATOM     86  F   UNL A   1      37.778  34.260  38.492  1.00  0.00    -0.200 F 
ENDBRANCH  52  76
BRANCH  64  87
ATOM     87  C   UNL A   1      44.616  27.772  34.393  1.00  0.00     0.064 A 
ATOM     88  C   UNL A   1      44.594  26.647  35.230  1.00  0.00     0.173 A 
ATOM     89  C   UNL A   1      45.792  28.536  34.343  1.00  0.00     0.173 A 
ATOM     90  F   UNL A   1      43.486  25.896  35.322  1.00  0.00    -0.203 F 
ATOM     91  C   UNL A   1      45.706  26.307  35.994  1.00  0.00     0.198 A 
ATOM     92  C   UNL A   1      46.909  28.178  35.090  1.00  0.00     0.198 A 
ATOM     93  F   UNL A   1      45.860  29.619  33.554  1.00  0.00    -0.203 F 
ATOM     94  F   UNL A   1      45.655  25.245  36.811  1.00  0.00    -0.200 F 
ATOM     95  C   UNL A   1      46.865  27.065  35.916  1.00  0.00     0.200 A 
ATOM     96  F   UNL A   1      48.031  28.906  35.005  1.00  0.00    -0.200 F 
ATOM     97  F   UNL A   1      47.939  26.726  36.643  1.00  0.00    -0.200 F 
ENDBRANCH  64  87
ENDBRANCH  38  39
ENDBRANCH  30  33
ENDBRANCH  28  29
ENDBRANCH   1  28
TORSDOF 12
ENDMDL
