MODEL 1
REMARK VINA RESULT:     -12.8      0.000      0.000
REMARK SMILES O=C(CC1(CN2CC3(CCCCC3)CC2=O)CCCCC1)NCCCNC(=O)c1ccc(-c2c3nc(c(-c4c(F)c(F)c(F)c(F)c4F)c4ccc([nH]4)c(-c4c(F)c(F)c(F)c(F)c4F)c4nc(c(-c5c(F)c(F)c(F)c(F)c5F)c5ccc2[nH]5)C=C4)C=C3)cc1
REMARK SMILES IDX 23 1 22 2 1 3 2 4 3 6 4 7 17 8 21 9 18 10 20 11 19 12 5 13
REMARK SMILES IDX 6 14 7 15 15 16 8 17 14 18 16 19 9 20 13 21 10 22 12 23
REMARK SMILES IDX 11 24 24 25 25 26 26 27 27 28 28 30 29 31 30 32 91 33 31 34
REMARK SMILES IDX 90 35 32 36 33 37 34 38 84 39 35 40 89 41 83 42 85 43 36 44
REMARK SMILES IDX 88 45 82 46 81 47 37 49 69 50 49 51 68 52 50 53 53 54 67 55
REMARK SMILES IDX 86 56 51 57 52 58 66 60 87 61 54 62 38 63 39 64 47 65 40 66
REMARK SMILES IDX 41 67 45 68 48 69 42 70 43 71 46 72 44 73 70 74 71 75 79 76
REMARK SMILES IDX 72 77 73 78 77 79 80 80 74 81 75 82 78 83 76 84 55 85 56 86
REMARK SMILES IDX 64 87 57 88 58 89 62 90 65 91 59 92 60 93 63 94 61 95
REMARK H PARENT 22 5 26 29 85 48 53 59
REMARK Flexibility Score: inf
ROOT
ATOM      1  C   UNL A   1      34.697  23.183  24.185  1.00  0.00     0.117 C 
ENDROOT
BRANCH   1   2
ATOM      2  N   UNL A   1      33.633  24.146  24.383  1.00  0.00    -0.356 N 
ATOM      3  O   UNL A   1      33.929  25.222  22.374  1.00  0.00    -0.275 OA
ATOM      4  C   UNL A   1      33.276  25.032  23.395  1.00  0.00     0.220 C 
ATOM      5  H   UNL A   1      33.157  24.166  25.244  1.00  0.00     0.163 HD
BRANCH   4   6
ATOM      6  C   UNL A   1      32.017  25.823  23.686  1.00  0.00     0.108 C 
BRANCH   6   7
ATOM      7  C   UNL A   1      32.129  27.056  24.635  1.00  0.00    -0.003 C 
ATOM      8  C   UNL A   1      31.959  26.590  26.123  1.00  0.00     0.009 C 
ATOM      9  C   UNL A   1      33.598  27.563  24.534  1.00  0.00     0.009 C 
ATOM     10  C   UNL A   1      32.289  27.684  27.151  1.00  0.00     0.001 C 
ATOM     11  C   UNL A   1      33.965  28.663  25.523  1.00  0.00     0.001 C 
ATOM     12  C   UNL A   1      33.693  28.248  26.962  1.00  0.00     0.000 C 
BRANCH   7  13
ATOM     13  C   UNL A   1      31.029  28.139  24.394  1.00  0.00     0.127 C 
BRANCH  13  14
ATOM     14  N   UNL A   1      30.244  28.180  23.171  1.00  0.00    -0.342 N 
ATOM     15  C   UNL A   1      30.364  29.221  22.188  1.00  0.00     0.127 C 
ATOM     16  C   UNL A   1      28.882  27.799  23.253  1.00  0.00     0.223 C 
ATOM     17  C   UNL A   1      29.032  29.985  22.294  1.00  0.00    -0.003 C 
ATOM     18  C   UNL A   1      28.081  28.769  22.384  1.00  0.00     0.109 C 
ATOM     19  O   UNL A   1      28.408  26.946  23.973  1.00  0.00    -0.275 OA
ATOM     20  C   UNL A   1      29.030  30.789  23.632  1.00  0.00     0.009 C 
ATOM     21  C   UNL A   1      28.849  30.845  21.027  1.00  0.00     0.009 C 
ATOM     22  C   UNL A   1      28.224  32.073  23.663  1.00  0.00     0.001 C 
ATOM     23  C   UNL A   1      28.087  32.154  21.205  1.00  0.00     0.001 C 
ATOM     24  C   UNL A   1      28.539  32.911  22.442  1.00  0.00     0.000 C 
ENDBRANCH  13  14
ENDBRANCH   7  13
ENDBRANCH   6   7
ENDBRANCH   4   6
ENDBRANCH   1   2
BRANCH   1  25
ATOM     25  C   UNL A   1      36.070  23.743  24.531  1.00  0.00     0.042 C 
BRANCH  25  26
ATOM     26  C   UNL A   1      36.558  23.415  25.937  1.00  0.00     0.118 C 
BRANCH  26  27
ATOM     27  N   UNL A   1      37.708  22.524  25.967  1.00  0.00    -0.352 N 
ATOM     28  C   UNL A   1      39.007  22.784  26.334  1.00  0.00     0.251 C 
ATOM     29  H   UNL A   1      37.529  21.599  25.683  1.00  0.00     0.163 HD
ATOM     30  O   UNL A   1      39.867  21.918  26.202  1.00  0.00    -0.269 OA
BRANCH  28  31
ATOM     31  C   UNL A   1      39.394  24.113  26.860  1.00  0.00     0.039 A 
ATOM     32  C   UNL A   1      39.107  24.409  28.197  1.00  0.00     0.014 A 
ATOM     33  C   UNL A   1      40.006  25.075  26.052  1.00  0.00     0.014 A 
ATOM     34  C   UNL A   1      39.481  25.642  28.737  1.00  0.00     0.010 A 
ATOM     35  C   UNL A   1      40.441  26.278  26.608  1.00  0.00     0.010 A 
ATOM     36  C   UNL A   1      40.176  26.578  27.953  1.00  0.00    -0.014 A 
BRANCH  36  37
ATOM     37  C   UNL A   1      40.609  27.881  28.520  1.00  0.00     0.031 A 
ATOM     38  C   UNL A   1      42.053  28.106  28.874  1.00  0.00     0.074 A 
ATOM     39  C   UNL A   1      39.700  28.843  28.766  1.00  0.00     0.049 A 
ATOM     40  N   UNL A   1      42.617  29.147  29.438  1.00  0.00    -0.248 NA
ATOM     41  C   UNL A   1      42.984  27.005  28.583  1.00  0.00     0.031 C 
ATOM     42  C   UNL A   1      38.263  28.735  28.511  1.00  0.00     0.029 A 
ATOM     43  N   UNL A   1      39.850  30.101  29.296  1.00  0.00    -0.354 N 
ATOM     44  C   UNL A   1      43.957  28.816  29.586  1.00  0.00     0.074 A 
ATOM     45  C   UNL A   1      44.116  27.464  29.097  1.00  0.00     0.031 C 
ATOM     46  C   UNL A   1      37.666  29.885  28.864  1.00  0.00     0.029 A 
ATOM     47  C   UNL A   1      38.672  30.800  29.397  1.00  0.00     0.049 A 
ATOM     48  H   UNL A   1      40.720  30.467  29.576  1.00  0.00     0.167 HD
ATOM     49  C   UNL A   1      44.968  29.578  30.066  1.00  0.00     0.037 A 
ATOM     50  C   UNL A   1      38.432  32.039  29.865  1.00  0.00     0.037 A 
ATOM     51  C   UNL A   1      44.821  30.937  30.516  1.00  0.00     0.049 A 
ATOM     52  C   UNL A   1      39.577  32.876  30.366  1.00  0.00     0.074 A 
ATOM     53  C   UNL A   1      45.796  31.809  30.966  1.00  0.00     0.029 A 
ATOM     54  N   UNL A   1      43.618  31.624  30.564  1.00  0.00    -0.354 N 
ATOM     55  N   UNL A   1      40.849  32.572  30.448  1.00  0.00    -0.248 NA
ATOM     56  C   UNL A   1      39.254  34.233  30.829  1.00  0.00     0.031 C 
ATOM     57  C   UNL A   1      45.180  33.016  31.315  1.00  0.00     0.029 A 
ATOM     58  C   UNL A   1      43.825  32.907  31.045  1.00  0.00     0.049 A 
ATOM     59  H   UNL A   1      42.745  31.255  30.295  1.00  0.00     0.167 HD
ATOM     60  C   UNL A   1      41.481  33.706  30.941  1.00  0.00     0.074 A 
ATOM     61  C   UNL A   1      40.453  34.708  31.132  1.00  0.00     0.031 C 
ATOM     62  C   UNL A   1      42.795  33.899  31.212  1.00  0.00     0.037 A 
BRANCH  49  63
ATOM     63  C   UNL A   1      46.333  28.957  30.122  1.00  0.00     0.064 A 
ATOM     64  C   UNL A   1      46.783  28.278  31.264  1.00  0.00     0.173 A 
ATOM     65  C   UNL A   1      47.189  29.015  29.011  1.00  0.00     0.173 A 
ATOM     66  F   UNL A   1      46.008  28.206  32.356  1.00  0.00    -0.203 F 
ATOM     67  C   UNL A   1      48.052  27.705  31.303  1.00  0.00     0.198 A 
ATOM     68  C   UNL A   1      48.445  28.418  29.044  1.00  0.00     0.198 A 
ATOM     69  F   UNL A   1      46.804  29.648  27.892  1.00  0.00    -0.203 F 
ATOM     70  F   UNL A   1      48.480  27.105  32.422  1.00  0.00    -0.200 F 
ATOM     71  C   UNL A   1      48.880  27.772  30.192  1.00  0.00     0.200 A 
ATOM     72  F   UNL A   1      49.241  28.472  27.967  1.00  0.00    -0.200 F 
ATOM     73  F   UNL A   1      50.099  27.217  30.230  1.00  0.00    -0.200 F 
ENDBRANCH  49  63
BRANCH  50  74
ATOM     74  C   UNL A   1      37.050  32.582  29.847  1.00  0.00     0.064 A 
ATOM     75  C   UNL A   1      36.575  33.296  28.740  1.00  0.00     0.173 A 
ATOM     76  C   UNL A   1      36.181  32.405  30.933  1.00  0.00     0.173 A 
ATOM     77  F   UNL A   1      37.379  33.511  27.687  1.00  0.00    -0.203 F 
ATOM     78  C   UNL A   1      35.289  33.830  28.724  1.00  0.00     0.198 A 
ATOM     79  C   UNL A   1      34.885  32.918  30.907  1.00  0.00     0.198 A 
ATOM     80  F   UNL A   1      36.588  31.726  32.016  1.00  0.00    -0.203 F 
ATOM     81  F   UNL A   1      34.874  34.546  27.670  1.00  0.00    -0.200 F 
ATOM     82  C   UNL A   1      34.444  33.637  29.807  1.00  0.00     0.200 A 
ATOM     83  F   UNL A   1      34.068  32.722  31.950  1.00  0.00    -0.200 F 
ATOM     84  F   UNL A   1      33.206  34.150  29.792  1.00  0.00    -0.200 F 
ENDBRANCH  50  74
BRANCH  62  85
ATOM     85  C   UNL A   1      43.205  35.256  31.701  1.00  0.00     0.064 A 
ATOM     86  C   UNL A   1      43.168  35.588  33.063  1.00  0.00     0.173 A 
ATOM     87  C   UNL A   1      43.677  36.221  30.798  1.00  0.00     0.173 A 
ATOM     88  F   UNL A   1      42.710  34.705  33.962  1.00  0.00    -0.203 F 
ATOM     89  C   UNL A   1      43.569  36.848  33.500  1.00  0.00     0.198 A 
ATOM     90  C   UNL A   1      44.101  37.470  31.243  1.00  0.00     0.198 A 
ATOM     91  F   UNL A   1      43.736  35.947  29.486  1.00  0.00    -0.203 F 
ATOM     92  F   UNL A   1      43.489  37.160  34.801  1.00  0.00    -0.200 F 
ATOM     93  C   UNL A   1      44.041  37.785  32.591  1.00  0.00     0.200 A 
ATOM     94  F   UNL A   1      44.565  38.369  30.365  1.00  0.00    -0.200 F 
ATOM     95  F   UNL A   1      44.431  38.994  33.016  1.00  0.00    -0.200 F 
ENDBRANCH  62  85
ENDBRANCH  36  37
ENDBRANCH  28  31
ENDBRANCH  26  27
ENDBRANCH  25  26
ENDBRANCH   1  25
TORSDOF 13
ENDMDL
MODEL 2
REMARK VINA RESULT:     -12.7      4.152      7.806
REMARK SMILES O=C(CC1(CN2CC3(CCCCC3)CC2=O)CCCCC1)NCCCNC(=O)c1ccc(-c2c3nc(c(-c4c(F)c(F)c(F)c(F)c4F)c4ccc([nH]4)c(-c4c(F)c(F)c(F)c(F)c4F)c4nc(c(-c5c(F)c(F)c(F)c(F)c5F)c5ccc2[nH]5)C=C4)C=C3)cc1
REMARK SMILES IDX 23 1 22 2 1 3 2 4 3 6 4 7 17 8 21 9 18 10 20 11 19 12 5 13
REMARK SMILES IDX 6 14 7 15 15 16 8 17 14 18 16 19 9 20 13 21 10 22 12 23
REMARK SMILES IDX 11 24 24 25 25 26 26 27 27 28 28 30 29 31 30 32 91 33 31 34
REMARK SMILES IDX 90 35 32 36 33 37 34 38 84 39 35 40 89 41 83 42 85 43 36 44
REMARK SMILES IDX 88 45 82 46 81 47 37 49 69 50 49 51 68 52 50 53 53 54 67 55
REMARK SMILES IDX 86 56 51 57 52 58 66 60 87 61 54 62 38 63 39 64 47 65 40 66
REMARK SMILES IDX 41 67 45 68 48 69 42 70 43 71 46 72 44 73 70 74 71 75 79 76
REMARK SMILES IDX 72 77 73 78 77 79 80 80 74 81 75 82 78 83 76 84 55 85 56 86
REMARK SMILES IDX 64 87 57 88 58 89 62 90 65 91 59 92 60 93 63 94 61 95
REMARK H PARENT 22 5 26 29 85 48 53 59
REMARK Flexibility Score: inf
ROOT
ATOM      1  C   UNL A   1      31.406  31.025  26.635  1.00  0.00     0.117 C 
ENDROOT
BRANCH   1   2
ATOM      2  N   UNL A   1      31.837  30.416  25.393  1.00  0.00    -0.356 N 
ATOM      3  O   UNL A   1      33.814  29.590  26.225  1.00  0.00    -0.275 OA
ATOM      4  C   UNL A   1      32.978  29.654  25.328  1.00  0.00     0.220 C 
ATOM      5  H   UNL A   1      31.300  30.551  24.579  1.00  0.00     0.163 HD
BRANCH   4   6
ATOM      6  C   UNL A   1      33.172  28.923  24.016  1.00  0.00     0.108 C 
BRANCH   6   7
ATOM      7  C   UNL A   1      32.447  27.554  23.825  1.00  0.00    -0.003 C 
ATOM      8  C   UNL A   1      32.637  27.061  22.349  1.00  0.00     0.009 C 
ATOM      9  C   UNL A   1      33.215  26.520  24.700  1.00  0.00     0.009 C 
ATOM     10  C   UNL A   1      32.168  25.615  22.118  1.00  0.00     0.001 C 
ATOM     11  C   UNL A   1      32.770  25.073  24.519  1.00  0.00     0.001 C 
ATOM     12  C   UNL A   1      32.849  24.631  23.065  1.00  0.00     0.000 C 
BRANCH   7  13
ATOM     13  C   UNL A   1      30.905  27.619  24.064  1.00  0.00     0.127 C 
BRANCH  13  14
ATOM     14  N   UNL A   1      29.965  27.824  22.974  1.00  0.00    -0.342 N 
ATOM     15  C   UNL A   1      30.082  28.891  22.018  1.00  0.00     0.127 C 
ATOM     16  C   UNL A   1      28.590  27.619  23.246  1.00  0.00     0.223 C 
ATOM     17  C   UNL A   1      28.895  29.814  22.347  1.00  0.00    -0.003 C 
ATOM     18  C   UNL A   1      27.812  28.728  22.538  1.00  0.00     0.109 C 
ATOM     19  O   UNL A   1      28.114  26.798  24.001  1.00  0.00    -0.275 OA
ATOM     20  C   UNL A   1      29.194  30.541  23.695  1.00  0.00     0.009 C 
ATOM     21  C   UNL A   1      28.651  30.755  21.149  1.00  0.00     0.009 C 
ATOM     22  C   UNL A   1      28.583  31.915  23.887  1.00  0.00     0.001 C 
ATOM     23  C   UNL A   1      28.106  32.141  21.481  1.00  0.00     0.001 C 
ATOM     24  C   UNL A   1      28.829  32.768  22.661  1.00  0.00     0.000 C 
ENDBRANCH  13  14
ENDBRANCH   7  13
ENDBRANCH   6   7
ENDBRANCH   4   6
ENDBRANCH   1   2
BRANCH   1  25
ATOM     25  C   UNL A   1      31.448  32.546  26.590  1.00  0.00     0.042 C 
BRANCH  25  26
ATOM     26  C   UNL A   1      32.659  33.173  27.272  1.00  0.00     0.118 C 
BRANCH  26  27
ATOM     27  N   UNL A   1      32.412  34.505  27.800  1.00  0.00    -0.352 N 
ATOM     28  C   UNL A   1      33.042  35.172  28.824  1.00  0.00     0.251 C 
ATOM     29  H   UNL A   1      31.686  35.003  27.359  1.00  0.00     0.163 HD
ATOM     30  O   UNL A   1      32.626  36.267  29.191  1.00  0.00    -0.269 OA
BRANCH  28  31
ATOM     31  C   UNL A   1      34.204  34.570  29.517  1.00  0.00     0.039 A 
ATOM     32  C   UNL A   1      33.984  33.894  30.722  1.00  0.00     0.014 A 
ATOM     33  C   UNL A   1      35.503  34.686  29.012  1.00  0.00     0.014 A 
ATOM     34  C   UNL A   1      35.052  33.291  31.391  1.00  0.00     0.010 A 
ATOM     35  C   UNL A   1      36.557  34.025  29.643  1.00  0.00     0.010 A 
ATOM     36  C   UNL A   1      36.344  33.328  30.842  1.00  0.00    -0.014 A 
BRANCH  36  37
ATOM     37  C   UNL A   1      37.486  32.665  31.524  1.00  0.00     0.031 A 
ATOM     38  C   UNL A   1      38.205  31.526  30.855  1.00  0.00     0.074 A 
ATOM     39  C   UNL A   1      37.844  33.048  32.764  1.00  0.00     0.049 A 
ATOM     40  N   UNL A   1      39.179  30.777  31.311  1.00  0.00    -0.248 NA
ATOM     41  C   UNL A   1      37.751  31.161  29.504  1.00  0.00     0.031 C 
ATOM     42  C   UNL A   1      37.200  34.107  33.542  1.00  0.00     0.029 A 
ATOM     43  N   UNL A   1      38.834  32.581  33.594  1.00  0.00    -0.354 N 
ATOM     44  C   UNL A   1      39.436  29.844  30.315  1.00  0.00     0.074 A 
ATOM     45  C   UNL A   1      38.488  30.090  29.250  1.00  0.00     0.031 C 
ATOM     46  C   UNL A   1      37.824  34.224  34.726  1.00  0.00     0.029 A 
ATOM     47  C   UNL A   1      38.891  33.231  34.802  1.00  0.00     0.049 A 
ATOM     48  H   UNL A   1      39.444  31.850  33.345  1.00  0.00     0.167 HD
ATOM     49  C   UNL A   1      40.390  28.884  30.281  1.00  0.00     0.037 A 
ATOM     50  C   UNL A   1      39.713  33.046  35.853  1.00  0.00     0.037 A 
ATOM     51  C   UNL A   1      41.360  28.663  31.320  1.00  0.00     0.049 A 
ATOM     52  C   UNL A   1      40.784  31.992  35.778  1.00  0.00     0.074 A 
ATOM     53  C   UNL A   1      42.402  27.752  31.352  1.00  0.00     0.029 A 
ATOM     54  N   UNL A   1      41.412  29.370  32.512  1.00  0.00    -0.354 N 
ATOM     55  N   UNL A   1      41.053  31.154  34.807  1.00  0.00    -0.248 NA
ATOM     56  C   UNL A   1      41.672  31.865  36.943  1.00  0.00     0.031 C 
ATOM     57  C   UNL A   1      43.066  27.887  32.576  1.00  0.00     0.029 A 
ATOM     58  C   UNL A   1      42.462  28.909  33.290  1.00  0.00     0.049 A 
ATOM     59  H   UNL A   1      40.793  30.093  32.768  1.00  0.00     0.167 HD
ATOM     60  C   UNL A   1      42.156  30.424  35.229  1.00  0.00     0.074 A 
ATOM     61  C   UNL A   1      42.513  30.924  36.540  1.00  0.00     0.031 C 
ATOM     62  C   UNL A   1      42.815  29.429  34.585  1.00  0.00     0.037 A 
BRANCH  49  63
ATOM     63  C   UNL A   1      40.436  27.999  29.070  1.00  0.00     0.064 A 
ATOM     64  C   UNL A   1      39.697  26.809  29.003  1.00  0.00     0.173 A 
ATOM     65  C   UNL A   1      41.203  28.361  27.952  1.00  0.00     0.173 A 
ATOM     66  F   UNL A   1      38.959  26.413  30.050  1.00  0.00    -0.203 F 
ATOM     67  C   UNL A   1      39.748  25.998  27.872  1.00  0.00     0.198 A 
ATOM     68  C   UNL A   1      41.230  27.561  26.813  1.00  0.00     0.198 A 
ATOM     69  F   UNL A   1      41.924  29.493  27.963  1.00  0.00    -0.203 F 
ATOM     70  F   UNL A   1      39.074  24.840  27.850  1.00  0.00    -0.200 F 
ATOM     71  C   UNL A   1      40.510  26.377  26.777  1.00  0.00     0.200 A 
ATOM     72  F   UNL A   1      41.957  27.933  25.751  1.00  0.00    -0.200 F 
ATOM     73  F   UNL A   1      40.555  25.596  25.689  1.00  0.00    -0.200 F 
ENDBRANCH  49  63
BRANCH  50  74
ATOM     74  C   UNL A   1      39.582  33.907  37.055  1.00  0.00     0.064 A 
ATOM     75  C   UNL A   1      38.828  33.487  38.158  1.00  0.00     0.173 A 
ATOM     76  C   UNL A   1      40.199  35.164  37.125  1.00  0.00     0.173 A 
ATOM     77  F   UNL A   1      38.201  32.301  38.128  1.00  0.00    -0.203 F 
ATOM     78  C   UNL A   1      38.680  34.298  39.281  1.00  0.00     0.198 A 
ATOM     79  C   UNL A   1      40.070  35.966  38.258  1.00  0.00     0.198 A 
ATOM     80  F   UNL A   1      40.934  35.610  36.095  1.00  0.00    -0.203 F 
ATOM     81  F   UNL A   1      37.918  33.891  40.305  1.00  0.00    -0.200 F 
ATOM     82  C   UNL A   1      39.304  35.535  39.331  1.00  0.00     0.200 A 
ATOM     83  F   UNL A   1      40.683  37.156  38.307  1.00  0.00    -0.200 F 
ATOM     84  F   UNL A   1      39.162  36.316  40.410  1.00  0.00    -0.200 F 
ENDBRANCH  50  74
BRANCH  62  85
ATOM     85  C   UNL A   1      44.014  28.844  35.269  1.00  0.00     0.064 A 
ATOM     86  C   UNL A   1      45.304  29.350  35.052  1.00  0.00     0.173 A 
ATOM     87  C   UNL A   1      43.864  27.790  36.183  1.00  0.00     0.173 A 
ATOM     88  F   UNL A   1      45.499  30.347  34.177  1.00  0.00    -0.203 F 
ATOM     89  C   UNL A   1      46.404  28.806  35.710  1.00  0.00     0.198 A 
ATOM     90  C   UNL A   1      44.963  27.265  36.858  1.00  0.00     0.198 A 
ATOM     91  F   UNL A   1      42.650  27.275  36.428  1.00  0.00    -0.203 F 
ATOM     92  F   UNL A   1      47.633  29.277  35.458  1.00  0.00    -0.200 F 
ATOM     93  C   UNL A   1      46.232  27.769  36.616  1.00  0.00     0.200 A 
ATOM     94  F   UNL A   1      44.794  26.271  37.739  1.00  0.00    -0.200 F 
ATOM     95  F   UNL A   1      47.291  27.251  37.252  1.00  0.00    -0.200 F 
ENDBRANCH  62  85
ENDBRANCH  36  37
ENDBRANCH  28  31
ENDBRANCH  26  27
ENDBRANCH  25  26
ENDBRANCH   1  25
TORSDOF 13
ENDMDL
MODEL 3
REMARK VINA RESULT:     -12.7      4.109      7.639
REMARK SMILES O=C(CC1(CN2CC3(CCCCC3)CC2=O)CCCCC1)NCCCNC(=O)c1ccc(-c2c3nc(c(-c4c(F)c(F)c(F)c(F)c4F)c4ccc([nH]4)c(-c4c(F)c(F)c(F)c(F)c4F)c4nc(c(-c5c(F)c(F)c(F)c(F)c5F)c5ccc2[nH]5)C=C4)C=C3)cc1
REMARK SMILES IDX 23 1 22 2 1 3 2 4 3 6 4 7 17 8 21 9 18 10 20 11 19 12 5 13
REMARK SMILES IDX 6 14 7 15 15 16 8 17 14 18 16 19 9 20 13 21 10 22 12 23
REMARK SMILES IDX 11 24 24 25 25 26 26 27 27 28 28 30 29 31 30 32 91 33 31 34
REMARK SMILES IDX 90 35 32 36 33 37 34 38 84 39 35 40 89 41 83 42 85 43 36 44
REMARK SMILES IDX 88 45 82 46 81 47 37 49 69 50 49 51 68 52 50 53 53 54 67 55
REMARK SMILES IDX 86 56 51 57 52 58 66 60 87 61 54 62 38 63 39 64 47 65 40 66
REMARK SMILES IDX 41 67 45 68 48 69 42 70 43 71 46 72 44 73 70 74 71 75 79 76
REMARK SMILES IDX 72 77 73 78 77 79 80 80 74 81 75 82 78 83 76 84 55 85 56 86
REMARK SMILES IDX 64 87 57 88 58 89 62 90 65 91 59 92 60 93 63 94 61 95
REMARK H PARENT 22 5 26 29 85 48 53 59
REMARK Flexibility Score: inf
ROOT
ATOM      1  C   UNL A   1      31.705  30.772  26.778  1.00  0.00     0.117 C 
ENDROOT
BRANCH   1   2
ATOM      2  N   UNL A   1      32.077  30.277  25.468  1.00  0.00    -0.356 N 
ATOM      3  O   UNL A   1      34.000  29.228  26.164  1.00  0.00    -0.275 OA
ATOM      4  C   UNL A   1      33.161  29.450  25.297  1.00  0.00     0.220 C 
ATOM      5  H   UNL A   1      31.542  30.540  24.685  1.00  0.00     0.163 HD
BRANCH   4   6
ATOM      6  C   UNL A   1      33.286  28.859  23.908  1.00  0.00     0.108 C 
BRANCH   6   7
ATOM      7  C   UNL A   1      32.596  27.488  23.629  1.00  0.00    -0.003 C 
ATOM      8  C   UNL A   1      32.739  27.127  22.110  1.00  0.00     0.009 C 
ATOM      9  C   UNL A   1      33.430  26.410  24.383  1.00  0.00     0.009 C 
ATOM     10  C   UNL A   1      32.305  25.690  21.776  1.00  0.00     0.001 C 
ATOM     11  C   UNL A   1      33.021  24.969  24.097  1.00  0.00     0.001 C 
ATOM     12  C   UNL A   1      33.054  24.654  22.608  1.00  0.00     0.000 C 
BRANCH   7  13
ATOM     13  C   UNL A   1      31.063  27.481  23.932  1.00  0.00     0.127 C 
BRANCH  13  14
ATOM     14  N   UNL A   1      30.073  27.731  22.897  1.00  0.00    -0.342 N 
ATOM     15  C   UNL A   1      30.162  28.820  21.964  1.00  0.00     0.127 C 
ATOM     16  C   UNL A   1      28.711  27.542  23.233  1.00  0.00     0.223 C 
ATOM     17  C   UNL A   1      29.011  29.755  22.376  1.00  0.00    -0.003 C 
ATOM     18  C   UNL A   1      27.918  28.683  22.595  1.00  0.00     0.109 C 
ATOM     19  O   UNL A   1      28.258  26.711  23.991  1.00  0.00    -0.275 OA
ATOM     20  C   UNL A   1      29.391  30.441  23.725  1.00  0.00     0.009 C 
ATOM     21  C   UNL A   1      28.723  30.730  21.216  1.00  0.00     0.009 C 
ATOM     22  C   UNL A   1      28.816  31.820  23.983  1.00  0.00     0.001 C 
ATOM     23  C   UNL A   1      28.222  32.117  21.611  1.00  0.00     0.001 C 
ATOM     24  C   UNL A   1      29.016  32.700  22.767  1.00  0.00     0.000 C 
ENDBRANCH  13  14
ENDBRANCH   7  13
ENDBRANCH   6   7
ENDBRANCH   4   6
ENDBRANCH   1   2
BRANCH   1  25
ATOM     25  C   UNL A   1      31.473  32.277  26.795  1.00  0.00     0.042 C 
BRANCH  25  26
ATOM     26  C   UNL A   1      32.706  33.110  27.127  1.00  0.00     0.118 C 
BRANCH  26  27
ATOM     27  N   UNL A   1      32.397  34.414  27.693  1.00  0.00    -0.352 N 
ATOM     28  C   UNL A   1      32.980  35.069  28.752  1.00  0.00     0.251 C 
ATOM     29  H   UNL A   1      31.664  34.900  27.252  1.00  0.00     0.163 HD
ATOM     30  O   UNL A   1      32.516  36.135  29.145  1.00  0.00    -0.269 OA
BRANCH  28  31
ATOM     31  C   UNL A   1      34.149  34.487  29.451  1.00  0.00     0.039 A 
ATOM     32  C   UNL A   1      33.931  33.787  30.642  1.00  0.00     0.014 A 
ATOM     33  C   UNL A   1      35.450  34.646  28.967  1.00  0.00     0.014 A 
ATOM     34  C   UNL A   1      35.006  33.201  31.316  1.00  0.00     0.010 A 
ATOM     35  C   UNL A   1      36.514  34.004  29.602  1.00  0.00     0.010 A 
ATOM     36  C   UNL A   1      36.304  33.282  30.786  1.00  0.00    -0.014 A 
BRANCH  36  37
ATOM     37  C   UNL A   1      37.454  32.638  31.473  1.00  0.00     0.031 A 
ATOM     38  C   UNL A   1      38.183  31.498  30.816  1.00  0.00     0.074 A 
ATOM     39  C   UNL A   1      37.811  33.039  32.708  1.00  0.00     0.049 A 
ATOM     40  N   UNL A   1      39.166  30.765  31.278  1.00  0.00    -0.248 NA
ATOM     41  C   UNL A   1      37.729  31.112  29.471  1.00  0.00     0.031 C 
ATOM     42  C   UNL A   1      37.158  34.101  33.474  1.00  0.00     0.029 A 
ATOM     43  N   UNL A   1      38.807  32.593  33.540  1.00  0.00    -0.354 N 
ATOM     44  C   UNL A   1      39.429  29.822  30.293  1.00  0.00     0.074 A 
ATOM     45  C   UNL A   1      38.476  30.046  29.228  1.00  0.00     0.031 C 
ATOM     46  C   UNL A   1      37.783  34.239  34.655  1.00  0.00     0.029 A 
ATOM     47  C   UNL A   1      38.861  33.257  34.741  1.00  0.00     0.049 A 
ATOM     48  H   UNL A   1      39.425  31.865  33.299  1.00  0.00     0.167 HD
ATOM     49  C   UNL A   1      40.393  28.872  30.268  1.00  0.00     0.037 A 
ATOM     50  C   UNL A   1      39.687  33.093  35.791  1.00  0.00     0.037 A 
ATOM     51  C   UNL A   1      41.367  28.673  31.308  1.00  0.00     0.049 A 
ATOM     52  C   UNL A   1      40.768  32.049  35.727  1.00  0.00     0.074 A 
ATOM     53  C   UNL A   1      42.418  27.773  31.348  1.00  0.00     0.029 A 
ATOM     54  N   UNL A   1      41.415  29.395  32.491  1.00  0.00    -0.354 N 
ATOM     55  N   UNL A   1      41.043  31.202  34.765  1.00  0.00    -0.248 NA
ATOM     56  C   UNL A   1      41.660  31.945  36.890  1.00  0.00     0.031 C 
ATOM     57  C   UNL A   1      43.084  27.930  32.569  1.00  0.00     0.029 A 
ATOM     58  C   UNL A   1      42.471  28.954  33.272  1.00  0.00     0.049 A 
ATOM     59  H   UNL A   1      40.790  30.115  32.739  1.00  0.00     0.167 HD
ATOM     60  C   UNL A   1      42.155  30.489  35.193  1.00  0.00     0.074 A 
ATOM     61  C   UNL A   1      42.510  31.008  36.497  1.00  0.00     0.031 C 
ATOM     62  C   UNL A   1      42.822  29.492  34.560  1.00  0.00     0.037 A 
BRANCH  49  63
ATOM     63  C   UNL A   1      40.445  27.973  29.068  1.00  0.00     0.064 A 
ATOM     64  C   UNL A   1      39.696  26.789  29.005  1.00  0.00     0.173 A 
ATOM     65  C   UNL A   1      41.228  28.316  27.955  1.00  0.00     0.173 A 
ATOM     66  F   UNL A   1      38.942  26.411  30.048  1.00  0.00    -0.203 F 
ATOM     67  C   UNL A   1      39.752  25.964  27.885  1.00  0.00     0.198 A 
ATOM     68  C   UNL A   1      41.261  27.503  26.826  1.00  0.00     0.198 A 
ATOM     69  F   UNL A   1      41.959  29.441  27.961  1.00  0.00    -0.203 F 
ATOM     70  F   UNL A   1      39.068  24.812  27.867  1.00  0.00    -0.200 F 
ATOM     71  C   UNL A   1      40.531  26.324  26.794  1.00  0.00     0.200 A 
ATOM     72  F   UNL A   1      42.004  27.856  25.767  1.00  0.00    -0.200 F 
ATOM     73  F   UNL A   1      40.581  25.531  25.715  1.00  0.00    -0.200 F 
ENDBRANCH  49  63
BRANCH  50  74
ATOM     74  C   UNL A   1      39.550  33.967  36.984  1.00  0.00     0.064 A 
ATOM     75  C   UNL A   1      40.179  35.219  37.030  1.00  0.00     0.173 A 
ATOM     76  C   UNL A   1      38.798  33.571  38.098  1.00  0.00     0.173 A 
ATOM     77  F   UNL A   1      40.928  35.630  35.997  1.00  0.00    -0.203 F 
ATOM     78  C   UNL A   1      40.076  36.035  38.155  1.00  0.00     0.198 A 
ATOM     79  C   UNL A   1      38.675  34.398  39.213  1.00  0.00     0.198 A 
ATOM     80  F   UNL A   1      38.175  32.383  38.101  1.00  0.00    -0.203 F 
ATOM     81  F   UNL A   1      40.723  37.208  38.191  1.00  0.00    -0.200 F 
ATOM     82  C   UNL A   1      39.321  35.625  39.243  1.00  0.00     0.200 A 
ATOM     83  F   UNL A   1      37.937  34.004  40.259  1.00  0.00    -0.200 F 
ATOM     84  F   UNL A   1      39.222  36.410  40.325  1.00  0.00    -0.200 F 
ENDBRANCH  50  74
BRANCH  62  85
ATOM     85  C   UNL A   1      44.028  28.928  35.248  1.00  0.00     0.064 A 
ATOM     86  C   UNL A   1      43.932  27.832  36.118  1.00  0.00     0.173 A 
ATOM     87  C   UNL A   1      45.301  29.466  35.001  1.00  0.00     0.173 A 
ATOM     88  F   UNL A   1      42.736  27.293  36.397  1.00  0.00    -0.203 F 
ATOM     89  C   UNL A   1      45.067  27.310  36.735  1.00  0.00     0.198 A 
ATOM     90  C   UNL A   1      46.435  28.924  35.600  1.00  0.00     0.198 A 
ATOM     91  F   UNL A   1      45.444  30.511  34.172  1.00  0.00    -0.203 F 
ATOM     92  F   UNL A   1      44.949  26.288  37.594  1.00  0.00    -0.200 F 
ATOM     93  C   UNL A   1      46.317  27.852  36.471  1.00  0.00     0.200 A 
ATOM     94  F   UNL A   1      47.642  29.443  35.336  1.00  0.00    -0.200 F 
ATOM     95  F   UNL A   1      47.407  27.344  37.060  1.00  0.00    -0.200 F 
ENDBRANCH  62  85
ENDBRANCH  36  37
ENDBRANCH  28  31
ENDBRANCH  26  27
ENDBRANCH  25  26
ENDBRANCH   1  25
TORSDOF 13
ENDMDL
