MODEL 1
REMARK VINA RESULT:     -11.8      0.000      0.000
REMARK SMILES CCOc1ccc(N(Cc2ccc(C(=O)NCCCNC(=O)c3ccc(-c4c5nc(c(-c6c(F)c(F)c(F)c(F)c6F)c6ccc([nH]6)c(-c6c(F)c(F)c(F)c(F)c6F)c6nc(c(-c7c(F)c(F)c(F)c(F)c7F)c7ccc4[nH]7)C=C6)C=C5)cc3)cc2)S(C)(=O)=O)cc1
REMARK SMILES IDX 14 1 15 2 16 3 13 5 10 6 11 7 87 8 12 9 86 10 9 11 8 12 7 13
REMARK SMILES IDX 4 14 5 15 93 16 6 17 92 18 3 19 2 20 1 21 88 22 89 23 90 24
REMARK SMILES IDX 91 25 17 26 18 27 19 28 20 29 21 30 22 32 23 33 24 34 85 35
REMARK SMILES IDX 25 36 84 37 26 38 27 39 28 40 78 41 29 42 83 43 77 44 79 45
REMARK SMILES IDX 30 46 82 47 76 48 75 49 31 51 63 52 43 53 62 54 44 55 47 56
REMARK SMILES IDX 61 57 80 58 45 59 46 60 60 62 81 63 48 64 32 65 33 66 41 67
REMARK SMILES IDX 34 68 35 69 39 70 42 71 36 72 37 73 40 74 38 75 64 76 65 77
REMARK SMILES IDX 73 78 66 79 67 80 71 81 74 82 68 83 69 84 72 85 70 86 49 87
REMARK SMILES IDX 50 88 58 89 51 90 52 91 56 92 59 93 53 94 54 95 57 96 55 97
REMARK H PARENT 16 4 20 31 79 50 47 61
REMARK Flexibility Score: inf
ROOT
ATOM      1  C   UNL A   1      33.838  29.836  27.566  1.00  0.00     0.251 C 
ATOM      2  O   UNL A   1      34.891  29.798  28.202  1.00  0.00    -0.269 OA
ATOM      3  N   UNL A   1      33.209  31.043  27.455  1.00  0.00    -0.352 N 
ATOM      4  H   UNL A   1      33.730  31.805  27.798  1.00  0.00     0.163 HD
ENDROOT
BRANCH   1   5
ATOM      5  C   UNL A   1      33.363  28.619  26.860  1.00  0.00     0.039 A 
ATOM      6  C   UNL A   1      32.556  26.477  25.183  1.00  0.00    -0.027 A 
ATOM      7  C   UNL A   1      33.687  27.249  24.902  1.00  0.00     0.006 A 
ATOM      8  C   UNL A   1      31.851  26.772  26.357  1.00  0.00     0.006 A 
ATOM      9  C   UNL A   1      34.094  28.293  25.722  1.00  0.00     0.014 A 
ATOM     10  C   UNL A   1      32.268  27.818  27.200  1.00  0.00     0.014 A 
BRANCH   6  11
ATOM     11  C   UNL A   1      32.039  25.448  24.189  1.00  0.00     0.170 C 
BRANCH  11  12
ATOM     12  N   UNL A   1      31.573  26.024  22.888  1.00  0.00    -0.266 N 
BRANCH  12  13
ATOM     13  C   UNL A   1      30.696  27.192  22.872  1.00  0.00     0.052 A 
ATOM     14  C   UNL A   1      28.903  29.373  22.575  1.00  0.00     0.119 A 
ATOM     15  C   UNL A   1      28.469  28.188  23.156  1.00  0.00     0.048 A 
ATOM     16  C   UNL A   1      30.229  29.499  22.200  1.00  0.00     0.048 A 
ATOM     17  C   UNL A   1      29.353  27.098  23.276  1.00  0.00     0.031 A 
ATOM     18  C   UNL A   1      31.103  28.420  22.336  1.00  0.00     0.031 A 
BRANCH  14  19
ATOM     19  O   UNL A   1      28.054  30.437  22.486  1.00  0.00    -0.494 OA
BRANCH  19  20
ATOM     20  C   UNL A   1      28.222  31.386  23.550  1.00  0.00     0.226 C 
ATOM     21  C   UNL A   1      28.715  32.746  23.074  1.00  0.00     0.049 C 
ENDBRANCH  19  20
ENDBRANCH  14  19
ENDBRANCH  12  13
BRANCH  12  22
ATOM     22  S   UNL A   1      32.566  25.639  21.544  1.00  0.00     0.232 S 
ATOM     23  C   UNL A   1      33.014  23.936  21.894  1.00  0.00     0.183 C 
ATOM     24  O   UNL A   1      31.792  25.681  20.325  1.00  0.00    -0.207 OA
ATOM     25  O   UNL A   1      33.796  26.405  21.640  1.00  0.00    -0.207 OA
ENDBRANCH  12  22
ENDBRANCH  11  12
ENDBRANCH   6  11
ENDBRANCH   1   5
BRANCH   3  26
ATOM     26  C   UNL A   1      31.913  31.396  26.924  1.00  0.00     0.118 C 
BRANCH  26  27
ATOM     27  C   UNL A   1      31.758  32.914  26.935  1.00  0.00     0.042 C 
BRANCH  27  28
ATOM     28  C   UNL A   1      33.051  33.627  27.321  1.00  0.00     0.118 C 
BRANCH  28  29
ATOM     29  N   UNL A   1      32.792  34.738  28.223  1.00  0.00    -0.352 N 
ATOM     30  C   UNL A   1      33.249  34.959  29.493  1.00  0.00     0.251 C 
ATOM     31  H   UNL A   1      32.200  35.438  27.864  1.00  0.00     0.163 HD
ATOM     32  O   UNL A   1      32.675  35.772  30.211  1.00  0.00    -0.269 OA
BRANCH  30  33
ATOM     33  C   UNL A   1      34.429  34.230  29.997  1.00  0.00     0.039 A 
ATOM     34  C   UNL A   1      35.688  34.581  29.508  1.00  0.00     0.014 A 
ATOM     35  C   UNL A   1      34.295  33.168  30.897  1.00  0.00     0.014 A 
ATOM     36  C   UNL A   1      36.814  33.885  29.944  1.00  0.00     0.010 A 
ATOM     37  C   UNL A   1      35.426  32.537  31.403  1.00  0.00     0.010 A 
ATOM     38  C   UNL A   1      36.695  32.876  30.915  1.00  0.00    -0.014 A 
BRANCH  38  39
ATOM     39  C   UNL A   1      37.900  32.176  31.419  1.00  0.00     0.031 A 
ATOM     40  C   UNL A   1      38.447  32.479  32.785  1.00  0.00     0.074 A 
ATOM     41  C   UNL A   1      38.509  31.275  30.626  1.00  0.00     0.049 A 
ATOM     42  N   UNL A   1      39.461  31.933  33.409  1.00  0.00    -0.248 NA
ATOM     43  C   UNL A   1      37.785  33.552  33.544  1.00  0.00     0.031 C 
ATOM     44  C   UNL A   1      38.101  30.945  29.259  1.00  0.00     0.029 A 
ATOM     45  N   UNL A   1      39.589  30.463  30.857  1.00  0.00    -0.354 N 
ATOM     46  C   UNL A   1      39.557  32.596  34.626  1.00  0.00     0.074 A 
ATOM     47  C   UNL A   1      38.547  33.630  34.624  1.00  0.00     0.031 C 
ATOM     48  C   UNL A   1      38.887  29.964  28.792  1.00  0.00     0.029 A 
ATOM     49  C   UNL A   1      39.875  29.625  29.809  1.00  0.00     0.049 A 
ATOM     50  H   UNL A   1      40.108  30.481  31.693  1.00  0.00     0.167 HD
ATOM     51  C   UNL A   1      40.394  32.343  35.662  1.00  0.00     0.037 A 
ATOM     52  C   UNL A   1      40.827  28.681  29.688  1.00  0.00     0.037 A 
ATOM     53  C   UNL A   1      41.397  31.310  35.652  1.00  0.00     0.049 A 
ATOM     54  C   UNL A   1      41.750  28.429  30.847  1.00  0.00     0.074 A 
ATOM     55  C   UNL A   1      42.268  30.939  36.661  1.00  0.00     0.029 A 
ATOM     56  N   UNL A   1      41.671  30.486  34.568  1.00  0.00    -0.354 N 
ATOM     57  N   UNL A   1      41.783  29.006  32.025  1.00  0.00    -0.248 NA
ATOM     58  C   UNL A   1      42.762  27.381  30.662  1.00  0.00     0.031 C 
ATOM     59  C   UNL A   1      43.109  29.934  36.167  1.00  0.00     0.029 A 
ATOM     60  C   UNL A   1      42.718  29.628  34.874  1.00  0.00     0.049 A 
ATOM     61  H   UNL A   1      41.192  30.507  33.708  1.00  0.00     0.167 HD
ATOM     62  C   UNL A   1      42.799  28.377  32.730  1.00  0.00     0.074 A 
ATOM     63  C   UNL A   1      43.336  27.354  31.856  1.00  0.00     0.031 C 
ATOM     64  C   UNL A   1      43.250  28.624  33.986  1.00  0.00     0.037 A 
BRANCH  51  65
ATOM     65  C   UNL A   1      40.258  33.208  36.887  1.00  0.00     0.064 A 
ATOM     66  C   UNL A   1      41.104  34.306  37.114  1.00  0.00     0.173 A 
ATOM     67  C   UNL A   1      39.264  32.943  37.841  1.00  0.00     0.173 A 
ATOM     68  F   UNL A   1      42.079  34.600  36.240  1.00  0.00    -0.203 F 
ATOM     69  C   UNL A   1      40.987  35.078  38.268  1.00  0.00     0.198 A 
ATOM     70  C   UNL A   1      39.126  33.740  38.975  1.00  0.00     0.198 A 
ATOM     71  F   UNL A   1      38.424  31.911  37.675  1.00  0.00    -0.203 F 
ATOM     72  F   UNL A   1      41.849  36.079  38.492  1.00  0.00    -0.200 F 
ATOM     73  C   UNL A   1      39.994  34.798  39.194  1.00  0.00     0.200 A 
ATOM     74  F   UNL A   1      38.156  33.477  39.862  1.00  0.00    -0.200 F 
ATOM     75  F   UNL A   1      39.880  35.543  40.302  1.00  0.00    -0.200 F 
ENDBRANCH  51  65
BRANCH  52  76
ATOM     76  C   UNL A   1      40.919  27.879  28.440  1.00  0.00     0.064 A 
ATOM     77  C   UNL A   1      40.231  26.665  28.312  1.00  0.00     0.173 A 
ATOM     78  C   UNL A   1      41.688  28.311  27.349  1.00  0.00     0.173 A 
ATOM     79  F   UNL A   1      39.495  26.201  29.333  1.00  0.00    -0.203 F 
ATOM     80  C   UNL A   1      40.324  25.903  27.149  1.00  0.00     0.198 A 
ATOM     81  C   UNL A   1      41.754  27.565  26.175  1.00  0.00     0.198 A 
ATOM     82  F   UNL A   1      42.358  29.472  27.416  1.00  0.00    -0.203 F 
ATOM     83  F   UNL A   1      39.694  24.724  27.072  1.00  0.00    -0.200 F 
ATOM     84  C   UNL A   1      41.080  26.358  26.079  1.00  0.00     0.200 A 
ATOM     85  F   UNL A   1      42.469  28.018  25.136  1.00  0.00    -0.200 F 
ATOM     86  F   UNL A   1      41.163  25.628  24.958  1.00  0.00    -0.200 F 
ENDBRANCH  52  76
BRANCH  64  87
ATOM     87  C   UNL A   1      44.364  27.749  34.490  1.00  0.00     0.064 A 
ATOM     88  C   UNL A   1      44.113  26.546  35.167  1.00  0.00     0.173 A 
ATOM     89  C   UNL A   1      45.704  28.126  34.303  1.00  0.00     0.173 A 
ATOM     90  F   UNL A   1      42.851  26.145  35.386  1.00  0.00    -0.203 F 
ATOM     91  C   UNL A   1      45.155  25.783  35.685  1.00  0.00     0.198 A 
ATOM     92  C   UNL A   1      46.745  27.338  34.784  1.00  0.00     0.198 A 
ATOM     93  F   UNL A   1      46.004  29.260  33.652  1.00  0.00    -0.203 F 
ATOM     94  F   UNL A   1      44.887  24.681  36.399  1.00  0.00    -0.200 F 
ATOM     95  C   UNL A   1      46.471  26.177  35.489  1.00  0.00     0.200 A 
ATOM     96  F   UNL A   1      48.016  27.712  34.579  1.00  0.00    -0.200 F 
ATOM     97  F   UNL A   1      47.473  25.445  35.993  1.00  0.00    -0.200 F 
ENDBRANCH  64  87
ENDBRANCH  38  39
ENDBRANCH  30  33
ENDBRANCH  28  29
ENDBRANCH  27  28
ENDBRANCH  26  27
ENDBRANCH   3  26
TORSDOF 16
ENDMDL
MODEL 2
REMARK VINA RESULT:     -11.8      1.901      3.798
REMARK SMILES CCOc1ccc(N(Cc2ccc(C(=O)NCCCNC(=O)c3ccc(-c4c5nc(c(-c6c(F)c(F)c(F)c(F)c6F)c6ccc([nH]6)c(-c6c(F)c(F)c(F)c(F)c6F)c6nc(c(-c7c(F)c(F)c(F)c(F)c7F)c7ccc4[nH]7)C=C6)C=C5)cc3)cc2)S(C)(=O)=O)cc1
REMARK SMILES IDX 14 1 15 2 16 3 13 5 10 6 11 7 87 8 12 9 86 10 9 11 8 12 7 13
REMARK SMILES IDX 4 14 5 15 93 16 6 17 92 18 3 19 2 20 1 21 88 22 89 23 90 24
REMARK SMILES IDX 91 25 17 26 18 27 19 28 20 29 21 30 22 32 23 33 24 34 85 35
REMARK SMILES IDX 25 36 84 37 26 38 27 39 28 40 78 41 29 42 83 43 77 44 79 45
REMARK SMILES IDX 30 46 82 47 76 48 75 49 31 51 63 52 43 53 62 54 44 55 47 56
REMARK SMILES IDX 61 57 80 58 45 59 46 60 60 62 81 63 48 64 32 65 33 66 41 67
REMARK SMILES IDX 34 68 35 69 39 70 42 71 36 72 37 73 40 74 38 75 64 76 65 77
REMARK SMILES IDX 73 78 66 79 67 80 71 81 74 82 68 83 69 84 72 85 70 86 49 87
REMARK SMILES IDX 50 88 58 89 51 90 52 91 56 92 59 93 53 94 54 95 57 96 55 97
REMARK H PARENT 16 4 20 31 79 50 47 61
REMARK Flexibility Score: inf
ROOT
ATOM      1  C   UNL A   1      33.532  29.181  27.197  1.00  0.00     0.251 C 
ATOM      2  O   UNL A   1      34.640  29.151  27.732  1.00  0.00    -0.269 OA
ATOM      3  N   UNL A   1      32.937  30.399  27.042  1.00  0.00    -0.352 N 
ATOM      4  H   UNL A   1      33.514  31.165  27.266  1.00  0.00     0.163 HD
ENDROOT
BRANCH   1   5
ATOM      5  C   UNL A   1      32.948  27.929  26.648  1.00  0.00     0.039 A 
ATOM      6  C   UNL A   1      32.114  25.560  25.331  1.00  0.00    -0.027 A 
ATOM      7  C   UNL A   1      33.465  25.891  25.469  1.00  0.00     0.006 A 
ATOM      8  C   UNL A   1      31.177  26.424  25.909  1.00  0.00     0.006 A 
ATOM      9  C   UNL A   1      33.882  27.045  26.120  1.00  0.00     0.014 A 
ATOM     10  C   UNL A   1      31.594  27.586  26.584  1.00  0.00     0.014 A 
BRANCH   6  11
ATOM     11  C   UNL A   1      31.678  24.379  24.476  1.00  0.00     0.170 C 
BRANCH  11  12
ATOM     12  N   UNL A   1      32.795  23.688  23.758  1.00  0.00    -0.266 N 
BRANCH  12  13
ATOM     13  C   UNL A   1      33.085  22.283  24.027  1.00  0.00     0.052 A 
ATOM     14  C   UNL A   1      33.590  19.608  24.833  1.00  0.00     0.119 A 
ATOM     15  C   UNL A   1      32.310  19.991  24.453  1.00  0.00     0.048 A 
ATOM     16  C   UNL A   1      34.624  20.524  24.756  1.00  0.00     0.048 A 
ATOM     17  C   UNL A   1      32.056  21.325  24.082  1.00  0.00     0.031 A 
ATOM     18  C   UNL A   1      34.368  21.840  24.371  1.00  0.00     0.031 A 
BRANCH  14  19
ATOM     19  O   UNL A   1      33.839  18.309  25.165  1.00  0.00    -0.494 OA
BRANCH  19  20
ATOM     20  C   UNL A   1      34.741  17.655  24.258  1.00  0.00     0.226 C 
ATOM     21  C   UNL A   1      34.032  16.911  23.135  1.00  0.00     0.049 C 
ENDBRANCH  19  20
ENDBRANCH  14  19
ENDBRANCH  12  13
BRANCH  12  22
ATOM     22  S   UNL A   1      33.247  24.422  22.275  1.00  0.00     0.232 S 
ATOM     23  C   UNL A   1      31.820  25.454  21.925  1.00  0.00     0.183 C 
ATOM     24  O   UNL A   1      34.402  25.268  22.471  1.00  0.00    -0.207 OA
ATOM     25  O   UNL A   1      33.271  23.404  21.240  1.00  0.00    -0.207 OA
ENDBRANCH  12  22
ENDBRANCH  11  12
ENDBRANCH   6  11
ENDBRANCH   1   5
BRANCH   3  26
ATOM     26  C   UNL A   1      31.607  30.761  26.607  1.00  0.00     0.118 C 
BRANCH  26  27
ATOM     27  C   UNL A   1      31.404  32.262  26.797  1.00  0.00     0.042 C 
BRANCH  27  28
ATOM     28  C   UNL A   1      32.723  33.011  26.958  1.00  0.00     0.118 C 
BRANCH  28  29
ATOM     29  N   UNL A   1      32.527  34.289  27.623  1.00  0.00    -0.352 N 
ATOM     30  C   UNL A   1      33.053  34.754  28.797  1.00  0.00     0.251 C 
ATOM     31  H   UNL A   1      31.925  34.914  27.158  1.00  0.00     0.163 HD
ATOM     32  O   UNL A   1      32.529  35.711  29.360  1.00  0.00    -0.269 OA
BRANCH  30  33
ATOM     33  C   UNL A   1      34.249  34.116  29.381  1.00  0.00     0.039 A 
ATOM     34  C   UNL A   1      34.072  33.150  30.373  1.00  0.00     0.014 A 
ATOM     35  C   UNL A   1      35.537  34.507  29.002  1.00  0.00     0.014 A 
ATOM     36  C   UNL A   1      35.187  32.557  30.962  1.00  0.00     0.010 A 
ATOM     37  C   UNL A   1      36.645  33.849  29.522  1.00  0.00     0.010 A 
ATOM     38  C   UNL A   1      36.482  32.882  30.523  1.00  0.00    -0.014 A 
BRANCH  38  39
ATOM     39  C   UNL A   1      37.663  32.209  31.111  1.00  0.00     0.031 A 
ATOM     40  C   UNL A   1      38.130  32.550  32.497  1.00  0.00     0.074 A 
ATOM     41  C   UNL A   1      38.326  31.297  30.376  1.00  0.00     0.049 A 
ATOM     42  N   UNL A   1      39.113  32.032  33.190  1.00  0.00    -0.248 NA
ATOM     43  C   UNL A   1      37.416  33.634  33.191  1.00  0.00     0.031 C 
ATOM     44  C   UNL A   1      37.998  30.929  28.997  1.00  0.00     0.029 A 
ATOM     45  N   UNL A   1      39.399  30.503  30.686  1.00  0.00    -0.354 N 
ATOM     46  C   UNL A   1      39.134  32.725  34.394  1.00  0.00     0.074 A 
ATOM     47  C   UNL A   1      38.114  33.747  34.310  1.00  0.00     0.031 C 
ATOM     48  C   UNL A   1      38.819  29.946  28.599  1.00  0.00     0.029 A 
ATOM     49  C   UNL A   1      39.752  29.643  29.677  1.00  0.00     0.049 A 
ATOM     50  H   UNL A   1      39.870  30.546  31.549  1.00  0.00     0.167 HD
ATOM     51  C   UNL A   1      39.913  32.507  35.481  1.00  0.00     0.037 A 
ATOM     52  C   UNL A   1      40.719  28.708  29.633  1.00  0.00     0.037 A 
ATOM     53  C   UNL A   1      40.926  31.485  35.553  1.00  0.00     0.049 A 
ATOM     54  C   UNL A   1      41.578  28.494  30.847  1.00  0.00     0.074 A 
ATOM     55  C   UNL A   1      41.743  31.149  36.618  1.00  0.00     0.029 A 
ATOM     56  N   UNL A   1      41.269  30.639  34.506  1.00  0.00    -0.354 N 
ATOM     57  N   UNL A   1      41.539  29.099  32.010  1.00  0.00    -0.248 NA
ATOM     58  C   UNL A   1      42.610  27.454  30.745  1.00  0.00     0.031 C 
ATOM     59  C   UNL A   1      42.620  30.142  36.196  1.00  0.00     0.029 A 
ATOM     60  C   UNL A   1      42.305  29.801  34.891  1.00  0.00     0.049 A 
ATOM     61  H   UNL A   1      40.839  30.634  33.621  1.00  0.00     0.167 HD
ATOM     62  C   UNL A   1      42.519  28.499  32.787  1.00  0.00     0.074 A 
ATOM     63  C   UNL A   1      43.115  27.462  31.969  1.00  0.00     0.031 C 
ATOM     64  C   UNL A   1      42.897  28.782  34.059  1.00  0.00     0.037 A 
BRANCH  51  65
ATOM     65  C   UNL A   1      39.700  33.399  36.674  1.00  0.00     0.064 A 
ATOM     66  C   UNL A   1      38.807  33.057  37.703  1.00  0.00     0.173 A 
ATOM     67  C   UNL A   1      40.404  34.607  36.797  1.00  0.00     0.173 A 
ATOM     68  F   UNL A   1      38.099  31.919  37.633  1.00  0.00    -0.203 F 
ATOM     69  C   UNL A   1      38.596  33.908  38.785  1.00  0.00     0.198 A 
ATOM     70  C   UNL A   1      40.217  35.437  37.900  1.00  0.00     0.198 A 
ATOM     71  F   UNL A   1      41.274  34.983  35.849  1.00  0.00    -0.203 F 
ATOM     72  F   UNL A   1      37.689  33.590  39.720  1.00  0.00    -0.200 F 
ATOM     73  C   UNL A   1      39.305  35.094  38.886  1.00  0.00     0.200 A 
ATOM     74  F   UNL A   1      40.917  36.577  38.004  1.00  0.00    -0.200 F 
ATOM     75  F   UNL A   1      39.104  35.911  39.929  1.00  0.00    -0.200 F 
ENDBRANCH  51  65
BRANCH  52  76
ATOM     76  C   UNL A   1      40.890  27.877  28.411  1.00  0.00     0.064 A 
ATOM     77  C   UNL A   1      40.217  26.655  28.273  1.00  0.00     0.173 A 
ATOM     78  C   UNL A   1      41.718  28.289  27.358  1.00  0.00     0.173 A 
ATOM     79  F   UNL A   1      39.424  26.210  29.260  1.00  0.00    -0.203 F 
ATOM     80  C   UNL A   1      40.383  25.867  27.136  1.00  0.00     0.198 A 
ATOM     81  C   UNL A   1      41.858  27.515  26.208  1.00  0.00     0.198 A 
ATOM     82  F   UNL A   1      42.377  29.455  27.437  1.00  0.00    -0.203 F 
ATOM     83  F   UNL A   1      39.765  24.682  27.050  1.00  0.00    -0.200 F 
ATOM     84  C   UNL A   1      41.198  26.301  26.101  1.00  0.00     0.200 A 
ATOM     85  F   UNL A   1      42.631  27.949  25.203  1.00  0.00    -0.200 F 
ATOM     86  F   UNL A   1      41.352  25.546  25.005  1.00  0.00    -0.200 F 
ENDBRANCH  52  76
BRANCH  64  87
ATOM     87  C   UNL A   1      43.990  27.932  34.646  1.00  0.00     0.064 A 
ATOM     88  C   UNL A   1      43.728  26.676  35.214  1.00  0.00     0.173 A 
ATOM     89  C   UNL A   1      45.318  28.387  34.652  1.00  0.00     0.173 A 
ATOM     90  F   UNL A   1      42.474  26.198  35.248  1.00  0.00    -0.203 F 
ATOM     91  C   UNL A   1      44.742  25.933  35.812  1.00  0.00     0.198 A 
ATOM     92  C   UNL A   1      46.337  27.622  35.212  1.00  0.00     0.198 A 
ATOM     93  F   UNL A   1      45.629  29.575  34.112  1.00  0.00    -0.203 F 
ATOM     94  F   UNL A   1      44.452  24.774  36.420  1.00  0.00    -0.200 F 
ATOM     95  C   UNL A   1      46.047  26.405  35.807  1.00  0.00     0.200 A 
ATOM     96  F   UNL A   1      47.600  28.072  35.191  1.00  0.00    -0.200 F 
ATOM     97  F   UNL A   1      47.020  25.691  36.388  1.00  0.00    -0.200 F 
ENDBRANCH  64  87
ENDBRANCH  38  39
ENDBRANCH  30  33
ENDBRANCH  28  29
ENDBRANCH  27  28
ENDBRANCH  26  27
ENDBRANCH   3  26
TORSDOF 16
ENDMDL
MODEL 3
REMARK VINA RESULT:     -11.7      2.355      4.429
REMARK SMILES CCOc1ccc(N(Cc2ccc(C(=O)NCCCNC(=O)c3ccc(-c4c5nc(c(-c6c(F)c(F)c(F)c(F)c6F)c6ccc([nH]6)c(-c6c(F)c(F)c(F)c(F)c6F)c6nc(c(-c7c(F)c(F)c(F)c(F)c7F)c7ccc4[nH]7)C=C6)C=C5)cc3)cc2)S(C)(=O)=O)cc1
REMARK SMILES IDX 14 1 15 2 16 3 13 5 10 6 11 7 87 8 12 9 86 10 9 11 8 12 7 13
REMARK SMILES IDX 4 14 5 15 93 16 6 17 92 18 3 19 2 20 1 21 88 22 89 23 90 24
REMARK SMILES IDX 91 25 17 26 18 27 19 28 20 29 21 30 22 32 23 33 24 34 85 35
REMARK SMILES IDX 25 36 84 37 26 38 27 39 28 40 78 41 29 42 83 43 77 44 79 45
REMARK SMILES IDX 30 46 82 47 76 48 75 49 31 51 63 52 43 53 62 54 44 55 47 56
REMARK SMILES IDX 61 57 80 58 45 59 46 60 60 62 81 63 48 64 32 65 33 66 41 67
REMARK SMILES IDX 34 68 35 69 39 70 42 71 36 72 37 73 40 74 38 75 64 76 65 77
REMARK SMILES IDX 73 78 66 79 67 80 71 81 74 82 68 83 69 84 72 85 70 86 49 87
REMARK SMILES IDX 50 88 58 89 51 90 52 91 56 92 59 93 53 94 54 95 57 96 55 97
REMARK H PARENT 16 4 20 31 79 50 47 61
REMARK Flexibility Score: inf
ROOT
ATOM      1  C   UNL A   1      30.495  28.930  22.670  1.00  0.00     0.251 C 
ATOM      2  O   UNL A   1      30.082  29.428  21.623  1.00  0.00    -0.269 OA
ATOM      3  N   UNL A   1      30.707  29.767  23.728  1.00  0.00    -0.352 N 
ATOM      4  H   UNL A   1      30.388  30.688  23.587  1.00  0.00     0.163 HD
ENDROOT
BRANCH   1   5
ATOM      5  C   UNL A   1      30.631  27.455  22.778  1.00  0.00     0.039 A 
ATOM      6  C   UNL A   1      30.780  24.681  23.352  1.00  0.00    -0.027 A 
ATOM      7  C   UNL A   1      29.778  25.494  23.892  1.00  0.00     0.006 A 
ATOM      8  C   UNL A   1      31.692  25.279  22.474  1.00  0.00     0.006 A 
ATOM      9  C   UNL A   1      29.694  26.851  23.608  1.00  0.00     0.014 A 
ATOM     10  C   UNL A   1      31.601  26.650  22.171  1.00  0.00     0.014 A 
BRANCH   6  11
ATOM     11  C   UNL A   1      30.949  23.237  23.804  1.00  0.00     0.170 C 
BRANCH  11  12
ATOM     12  N   UNL A   1      31.861  23.058  24.977  1.00  0.00    -0.266 N 
BRANCH  12  13
ATOM     13  C   UNL A   1      33.300  23.252  24.827  1.00  0.00     0.052 A 
ATOM     14  C   UNL A   1      36.128  23.510  24.802  1.00  0.00     0.119 A 
ATOM     15  C   UNL A   1      35.529  22.353  24.319  1.00  0.00     0.048 A 
ATOM     16  C   UNL A   1      35.332  24.555  25.236  1.00  0.00     0.048 A 
ATOM     17  C   UNL A   1      34.129  22.216  24.359  1.00  0.00     0.031 A 
ATOM     18  C   UNL A   1      33.943  24.419  25.258  1.00  0.00     0.031 A 
BRANCH  14  19
ATOM     19  O   UNL A   1      37.483  23.653  24.735  1.00  0.00    -0.494 OA
BRANCH  19  20
ATOM     20  C   UNL A   1      38.156  23.224  25.929  1.00  0.00     0.226 C 
ATOM     21  C   UNL A   1      38.562  24.375  26.840  1.00  0.00     0.049 C 
ENDBRANCH  19  20
ENDBRANCH  14  19
ENDBRANCH  12  13
BRANCH  12  22
ATOM     22  S   UNL A   1      31.096  23.223  26.503  1.00  0.00     0.232 S 
ATOM     23  C   UNL A   1      32.279  22.428  27.595  1.00  0.00     0.183 C 
ATOM     24  O   UNL A   1      30.992  24.619  26.859  1.00  0.00    -0.207 OA
ATOM     25  O   UNL A   1      29.908  22.387  26.521  1.00  0.00    -0.207 OA
ENDBRANCH  12  22
ENDBRANCH  11  12
ENDBRANCH   6  11
ENDBRANCH   1   5
BRANCH   3  26
ATOM     26  C   UNL A   1      31.318  29.537  25.016  1.00  0.00     0.118 C 
BRANCH  26  27
ATOM     27  C   UNL A   1      32.715  28.958  24.817  1.00  0.00     0.042 C 
BRANCH  27  28
ATOM     28  C   UNL A   1      33.720  29.504  25.827  1.00  0.00     0.118 C 
BRANCH  28  29
ATOM     29  N   UNL A   1      33.372  30.854  26.242  1.00  0.00    -0.352 N 
ATOM     30  C   UNL A   1      33.810  31.580  27.315  1.00  0.00     0.251 C 
ATOM     31  H   UNL A   1      32.722  31.314  25.663  1.00  0.00     0.163 HD
ATOM     32  O   UNL A   1      33.172  32.560  27.686  1.00  0.00    -0.269 OA
BRANCH  30  33
ATOM     33  C   UNL A   1      35.049  31.193  28.019  1.00  0.00     0.039 A 
ATOM     34  C   UNL A   1      35.062  29.995  28.735  1.00  0.00     0.014 A 
ATOM     35  C   UNL A   1      36.169  32.029  28.026  1.00  0.00     0.014 A 
ATOM     36  C   UNL A   1      36.209  29.625  29.434  1.00  0.00     0.010 A 
ATOM     37  C   UNL A   1      37.343  31.616  28.645  1.00  0.00     0.010 A 
ATOM     38  C   UNL A   1      37.367  30.419  29.373  1.00  0.00    -0.014 A 
BRANCH  38  39
ATOM     39  C   UNL A   1      38.604  29.994  30.071  1.00  0.00     0.031 A 
ATOM     40  C   UNL A   1      38.912  30.490  31.455  1.00  0.00     0.074 A 
ATOM     41  C   UNL A   1      39.458  29.169  29.438  1.00  0.00     0.049 A 
ATOM     42  N   UNL A   1      39.921  30.190  32.235  1.00  0.00    -0.248 NA
ATOM     43  C   UNL A   1      37.981  31.473  32.032  1.00  0.00     0.031 C 
ATOM     44  C   UNL A   1      39.290  28.672  28.071  1.00  0.00     0.029 A 
ATOM     45  N   UNL A   1      40.626  28.591  29.861  1.00  0.00    -0.354 N 
ATOM     46  C   UNL A   1      39.744  30.944  33.389  1.00  0.00     0.074 A 
ATOM     47  C   UNL A   1      38.575  31.768  33.178  1.00  0.00     0.031 C 
ATOM     48  C   UNL A   1      40.289  27.823  27.787  1.00  0.00     0.029 A 
ATOM     49  C   UNL A   1      41.186  27.749  28.934  1.00  0.00     0.049 A 
ATOM     50  H   UNL A   1      41.025  28.765  30.744  1.00  0.00     0.167 HD
ATOM     51  C   UNL A   1      40.475  30.926  34.530  1.00  0.00     0.037 A 
ATOM     52  C   UNL A   1      42.297  26.993  29.007  1.00  0.00     0.037 A 
ATOM     53  C   UNL A   1      41.639  30.100  34.727  1.00  0.00     0.049 A 
ATOM     54  C   UNL A   1      43.097  27.001  30.280  1.00  0.00     0.074 A 
ATOM     55  C   UNL A   1      42.427  29.972  35.856  1.00  0.00     0.029 A 
ATOM     56  N   UNL A   1      42.188  29.268  33.761  1.00  0.00    -0.354 N 
ATOM     57  N   UNL A   1      42.879  27.656  31.395  1.00  0.00    -0.248 NA
ATOM     58  C   UNL A   1      44.294  26.150  30.307  1.00  0.00     0.031 C 
ATOM     59  C   UNL A   1      43.488  29.109  35.554  1.00  0.00     0.029 A 
ATOM     60  C   UNL A   1      43.323  28.644  34.259  1.00  0.00     0.049 A 
ATOM     61  H   UNL A   1      41.825  29.138  32.855  1.00  0.00     0.167 HD
ATOM     62  C   UNL A   1      43.893  27.280  32.264  1.00  0.00     0.074 A 
ATOM     63  C   UNL A   1      44.708  26.316  31.553  1.00  0.00     0.031 C 
ATOM     64  C   UNL A   1      44.132  27.696  33.533  1.00  0.00     0.037 A 
BRANCH  51  65
ATOM     65  C   UNL A   1      40.035  31.836  35.646  1.00  0.00     0.064 A 
ATOM     66  C   UNL A   1      38.957  31.508  36.484  1.00  0.00     0.173 A 
ATOM     67  C   UNL A   1      40.705  33.045  35.887  1.00  0.00     0.173 A 
ATOM     68  F   UNL A   1      38.273  30.371  36.293  1.00  0.00    -0.203 F 
ATOM     69  C   UNL A   1      38.541  32.375  37.492  1.00  0.00     0.198 A 
ATOM     70  C   UNL A   1      40.309  33.891  36.921  1.00  0.00     0.198 A 
ATOM     71  F   UNL A   1      41.745  33.407  35.122  1.00  0.00    -0.203 F 
ATOM     72  F   UNL A   1      37.467  32.070  38.236  1.00  0.00    -0.200 F 
ATOM     73  C   UNL A   1      39.221  33.562  37.714  1.00  0.00     0.200 A 
ATOM     74  F   UNL A   1      40.979  35.031  37.143  1.00  0.00    -0.200 F 
ATOM     75  F   UNL A   1      38.822  34.394  38.686  1.00  0.00    -0.200 F 
ENDBRANCH  51  65
BRANCH  52  76
ATOM     76  C   UNL A   1      42.687  26.135  27.857  1.00  0.00     0.064 A 
ATOM     77  C   UNL A   1      42.169  24.840  27.718  1.00  0.00     0.173 A 
ATOM     78  C   UNL A   1      43.573  26.593  26.872  1.00  0.00     0.173 A 
ATOM     79  F   UNL A   1      41.329  24.351  28.643  1.00  0.00    -0.203 F 
ATOM     80  C   UNL A   1      42.541  24.028  26.649  1.00  0.00     0.198 A 
ATOM     81  C   UNL A   1      43.918  25.792  25.786  1.00  0.00     0.198 A 
ATOM     82  F   UNL A   1      44.088  27.829  26.953  1.00  0.00    -0.203 F 
ATOM     83  F   UNL A   1      42.068  22.777  26.566  1.00  0.00    -0.200 F 
ATOM     84  C   UNL A   1      43.409  24.507  25.680  1.00  0.00     0.200 A 
ATOM     85  F   UNL A   1      44.742  26.267  24.842  1.00  0.00    -0.200 F 
ATOM     86  F   UNL A   1      43.760  23.728  24.647  1.00  0.00    -0.200 F 
ENDBRANCH  52  76
BRANCH  64  87
ATOM     87  C   UNL A   1      45.311  27.083  34.237  1.00  0.00     0.064 A 
ATOM     88  C   UNL A   1      45.195  25.900  34.983  1.00  0.00     0.173 A 
ATOM     89  C   UNL A   1      46.573  27.695  34.173  1.00  0.00     0.173 A 
ATOM     90  F   UNL A   1      44.009  25.281  35.089  1.00  0.00    -0.203 F 
ATOM     91  C   UNL A   1      46.283  25.384  35.682  1.00  0.00     0.198 A 
ATOM     92  C   UNL A   1      47.668  27.152  34.838  1.00  0.00     0.198 A 
ATOM     93  F   UNL A   1      46.745  28.821  33.465  1.00  0.00    -0.203 F 
ATOM     94  F   UNL A   1      46.127  24.299  36.454  1.00  0.00    -0.200 F 
ATOM     95  C   UNL A   1      47.520  26.007  35.606  1.00  0.00     0.200 A 
ATOM     96  F   UNL A   1      48.867  27.746  34.749  1.00  0.00    -0.200 F 
ATOM     97  F   UNL A   1      48.564  25.512  36.284  1.00  0.00    -0.200 F 
ENDBRANCH  64  87
ENDBRANCH  38  39
ENDBRANCH  30  33
ENDBRANCH  28  29
ENDBRANCH  27  28
ENDBRANCH  26  27
ENDBRANCH   3  26
TORSDOF 16
ENDMDL
