MODEL 1
REMARK VINA RESULT:     -12.3      0.000      0.000
REMARK SMILES CC[C@@H]1CCC[C@@](C[C@@H]2CSc3ccccc32)(C(=O)NCCCNC(=O)c2ccc(-c3c4nc(c(-c5c(F)c(F)c(F)c(F)c5F)c5ccc([nH]5)c(-c5c(F)c(F)c(F)c(F)c5F)c5nc(c(-c6c(F)c(F)c(F)c(F)c6F)c6ccc3[nH]6)C=C5)C=C4)cc2)C1
REMARK SMILES IDX 22 1 21 2 20 3 18 4 19 5 7 7 3 8 4 9 90 10 5 11 6 12 2 13
REMARK SMILES IDX 1 14 8 15 9 16 10 17 17 18 11 19 12 20 16 21 13 22 15 23
REMARK SMILES IDX 14 24 23 25 24 26 25 27 26 29 27 30 28 31 89 32 29 33 88 34
REMARK SMILES IDX 30 35 31 36 32 37 82 38 33 39 87 40 81 41 83 42 34 43 86 44
REMARK SMILES IDX 80 45 79 46 35 48 67 49 47 50 66 51 48 52 51 53 65 54 84 55
REMARK SMILES IDX 49 56 50 57 64 59 85 60 52 61 36 62 37 63 45 64 38 65 39 66
REMARK SMILES IDX 43 67 46 68 40 69 41 70 44 71 42 72 68 73 69 74 77 75 70 76
REMARK SMILES IDX 71 77 75 78 78 79 72 80 73 81 76 82 74 83 53 84 54 85 62 86
REMARK SMILES IDX 55 87 56 88 60 89 63 90 57 91 58 92 61 93 59 94
REMARK H PARENT 20 6 24 28 83 47 51 58
REMARK Flexibility Score: inf
ROOT
ATOM      1  C   UNL A   1      32.983  27.255  26.305  1.00  0.00     0.042 C 
ENDROOT
BRANCH   1   2
ATOM      2  C   UNL A   1      31.999  26.470  25.448  1.00  0.00     0.117 C 
BRANCH   2   3
ATOM      3  N   UNL A   1      31.757  25.125  25.915  1.00  0.00    -0.356 N 
ATOM      4  C   UNL A   1      32.601  24.076  26.090  1.00  0.00     0.226 C 
ATOM      5  O   UNL A   1      32.343  23.437  27.122  1.00  0.00    -0.274 OA
ATOM      6  H   UNL A   1      30.818  24.936  26.146  1.00  0.00     0.163 HD
BRANCH   4   7
ATOM      7  C   UNL A   1      33.769  23.620  25.129  1.00  0.00     0.050 C 
ATOM      8  C   UNL A   1      32.424  21.402  24.536  1.00  0.00    -0.010 C 
ATOM      9  C   UNL A   1      32.320  21.854  23.081  1.00  0.00     0.003 C 
ATOM     10  C   UNL A   1      33.691  22.025  25.172  1.00  0.00     0.020 C 
ATOM     11  C   UNL A   1      32.321  23.379  22.987  1.00  0.00     0.001 C 
ATOM     12  C   UNL A   1      33.540  24.019  23.661  1.00  0.00     0.017 C 
BRANCH   8  13
ATOM     13  C   UNL A   1      32.452  19.869  24.704  1.00  0.00     0.000 C 
ATOM     14  C   UNL A   1      33.842  19.254  24.608  1.00  0.00     0.004 C 
ENDBRANCH   8  13
BRANCH   7  15
ATOM     15  C   UNL A   1      35.218  23.964  25.690  1.00  0.00     0.026 C 
BRANCH  15  16
ATOM     16  C   UNL A   1      36.618  23.750  25.011  1.00  0.00     0.032 C 
ATOM     17  C   UNL A   1      36.707  22.640  23.948  1.00  0.00     0.083 C 
ATOM     18  C   UNL A   1      37.857  23.593  25.861  1.00  0.00    -0.030 A 
ATOM     19  S   UNL A   1      37.604  21.245  24.695  1.00  0.00    -0.125 SA
ATOM     20  C   UNL A   1      38.392  22.300  25.865  1.00  0.00     0.011 A 
ATOM     21  C   UNL A   1      38.508  24.603  26.560  1.00  0.00     0.005 A 
ATOM     22  C   UNL A   1      39.474  21.959  26.661  1.00  0.00     0.015 A 
ATOM     23  C   UNL A   1      39.644  24.283  27.314  1.00  0.00     0.000 A 
ATOM     24  C   UNL A   1      40.102  22.962  27.394  1.00  0.00     0.001 A 
ENDBRANCH  15  16
ENDBRANCH   7  15
ENDBRANCH   4   7
ENDBRANCH   2   3
ENDBRANCH   1   2
BRANCH   1  25
ATOM     25  C   UNL A   1      33.577  28.466  25.590  1.00  0.00     0.118 C 
BRANCH  25  26
ATOM     26  N   UNL A   1      33.003  29.738  26.040  1.00  0.00    -0.352 N 
ATOM     27  C   UNL A   1      33.420  30.668  26.972  1.00  0.00     0.251 C 
ATOM     28  H   UNL A   1      32.160  29.975  25.591  1.00  0.00     0.163 HD
ATOM     29  O   UNL A   1      32.657  31.573  27.298  1.00  0.00    -0.269 OA
BRANCH  27  30
ATOM     30  C   UNL A   1      34.761  30.590  27.602  1.00  0.00     0.039 A 
ATOM     31  C   UNL A   1      35.264  29.381  28.062  1.00  0.00     0.014 A 
ATOM     32  C   UNL A   1      35.561  31.738  27.694  1.00  0.00     0.014 A 
ATOM     33  C   UNL A   1      36.434  29.352  28.809  1.00  0.00     0.010 A 
ATOM     34  C   UNL A   1      36.816  31.679  28.320  1.00  0.00     0.010 A 
ATOM     35  C   UNL A   1      37.246  30.491  28.928  1.00  0.00    -0.014 A 
BRANCH  35  36
ATOM     36  C   UNL A   1      38.539  30.374  29.664  1.00  0.00     0.031 A 
ATOM     37  C   UNL A   1      38.684  30.885  31.074  1.00  0.00     0.074 A 
ATOM     38  C   UNL A   1      39.558  29.704  29.086  1.00  0.00     0.049 A 
ATOM     39  N   UNL A   1      39.731  30.841  31.862  1.00  0.00    -0.248 NA
ATOM     40  C   UNL A   1      37.512  31.532  31.683  1.00  0.00     0.031 C 
ATOM     41  C   UNL A   1      39.536  29.148  27.729  1.00  0.00     0.029 A 
ATOM     42  N   UNL A   1      40.785  29.323  29.571  1.00  0.00    -0.354 N 
ATOM     43  C   UNL A   1      39.354  31.475  33.039  1.00  0.00     0.074 A 
ATOM     44  C   UNL A   1      37.987  31.914  32.862  1.00  0.00     0.031 C 
ATOM     45  C   UNL A   1      40.636  28.408  27.535  1.00  0.00     0.029 A 
ATOM     46  C   UNL A   1      41.495  28.525  28.705  1.00  0.00     0.049 A 
ATOM     47  H   UNL A   1      41.123  29.595  30.456  1.00  0.00     0.167 HD
ATOM     48  C   UNL A   1      40.080  31.661  34.167  1.00  0.00     0.037 A 
ATOM     49  C   UNL A   1      42.714  27.963  28.826  1.00  0.00     0.037 A 
ATOM     50  C   UNL A   1      41.428  31.186  34.352  1.00  0.00     0.049 A 
ATOM     51  C   UNL A   1      43.506  28.221  30.074  1.00  0.00     0.074 A 
ATOM     52  C   UNL A   1      42.253  31.341  35.454  1.00  0.00     0.029 A 
ATOM     53  N   UNL A   1      42.141  30.448  33.420  1.00  0.00    -0.354 N 
ATOM     54  N   UNL A   1      43.150  28.865  31.159  1.00  0.00    -0.248 NA
ATOM     55  C   UNL A   1      44.881  27.704  30.104  1.00  0.00     0.031 C 
ATOM     56  C   UNL A   1      43.475  30.723  35.177  1.00  0.00     0.029 A 
ATOM     57  C   UNL A   1      43.398  30.146  33.920  1.00  0.00     0.049 A 
ATOM     58  H   UNL A   1      41.805  30.179  32.535  1.00  0.00     0.167 HD
ATOM     59  C   UNL A   1      44.250  28.826  32.000  1.00  0.00     0.074 A 
ATOM     60  C   UNL A   1      45.278  28.069  31.315  1.00  0.00     0.031 C 
ATOM     61  C   UNL A   1      44.402  29.383  33.226  1.00  0.00     0.037 A 
BRANCH  48  62
ATOM     62  C   UNL A   1      39.447  32.412  35.303  1.00  0.00     0.064 A 
ATOM     63  C   UNL A   1      38.708  31.752  36.296  1.00  0.00     0.173 A 
ATOM     64  C   UNL A   1      39.667  33.790  35.455  1.00  0.00     0.173 A 
ATOM     65  F   UNL A   1      38.462  30.438  36.193  1.00  0.00    -0.203 F 
ATOM     66  C   UNL A   1      38.210  32.446  37.397  1.00  0.00     0.198 A 
ATOM     67  C   UNL A   1      39.188  34.475  36.568  1.00  0.00     0.198 A 
ATOM     68  F   UNL A   1      40.375  34.467  34.537  1.00  0.00    -0.203 F 
ATOM     69  F   UNL A   1      37.489  31.800  38.323  1.00  0.00    -0.200 F 
ATOM     70  C   UNL A   1      38.460  33.804  37.538  1.00  0.00     0.200 A 
ATOM     71  F   UNL A   1      39.444  35.783  36.711  1.00  0.00    -0.200 F 
ATOM     72  F   UNL A   1      37.999  34.464  38.609  1.00  0.00    -0.200 F 
ENDBRANCH  48  62
BRANCH  49  73
ATOM     73  C   UNL A   1      43.264  27.125  27.727  1.00  0.00     0.064 A 
ATOM     74  C   UNL A   1      43.069  25.737  27.710  1.00  0.00     0.173 A 
ATOM     75  C   UNL A   1      43.990  27.691  26.667  1.00  0.00     0.173 A 
ATOM     76  F   UNL A   1      42.402  25.141  28.710  1.00  0.00    -0.203 F 
ATOM     77  C   UNL A   1      43.584  24.948  26.682  1.00  0.00     0.198 A 
ATOM     78  C   UNL A   1      44.473  26.907  25.623  1.00  0.00     0.198 A 
ATOM     79  F   UNL A   1      44.208  29.014  26.634  1.00  0.00    -0.203 F 
ATOM     80  F   UNL A   1      43.418  23.619  26.712  1.00  0.00    -0.200 F 
ATOM     81  C   UNL A   1      44.278  25.536  25.634  1.00  0.00     0.200 A 
ATOM     82  F   UNL A   1      45.127  27.483  24.604  1.00  0.00    -0.200 F 
ATOM     83  F   UNL A   1      44.763  24.779  24.640  1.00  0.00    -0.200 F 
ENDBRANCH  49  73
BRANCH  61  84
ATOM     84  C   UNL A   1      45.718  29.177  33.913  1.00  0.00     0.064 A 
ATOM     85  C   UNL A   1      46.766  30.097  33.771  1.00  0.00     0.173 A 
ATOM     86  C   UNL A   1      45.910  28.081  34.766  1.00  0.00     0.173 A 
ATOM     87  F   UNL A   1      46.632  31.152  32.954  1.00  0.00    -0.203 F 
ATOM     88  C   UNL A   1      47.968  29.917  34.447  1.00  0.00     0.198 A 
ATOM     89  C   UNL A   1      47.105  27.919  35.461  1.00  0.00     0.198 A 
ATOM     90  F   UNL A   1      44.933  27.179  34.939  1.00  0.00    -0.203 F 
ATOM     91  F   UNL A   1      48.972  30.788  34.268  1.00  0.00    -0.200 F 
ATOM     92  C   UNL A   1      48.134  28.834  35.297  1.00  0.00     0.200 A 
ATOM     93  F   UNL A   1      47.259  26.879  36.292  1.00  0.00    -0.200 F 
ATOM     94  F   UNL A   1      49.289  28.669  35.957  1.00  0.00    -0.200 F 
ENDBRANCH  61  84
ENDBRANCH  35  36
ENDBRANCH  27  30
ENDBRANCH  25  26
ENDBRANCH   1  25
TORSDOF 13
ENDMDL
MODEL 2
REMARK VINA RESULT:     -12.2      1.642      3.465
REMARK SMILES CC[C@@H]1CCC[C@@](C[C@@H]2CSc3ccccc32)(C(=O)NCCCNC(=O)c2ccc(-c3c4nc(c(-c5c(F)c(F)c(F)c(F)c5F)c5ccc([nH]5)c(-c5c(F)c(F)c(F)c(F)c5F)c5nc(c(-c6c(F)c(F)c(F)c(F)c6F)c6ccc3[nH]6)C=C5)C=C4)cc2)C1
REMARK SMILES IDX 22 1 21 2 20 3 18 4 19 5 7 7 3 8 4 9 90 10 5 11 6 12 2 13
REMARK SMILES IDX 1 14 8 15 9 16 10 17 17 18 11 19 12 20 16 21 13 22 15 23
REMARK SMILES IDX 14 24 23 25 24 26 25 27 26 29 27 30 28 31 89 32 29 33 88 34
REMARK SMILES IDX 30 35 31 36 32 37 82 38 33 39 87 40 81 41 83 42 34 43 86 44
REMARK SMILES IDX 80 45 79 46 35 48 67 49 47 50 66 51 48 52 51 53 65 54 84 55
REMARK SMILES IDX 49 56 50 57 64 59 85 60 52 61 36 62 37 63 45 64 38 65 39 66
REMARK SMILES IDX 43 67 46 68 40 69 41 70 44 71 42 72 68 73 69 74 77 75 70 76
REMARK SMILES IDX 71 77 75 78 78 79 72 80 73 81 76 82 74 83 53 84 54 85 62 86
REMARK SMILES IDX 55 87 56 88 60 89 63 90 57 91 58 92 61 93 59 94
REMARK H PARENT 20 6 24 28 83 47 51 58
REMARK Flexibility Score: inf
ROOT
ATOM      1  C   UNL A   1      31.476  28.365  26.987  1.00  0.00     0.042 C 
ENDROOT
BRANCH   1   2
ATOM      2  C   UNL A   1      31.536  26.877  26.670  1.00  0.00     0.117 C 
BRANCH   2   3
ATOM      3  N   UNL A   1      32.874  26.372  26.472  1.00  0.00    -0.356 N 
ATOM      4  C   UNL A   1      33.344  25.377  25.677  1.00  0.00     0.226 C 
ATOM      5  O   UNL A   1      34.426  25.674  25.148  1.00  0.00    -0.274 OA
ATOM      6  H   UNL A   1      33.565  26.828  27.006  1.00  0.00     0.163 HD
BRANCH   4   7
ATOM      7  C   UNL A   1      32.686  23.962  25.430  1.00  0.00     0.050 C 
ATOM      8  C   UNL A   1      35.096  22.836  25.413  1.00  0.00    -0.010 C 
ATOM      9  C   UNL A   1      34.728  22.032  26.659  1.00  0.00     0.003 C 
ATOM     10  C   UNL A   1      33.807  23.162  24.620  1.00  0.00     0.020 C 
ATOM     11  C   UNL A   1      33.706  22.786  27.507  1.00  0.00     0.001 C 
ATOM     12  C   UNL A   1      32.444  23.168  26.724  1.00  0.00     0.017 C 
BRANCH   8  13
ATOM     13  C   UNL A   1      36.110  22.122  24.496  1.00  0.00     0.000 C 
ATOM     14  C   UNL A   1      36.486  22.909  23.247  1.00  0.00     0.004 C 
ENDBRANCH   8  13
BRANCH   7  15
ATOM     15  C   UNL A   1      31.439  24.011  24.442  1.00  0.00     0.026 C 
BRANCH  15  16
ATOM     16  C   UNL A   1      31.273  24.803  23.096  1.00  0.00     0.032 C 
ATOM     17  C   UNL A   1      32.411  24.666  22.070  1.00  0.00     0.083 C 
ATOM     18  C   UNL A   1      30.926  26.273  23.119  1.00  0.00    -0.030 A 
ATOM     19  S   UNL A   1      33.351  26.223  22.091  1.00  0.00    -0.125 SA
ATOM     20  C   UNL A   1      31.971  27.117  22.726  1.00  0.00     0.011 A 
ATOM     21  C   UNL A   1      29.687  26.822  23.430  1.00  0.00     0.005 A 
ATOM     22  C   UNL A   1      31.855  28.496  22.773  1.00  0.00     0.015 A 
ATOM     23  C   UNL A   1      29.538  28.214  23.415  1.00  0.00     0.000 A 
ATOM     24  C   UNL A   1      30.626  29.048  23.125  1.00  0.00     0.001 A 
ENDBRANCH  15  16
ENDBRANCH   7  15
ENDBRANCH   4   7
ENDBRANCH   2   3
ENDBRANCH   1   2
BRANCH   1  25
ATOM     25  C   UNL A   1      32.518  29.188  26.233  1.00  0.00     0.118 C 
BRANCH  25  26
ATOM     26  N   UNL A   1      32.334  30.634  26.389  1.00  0.00    -0.352 N 
ATOM     27  C   UNL A   1      33.038  31.590  27.095  1.00  0.00     0.251 C 
ATOM     28  H   UNL A   1      31.560  30.992  25.898  1.00  0.00     0.163 HD
ATOM     29  O   UNL A   1      32.566  32.717  27.212  1.00  0.00    -0.269 OA
BRANCH  27  30
ATOM     30  C   UNL A   1      34.344  31.283  27.729  1.00  0.00     0.039 A 
ATOM     31  C   UNL A   1      34.679  29.983  28.080  1.00  0.00     0.014 A 
ATOM     32  C   UNL A   1      35.281  32.305  27.935  1.00  0.00     0.014 A 
ATOM     33  C   UNL A   1      35.819  29.735  28.832  1.00  0.00     0.010 A 
ATOM     34  C   UNL A   1      36.505  32.028  28.566  1.00  0.00     0.010 A 
ATOM     35  C   UNL A   1      36.766  30.745  29.066  1.00  0.00    -0.014 A 
BRANCH  35  36
ATOM     36  C   UNL A   1      38.017  30.395  29.801  1.00  0.00     0.031 A 
ATOM     37  C   UNL A   1      38.235  30.836  31.225  1.00  0.00     0.074 A 
ATOM     38  C   UNL A   1      38.916  29.581  29.206  1.00  0.00     0.049 A 
ATOM     39  N   UNL A   1      39.255  30.598  32.013  1.00  0.00    -0.248 NA
ATOM     40  C   UNL A   1      37.181  31.651  31.849  1.00  0.00     0.031 C 
ATOM     41  C   UNL A   1      38.811  29.074  27.835  1.00  0.00     0.029 A 
ATOM     42  N   UNL A   1      40.059  28.990  29.684  1.00  0.00    -0.354 N 
ATOM     43  C   UNL A   1      38.979  31.253  33.207  1.00  0.00     0.074 A 
ATOM     44  C   UNL A   1      37.705  31.917  33.040  1.00  0.00     0.031 C 
ATOM     45  C   UNL A   1      39.775  28.169  27.622  1.00  0.00     0.029 A 
ATOM     46  C   UNL A   1      40.634  28.110  28.797  1.00  0.00     0.049 A 
ATOM     47  H   UNL A   1      40.431  29.178  30.576  1.00  0.00     0.167 HD
ATOM     48  C   UNL A   1      39.718  31.286  34.342  1.00  0.00     0.037 A 
ATOM     49  C   UNL A   1      41.742  27.351  28.905  1.00  0.00     0.037 A 
ATOM     50  C   UNL A   1      40.968  30.590  34.517  1.00  0.00     0.049 A 
ATOM     51  C   UNL A   1      42.558  27.441  30.161  1.00  0.00     0.074 A 
ATOM     52  C   UNL A   1      41.800  30.576  35.624  1.00  0.00     0.029 A 
ATOM     53  N   UNL A   1      41.556  29.770  33.565  1.00  0.00    -0.354 N 
ATOM     54  N   UNL A   1      42.305  28.104  31.263  1.00  0.00    -0.248 NA
ATOM     55  C   UNL A   1      43.828  26.703  30.179  1.00  0.00     0.031 C 
ATOM     56  C   UNL A   1      42.905  29.772  35.332  1.00  0.00     0.029 A 
ATOM     57  C   UNL A   1      42.743  29.251  34.059  1.00  0.00     0.049 A 
ATOM     58  H   UNL A   1      41.186  29.584  32.672  1.00  0.00     0.167 HD
ATOM     59  C   UNL A   1      43.378  27.861  32.105  1.00  0.00     0.074 A 
ATOM     60  C   UNL A   1      44.271  26.964  31.401  1.00  0.00     0.031 C 
ATOM     61  C   UNL A   1      43.611  28.352  33.346  1.00  0.00     0.037 A 
BRANCH  48  62
ATOM     62  C   UNL A   1      39.210  32.100  35.497  1.00  0.00     0.064 A 
ATOM     63  C   UNL A   1      38.410  31.530  36.498  1.00  0.00     0.173 A 
ATOM     64  C   UNL A   1      39.611  33.436  35.657  1.00  0.00     0.173 A 
ATOM     65  F   UNL A   1      37.993  30.261  36.389  1.00  0.00    -0.203 F 
ATOM     66  C   UNL A   1      38.028  32.270  37.615  1.00  0.00     0.198 A 
ATOM     67  C   UNL A   1      39.246  34.165  36.786  1.00  0.00     0.198 A 
ATOM     68  F   UNL A   1      40.384  34.025  34.731  1.00  0.00    -0.203 F 
ATOM     69  F   UNL A   1      37.246  31.713  38.551  1.00  0.00    -0.200 F 
ATOM     70  C   UNL A   1      38.455  33.582  37.763  1.00  0.00     0.200 A 
ATOM     71  F   UNL A   1      39.673  35.426  36.935  1.00  0.00    -0.200 F 
ATOM     72  F   UNL A   1      38.104  34.284  38.850  1.00  0.00    -0.200 F 
ENDBRANCH  48  62
BRANCH  49  73
ATOM     73  C   UNL A   1      42.154  26.464  27.783  1.00  0.00     0.064 A 
ATOM     74  C   UNL A   1      43.101  26.885  26.840  1.00  0.00     0.173 A 
ATOM     75  C   UNL A   1      41.616  25.177  27.633  1.00  0.00     0.173 A 
ATOM     76  F   UNL A   1      43.630  28.116  26.924  1.00  0.00    -0.203 F 
ATOM     77  C   UNL A   1      43.488  26.057  25.787  1.00  0.00     0.198 A 
ATOM     78  C   UNL A   1      42.030  24.337  26.602  1.00  0.00     0.198 A 
ATOM     79  F   UNL A   1      40.704  24.723  28.505  1.00  0.00    -0.203 F 
ATOM     80  F   UNL A   1      44.365  26.501  24.876  1.00  0.00    -0.200 F 
ATOM     81  C   UNL A   1      42.959  24.780  25.674  1.00  0.00     0.200 A 
ATOM     82  F   UNL A   1      41.528  23.097  26.508  1.00  0.00    -0.200 F 
ATOM     83  F   UNL A   1      43.340  23.980  24.670  1.00  0.00    -0.200 F 
ENDBRANCH  49  73
BRANCH  61  84
ATOM     84  C   UNL A   1      44.870  27.913  34.031  1.00  0.00     0.064 A 
ATOM     85  C   UNL A   1      46.052  28.660  33.931  1.00  0.00     0.173 A 
ATOM     86  C   UNL A   1      44.877  26.767  34.839  1.00  0.00     0.173 A 
ATOM     87  F   UNL A   1      46.096  29.754  33.157  1.00  0.00    -0.203 F 
ATOM     88  C   UNL A   1      47.204  28.264  34.604  1.00  0.00     0.198 A 
ATOM     89  C   UNL A   1      46.023  26.390  35.532  1.00  0.00     0.198 A 
ATOM     90  F   UNL A   1      43.768  26.025  34.970  1.00  0.00    -0.203 F 
ATOM     91  F   UNL A   1      48.334  28.971  34.465  1.00  0.00    -0.200 F 
ATOM     92  C   UNL A   1      47.187  27.136  35.410  1.00  0.00     0.200 A 
ATOM     93  F   UNL A   1      46.002  25.307  36.321  1.00  0.00    -0.200 F 
ATOM     94  F   UNL A   1      48.293  26.763  36.068  1.00  0.00    -0.200 F 
ENDBRANCH  61  84
ENDBRANCH  35  36
ENDBRANCH  27  30
ENDBRANCH  25  26
ENDBRANCH   1  25
TORSDOF 13
ENDMDL
MODEL 3
REMARK VINA RESULT:     -12.2      1.529      2.427
REMARK SMILES CC[C@@H]1CCC[C@@](C[C@@H]2CSc3ccccc32)(C(=O)NCCCNC(=O)c2ccc(-c3c4nc(c(-c5c(F)c(F)c(F)c(F)c5F)c5ccc([nH]5)c(-c5c(F)c(F)c(F)c(F)c5F)c5nc(c(-c6c(F)c(F)c(F)c(F)c6F)c6ccc3[nH]6)C=C5)C=C4)cc2)C1
REMARK SMILES IDX 22 1 21 2 20 3 18 4 19 5 7 7 3 8 4 9 90 10 5 11 6 12 2 13
REMARK SMILES IDX 1 14 8 15 9 16 10 17 17 18 11 19 12 20 16 21 13 22 15 23
REMARK SMILES IDX 14 24 23 25 24 26 25 27 26 29 27 30 28 31 89 32 29 33 88 34
REMARK SMILES IDX 30 35 31 36 32 37 82 38 33 39 87 40 81 41 83 42 34 43 86 44
REMARK SMILES IDX 80 45 79 46 35 48 67 49 47 50 66 51 48 52 51 53 65 54 84 55
REMARK SMILES IDX 49 56 50 57 64 59 85 60 52 61 36 62 37 63 45 64 38 65 39 66
REMARK SMILES IDX 43 67 46 68 40 69 41 70 44 71 42 72 68 73 69 74 77 75 70 76
REMARK SMILES IDX 71 77 75 78 78 79 72 80 73 81 76 82 74 83 53 84 54 85 62 86
REMARK SMILES IDX 55 87 56 88 60 89 63 90 57 91 58 92 61 93 59 94
REMARK H PARENT 20 6 24 28 83 47 51 58
REMARK Flexibility Score: inf
ROOT
ATOM      1  C   UNL A   1      33.656  28.922  24.040  1.00  0.00     0.042 C 
ENDROOT
BRANCH   1   2
ATOM      2  C   UNL A   1      32.744  28.369  22.952  1.00  0.00     0.117 C 
BRANCH   2   3
ATOM      3  N   UNL A   1      33.378  27.398  22.092  1.00  0.00    -0.356 N 
ATOM      4  C   UNL A   1      33.349  26.041  22.106  1.00  0.00     0.226 C 
ATOM      5  O   UNL A   1      33.280  25.564  20.962  1.00  0.00    -0.274 OA
ATOM      6  H   UNL A   1      33.925  27.787  21.371  1.00  0.00     0.163 HD
BRANCH   4   7
ATOM      7  C   UNL A   1      33.434  25.097  23.370  1.00  0.00     0.050 C 
ATOM      8  C   UNL A   1      30.805  25.311  23.715  1.00  0.00    -0.010 C 
ATOM      9  C   UNL A   1      30.649  23.814  23.455  1.00  0.00     0.003 C 
ATOM     10  C   UNL A   1      32.218  25.584  24.285  1.00  0.00     0.020 C 
ATOM     11  C   UNL A   1      31.751  23.309  22.526  1.00  0.00     0.001 C 
ATOM     12  C   UNL A   1      33.160  23.619  23.045  1.00  0.00     0.017 C 
BRANCH   8  13
ATOM     13  C   UNL A   1      29.735  25.886  24.666  1.00  0.00     0.000 C 
ATOM     14  C   UNL A   1      29.928  25.504  26.128  1.00  0.00     0.004 C 
ENDBRANCH   8  13
BRANCH   7  15
ATOM     15  C   UNL A   1      34.729  25.350  24.260  1.00  0.00     0.026 C 
BRANCH  15  16
ATOM     16  C   UNL A   1      35.383  24.418  25.342  1.00  0.00     0.032 C 
ATOM     17  C   UNL A   1      36.757  23.817  24.994  1.00  0.00     0.083 C 
ATOM     18  C   UNL A   1      34.589  23.286  25.948  1.00  0.00    -0.030 A 
ATOM     19  S   UNL A   1      36.496  22.058  24.607  1.00  0.00    -0.125 SA
ATOM     20  C   UNL A   1      35.005  22.012  25.546  1.00  0.00     0.011 A 
ATOM     21  C   UNL A   1      33.562  23.406  26.877  1.00  0.00     0.005 A 
ATOM     22  C   UNL A   1      34.332  20.865  25.935  1.00  0.00     0.015 A 
ATOM     23  C   UNL A   1      32.918  22.248  27.331  1.00  0.00     0.000 A 
ATOM     24  C   UNL A   1      33.276  20.988  26.834  1.00  0.00     0.001 A 
ENDBRANCH  15  16
ENDBRANCH   7  15
ENDBRANCH   4   7
ENDBRANCH   2   3
ENDBRANCH   1   2
BRANCH   1  25
ATOM     25  C   UNL A   1      33.032  28.884  25.432  1.00  0.00     0.118 C 
BRANCH  25  26
ATOM     26  N   UNL A   1      32.595  30.202  25.903  1.00  0.00    -0.352 N 
ATOM     27  C   UNL A   1      33.084  31.049  26.879  1.00  0.00     0.251 C 
ATOM     28  H   UNL A   1      31.802  30.549  25.435  1.00  0.00     0.163 HD
ATOM     29  O   UNL A   1      32.420  32.028  27.209  1.00  0.00    -0.269 OA
BRANCH  27  30
ATOM     30  C   UNL A   1      34.383  30.796  27.549  1.00  0.00     0.039 A 
ATOM     31  C   UNL A   1      34.734  29.519  27.965  1.00  0.00     0.014 A 
ATOM     32  C   UNL A   1      35.298  31.843  27.724  1.00  0.00     0.014 A 
ATOM     33  C   UNL A   1      35.864  29.328  28.749  1.00  0.00     0.010 A 
ATOM     34  C   UNL A   1      36.514  31.618  28.389  1.00  0.00     0.010 A 
ATOM     35  C   UNL A   1      36.789  30.364  28.952  1.00  0.00    -0.014 A 
BRANCH  35  36
ATOM     36  C   UNL A   1      38.032  30.072  29.724  1.00  0.00     0.031 A 
ATOM     37  C   UNL A   1      38.203  30.556  31.141  1.00  0.00     0.074 A 
ATOM     38  C   UNL A   1      38.969  29.272  29.172  1.00  0.00     0.049 A 
ATOM     39  N   UNL A   1      39.211  30.369  31.958  1.00  0.00    -0.248 NA
ATOM     40  C   UNL A   1      37.110  31.353  31.720  1.00  0.00     0.031 C 
ATOM     41  C   UNL A   1      38.912  28.728  27.811  1.00  0.00     0.029 A 
ATOM     42  N   UNL A   1      40.118  28.728  29.690  1.00  0.00    -0.354 N 
ATOM     43  C   UNL A   1      38.887  31.045  33.128  1.00  0.00     0.074 A 
ATOM     44  C   UNL A   1      37.598  31.665  32.914  1.00  0.00     0.031 C 
ATOM     45  C   UNL A   1      39.908  27.847  27.644  1.00  0.00     0.029 A 
ATOM     46  C   UNL A   1      40.740  27.844  28.840  1.00  0.00     0.049 A 
ATOM     47  H   UNL A   1      40.463  28.950  30.585  1.00  0.00     0.167 HD
ATOM     48  C   UNL A   1      39.598  31.129  34.278  1.00  0.00     0.037 A 
ATOM     49  C   UNL A   1      41.868  27.123  28.993  1.00  0.00     0.037 A 
ATOM     50  C   UNL A   1      40.863  30.477  34.500  1.00  0.00     0.049 A 
ATOM     51  C   UNL A   1      42.650  27.269  30.264  1.00  0.00     0.074 A 
ATOM     52  C   UNL A   1      41.669  30.517  35.626  1.00  0.00     0.029 A 
ATOM     53  N   UNL A   1      41.498  29.652  33.584  1.00  0.00    -0.354 N 
ATOM     54  N   UNL A   1      42.352  27.952  31.342  1.00  0.00    -0.248 NA
ATOM     55  C   UNL A   1      43.942  26.571  30.331  1.00  0.00     0.031 C 
ATOM     56  C   UNL A   1      42.804  29.740  35.380  1.00  0.00     0.029 A 
ATOM     57  C   UNL A   1      42.688  29.182  34.118  1.00  0.00     0.049 A 
ATOM     58  H   UNL A   1      41.155  29.432  32.687  1.00  0.00     0.167 HD
ATOM     59  C   UNL A   1      43.411  27.764  32.215  1.00  0.00     0.074 A 
ATOM     60  C   UNL A   1      44.348  26.877  31.556  1.00  0.00     0.031 C 
ATOM     61  C   UNL A   1      43.600  28.292  33.449  1.00  0.00     0.037 A 
BRANCH  48  62
ATOM     62  C   UNL A   1      39.038  31.956  35.400  1.00  0.00     0.064 A 
ATOM     63  C   UNL A   1      38.282  31.377  36.430  1.00  0.00     0.173 A 
ATOM     64  C   UNL A   1      39.346  33.322  35.500  1.00  0.00     0.173 A 
ATOM     65  F   UNL A   1      37.953  30.078  36.378  1.00  0.00    -0.203 F 
ATOM     66  C   UNL A   1      37.853  32.137  37.516  1.00  0.00     0.198 A 
ATOM     67  C   UNL A   1      38.935  34.073  36.598  1.00  0.00     0.198 A 
ATOM     68  F   UNL A   1      40.074  33.922  34.545  1.00  0.00    -0.203 F 
ATOM     69  F   UNL A   1      37.114  31.569  38.479  1.00  0.00    -0.200 F 
ATOM     70  C   UNL A   1      38.189  33.480  37.604  1.00  0.00     0.200 A 
ATOM     71  F   UNL A   1      39.275  35.366  36.689  1.00  0.00    -0.200 F 
ATOM     72  F   UNL A   1      37.794  34.203  38.662  1.00  0.00    -0.200 F 
ENDBRANCH  48  62
BRANCH  49  73
ATOM     73  C   UNL A   1      42.333  26.221  27.904  1.00  0.00     0.064 A 
ATOM     74  C   UNL A   1      41.839  24.914  27.789  1.00  0.00     0.173 A 
ATOM     75  C   UNL A   1      43.273  26.645  26.953  1.00  0.00     0.173 A 
ATOM     76  F   UNL A   1      40.955  24.450  28.685  1.00  0.00    -0.203 F 
ATOM     77  C   UNL A   1      42.273  24.066  26.771  1.00  0.00     0.198 A 
ATOM     78  C   UNL A   1      43.680  25.810  25.916  1.00  0.00     0.198 A 
ATOM     79  F   UNL A   1      43.781  27.886  27.017  1.00  0.00    -0.203 F 
ATOM     80  F   UNL A   1      41.816  22.808  26.709  1.00  0.00    -0.200 F 
ATOM     81  C   UNL A   1      43.187  24.518  25.830  1.00  0.00     0.200 A 
ATOM     82  F   UNL A   1      44.549  26.258  24.999  1.00  0.00    -0.200 F 
ATOM     83  F   UNL A   1      43.595  23.707  24.845  1.00  0.00    -0.200 F 
ENDBRANCH  49  73
BRANCH  61  84
ATOM     84  C   UNL A   1      44.855  27.910  34.173  1.00  0.00     0.064 A 
ATOM     85  C   UNL A   1      45.993  28.729  34.142  1.00  0.00     0.173 A 
ATOM     86  C   UNL A   1      44.900  26.743  34.950  1.00  0.00     0.173 A 
ATOM     87  F   UNL A   1      46.000  29.845  33.399  1.00  0.00    -0.203 F 
ATOM     88  C   UNL A   1      47.138  28.383  34.852  1.00  0.00     0.198 A 
ATOM     89  C   UNL A   1      46.038  26.415  35.680  1.00  0.00     0.198 A 
ATOM     90  F   UNL A   1      43.833  25.933  35.016  1.00  0.00    -0.203 F 
ATOM     91  F   UNL A   1      48.229  29.161  34.778  1.00  0.00    -0.200 F 
ATOM     92  C   UNL A   1      47.158  27.233  35.626  1.00  0.00     0.200 A 
ATOM     93  F   UNL A   1      46.051  25.311  36.438  1.00  0.00    -0.200 F 
ATOM     94  F   UNL A   1      48.258  26.909  36.319  1.00  0.00    -0.200 F 
ENDBRANCH  61  84
ENDBRANCH  35  36
ENDBRANCH  27  30
ENDBRANCH  25  26
ENDBRANCH   1  25
TORSDOF 13
ENDMDL
