MODEL 1
REMARK VINA RESULT:     -13.0      0.000      0.000
REMARK SMILES COc1ccc([C@@H]2CC[NH2+][C@H]2C(=O)NCCCNC(=O)c2ccc(-c3c4nc(c(-c5c(F)c(F)c(F)c(F)c5F)c5ccc([nH]5)c(-c5c(F)c(F)c(F)c(F)c5F)c5nc(c(-c6c(F)c(F)c(F)c(F)c6F)c6ccc3[nH]6)C=C5)C=C4)cc2)c2ccccc12
REMARK SMILES IDX 16 1 15 2 14 3 12 4 13 5 11 7 7 8 8 9 9 10 10 11 6 14 3 15
REMARK SMILES IDX 4 16 89 17 5 18 84 19 88 20 85 21 87 22 86 23 2 24 1 25
REMARK SMILES IDX 17 26 18 27 19 28 20 30 21 31 22 32 83 33 23 34 82 35 24 36
REMARK SMILES IDX 25 37 26 38 76 39 27 40 81 41 75 42 77 43 28 44 80 45 74 46
REMARK SMILES IDX 73 47 29 49 61 50 41 51 60 52 42 53 45 54 59 55 78 56 43 57
REMARK SMILES IDX 44 58 58 60 79 61 46 62 30 63 31 64 39 65 32 66 33 67 37 68
REMARK SMILES IDX 40 69 34 70 35 71 38 72 36 73 62 74 63 75 71 76 64 77 65 78
REMARK SMILES IDX 69 79 72 80 66 81 67 82 70 83 68 84 47 85 48 86 56 87 49 88
REMARK SMILES IDX 50 89 54 90 57 91 51 92 52 93 55 94 53 95
REMARK H PARENT 14 6 10 12 10 13 18 29 77 48 45 59
REMARK Flexibility Score: inf
ROOT
ATOM      1  C   UNL A   1      33.607  28.953  23.508  1.00  0.00     0.042 C 
ENDROOT
BRANCH   1   2
ATOM      2  C   UNL A   1      32.410  28.212  22.924  1.00  0.00     0.118 C 
BRANCH   2   3
ATOM      3  N   UNL A   1      32.786  27.327  21.837  1.00  0.00    -0.351 N 
ATOM      4  C   UNL A   1      32.713  25.975  21.678  1.00  0.00     0.278 C 
ATOM      5  O   UNL A   1      33.193  25.526  20.632  1.00  0.00    -0.268 OA
ATOM      6  H   UNL A   1      33.170  27.796  21.062  1.00  0.00     0.163 HD
BRANCH   4   7
ATOM      7  C   UNL A   1      32.100  25.026  22.730  1.00  0.00     0.280 C 
ATOM      8  C   UNL A   1      33.039  24.752  23.916  1.00  0.00     0.094 C 
ATOM      9  C   UNL A   1      32.305  25.332  25.128  1.00  0.00     0.076 C 
ATOM     10  C   UNL A   1      30.850  25.463  24.711  1.00  0.00     0.262 C 
ATOM     11  N   UNL A   1      30.807  25.530  23.253  1.00  0.00    -0.335 N 
ATOM     12  H   UNL A   1      30.667  26.496  22.955  1.00  0.00     0.346 HD
ATOM     13  H   UNL A   1      30.037  24.966  22.895  1.00  0.00     0.346 HD
BRANCH   8  14
ATOM     14  C   UNL A   1      33.359  23.264  24.116  1.00  0.00    -0.030 A 
ATOM     15  C   UNL A   1      33.754  20.497  24.510  1.00  0.00     0.126 A 
ATOM     16  C   UNL A   1      32.489  20.982  24.198  1.00  0.00     0.047 A 
ATOM     17  C   UNL A   1      34.848  21.380  24.654  1.00  0.00     0.024 A 
ATOM     18  C   UNL A   1      32.301  22.342  23.995  1.00  0.00     0.009 A 
ATOM     19  C   UNL A   1      34.665  22.781  24.447  1.00  0.00    -0.011 A 
ATOM     20  C   UNL A   1      36.129  20.890  24.989  1.00  0.00     0.012 A 
ATOM     21  C   UNL A   1      35.812  23.605  24.586  1.00  0.00     0.009 A 
ATOM     22  C   UNL A   1      37.230  21.733  25.118  1.00  0.00     0.001 A 
ATOM     23  C   UNL A   1      37.070  23.092  24.914  1.00  0.00     0.001 A 
BRANCH  15  24
ATOM     24  O   UNL A   1      33.973  19.159  24.746  1.00  0.00    -0.496 OA
ATOM     25  C   UNL A   1      32.854  18.462  25.286  1.00  0.00     0.278 C 
ENDBRANCH  15  24
ENDBRANCH   8  14
ENDBRANCH   4   7
ENDBRANCH   2   3
ENDBRANCH   1   2
BRANCH   1  26
ATOM     26  C   UNL A   1      33.624  28.977  25.032  1.00  0.00     0.118 C 
BRANCH  26  27
ATOM     27  N   UNL A   1      32.994  30.174  25.571  1.00  0.00    -0.352 N 
ATOM     28  C   UNL A   1      33.271  30.889  26.706  1.00  0.00     0.251 C 
ATOM     29  H   UNL A   1      32.248  30.527  25.034  1.00  0.00     0.163 HD
ATOM     30  O   UNL A   1      32.468  31.742  27.096  1.00  0.00    -0.269 OA
BRANCH  28  31
ATOM     31  C   UNL A   1      34.509  30.651  27.475  1.00  0.00     0.039 A 
ATOM     32  C   UNL A   1      35.437  31.689  27.601  1.00  0.00     0.014 A 
ATOM     33  C   UNL A   1      34.788  29.397  28.027  1.00  0.00     0.014 A 
ATOM     34  C   UNL A   1      36.614  31.488  28.326  1.00  0.00     0.010 A 
ATOM     35  C   UNL A   1      35.923  29.220  28.813  1.00  0.00     0.010 A 
ATOM     36  C   UNL A   1      36.852  30.260  28.963  1.00  0.00    -0.014 A 
BRANCH  36  37
ATOM     37  C   UNL A   1      38.075  30.032  29.773  1.00  0.00     0.031 A 
ATOM     38  C   UNL A   1      39.170  29.147  29.243  1.00  0.00     0.074 A 
ATOM     39  C   UNL A   1      38.172  30.569  31.004  1.00  0.00     0.049 A 
ATOM     40  N   UNL A   1      40.262  28.733  29.837  1.00  0.00    -0.248 NA
ATOM     41  C   UNL A   1      39.006  28.642  27.871  1.00  0.00     0.031 C 
ATOM     42  C   UNL A   1      37.165  31.419  31.640  1.00  0.00     0.029 A 
ATOM     43  N   UNL A   1      39.163  30.467  31.949  1.00  0.00    -0.354 N 
ATOM     44  C   UNL A   1      40.905  27.916  28.917  1.00  0.00     0.074 A 
ATOM     45  C   UNL A   1      40.059  27.847  27.746  1.00  0.00     0.031 C 
ATOM     46  C   UNL A   1      37.596  31.774  32.862  1.00  0.00     0.029 A 
ATOM     47  C   UNL A   1      38.889  31.146  33.111  1.00  0.00     0.049 A 
ATOM     48  H   UNL A   1      39.993  29.956  31.806  1.00  0.00     0.167 HD
ATOM     49  C   UNL A   1      42.106  27.299  29.029  1.00  0.00     0.037 A 
ATOM     50  C   UNL A   1      39.597  31.238  34.253  1.00  0.00     0.037 A 
ATOM     51  C   UNL A   1      42.957  27.388  30.186  1.00  0.00     0.049 A 
ATOM     52  C   UNL A   1      40.919  30.525  34.355  1.00  0.00     0.074 A 
ATOM     53  C   UNL A   1      44.199  26.811  30.390  1.00  0.00     0.029 A 
ATOM     54  N   UNL A   1      42.655  28.108  31.332  1.00  0.00    -0.354 N 
ATOM     55  N   UNL A   1      41.531  29.783  33.465  1.00  0.00    -0.248 NA
ATOM     56  C   UNL A   1      41.651  30.668  35.621  1.00  0.00     0.031 C 
ATOM     57  C   UNL A   1      44.637  27.163  31.671  1.00  0.00     0.029 A 
ATOM     58  C   UNL A   1      43.688  27.989  32.248  1.00  0.00     0.049 A 
ATOM     59  H   UNL A   1      41.831  28.626  31.473  1.00  0.00     0.167 HD
ATOM     60  C   UNL A   1      42.732  29.403  34.047  1.00  0.00     0.074 A 
ATOM     61  C   UNL A   1      42.769  30.005  35.363  1.00  0.00     0.031 C 
ATOM     62  C   UNL A   1      43.717  28.622  33.540  1.00  0.00     0.037 A 
BRANCH  49  63
ATOM     63  C   UNL A   1      42.585  26.490  27.859  1.00  0.00     0.064 A 
ATOM     64  C   UNL A   1      42.176  25.161  27.677  1.00  0.00     0.173 A 
ATOM     65  C   UNL A   1      43.415  27.062  26.884  1.00  0.00     0.173 A 
ATOM     66  F   UNL A   1      41.391  24.565  28.589  1.00  0.00    -0.203 F 
ATOM     67  C   UNL A   1      42.594  24.428  26.570  1.00  0.00     0.198 A 
ATOM     68  C   UNL A   1      43.810  26.334  25.765  1.00  0.00     0.198 A 
ATOM     69  F   UNL A   1      43.833  28.330  27.010  1.00  0.00    -0.203 F 
ATOM     70  F   UNL A   1      42.219  23.148  26.436  1.00  0.00    -0.200 F 
ATOM     71  C   UNL A   1      43.403  25.017  25.611  1.00  0.00     0.200 A 
ATOM     72  F   UNL A   1      44.583  26.907  24.833  1.00  0.00    -0.200 F 
ATOM     73  F   UNL A   1      43.794  24.313  24.540  1.00  0.00    -0.200 F 
ENDBRANCH  49  63
BRANCH  50  74
ATOM     74  C   UNL A   1      39.086  32.045  35.391  1.00  0.00     0.064 A 
ATOM     75  C   UNL A   1      39.379  33.414  35.489  1.00  0.00     0.173 A 
ATOM     76  C   UNL A   1      38.331  31.465  36.421  1.00  0.00     0.173 A 
ATOM     77  F   UNL A   1      40.116  34.010  34.540  1.00  0.00    -0.203 F 
ATOM     78  C   UNL A   1      38.966  34.162  36.589  1.00  0.00     0.198 A 
ATOM     79  C   UNL A   1      37.892  32.221  37.505  1.00  0.00     0.198 A 
ATOM     80  F   UNL A   1      38.019  30.162  36.372  1.00  0.00    -0.203 F 
ATOM     81  F   UNL A   1      39.312  35.453  36.686  1.00  0.00    -0.200 F 
ATOM     82  C   UNL A   1      38.221  33.566  37.596  1.00  0.00     0.200 A 
ATOM     83  F   UNL A   1      37.162  31.645  38.470  1.00  0.00    -0.200 F 
ATOM     84  F   UNL A   1      37.830  34.284  38.657  1.00  0.00    -0.200 F 
ENDBRANCH  50  74
BRANCH  62  85
ATOM     85  C   UNL A   1      44.939  28.421  34.386  1.00  0.00     0.064 A 
ATOM     86  C   UNL A   1      45.051  27.342  35.274  1.00  0.00     0.173 A 
ATOM     87  C   UNL A   1      46.027  29.301  34.276  1.00  0.00     0.173 A 
ATOM     88  F   UNL A   1      44.031  26.483  35.426  1.00  0.00    -0.203 F 
ATOM     89  C   UNL A   1      46.199  27.166  36.042  1.00  0.00     0.198 A 
ATOM     90  C   UNL A   1      47.183  29.105  35.024  1.00  0.00     0.198 A 
ATOM     91  F   UNL A   1      45.970  30.344  33.436  1.00  0.00    -0.203 F 
ATOM     92  F   UNL A   1      46.267  26.155  36.919  1.00  0.00    -0.200 F 
ATOM     93  C   UNL A   1      47.266  28.043  35.911  1.00  0.00     0.200 A 
ATOM     94  F   UNL A   1      48.218  29.947  34.888  1.00  0.00    -0.200 F 
ATOM     95  F   UNL A   1      48.373  27.867  36.646  1.00  0.00    -0.200 F 
ENDBRANCH  62  85
ENDBRANCH  36  37
ENDBRANCH  28  31
ENDBRANCH  26  27
ENDBRANCH   1  26
TORSDOF 12
ENDMDL
MODEL 2
REMARK VINA RESULT:     -12.9      0.313      1.701
REMARK SMILES COc1ccc([C@@H]2CC[NH2+][C@H]2C(=O)NCCCNC(=O)c2ccc(-c3c4nc(c(-c5c(F)c(F)c(F)c(F)c5F)c5ccc([nH]5)c(-c5c(F)c(F)c(F)c(F)c5F)c5nc(c(-c6c(F)c(F)c(F)c(F)c6F)c6ccc3[nH]6)C=C5)C=C4)cc2)c2ccccc12
REMARK SMILES IDX 16 1 15 2 14 3 12 4 13 5 11 7 7 8 8 9 9 10 10 11 6 14 3 15
REMARK SMILES IDX 4 16 89 17 5 18 84 19 88 20 85 21 87 22 86 23 2 24 1 25
REMARK SMILES IDX 17 26 18 27 19 28 20 30 21 31 22 32 83 33 23 34 82 35 24 36
REMARK SMILES IDX 25 37 26 38 76 39 27 40 81 41 75 42 77 43 28 44 80 45 74 46
REMARK SMILES IDX 73 47 29 49 61 50 41 51 60 52 42 53 45 54 59 55 78 56 43 57
REMARK SMILES IDX 44 58 58 60 79 61 46 62 30 63 31 64 39 65 32 66 33 67 37 68
REMARK SMILES IDX 40 69 34 70 35 71 38 72 36 73 62 74 63 75 71 76 64 77 65 78
REMARK SMILES IDX 69 79 72 80 66 81 67 82 70 83 68 84 47 85 48 86 56 87 49 88
REMARK SMILES IDX 50 89 54 90 57 91 51 92 52 93 55 94 53 95
REMARK H PARENT 14 6 10 12 10 13 18 29 77 48 45 59
REMARK Flexibility Score: inf
ROOT
ATOM      1  C   UNL A   1      33.665  28.742  23.498  1.00  0.00     0.042 C 
ENDROOT
BRANCH   1   2
ATOM      2  C   UNL A   1      32.463  28.059  22.857  1.00  0.00     0.118 C 
BRANCH   2   3
ATOM      3  N   UNL A   1      32.847  27.154  21.790  1.00  0.00    -0.351 N 
ATOM      4  C   UNL A   1      32.786  25.799  21.661  1.00  0.00     0.278 C 
ATOM      5  O   UNL A   1      33.270  25.331  20.625  1.00  0.00    -0.268 OA
ATOM      6  H   UNL A   1      33.226  27.609  21.005  1.00  0.00     0.163 HD
BRANCH   4   7
ATOM      7  C   UNL A   1      32.181  24.868  22.734  1.00  0.00     0.280 C 
ATOM      8  C   UNL A   1      33.147  24.574  23.893  1.00  0.00     0.094 C 
ATOM      9  C   UNL A   1      32.462  25.176  25.124  1.00  0.00     0.076 C 
ATOM     10  C   UNL A   1      30.999  25.340  24.748  1.00  0.00     0.262 C 
ATOM     11  N   UNL A   1      30.916  25.405  23.291  1.00  0.00    -0.335 N 
ATOM     12  H   UNL A   1      30.791  26.372  22.995  1.00  0.00     0.346 HD
ATOM     13  H   UNL A   1      30.123  24.858  22.958  1.00  0.00     0.346 HD
BRANCH   8  14
ATOM     14  C   UNL A   1      33.437  23.080  24.089  1.00  0.00    -0.030 A 
ATOM     15  C   UNL A   1      33.776  20.303  24.472  1.00  0.00     0.126 A 
ATOM     16  C   UNL A   1      32.526  20.814  24.138  1.00  0.00     0.047 A 
ATOM     17  C   UNL A   1      34.881  21.167  24.642  1.00  0.00     0.024 A 
ATOM     18  C   UNL A   1      32.365  22.178  23.941  1.00  0.00     0.009 A 
ATOM     19  C   UNL A   1      34.727  22.571  24.441  1.00  0.00    -0.011 A 
ATOM     20  C   UNL A   1      36.147  20.652  24.999  1.00  0.00     0.012 A 
ATOM     21  C   UNL A   1      35.886  23.374  24.608  1.00  0.00     0.009 A 
ATOM     22  C   UNL A   1      37.260  21.474  25.155  1.00  0.00     0.001 A 
ATOM     23  C   UNL A   1      37.129  22.837  24.957  1.00  0.00     0.001 A 
BRANCH  15  24
ATOM     24  O   UNL A   1      33.967  18.960  24.703  1.00  0.00    -0.496 OA
ATOM     25  C   UNL A   1      32.887  18.316  25.374  1.00  0.00     0.278 C 
ENDBRANCH  15  24
ENDBRANCH   8  14
ENDBRANCH   4   7
ENDBRANCH   2   3
ENDBRANCH   1   2
BRANCH   1  26
ATOM     26  C   UNL A   1      33.585  28.814  25.019  1.00  0.00     0.118 C 
BRANCH  26  27
ATOM     27  N   UNL A   1      32.977  30.056  25.480  1.00  0.00    -0.352 N 
ATOM     28  C   UNL A   1      33.248  30.820  26.583  1.00  0.00     0.251 C 
ATOM     29  H   UNL A   1      32.256  30.401  24.906  1.00  0.00     0.163 HD
ATOM     30  O   UNL A   1      32.461  31.715  26.908  1.00  0.00    -0.269 OA
BRANCH  28  31
ATOM     31  C   UNL A   1      34.459  30.587  27.396  1.00  0.00     0.039 A 
ATOM     32  C   UNL A   1      34.651  29.332  27.981  1.00  0.00     0.014 A 
ATOM     33  C   UNL A   1      35.380  31.612  27.629  1.00  0.00     0.014 A 
ATOM     34  C   UNL A   1      35.791  29.089  28.751  1.00  0.00     0.010 A 
ATOM     35  C   UNL A   1      36.553  31.348  28.332  1.00  0.00     0.010 A 
ATOM     36  C   UNL A   1      36.766  30.087  28.908  1.00  0.00    -0.014 A 
BRANCH  36  37
ATOM     37  C   UNL A   1      38.005  29.843  29.687  1.00  0.00     0.031 A 
ATOM     38  C   UNL A   1      39.063  28.921  29.144  1.00  0.00     0.074 A 
ATOM     39  C   UNL A   1      38.151  30.400  30.904  1.00  0.00     0.049 A 
ATOM     40  N   UNL A   1      40.160  28.490  29.715  1.00  0.00    -0.248 NA
ATOM     41  C   UNL A   1      38.847  28.394  27.787  1.00  0.00     0.031 C 
ATOM     42  C   UNL A   1      37.184  31.288  31.551  1.00  0.00     0.029 A 
ATOM     43  N   UNL A   1      39.166  30.291  31.822  1.00  0.00    -0.354 N 
ATOM     44  C   UNL A   1      40.755  27.639  28.794  1.00  0.00     0.074 A 
ATOM     45  C   UNL A   1      39.875  27.570  27.648  1.00  0.00     0.031 C 
ATOM     46  C   UNL A   1      37.658  31.655  32.753  1.00  0.00     0.029 A 
ATOM     47  C   UNL A   1      38.942  30.999  32.979  1.00  0.00     0.049 A 
ATOM     48  H   UNL A   1      39.978  29.756  31.667  1.00  0.00     0.167 HD
ATOM     49  C   UNL A   1      41.943  26.994  28.884  1.00  0.00     0.037 A 
ATOM     50  C   UNL A   1      39.684  31.094  34.098  1.00  0.00     0.037 A 
ATOM     51  C   UNL A   1      42.829  27.083  30.015  1.00  0.00     0.049 A 
ATOM     52  C   UNL A   1      40.990  30.350  34.177  1.00  0.00     0.074 A 
ATOM     53  C   UNL A   1      44.062  26.479  30.196  1.00  0.00     0.029 A 
ATOM     54  N   UNL A   1      42.578  27.832  31.155  1.00  0.00    -0.354 N 
ATOM     55  N   UNL A   1      41.558  29.575  33.285  1.00  0.00    -0.248 NA
ATOM     56  C   UNL A   1      41.761  30.497  35.420  1.00  0.00     0.031 C 
ATOM     57  C   UNL A   1      44.545  26.843  31.457  1.00  0.00     0.029 A 
ATOM     58  C   UNL A   1      43.633  27.704  32.044  1.00  0.00     0.049 A 
ATOM     59  H   UNL A   1      41.772  28.374  31.309  1.00  0.00     0.167 HD
ATOM     60  C   UNL A   1      42.765  29.175  33.841  1.00  0.00     0.074 A 
ATOM     61  C   UNL A   1      42.854  29.801  35.143  1.00  0.00     0.031 C 
ATOM     62  C   UNL A   1      43.715  28.360  33.322  1.00  0.00     0.037 A 
BRANCH  49  63
ATOM     63  C   UNL A   1      42.369  26.151  27.718  1.00  0.00     0.064 A 
ATOM     64  C   UNL A   1      43.280  26.632  26.766  1.00  0.00     0.173 A 
ATOM     65  C   UNL A   1      41.905  24.835  27.577  1.00  0.00     0.173 A 
ATOM     66  F   UNL A   1      43.743  27.890  26.850  1.00  0.00    -0.203 F 
ATOM     67  C   UNL A   1      43.700  25.833  25.707  1.00  0.00     0.198 A 
ATOM     68  C   UNL A   1      42.348  24.029  26.532  1.00  0.00     0.198 A 
ATOM     69  F   UNL A   1      41.035  24.326  28.462  1.00  0.00    -0.203 F 
ATOM     70  F   UNL A   1      44.543  26.326  24.790  1.00  0.00    -0.200 F 
ATOM     71  C   UNL A   1      43.240  24.530  25.595  1.00  0.00     0.200 A 
ATOM     72  F   UNL A   1      41.912  22.766  26.431  1.00  0.00    -0.200 F 
ATOM     73  F   UNL A   1      43.655  23.757  24.582  1.00  0.00    -0.200 F 
ENDBRANCH  49  63
BRANCH  50  74
ATOM     74  C   UNL A   1      39.226  31.936  35.234  1.00  0.00     0.064 A 
ATOM     75  C   UNL A   1      38.469  31.384  36.278  1.00  0.00     0.173 A 
ATOM     76  C   UNL A   1      39.501  33.310  35.285  1.00  0.00     0.173 A 
ATOM     77  F   UNL A   1      38.162  30.078  36.263  1.00  0.00    -0.203 F 
ATOM     78  C   UNL A   1      37.974  32.180  37.308  1.00  0.00     0.198 A 
ATOM     79  C   UNL A   1      39.032  34.100  36.333  1.00  0.00     0.198 A 
ATOM     80  F   UNL A   1      40.226  33.887  34.315  1.00  0.00    -0.203 F 
ATOM     81  F   UNL A   1      37.202  31.636  38.259  1.00  0.00    -0.200 F 
ATOM     82  C   UNL A   1      38.258  33.537  37.337  1.00  0.00     0.200 A 
ATOM     83  F   UNL A   1      39.319  35.408  36.363  1.00  0.00    -0.200 F 
ATOM     84  F   UNL A   1      37.777  34.303  38.324  1.00  0.00    -0.200 F 
ENDBRANCH  50  74
BRANCH  62  85
ATOM     85  C   UNL A   1      44.955  28.144  34.137  1.00  0.00     0.064 A 
ATOM     86  C   UNL A   1      45.063  27.082  35.046  1.00  0.00     0.173 A 
ATOM     87  C   UNL A   1      46.062  28.991  33.977  1.00  0.00     0.173 A 
ATOM     88  F   UNL A   1      44.026  26.255  35.246  1.00  0.00    -0.203 F 
ATOM     89  C   UNL A   1      46.228  26.890  35.785  1.00  0.00     0.198 A 
ATOM     90  C   UNL A   1      47.234  28.779  34.696  1.00  0.00     0.198 A 
ATOM     91  F   UNL A   1      46.009  30.017  33.115  1.00  0.00    -0.203 F 
ATOM     92  F   UNL A   1      46.294  25.897  36.681  1.00  0.00    -0.200 F 
ATOM     93  C   UNL A   1      47.314  27.735  35.604  1.00  0.00     0.200 A 
ATOM     94  F   UNL A   1      48.287  29.589  34.512  1.00  0.00    -0.200 F 
ATOM     95  F   UNL A   1      48.437  27.544  36.311  1.00  0.00    -0.200 F 
ENDBRANCH  62  85
ENDBRANCH  36  37
ENDBRANCH  28  31
ENDBRANCH  26  27
ENDBRANCH   1  26
TORSDOF 12
ENDMDL
MODEL 3
REMARK VINA RESULT:     -12.8      4.535      9.593
REMARK SMILES COc1ccc([C@@H]2CC[NH2+][C@H]2C(=O)NCCCNC(=O)c2ccc(-c3c4nc(c(-c5c(F)c(F)c(F)c(F)c5F)c5ccc([nH]5)c(-c5c(F)c(F)c(F)c(F)c5F)c5nc(c(-c6c(F)c(F)c(F)c(F)c6F)c6ccc3[nH]6)C=C5)C=C4)cc2)c2ccccc12
REMARK SMILES IDX 16 1 15 2 14 3 12 4 13 5 11 7 7 8 8 9 9 10 10 11 6 14 3 15
REMARK SMILES IDX 4 16 89 17 5 18 84 19 88 20 85 21 87 22 86 23 2 24 1 25
REMARK SMILES IDX 17 26 18 27 19 28 20 30 21 31 22 32 83 33 23 34 82 35 24 36
REMARK SMILES IDX 25 37 26 38 76 39 27 40 81 41 75 42 77 43 28 44 80 45 74 46
REMARK SMILES IDX 73 47 29 49 61 50 41 51 60 52 42 53 45 54 59 55 78 56 43 57
REMARK SMILES IDX 44 58 58 60 79 61 46 62 30 63 31 64 39 65 32 66 33 67 37 68
REMARK SMILES IDX 40 69 34 70 35 71 38 72 36 73 62 74 63 75 71 76 64 77 65 78
REMARK SMILES IDX 69 79 72 80 66 81 67 82 70 83 68 84 47 85 48 86 56 87 49 88
REMARK SMILES IDX 50 89 54 90 57 91 51 92 52 93 55 94 53 95
REMARK H PARENT 14 6 10 12 10 13 18 29 77 48 45 59
REMARK Flexibility Score: inf
ROOT
ATOM      1  C   UNL A   1      38.244  19.680  24.928  1.00  0.00     0.042 C 
ENDROOT
BRANCH   1   2
ATOM      2  C   UNL A   1      37.404  20.901  24.573  1.00  0.00     0.118 C 
BRANCH   2   3
ATOM      3  N   UNL A   1      37.987  22.134  25.068  1.00  0.00    -0.351 N 
ATOM      4  C   UNL A   1      37.451  23.235  25.668  1.00  0.00     0.278 C 
ATOM      5  O   UNL A   1      38.237  24.158  25.907  1.00  0.00    -0.268 OA
ATOM      6  H   UNL A   1      38.962  22.187  24.945  1.00  0.00     0.163 HD
BRANCH   4   7
ATOM      7  C   UNL A   1      35.954  23.369  26.018  1.00  0.00     0.280 C 
ATOM      8  C   UNL A   1      35.052  23.499  24.779  1.00  0.00     0.094 C 
ATOM      9  C   UNL A   1      34.166  22.252  24.818  1.00  0.00     0.076 C 
ATOM     10  C   UNL A   1      34.234  21.736  26.245  1.00  0.00     0.262 C 
ATOM     11  N   UNL A   1      35.468  22.237  26.844  1.00  0.00    -0.335 N 
ATOM     12  H   UNL A   1      36.170  21.496  26.860  1.00  0.00     0.346 HD
ATOM     13  H   UNL A   1      35.299  22.544  27.800  1.00  0.00     0.346 HD
BRANCH   8  14
ATOM     14  C   UNL A   1      34.212  24.783  24.762  1.00  0.00    -0.030 A 
ATOM     15  C   UNL A   1      32.668  27.141  24.930  1.00  0.00     0.126 A 
ATOM     16  C   UNL A   1      33.392  26.702  26.033  1.00  0.00     0.047 A 
ATOM     17  C   UNL A   1      32.680  26.404  23.724  1.00  0.00     0.024 A 
ATOM     18  C   UNL A   1      34.158  25.549  25.944  1.00  0.00     0.009 A 
ATOM     19  C   UNL A   1      33.464  25.216  23.621  1.00  0.00    -0.011 A 
ATOM     20  C   UNL A   1      31.930  26.838  22.609  1.00  0.00     0.012 A 
ATOM     21  C   UNL A   1      33.446  24.540  22.374  1.00  0.00     0.009 A 
ATOM     22  C   UNL A   1      31.936  26.145  21.401  1.00  0.00     0.001 A 
ATOM     23  C   UNL A   1      32.698  24.995  21.284  1.00  0.00     0.001 A 
BRANCH  15  24
ATOM     24  O   UNL A   1      31.875  28.264  24.989  1.00  0.00    -0.496 OA
ATOM     25  C   UNL A   1      31.816  28.880  26.273  1.00  0.00     0.278 C 
ENDBRANCH  15  24
ENDBRANCH   8  14
ENDBRANCH   4   7
ENDBRANCH   2   3
ENDBRANCH   1   2
BRANCH   1  26
ATOM     26  C   UNL A   1      39.256  19.939  26.038  1.00  0.00     0.118 C 
BRANCH  26  27
ATOM     27  N   UNL A   1      40.420  19.068  25.935  1.00  0.00    -0.352 N 
ATOM     28  C   UNL A   1      41.756  19.364  25.989  1.00  0.00     0.251 C 
ATOM     29  H   UNL A   1      40.214  18.115  25.805  1.00  0.00     0.163 HD
ATOM     30  O   UNL A   1      42.580  18.507  25.652  1.00  0.00    -0.269 OA
BRANCH  28  31
ATOM     31  C   UNL A   1      42.228  20.690  26.435  1.00  0.00     0.039 A 
ATOM     32  C   UNL A   1      42.612  21.631  25.475  1.00  0.00     0.014 A 
ATOM     33  C   UNL A   1      42.348  20.995  27.794  1.00  0.00     0.014 A 
ATOM     34  C   UNL A   1      43.059  22.892  25.874  1.00  0.00     0.010 A 
ATOM     35  C   UNL A   1      42.720  22.276  28.190  1.00  0.00     0.010 A 
ATOM     36  C   UNL A   1      43.088  23.235  27.235  1.00  0.00    -0.014 A 
BRANCH  36  37
ATOM     37  C   UNL A   1      43.521  24.582  27.685  1.00  0.00     0.031 A 
ATOM     38  C   UNL A   1      42.492  25.628  28.015  1.00  0.00     0.074 A 
ATOM     39  C   UNL A   1      44.833  24.880  27.738  1.00  0.00     0.049 A 
ATOM     40  N   UNL A   1      42.660  26.891  28.317  1.00  0.00    -0.248 NA
ATOM     41  C   UNL A   1      41.083  25.204  27.980  1.00  0.00     0.031 C 
ATOM     42  C   UNL A   1      45.925  23.961  27.415  1.00  0.00     0.029 A 
ATOM     43  N   UNL A   1      45.471  26.049  28.071  1.00  0.00    -0.354 N 
ATOM     44  C   UNL A   1      41.385  27.411  28.496  1.00  0.00     0.074 A 
ATOM     45  C   UNL A   1      40.449  26.344  28.218  1.00  0.00     0.031 C 
ATOM     46  C   UNL A   1      47.097  24.594  27.580  1.00  0.00     0.029 A 
ATOM     47  C   UNL A   1      46.841  25.973  27.983  1.00  0.00     0.049 A 
ATOM     48  H   UNL A   1      44.994  26.864  28.348  1.00  0.00     0.167 HD
ATOM     49  C   UNL A   1      41.028  28.659  28.883  1.00  0.00     0.037 A 
ATOM     50  C   UNL A   1      47.779  26.916  28.189  1.00  0.00     0.037 A 
ATOM     51  C   UNL A   1      41.961  29.713  29.182  1.00  0.00     0.049 A 
ATOM     52  C   UNL A   1      47.350  28.300  28.600  1.00  0.00     0.074 A 
ATOM     53  C   UNL A   1      41.698  31.007  29.597  1.00  0.00     0.029 A 
ATOM     54  N   UNL A   1      43.340  29.588  29.106  1.00  0.00    -0.354 N 
ATOM     55  N   UNL A   1      46.142  28.768  28.799  1.00  0.00    -0.248 NA
ATOM     56  C   UNL A   1      48.418  29.286  28.819  1.00  0.00     0.031 C 
ATOM     57  C   UNL A   1      42.919  31.673  29.747  1.00  0.00     0.029 A 
ATOM     58  C   UNL A   1      43.941  30.783  29.465  1.00  0.00     0.049 A 
ATOM     59  H   UNL A   1      43.820  28.772  28.838  1.00  0.00     0.167 HD
ATOM     60  C   UNL A   1      46.306  30.086  29.201  1.00  0.00     0.074 A 
ATOM     61  C   UNL A   1      47.731  30.341  29.229  1.00  0.00     0.031 C 
ATOM     62  C   UNL A   1      45.362  31.006  29.516  1.00  0.00     0.037 A 
BRANCH  49  63
ATOM     63  C   UNL A   1      39.563  28.949  29.030  1.00  0.00     0.064 A 
ATOM     64  C   UNL A   1      38.923  28.854  30.274  1.00  0.00     0.173 A 
ATOM     65  C   UNL A   1      38.803  29.378  27.932  1.00  0.00     0.173 A 
ATOM     66  F   UNL A   1      39.603  28.435  31.353  1.00  0.00    -0.203 F 
ATOM     67  C   UNL A   1      37.572  29.161  30.411  1.00  0.00     0.198 A 
ATOM     68  C   UNL A   1      37.459  29.710  28.078  1.00  0.00     0.198 A 
ATOM     69  F   UNL A   1      39.368  29.489  26.720  1.00  0.00    -0.203 F 
ATOM     70  F   UNL A   1      36.974  29.027  31.603  1.00  0.00    -0.200 F 
ATOM     71  C   UNL A   1      36.844  29.597  29.316  1.00  0.00     0.200 A 
ATOM     72  F   UNL A   1      36.758  30.143  27.020  1.00  0.00    -0.200 F 
ATOM     73  F   UNL A   1      35.547  29.904  29.452  1.00  0.00    -0.200 F 
ENDBRANCH  49  63
BRANCH  50  74
ATOM     74  C   UNL A   1      49.220  26.591  28.030  1.00  0.00     0.064 A 
ATOM     75  C   UNL A   1      50.020  26.306  29.146  1.00  0.00     0.173 A 
ATOM     76  C   UNL A   1      49.837  26.594  26.770  1.00  0.00     0.173 A 
ATOM     77  F   UNL A   1      49.481  26.312  30.374  1.00  0.00    -0.203 F 
ATOM     78  C   UNL A   1      51.387  26.071  29.012  1.00  0.00     0.198 A 
ATOM     79  C   UNL A   1      51.198  26.328  26.634  1.00  0.00     0.198 A 
ATOM     80  F   UNL A   1      49.116  26.854  25.669  1.00  0.00    -0.203 F 
ATOM     81  F   UNL A   1      52.138  25.862  30.102  1.00  0.00    -0.200 F 
ATOM     82  C   UNL A   1      51.975  26.080  27.756  1.00  0.00     0.200 A 
ATOM     83  F   UNL A   1      51.760  26.326  25.418  1.00  0.00    -0.200 F 
ATOM     84  F   UNL A   1      53.289  25.861  27.628  1.00  0.00    -0.200 F 
ENDBRANCH  50  74
BRANCH  62  85
ATOM     85  C   UNL A   1      45.839  32.352  29.972  1.00  0.00     0.064 A 
ATOM     86  C   UNL A   1      46.114  32.619  31.321  1.00  0.00     0.173 A 
ATOM     87  C   UNL A   1      46.060  33.377  29.039  1.00  0.00     0.173 A 
ATOM     88  F   UNL A   1      45.903  31.676  32.252  1.00  0.00    -0.203 F 
ATOM     89  C   UNL A   1      46.568  33.872  31.724  1.00  0.00     0.198 A 
ATOM     90  C   UNL A   1      46.541  34.619  29.442  1.00  0.00     0.198 A 
ATOM     91  F   UNL A   1      45.818  33.169  27.737  1.00  0.00    -0.203 F 
ATOM     92  F   UNL A   1      46.779  34.120  33.023  1.00  0.00    -0.200 F 
ATOM     93  C   UNL A   1      46.787  34.868  30.783  1.00  0.00     0.200 A 
ATOM     94  F   UNL A   1      46.764  35.577  28.531  1.00  0.00    -0.200 F 
ATOM     95  F   UNL A   1      47.232  36.071  31.172  1.00  0.00    -0.200 F 
ENDBRANCH  62  85
ENDBRANCH  36  37
ENDBRANCH  28  31
ENDBRANCH  26  27
ENDBRANCH   1  26
TORSDOF 12
ENDMDL
