MODEL 1
REMARK VINA RESULT:     -11.4      0.000      0.000
REMARK SMILES O=C(NCCCNC(=O)c1cnc(-c2ccccc2Cl)nc1)c1ccc(-c2c3nc(c(-c4c(F)c(F)c(F)c(F)c4F)c4ccc([nH]4)c(-c4c(F)c(F)c(F)c(F)c4F)c4nc(c(-c5c(F)c(F)c(F)c(F)c5F)c5ccc2[nH]5)C=C4)C=C3)cc1
REMARK SMILES IDX 4 1 3 2 1 3 2 4 23 6 24 7 85 8 25 9 84 10 26 11 27 12 28 13
REMARK SMILES IDX 78 14 29 15 83 16 77 17 79 18 30 19 82 20 76 21 75 22 31 24
REMARK SMILES IDX 63 25 43 26 62 27 44 28 47 29 61 30 80 31 45 32 46 33 60 35
REMARK SMILES IDX 81 36 48 37 32 38 33 39 41 40 34 41 35 42 39 43 42 44 36 45
REMARK SMILES IDX 37 46 40 47 38 48 64 49 65 50 73 51 66 52 67 53 71 54 74 55
REMARK SMILES IDX 68 56 69 57 72 58 70 59 49 60 50 61 58 62 51 63 52 64 56 65
REMARK SMILES IDX 59 66 53 67 54 68 57 69 55 70 5 71 6 72 7 73 8 74 9 76 10 77
REMARK SMILES IDX 11 78 22 79 12 80 21 81 13 82 14 83 15 84 19 85 16 86 18 87
REMARK SMILES IDX 20 88 17 89
REMARK H PARENT 3 5 79 23 47 34 7 75
REMARK Flexibility Score: inf
ROOT
ATOM      1  C   UNL A   1      40.921  21.648  26.295  1.00  0.00     0.118 C 
ENDROOT
BRANCH   1   2
ATOM      2  N   UNL A   1      39.547  21.941  25.908  1.00  0.00    -0.352 N 
ATOM      3  O   UNL A   1      37.552  22.977  25.900  1.00  0.00    -0.269 OA
ATOM      4  C   UNL A   1      38.748  23.027  26.174  1.00  0.00     0.251 C 
ATOM      5  H   UNL A   1      39.118  21.243  25.363  1.00  0.00     0.163 HD
BRANCH   4   6
ATOM      6  C   UNL A   1      39.303  24.244  26.807  1.00  0.00     0.039 A 
ATOM      7  C   UNL A   1      39.248  24.431  28.188  1.00  0.00     0.014 A 
ATOM      8  C   UNL A   1      39.927  25.202  26.001  1.00  0.00     0.014 A 
ATOM      9  C   UNL A   1      39.651  25.643  28.739  1.00  0.00     0.010 A 
ATOM     10  C   UNL A   1      40.423  26.379  26.570  1.00  0.00     0.010 A 
ATOM     11  C   UNL A   1      40.248  26.629  27.939  1.00  0.00    -0.014 A 
BRANCH  11  12
ATOM     12  C   UNL A   1      40.698  27.900  28.566  1.00  0.00     0.031 A 
ATOM     13  C   UNL A   1      42.155  28.157  28.832  1.00  0.00     0.074 A 
ATOM     14  C   UNL A   1      39.783  28.844  28.855  1.00  0.00     0.049 A 
ATOM     15  N   UNL A   1      42.728  29.227  29.326  1.00  0.00    -0.248 NA
ATOM     16  C   UNL A   1      43.094  27.073  28.513  1.00  0.00     0.031 C 
ATOM     17  C   UNL A   1      38.339  28.707  28.654  1.00  0.00     0.029 A 
ATOM     18  N   UNL A   1      39.930  30.114  29.354  1.00  0.00    -0.354 N 
ATOM     19  C   UNL A   1      44.084  28.935  29.402  1.00  0.00     0.074 A 
ATOM     20  C   UNL A   1      44.248  27.578  28.926  1.00  0.00     0.031 C 
ATOM     21  C   UNL A   1      37.740  29.864  28.968  1.00  0.00     0.029 A 
ATOM     22  C   UNL A   1      38.747  30.805  29.447  1.00  0.00     0.049 A 
ATOM     23  H   UNL A   1      40.799  30.493  29.621  1.00  0.00     0.167 HD
ATOM     24  C   UNL A   1      45.098  29.729  29.821  1.00  0.00     0.037 A 
ATOM     25  C   UNL A   1      38.499  32.058  29.871  1.00  0.00     0.037 A 
ATOM     26  C   UNL A   1      44.936  31.089  30.266  1.00  0.00     0.049 A 
ATOM     27  C   UNL A   1      39.642  32.914  30.332  1.00  0.00     0.074 A 
ATOM     28  C   UNL A   1      45.909  31.991  30.665  1.00  0.00     0.029 A 
ATOM     29  N   UNL A   1      43.718  31.746  30.371  1.00  0.00    -0.354 N 
ATOM     30  N   UNL A   1      40.923  32.639  30.363  1.00  0.00    -0.248 NA
ATOM     31  C   UNL A   1      39.303  34.257  30.821  1.00  0.00     0.031 C 
ATOM     32  C   UNL A   1      45.276  33.177  31.053  1.00  0.00     0.029 A 
ATOM     33  C   UNL A   1      43.913  33.033  30.849  1.00  0.00     0.049 A 
ATOM     34  H   UNL A   1      42.844  31.356  30.141  1.00  0.00     0.167 HD
ATOM     35  C   UNL A   1      41.546  33.778  30.848  1.00  0.00     0.074 A 
ATOM     36  C   UNL A   1      40.503  34.755  31.087  1.00  0.00     0.031 C 
ATOM     37  C   UNL A   1      42.865  33.996  31.074  1.00  0.00     0.037 A 
BRANCH  24  38
ATOM     38  C   UNL A   1      46.479  29.138  29.842  1.00  0.00     0.064 A 
ATOM     39  C   UNL A   1      46.991  28.489  30.977  1.00  0.00     0.173 A 
ATOM     40  C   UNL A   1      47.291  29.197  28.699  1.00  0.00     0.173 A 
ATOM     41  F   UNL A   1      46.261  28.416  32.099  1.00  0.00    -0.203 F 
ATOM     42  C   UNL A   1      48.274  27.947  30.974  1.00  0.00     0.198 A 
ATOM     43  C   UNL A   1      48.563  28.629  28.691  1.00  0.00     0.198 A 
ATOM     44  F   UNL A   1      46.849  29.799  27.585  1.00  0.00    -0.203 F 
ATOM     45  F   UNL A   1      48.760  27.376  32.085  1.00  0.00    -0.200 F 
ATOM     46  C   UNL A   1      49.057  28.012  29.831  1.00  0.00     0.200 A 
ATOM     47  F   UNL A   1      49.312  28.682  27.581  1.00  0.00    -0.200 F 
ATOM     48  F   UNL A   1      50.290  27.488  29.830  1.00  0.00    -0.200 F 
ENDBRANCH  24  38
BRANCH  25  49
ATOM     49  C   UNL A   1      37.108  32.578  29.852  1.00  0.00     0.064 A 
ATOM     50  C   UNL A   1      36.263  32.408  30.956  1.00  0.00     0.173 A 
ATOM     51  C   UNL A   1      36.606  33.273  28.744  1.00  0.00     0.173 A 
ATOM     52  F   UNL A   1      36.695  31.733  32.032  1.00  0.00    -0.203 F 
ATOM     53  C   UNL A   1      34.963  32.906  30.949  1.00  0.00     0.198 A 
ATOM     54  C   UNL A   1      35.314  33.795  28.747  1.00  0.00     0.198 A 
ATOM     55  F   UNL A   1      37.378  33.467  27.664  1.00  0.00    -0.203 F 
ATOM     56  F   UNL A   1      34.164  32.700  32.004  1.00  0.00    -0.200 F 
ATOM     57  C   UNL A   1      34.491  33.606  29.848  1.00  0.00     0.200 A 
ATOM     58  F   UNL A   1      34.869  34.484  27.688  1.00  0.00    -0.200 F 
ATOM     59  F   UNL A   1      33.244  34.094  29.846  1.00  0.00    -0.200 F 
ENDBRANCH  25  49
BRANCH  37  60
ATOM     60  C   UNL A   1      43.256  35.357  31.570  1.00  0.00     0.064 A 
ATOM     61  C   UNL A   1      43.206  35.687  32.932  1.00  0.00     0.173 A 
ATOM     62  C   UNL A   1      43.706  36.335  30.670  1.00  0.00     0.173 A 
ATOM     63  F   UNL A   1      42.767  34.793  33.829  1.00  0.00    -0.203 F 
ATOM     64  C   UNL A   1      43.566  36.959  33.373  1.00  0.00     0.198 A 
ATOM     65  C   UNL A   1      44.092  37.596  31.118  1.00  0.00     0.198 A 
ATOM     66  F   UNL A   1      43.776  36.066  29.358  1.00  0.00    -0.203 F 
ATOM     67  F   UNL A   1      43.463  37.270  34.672  1.00  0.00    -0.200 F 
ATOM     68  C   UNL A   1      44.014  37.909  32.466  1.00  0.00     0.200 A 
ATOM     69  F   UNL A   1      44.534  38.509  30.242  1.00  0.00    -0.200 F 
ATOM     70  F   UNL A   1      44.361  39.131  32.892  1.00  0.00    -0.200 F 
ENDBRANCH  37  60
ENDBRANCH  11  12
ENDBRANCH   4   6
ENDBRANCH   1   2
BRANCH   1  71
ATOM     71  C   UNL A   1      41.291  20.184  26.094  1.00  0.00     0.042 C 
BRANCH  71  72
ATOM     72  C   UNL A   1      42.704  19.838  26.548  1.00  0.00     0.118 C 
BRANCH  72  73
ATOM     73  N   UNL A   1      43.405  19.000  25.580  1.00  0.00    -0.352 N 
ATOM     74  C   UNL A   1      44.316  19.358  24.617  1.00  0.00     0.254 C 
ATOM     75  H   UNL A   1      43.194  18.040  25.623  1.00  0.00     0.163 HD
ATOM     76  O   UNL A   1      44.641  18.566  23.739  1.00  0.00    -0.269 OA
BRANCH  74  77
ATOM     77  C   UNL A   1      44.886  20.701  24.624  1.00  0.00     0.076 A 
ATOM     78  C   UNL A   1      45.828  21.099  25.543  1.00  0.00     0.129 A 
ATOM     79  C   UNL A   1      44.500  21.648  23.708  1.00  0.00     0.129 A 
ATOM     80  N   UNL A   1      46.264  22.370  25.650  1.00  0.00    -0.236 NA
ATOM     81  N   UNL A   1      44.914  22.933  23.763  1.00  0.00    -0.236 NA
ATOM     82  C   UNL A   1      45.746  23.258  24.774  1.00  0.00     0.160 A 
BRANCH  82  83
ATOM     83  C   UNL A   1      46.098  24.666  24.985  1.00  0.00     0.038 A 
ATOM     84  C   UNL A   1      47.462  25.036  25.002  1.00  0.00     0.013 A 
ATOM     85  C   UNL A   1      45.151  25.678  25.233  1.00  0.00     0.052 A 
ATOM     86  C   UNL A   1      47.864  26.352  25.244  1.00  0.00     0.001 A 
ATOM     87  C   UNL A   1      45.557  27.000  25.469  1.00  0.00     0.021 A 
ATOM     88  Cl  UNL A   1      43.448  25.372  25.357  1.00  0.00    -0.084 Cl
ATOM     89  C   UNL A   1      46.910  27.335  25.474  1.00  0.00     0.002 A 
ENDBRANCH  82  83
ENDBRANCH  74  77
ENDBRANCH  72  73
ENDBRANCH  71  72
ENDBRANCH   1  71
TORSDOF 11
ENDMDL
MODEL 2
REMARK VINA RESULT:     -11.3      5.712     11.043
REMARK SMILES O=C(NCCCNC(=O)c1cnc(-c2ccccc2Cl)nc1)c1ccc(-c2c3nc(c(-c4c(F)c(F)c(F)c(F)c4F)c4ccc([nH]4)c(-c4c(F)c(F)c(F)c(F)c4F)c4nc(c(-c5c(F)c(F)c(F)c(F)c5F)c5ccc2[nH]5)C=C4)C=C3)cc1
REMARK SMILES IDX 4 1 3 2 1 3 2 4 23 6 24 7 85 8 25 9 84 10 26 11 27 12 28 13
REMARK SMILES IDX 78 14 29 15 83 16 77 17 79 18 30 19 82 20 76 21 75 22 31 24
REMARK SMILES IDX 63 25 43 26 62 27 44 28 47 29 61 30 80 31 45 32 46 33 60 35
REMARK SMILES IDX 81 36 48 37 32 38 33 39 41 40 34 41 35 42 39 43 42 44 36 45
REMARK SMILES IDX 37 46 40 47 38 48 64 49 65 50 73 51 66 52 67 53 71 54 74 55
REMARK SMILES IDX 68 56 69 57 72 58 70 59 49 60 50 61 58 62 51 63 52 64 56 65
REMARK SMILES IDX 59 66 53 67 54 68 57 69 55 70 5 71 6 72 7 73 8 74 9 76 10 77
REMARK SMILES IDX 11 78 22 79 12 80 21 81 13 82 14 83 15 84 19 85 16 86 18 87
REMARK SMILES IDX 20 88 17 89
REMARK H PARENT 3 5 79 23 47 34 7 75
REMARK Flexibility Score: inf
ROOT
ATOM      1  C   UNL A   1      32.510  32.829  27.190  1.00  0.00     0.118 C 
ENDROOT
BRANCH   1   2
ATOM      2  N   UNL A   1      32.363  34.203  27.654  1.00  0.00    -0.352 N 
ATOM      3  O   UNL A   1      32.599  35.996  28.988  1.00  0.00    -0.269 OA
ATOM      4  C   UNL A   1      33.017  34.894  28.645  1.00  0.00     0.251 C 
ATOM      5  H   UNL A   1      31.680  34.725  27.176  1.00  0.00     0.163 HD
BRANCH   4   6
ATOM      6  C   UNL A   1      34.203  34.320  29.319  1.00  0.00     0.039 A 
ATOM      7  C   UNL A   1      35.492  34.548  28.836  1.00  0.00     0.014 A 
ATOM      8  C   UNL A   1      34.022  33.567  30.484  1.00  0.00     0.014 A 
ATOM      9  C   UNL A   1      36.573  33.885  29.407  1.00  0.00     0.010 A 
ATOM     10  C   UNL A   1      35.123  32.981  31.117  1.00  0.00     0.010 A 
ATOM     11  C   UNL A   1      36.403  33.098  30.556  1.00  0.00    -0.014 A 
BRANCH  11  12
ATOM     12  C   UNL A   1      37.585  32.429  31.161  1.00  0.00     0.031 A 
ATOM     13  C   UNL A   1      38.033  32.762  32.557  1.00  0.00     0.074 A 
ATOM     14  C   UNL A   1      38.231  31.482  30.454  1.00  0.00     0.049 A 
ATOM     15  N   UNL A   1      39.011  32.242  33.257  1.00  0.00    -0.248 NA
ATOM     16  C   UNL A   1      37.296  33.822  33.259  1.00  0.00     0.031 C 
ATOM     17  C   UNL A   1      37.899  31.080  29.085  1.00  0.00     0.029 A 
ATOM     18  N   UNL A   1      39.282  30.668  30.794  1.00  0.00    -0.354 N 
ATOM     19  C   UNL A   1      39.023  32.927  34.464  1.00  0.00     0.074 A 
ATOM     20  C   UNL A   1      37.971  33.919  34.396  1.00  0.00     0.031 C 
ATOM     21  C   UNL A   1      38.687  30.058  28.724  1.00  0.00     0.029 A 
ATOM     22  C   UNL A   1      39.618  29.770  29.811  1.00  0.00     0.049 A 
ATOM     23  H   UNL A   1      39.750  30.723  31.658  1.00  0.00     0.167 HD
ATOM     24  C   UNL A   1      39.832  32.740  35.535  1.00  0.00     0.037 A 
ATOM     25  C   UNL A   1      40.570  28.820  29.785  1.00  0.00     0.037 A 
ATOM     26  C   UNL A   1      40.859  31.733  35.612  1.00  0.00     0.049 A 
ATOM     27  C   UNL A   1      41.454  28.636  30.984  1.00  0.00     0.074 A 
ATOM     28  C   UNL A   1      41.699  31.433  36.672  1.00  0.00     0.029 A 
ATOM     29  N   UNL A   1      41.188  30.859  34.585  1.00  0.00    -0.354 N 
ATOM     30  N   UNL A   1      41.429  29.265  32.134  1.00  0.00    -0.248 NA
ATOM     31  C   UNL A   1      42.500  27.611  30.881  1.00  0.00     0.031 C 
ATOM     32  C   UNL A   1      42.563  30.409  36.271  1.00  0.00     0.029 A 
ATOM     33  C   UNL A   1      42.231  30.036  34.979  1.00  0.00     0.049 A 
ATOM     34  H   UNL A   1      40.745  30.829  33.706  1.00  0.00     0.167 HD
ATOM     35  C   UNL A   1      42.436  28.697  32.900  1.00  0.00     0.074 A 
ATOM     36  C   UNL A   1      43.045  27.662  32.089  1.00  0.00     0.031 C 
ATOM     37  C   UNL A   1      42.821  29.005  34.163  1.00  0.00     0.037 A 
BRANCH  24  38
ATOM     38  C   UNL A   1      39.657  33.662  36.708  1.00  0.00     0.064 A 
ATOM     39  C   UNL A   1      40.302  34.906  36.776  1.00  0.00     0.173 A 
ATOM     40  C   UNL A   1      38.805  33.306  37.765  1.00  0.00     0.173 A 
ATOM     41  F   UNL A   1      41.136  35.289  35.798  1.00  0.00    -0.203 F 
ATOM     42  C   UNL A   1      40.124  35.746  37.873  1.00  0.00     0.198 A 
ATOM     43  C   UNL A   1      38.607  34.162  38.847  1.00  0.00     0.198 A 
ATOM     44  F   UNL A   1      38.158  32.133  37.747  1.00  0.00    -0.203 F 
ATOM     45  F   UNL A   1      40.789  36.908  37.940  1.00  0.00    -0.200 F 
ATOM     46  C   UNL A   1      39.273  35.377  38.904  1.00  0.00     0.200 A 
ATOM     47  F   UNL A   1      37.775  33.808  39.836  1.00  0.00    -0.200 F 
ATOM     48  F   UNL A   1      39.101  36.187  39.957  1.00  0.00    -0.200 F 
ENDBRANCH  24  38
BRANCH  25  49
ATOM     49  C   UNL A   1      40.714  27.956  28.586  1.00  0.00     0.064 A 
ATOM     50  C   UNL A   1      41.526  28.346  27.514  1.00  0.00     0.173 A 
ATOM     51  C   UNL A   1      40.063  26.717  28.498  1.00  0.00     0.173 A 
ATOM     52  F   UNL A   1      42.154  29.530  27.545  1.00  0.00    -0.203 F 
ATOM     53  C   UNL A   1      41.675  27.532  26.393  1.00  0.00     0.198 A 
ATOM     54  C   UNL A   1      40.234  25.892  27.389  1.00  0.00     0.198 A 
ATOM     55  F   UNL A   1      39.279  26.297  29.502  1.00  0.00    -0.203 F 
ATOM     56  F   UNL A   1      42.431  27.943  25.366  1.00  0.00    -0.200 F 
ATOM     57  C   UNL A   1      41.036  26.303  26.334  1.00  0.00     0.200 A 
ATOM     58  F   UNL A   1      39.627  24.698  27.345  1.00  0.00    -0.200 F 
ATOM     59  F   UNL A   1      41.188  25.516  25.261  1.00  0.00    -0.200 F 
ENDBRANCH  25  49
BRANCH  37  60
ATOM     60  C   UNL A   1      43.927  28.185  34.758  1.00  0.00     0.064 A 
ATOM     61  C   UNL A   1      45.269  28.581  34.666  1.00  0.00     0.173 A 
ATOM     62  C   UNL A   1      43.636  26.997  35.446  1.00  0.00     0.173 A 
ATOM     63  F   UNL A   1      45.600  29.699  34.003  1.00  0.00    -0.203 F 
ATOM     64  C   UNL A   1      46.284  27.802  35.218  1.00  0.00     0.198 A 
ATOM     65  C   UNL A   1      44.651  26.236  36.021  1.00  0.00     0.198 A 
ATOM     66  F   UNL A   1      42.368  26.578  35.565  1.00  0.00    -0.203 F 
ATOM     67  F   UNL A   1      47.564  28.173  35.075  1.00  0.00    -0.200 F 
ATOM     68  C   UNL A   1      45.973  26.635  35.899  1.00  0.00     0.200 A 
ATOM     69  F   UNL A   1      44.348  25.114  36.688  1.00  0.00    -0.200 F 
ATOM     70  F   UNL A   1      46.950  25.887  36.431  1.00  0.00    -0.200 F 
ENDBRANCH  37  60
ENDBRANCH  11  12
ENDBRANCH   4   6
ENDBRANCH   1   2
BRANCH   1  71
ATOM     71  C   UNL A   1      31.261  32.304  26.494  1.00  0.00     0.042 C 
BRANCH  71  72
ATOM     72  C   UNL A   1      31.402  30.883  25.964  1.00  0.00     0.118 C 
BRANCH  72  73
ATOM     73  N   UNL A   1      30.576  30.649  24.785  1.00  0.00    -0.352 N 
ATOM     74  C   UNL A   1      30.677  29.666  23.831  1.00  0.00     0.254 C 
ATOM     75  H   UNL A   1      29.840  31.288  24.653  1.00  0.00     0.163 HD
ATOM     76  O   UNL A   1      30.043  29.742  22.784  1.00  0.00    -0.269 OA
BRANCH  74  77
ATOM     77  C   UNL A   1      31.565  28.529  24.055  1.00  0.00     0.076 A 
ATOM     78  C   UNL A   1      32.858  28.498  23.588  1.00  0.00     0.129 A 
ATOM     79  C   UNL A   1      31.145  27.418  24.743  1.00  0.00     0.129 A 
ATOM     80  N   UNL A   1      33.645  27.407  23.666  1.00  0.00    -0.236 NA
ATOM     81  N   UNL A   1      31.898  26.302  24.860  1.00  0.00    -0.236 NA
ATOM     82  C   UNL A   1      33.108  26.322  24.265  1.00  0.00     0.160 A 
BRANCH  82  83
ATOM     83  C   UNL A   1      33.900  25.089  24.215  1.00  0.00     0.038 A 
ATOM     84  C   UNL A   1      34.798  24.807  25.269  1.00  0.00     0.013 A 
ATOM     85  C   UNL A   1      33.865  24.182  23.138  1.00  0.00     0.052 A 
ATOM     86  C   UNL A   1      35.613  23.673  25.258  1.00  0.00     0.001 A 
ATOM     87  C   UNL A   1      34.680  23.040  23.132  1.00  0.00     0.021 A 
ATOM     88  Cl  UNL A   1      32.904  24.437  21.716  1.00  0.00    -0.084 Cl
ATOM     89  C   UNL A   1      35.552  22.787  24.190  1.00  0.00     0.002 A 
ENDBRANCH  82  83
ENDBRANCH  74  77
ENDBRANCH  72  73
ENDBRANCH  71  72
ENDBRANCH   1  71
TORSDOF 11
ENDMDL
MODEL 3
REMARK VINA RESULT:     -11.3      3.823      6.850
REMARK SMILES O=C(NCCCNC(=O)c1cnc(-c2ccccc2Cl)nc1)c1ccc(-c2c3nc(c(-c4c(F)c(F)c(F)c(F)c4F)c4ccc([nH]4)c(-c4c(F)c(F)c(F)c(F)c4F)c4nc(c(-c5c(F)c(F)c(F)c(F)c5F)c5ccc2[nH]5)C=C4)C=C3)cc1
REMARK SMILES IDX 4 1 3 2 1 3 2 4 23 6 24 7 85 8 25 9 84 10 26 11 27 12 28 13
REMARK SMILES IDX 78 14 29 15 83 16 77 17 79 18 30 19 82 20 76 21 75 22 31 24
REMARK SMILES IDX 63 25 43 26 62 27 44 28 47 29 61 30 80 31 45 32 46 33 60 35
REMARK SMILES IDX 81 36 48 37 32 38 33 39 41 40 34 41 35 42 39 43 42 44 36 45
REMARK SMILES IDX 37 46 40 47 38 48 64 49 65 50 73 51 66 52 67 53 71 54 74 55
REMARK SMILES IDX 68 56 69 57 72 58 70 59 49 60 50 61 58 62 51 63 52 64 56 65
REMARK SMILES IDX 59 66 53 67 54 68 57 69 55 70 5 71 6 72 7 73 8 74 9 76 10 77
REMARK SMILES IDX 11 78 22 79 12 80 21 81 13 82 14 83 15 84 19 85 16 86 18 87
REMARK SMILES IDX 20 88 17 89
REMARK H PARENT 3 5 79 23 47 34 7 75
REMARK Flexibility Score: inf
ROOT
ATOM      1  C   UNL A   1      38.899  20.122  25.712  1.00  0.00     0.118 C 
ENDROOT
BRANCH   1   2
ATOM      2  N   UNL A   1      39.999  19.178  25.850  1.00  0.00    -0.352 N 
ATOM      3  O   UNL A   1      42.119  18.438  25.967  1.00  0.00    -0.269 OA
ATOM      4  C   UNL A   1      41.340  19.382  26.070  1.00  0.00     0.251 C 
ATOM      5  H   UNL A   1      39.739  18.232  25.772  1.00  0.00     0.163 HD
BRANCH   4   6
ATOM      6  C   UNL A   1      41.861  20.725  26.407  1.00  0.00     0.039 A 
ATOM      7  C   UNL A   1      42.142  21.083  27.726  1.00  0.00     0.014 A 
ATOM      8  C   UNL A   1      42.108  21.636  25.374  1.00  0.00     0.014 A 
ATOM      9  C   UNL A   1      42.498  22.393  28.028  1.00  0.00     0.010 A 
ATOM     10  C   UNL A   1      42.562  22.924  25.670  1.00  0.00     0.010 A 
ATOM     11  C   UNL A   1      42.716  23.329  27.004  1.00  0.00    -0.014 A 
BRANCH  11  12
ATOM     12  C   UNL A   1      43.128  24.712  27.359  1.00  0.00     0.031 A 
ATOM     13  C   UNL A   1      44.513  25.211  27.052  1.00  0.00     0.074 A 
ATOM     14  C   UNL A   1      42.225  25.536  27.925  1.00  0.00     0.049 A 
ATOM     15  N   UNL A   1      45.025  26.401  27.249  1.00  0.00    -0.248 NA
ATOM     16  C   UNL A   1      45.452  24.250  26.457  1.00  0.00     0.031 C 
ATOM     17  C   UNL A   1      40.855  25.165  28.283  1.00  0.00     0.029 A 
ATOM     18  N   UNL A   1      42.313  26.860  28.275  1.00  0.00    -0.354 N 
ATOM     19  C   UNL A   1      46.346  26.323  26.828  1.00  0.00     0.074 A 
ATOM     20  C   UNL A   1      46.567  24.962  26.388  1.00  0.00     0.031 C 
ATOM     21  C   UNL A   1      40.212  26.247  28.744  1.00  0.00     0.029 A 
ATOM     22  C   UNL A   1      41.140  27.373  28.770  1.00  0.00     0.049 A 
ATOM     23  H   UNL A   1      43.137  27.390  28.182  1.00  0.00     0.167 HD
ATOM     24  C   UNL A   1      47.285  27.300  26.803  1.00  0.00     0.037 A 
ATOM     25  C   UNL A   1      40.841  28.614  29.198  1.00  0.00     0.037 A 
ATOM     26  C   UNL A   1      47.053  28.661  27.213  1.00  0.00     0.049 A 
ATOM     27  C   UNL A   1      41.902  29.675  29.161  1.00  0.00     0.074 A 
ATOM     28  C   UNL A   1      47.927  29.735  27.180  1.00  0.00     0.029 A 
ATOM     29  N   UNL A   1      45.858  29.137  27.734  1.00  0.00    -0.354 N 
ATOM     30  N   UNL A   1      43.135  29.598  28.725  1.00  0.00    -0.248 NA
ATOM     31  C   UNL A   1      41.528  30.998  29.679  1.00  0.00     0.031 C 
ATOM     32  C   UNL A   1      47.275  30.848  27.721  1.00  0.00     0.029 A 
ATOM     33  C   UNL A   1      45.979  30.482  28.046  1.00  0.00     0.049 A 
ATOM     34  H   UNL A   1      45.044  28.598  27.864  1.00  0.00     0.167 HD
ATOM     35  C   UNL A   1      43.678  30.864  28.891  1.00  0.00     0.074 A 
ATOM     36  C   UNL A   1      42.634  31.695  29.456  1.00  0.00     0.031 C 
ATOM     37  C   UNL A   1      44.928  31.298  28.600  1.00  0.00     0.037 A 
BRANCH  24  38
ATOM     38  C   UNL A   1      48.662  26.927  26.335  1.00  0.00     0.064 A 
ATOM     39  C   UNL A   1      49.628  26.410  27.213  1.00  0.00     0.173 A 
ATOM     40  C   UNL A   1      49.011  27.062  24.982  1.00  0.00     0.173 A 
ATOM     41  F   UNL A   1      49.350  26.272  28.518  1.00  0.00    -0.203 F 
ATOM     42  C   UNL A   1      50.900  26.069  26.757  1.00  0.00     0.198 A 
ATOM     43  C   UNL A   1      50.274  26.693  24.526  1.00  0.00     0.198 A 
ATOM     44  F   UNL A   1      48.124  27.544  24.100  1.00  0.00    -0.203 F 
ATOM     45  F   UNL A   1      51.821  25.623  27.623  1.00  0.00    -0.200 F 
ATOM     46  C   UNL A   1      51.220  26.205  25.415  1.00  0.00     0.200 A 
ATOM     47  F   UNL A   1      50.578  26.815  23.226  1.00  0.00    -0.200 F 
ATOM     48  F   UNL A   1      52.444  25.875  24.979  1.00  0.00    -0.200 F 
ENDBRANCH  24  38
BRANCH  25  49
ATOM     49  C   UNL A   1      39.468  28.916  29.674  1.00  0.00     0.064 A 
ATOM     50  C   UNL A   1      39.103  28.686  31.007  1.00  0.00     0.173 A 
ATOM     51  C   UNL A   1      38.502  29.461  28.816  1.00  0.00     0.173 A 
ATOM     52  F   UNL A   1      39.988  28.150  31.860  1.00  0.00    -0.203 F 
ATOM     53  C   UNL A   1      37.820  28.982  31.462  1.00  0.00     0.198 A 
ATOM     54  C   UNL A   1      37.228  29.781  29.278  1.00  0.00     0.198 A 
ATOM     55  F   UNL A   1      38.805  29.704  27.532  1.00  0.00    -0.203 F 
ATOM     56  F   UNL A   1      37.487  28.721  32.733  1.00  0.00    -0.200 F 
ATOM     57  C   UNL A   1      36.886  29.536  30.600  1.00  0.00     0.200 A 
ATOM     58  F   UNL A   1      36.334  30.331  28.445  1.00  0.00    -0.200 F 
ATOM     59  F   UNL A   1      35.656  29.830  31.040  1.00  0.00    -0.200 F 
ENDBRANCH  25  49
BRANCH  37  60
ATOM     60  C   UNL A   1      45.223  32.747  28.852  1.00  0.00     0.064 A 
ATOM     61  C   UNL A   1      45.772  33.188  30.065  1.00  0.00     0.173 A 
ATOM     62  C   UNL A   1      44.969  33.704  27.858  1.00  0.00     0.173 A 
ATOM     63  F   UNL A   1      46.016  32.315  31.053  1.00  0.00    -0.203 F 
ATOM     64  C   UNL A   1      46.031  34.539  30.283  1.00  0.00     0.198 A 
ATOM     65  C   UNL A   1      45.256  35.050  28.069  1.00  0.00     0.198 A 
ATOM     66  F   UNL A   1      44.448  33.332  26.679  1.00  0.00    -0.203 F 
ATOM     67  F   UNL A   1      46.508  34.945  31.468  1.00  0.00    -0.200 F 
ATOM     68  C   UNL A   1      45.778  35.466  29.283  1.00  0.00     0.200 A 
ATOM     69  F   UNL A   1      45.021  35.943  27.098  1.00  0.00    -0.200 F 
ATOM     70  F   UNL A   1      46.029  36.766  29.494  1.00  0.00    -0.200 F 
ENDBRANCH  37  60
ENDBRANCH  11  12
ENDBRANCH   4   6
ENDBRANCH   1   2
BRANCH   1  71
ATOM     71  C   UNL A   1      37.789  19.607  24.804  1.00  0.00     0.042 C 
BRANCH  71  72
ATOM     72  C   UNL A   1      36.455  20.318  24.998  1.00  0.00     0.118 C 
BRANCH  72  73
ATOM     73  N   UNL A   1      35.320  19.417  24.826  1.00  0.00    -0.352 N 
ATOM     74  C   UNL A   1      33.981  19.657  25.016  1.00  0.00     0.254 C 
ATOM     75  H   UNL A   1      35.547  18.506  24.531  1.00  0.00     0.163 HD
ATOM     76  O   UNL A   1      33.178  18.730  25.045  1.00  0.00    -0.269 OA
BRANCH  74  77
ATOM     77  C   UNL A   1      33.511  21.024  25.209  1.00  0.00     0.076 A 
ATOM     78  C   UNL A   1      33.225  21.863  24.158  1.00  0.00     0.129 A 
ATOM     79  C   UNL A   1      33.337  21.552  26.465  1.00  0.00     0.129 A 
ATOM     80  N   UNL A   1      32.922  23.167  24.314  1.00  0.00    -0.236 NA
ATOM     81  N   UNL A   1      33.024  22.849  26.678  1.00  0.00    -0.236 NA
ATOM     82  C   UNL A   1      32.880  23.624  25.584  1.00  0.00     0.160 A 
BRANCH  82  83
ATOM     83  C   UNL A   1      32.705  25.071  25.753  1.00  0.00     0.038 A 
ATOM     84  C   UNL A   1      33.846  25.904  25.750  1.00  0.00     0.013 A 
ATOM     85  C   UNL A   1      31.458  25.685  25.979  1.00  0.00     0.052 A 
ATOM     86  C   UNL A   1      33.751  27.283  25.952  1.00  0.00     0.001 A 
ATOM     87  C   UNL A   1      31.364  27.071  26.175  1.00  0.00     0.021 A 
ATOM     88  Cl  UNL A   1      29.976  24.794  26.123  1.00  0.00    -0.084 Cl
ATOM     89  C   UNL A   1      32.507  27.867  26.161  1.00  0.00     0.002 A 
ENDBRANCH  82  83
ENDBRANCH  74  77
ENDBRANCH  72  73
ENDBRANCH  71  72
ENDBRANCH   1  71
TORSDOF 11
ENDMDL
