MODEL 1
REMARK VINA RESULT:     -11.6      0.000      0.000
REMARK SMILES COC(=O)[C@H]1CCN(C(=O)CC(=O)NCCCNC(=O)c2ccc(-c3c4nc(c(-c5c(F)c(F)c(F)c(F)c5F)c5ccc([nH]5)c(-c5c(F)c(F)c(F)c(F)c5F)c5nc(c(-c6c(F)c(F)c(F)c(F)c6F)c6ccc3[nH]6)C=C5)C=C4)cc2)C1
REMARK SMILES IDX 15 1 14 2 12 3 13 4 11 6 9 7 10 8 8 9 5 10 6 11 84 12 7 13
REMARK SMILES IDX 3 14 4 15 2 16 1 17 16 18 17 19 18 20 19 21 20 23 21 24
REMARK SMILES IDX 22 25 83 26 23 27 82 28 24 29 25 30 26 31 76 32 27 33 81 34
REMARK SMILES IDX 75 35 77 36 28 37 80 38 74 39 73 40 29 42 61 43 41 44 60 45
REMARK SMILES IDX 42 46 45 47 59 48 78 49 43 50 44 51 58 53 79 54 46 55 30 56
REMARK SMILES IDX 31 57 39 58 32 59 33 60 37 61 40 62 34 63 35 64 38 65 36 66
REMARK SMILES IDX 62 67 63 68 71 69 64 70 65 71 69 72 72 73 66 74 67 75 70 76
REMARK SMILES IDX 68 77 47 78 48 79 56 80 49 81 50 82 54 83 57 84 51 85 52 86
REMARK SMILES IDX 55 87 53 88
REMARK H PARENT 14 5 18 22 77 41 45 52
REMARK Flexibility Score: inf
ROOT
ATOM      1  C   UNL A   1      36.799  21.063  24.828  1.00  0.00     0.117 C 
ENDROOT
BRANCH   1   2
ATOM      2  N   UNL A   1      36.006  21.254  26.029  1.00  0.00    -0.356 N 
ATOM      3  C   UNL A   1      34.681  21.560  26.134  1.00  0.00     0.229 C 
ATOM      4  O   UNL A   1      34.215  21.776  27.255  1.00  0.00    -0.275 OA
ATOM      5  H   UNL A   1      36.488  21.149  26.881  1.00  0.00     0.163 HD
BRANCH   3   6
ATOM      6  C   UNL A   1      33.818  21.597  24.906  1.00  0.00     0.200 C 
BRANCH   6   7
ATOM      7  C   UNL A   1      32.789  20.499  24.842  1.00  0.00     0.232 C 
ATOM      8  O   UNL A   1      31.686  20.650  25.373  1.00  0.00    -0.274 OA
BRANCH   7   9
ATOM      9  N   UNL A   1      33.108  19.343  24.172  1.00  0.00    -0.341 N 
ATOM     10  C   UNL A   1      34.102  17.229  23.761  1.00  0.00     0.120 C 
ATOM     11  C   UNL A   1      32.769  17.340  23.018  1.00  0.00     0.038 C 
ATOM     12  C   UNL A   1      34.125  18.440  24.687  1.00  0.00     0.134 C 
ATOM     13  C   UNL A   1      32.529  18.836  22.940  1.00  0.00     0.120 C 
BRANCH  10  14
ATOM     14  C   UNL A   1      34.178  15.955  24.561  1.00  0.00     0.310 C 
ATOM     15  O   UNL A   1      35.195  15.528  25.094  1.00  0.00    -0.252 OA
BRANCH  14  16
ATOM     16  O   UNL A   1      32.956  15.361  24.627  1.00  0.00    -0.469 OA
ATOM     17  C   UNL A   1      32.524  15.082  25.960  1.00  0.00     0.282 C 
ENDBRANCH  14  16
ENDBRANCH  10  14
ENDBRANCH   7   9
ENDBRANCH   6   7
ENDBRANCH   3   6
ENDBRANCH   1   2
BRANCH   1  18
ATOM     18  C   UNL A   1      37.828  19.950  25.001  1.00  0.00     0.042 C 
BRANCH  18  19
ATOM     19  C   UNL A   1      39.033  20.353  25.845  1.00  0.00     0.118 C 
BRANCH  19  20
ATOM     20  N   UNL A   1      40.040  19.302  25.931  1.00  0.00    -0.352 N 
ATOM     21  C   UNL A   1      41.400  19.399  26.103  1.00  0.00     0.251 C 
ATOM     22  H   UNL A   1      39.694  18.384  25.854  1.00  0.00     0.163 HD
ATOM     23  O   UNL A   1      42.107  18.405  25.979  1.00  0.00    -0.269 OA
BRANCH  21  24
ATOM     24  C   UNL A   1      42.014  20.704  26.421  1.00  0.00     0.039 A 
ATOM     25  C   UNL A   1      42.333  21.576  25.377  1.00  0.00     0.014 A 
ATOM     26  C   UNL A   1      42.284  21.062  27.743  1.00  0.00     0.014 A 
ATOM     27  C   UNL A   1      42.857  22.839  25.666  1.00  0.00     0.010 A 
ATOM     28  C   UNL A   1      42.729  22.347  28.033  1.00  0.00     0.010 A 
ATOM     29  C   UNL A   1      43.023  23.248  26.998  1.00  0.00    -0.014 A 
BRANCH  29  30
ATOM     30  C   UNL A   1      43.516  24.606  27.345  1.00  0.00     0.031 A 
ATOM     31  C   UNL A   1      42.559  25.631  27.887  1.00  0.00     0.074 A 
ATOM     32  C   UNL A   1      44.795  24.945  27.091  1.00  0.00     0.049 A 
ATOM     33  N   UNL A   1      42.744  26.907  28.108  1.00  0.00    -0.248 NA
ATOM     34  C   UNL A   1      41.197  25.160  28.191  1.00  0.00     0.031 C 
ATOM     35  C   UNL A   1      45.813  24.051  26.538  1.00  0.00     0.029 A 
ATOM     36  N   UNL A   1      45.450  26.142  27.240  1.00  0.00    -0.354 N 
ATOM     37  C   UNL A   1      41.523  27.393  28.556  1.00  0.00     0.074 A 
ATOM     38  C   UNL A   1      40.589  26.290  28.521  1.00  0.00     0.031 C 
ATOM     39  C   UNL A   1      46.965  24.728  26.401  1.00  0.00     0.029 A 
ATOM     40  C   UNL A   1      46.754  26.114  26.809  1.00  0.00     0.049 A 
ATOM     41  H   UNL A   1      45.026  26.945  27.621  1.00  0.00     0.167 HD
ATOM     42  C   UNL A   1      41.216  28.642  28.981  1.00  0.00     0.037 A 
ATOM     43  C   UNL A   1      47.669  27.100  26.729  1.00  0.00     0.037 A 
ATOM     44  C   UNL A   1      42.155  29.731  29.032  1.00  0.00     0.049 A 
ATOM     45  C   UNL A   1      47.296  28.487  27.181  1.00  0.00     0.074 A 
ATOM     46  C   UNL A   1      41.953  31.023  29.484  1.00  0.00     0.029 A 
ATOM     47  N   UNL A   1      43.476  29.654  28.613  1.00  0.00    -0.354 N 
ATOM     48  N   UNL A   1      46.152  28.926  27.649  1.00  0.00    -0.248 NA
ATOM     49  C   UNL A   1      48.341  29.517  27.099  1.00  0.00     0.031 C 
ATOM     50  C   UNL A   1      43.136  31.744  29.289  1.00  0.00     0.029 A 
ATOM     51  C   UNL A   1      44.095  30.883  28.779  1.00  0.00     0.049 A 
ATOM     52  H   UNL A   1      43.909  28.847  28.252  1.00  0.00     0.167 HD
ATOM     53  C   UNL A   1      46.351  30.266  27.954  1.00  0.00     0.074 A 
ATOM     54  C   UNL A   1      47.727  30.569  27.622  1.00  0.00     0.031 C 
ATOM     55  C   UNL A   1      45.474  31.163  28.466  1.00  0.00     0.037 A 
BRANCH  42  56
ATOM     56  C   UNL A   1      39.803  28.898  29.424  1.00  0.00     0.064 A 
ATOM     57  C   UNL A   1      39.398  28.686  30.752  1.00  0.00     0.173 A 
ATOM     58  C   UNL A   1      38.851  29.393  28.521  1.00  0.00     0.173 A 
ATOM     59  F   UNL A   1      40.265  28.203  31.654  1.00  0.00    -0.203 F 
ATOM     60  C   UNL A   1      38.085  28.926  31.147  1.00  0.00     0.198 A 
ATOM     61  C   UNL A   1      37.548  29.667  28.929  1.00  0.00     0.198 A 
ATOM     62  F   UNL A   1      39.185  29.621  27.242  1.00  0.00    -0.203 F 
ATOM     63  F   UNL A   1      37.708  28.661  32.406  1.00  0.00    -0.200 F 
ATOM     64  C   UNL A   1      37.163  29.424  30.239  1.00  0.00     0.200 A 
ATOM     65  F   UNL A   1      36.664  30.165  28.054  1.00  0.00    -0.200 F 
ATOM     66  F   UNL A   1      35.903  29.664  30.624  1.00  0.00    -0.200 F 
ENDBRANCH  42  56
BRANCH  43  67
ATOM     67  C   UNL A   1      49.030  26.812  26.203  1.00  0.00     0.064 A 
ATOM     68  C   UNL A   1      49.337  27.011  24.848  1.00  0.00     0.173 A 
ATOM     69  C   UNL A   1      50.047  26.321  27.034  1.00  0.00     0.173 A 
ATOM     70  F   UNL A   1      48.394  27.460  24.007  1.00  0.00    -0.203 F 
ATOM     71  C   UNL A   1      50.599  26.702  24.343  1.00  0.00     0.198 A 
ATOM     72  C   UNL A   1      51.318  26.044  26.534  1.00  0.00     0.198 A 
ATOM     73  F   UNL A   1      49.809  26.118  28.339  1.00  0.00    -0.203 F 
ATOM     74  F   UNL A   1      50.846  26.848  23.033  1.00  0.00    -0.200 F 
ATOM     75  C   UNL A   1      51.590  26.224  25.186  1.00  0.00     0.200 A 
ATOM     76  F   UNL A   1      52.277  25.597  27.357  1.00  0.00    -0.200 F 
ATOM     77  F   UNL A   1      52.801  25.929  24.700  1.00  0.00    -0.200 F 
ENDBRANCH  43  67
BRANCH  55  78
ATOM     78  C   UNL A   1      45.982  32.544  28.765  1.00  0.00     0.064 A 
ATOM     79  C   UNL A   1      46.584  32.865  29.990  1.00  0.00     0.173 A 
ATOM     80  C   UNL A   1      45.924  33.543  27.780  1.00  0.00     0.173 A 
ATOM     81  F   UNL A   1      46.652  31.952  30.970  1.00  0.00    -0.203 F 
ATOM     82  C   UNL A   1      47.094  34.140  30.223  1.00  0.00     0.198 A 
ATOM     83  C   UNL A   1      46.464  34.806  28.005  1.00  0.00     0.198 A 
ATOM     84  F   UNL A   1      45.364  33.285  26.589  1.00  0.00    -0.203 F 
ATOM     85  F   UNL A   1      47.629  34.437  31.416  1.00  0.00    -0.200 F 
ATOM     86  C   UNL A   1      47.044  35.105  29.228  1.00  0.00     0.200 A 
ATOM     87  F   UNL A   1      46.429  35.730  27.035  1.00  0.00    -0.200 F 
ATOM     88  F   UNL A   1      47.551  36.326  29.449  1.00  0.00    -0.200 F 
ENDBRANCH  55  78
ENDBRANCH  29  30
ENDBRANCH  21  24
ENDBRANCH  19  20
ENDBRANCH  18  19
ENDBRANCH   1  18
TORSDOF 14
ENDMDL
MODEL 2
REMARK VINA RESULT:     -11.5      6.812     11.997
REMARK SMILES COC(=O)[C@H]1CCN(C(=O)CC(=O)NCCCNC(=O)c2ccc(-c3c4nc(c(-c5c(F)c(F)c(F)c(F)c5F)c5ccc([nH]5)c(-c5c(F)c(F)c(F)c(F)c5F)c5nc(c(-c6c(F)c(F)c(F)c(F)c6F)c6ccc3[nH]6)C=C5)C=C4)cc2)C1
REMARK SMILES IDX 15 1 14 2 12 3 13 4 11 6 9 7 10 8 8 9 5 10 6 11 84 12 7 13
REMARK SMILES IDX 3 14 4 15 2 16 1 17 16 18 17 19 18 20 19 21 20 23 21 24
REMARK SMILES IDX 22 25 83 26 23 27 82 28 24 29 25 30 26 31 76 32 27 33 81 34
REMARK SMILES IDX 75 35 77 36 28 37 80 38 74 39 73 40 29 42 61 43 41 44 60 45
REMARK SMILES IDX 42 46 45 47 59 48 78 49 43 50 44 51 58 53 79 54 46 55 30 56
REMARK SMILES IDX 31 57 39 58 32 59 33 60 37 61 40 62 34 63 35 64 38 65 36 66
REMARK SMILES IDX 62 67 63 68 71 69 64 70 65 71 69 72 72 73 66 74 67 75 70 76
REMARK SMILES IDX 68 77 47 78 48 79 56 80 49 81 50 82 54 83 57 84 51 85 52 86
REMARK SMILES IDX 55 87 53 88
REMARK H PARENT 14 5 18 22 77 41 45 52
REMARK Flexibility Score: inf
ROOT
ATOM      1  C   UNL A   1      31.669  30.768  26.037  1.00  0.00     0.117 C 
ENDROOT
BRANCH   1   2
ATOM      2  N   UNL A   1      32.910  30.233  26.571  1.00  0.00    -0.356 N 
ATOM      3  C   UNL A   1      33.146  29.000  27.102  1.00  0.00     0.229 C 
ATOM      4  O   UNL A   1      34.254  28.773  27.591  1.00  0.00    -0.275 OA
ATOM      5  H   UNL A   1      33.683  30.842  26.546  1.00  0.00     0.163 HD
BRANCH   3   6
ATOM      6  C   UNL A   1      32.079  27.943  27.054  1.00  0.00     0.200 C 
BRANCH   6   7
ATOM      7  C   UNL A   1      32.185  27.013  25.875  1.00  0.00     0.232 C 
ATOM      8  O   UNL A   1      32.456  25.822  26.045  1.00  0.00    -0.274 OA
BRANCH   7   9
ATOM      9  N   UNL A   1      31.961  27.523  24.618  1.00  0.00    -0.341 N 
ATOM     10  C   UNL A   1      30.769  28.444  22.787  1.00  0.00     0.120 C 
ATOM     11  C   UNL A   1      32.221  28.926  22.769  1.00  0.00     0.038 C 
ATOM     12  C   UNL A   1      30.609  27.766  24.143  1.00  0.00     0.134 C 
ATOM     13  C   UNL A   1      32.947  27.902  23.621  1.00  0.00     0.120 C 
BRANCH  10  14
ATOM     14  C   UNL A   1      29.808  29.597  22.661  1.00  0.00     0.310 C 
ATOM     15  O   UNL A   1      29.485  30.338  23.581  1.00  0.00    -0.252 OA
BRANCH  14  16
ATOM     16  O   UNL A   1      29.368  29.710  21.378  1.00  0.00    -0.469 OA
ATOM     17  C   UNL A   1      28.154  30.453  21.252  1.00  0.00     0.282 C 
ENDBRANCH  14  16
ENDBRANCH  10  14
ENDBRANCH   7   9
ENDBRANCH   6   7
ENDBRANCH   3   6
ENDBRANCH   1   2
BRANCH   1  18
ATOM     18  C   UNL A   1      31.405  32.186  26.535  1.00  0.00     0.042 C 
BRANCH  18  19
ATOM     19  C   UNL A   1      32.581  32.803  27.285  1.00  0.00     0.118 C 
BRANCH  19  20
ATOM     20  N   UNL A   1      32.361  34.203  27.629  1.00  0.00    -0.352 N 
ATOM     21  C   UNL A   1      32.968  34.980  28.585  1.00  0.00     0.251 C 
ATOM     22  H   UNL A   1      31.672  34.660  27.095  1.00  0.00     0.163 HD
ATOM     23  O   UNL A   1      32.527  36.095  28.842  1.00  0.00    -0.269 OA
BRANCH  21  24
ATOM     24  C   UNL A   1      34.144  34.467  29.318  1.00  0.00     0.039 A 
ATOM     25  C   UNL A   1      33.959  33.874  30.569  1.00  0.00     0.014 A 
ATOM     26  C   UNL A   1      35.426  34.578  28.776  1.00  0.00     0.014 A 
ATOM     27  C   UNL A   1      35.053  33.328  31.245  1.00  0.00     0.010 A 
ATOM     28  C   UNL A   1      36.500  33.965  29.412  1.00  0.00     0.010 A 
ATOM     29  C   UNL A   1      36.325  33.336  30.654  1.00  0.00    -0.014 A 
BRANCH  29  30
ATOM     30  C   UNL A   1      37.500  32.709  31.314  1.00  0.00     0.031 A 
ATOM     31  C   UNL A   1      38.198  31.554  30.651  1.00  0.00     0.074 A 
ATOM     32  C   UNL A   1      37.881  33.114  32.541  1.00  0.00     0.049 A 
ATOM     33  N   UNL A   1      39.136  30.770  31.118  1.00  0.00    -0.248 NA
ATOM     34  C   UNL A   1      37.757  31.215  29.288  1.00  0.00     0.031 C 
ATOM     35  C   UNL A   1      37.265  34.201  33.302  1.00  0.00     0.029 A 
ATOM     36  N   UNL A   1      38.862  32.639  33.375  1.00  0.00    -0.354 N 
ATOM     37  C   UNL A   1      39.381  29.839  30.119  1.00  0.00     0.074 A 
ATOM     38  C   UNL A   1      38.456  30.117  29.043  1.00  0.00     0.031 C 
ATOM     39  C   UNL A   1      37.887  34.316  34.487  1.00  0.00     0.029 A 
ATOM     40  C   UNL A   1      38.910  33.279  34.590  1.00  0.00     0.049 A 
ATOM     41  H   UNL A   1      39.475  31.909  33.127  1.00  0.00     0.167 HD
ATOM     42  C   UNL A   1      40.312  28.854  30.091  1.00  0.00     0.037 A 
ATOM     43  C   UNL A   1      39.675  33.041  35.673  1.00  0.00     0.037 A 
ATOM     44  C   UNL A   1      41.243  28.595  31.157  1.00  0.00     0.049 A 
ATOM     45  C   UNL A   1      40.683  31.923  35.629  1.00  0.00     0.074 A 
ATOM     46  C   UNL A   1      42.251  27.648  31.209  1.00  0.00     0.029 A 
ATOM     47  N   UNL A   1      41.278  29.285  32.360  1.00  0.00    -0.354 N 
ATOM     48  N   UNL A   1      40.941  31.078  34.660  1.00  0.00    -0.248 NA
ATOM     49  C   UNL A   1      41.512  31.727  36.828  1.00  0.00     0.031 C 
ATOM     50  C   UNL A   1      42.861  27.728  32.465  1.00  0.00     0.029 A 
ATOM     51  C   UNL A   1      42.279  28.771  33.169  1.00  0.00     0.049 A 
ATOM     52  H   UNL A   1      40.682  30.029  32.602  1.00  0.00     0.167 HD
ATOM     53  C   UNL A   1      41.984  30.281  35.114  1.00  0.00     0.074 A 
ATOM     54  C   UNL A   1      42.315  30.745  36.445  1.00  0.00     0.031 C 
ATOM     55  C   UNL A   1      42.613  29.260  34.483  1.00  0.00     0.037 A 
BRANCH  42  56
ATOM     56  C   UNL A   1      40.368  27.984  28.868  1.00  0.00     0.064 A 
ATOM     57  C   UNL A   1      41.145  28.331  27.751  1.00  0.00     0.173 A 
ATOM     58  C   UNL A   1      39.663  26.772  28.822  1.00  0.00     0.173 A 
ATOM     59  F   UNL A   1      41.830  29.484  27.737  1.00  0.00    -0.203 F 
ATOM     60  C   UNL A   1      41.185  27.514  26.624  1.00  0.00     0.198 A 
ATOM     61  C   UNL A   1      39.735  25.940  27.708  1.00  0.00     0.198 A 
ATOM     62  F   UNL A   1      38.910  26.386  29.864  1.00  0.00    -0.203 F 
ATOM     63  F   UNL A   1      41.888  27.895  25.549  1.00  0.00    -0.200 F 
ATOM     64  C   UNL A   1      40.488  26.317  26.606  1.00  0.00     0.200 A 
ATOM     65  F   UNL A   1      39.074  24.774  27.700  1.00  0.00    -0.200 F 
ATOM     66  F   UNL A   1      40.535  25.528  25.524  1.00  0.00    -0.200 F 
ENDBRANCH  42  56
BRANCH  43  67
ATOM     67  C   UNL A   1      39.522  33.880  36.892  1.00  0.00     0.064 A 
ATOM     68  C   UNL A   1      40.191  35.107  37.012  1.00  0.00     0.173 A 
ATOM     69  C   UNL A   1      38.717  33.470  37.965  1.00  0.00     0.173 A 
ATOM     70  F   UNL A   1      40.989  35.534  36.023  1.00  0.00    -0.203 F 
ATOM     71  C   UNL A   1      40.083  35.876  38.170  1.00  0.00     0.198 A 
ATOM     72  C   UNL A   1      38.584  34.256  39.108  1.00  0.00     0.198 A 
ATOM     73  F   UNL A   1      38.050  32.308  37.900  1.00  0.00    -0.203 F 
ATOM     74  F   UNL A   1      40.779  37.016  38.280  1.00  0.00    -0.200 F 
ATOM     75  C   UNL A   1      39.275  35.453  39.215  1.00  0.00     0.200 A 
ATOM     76  F   UNL A   1      37.790  33.850  40.109  1.00  0.00    -0.200 F 
ATOM     77  F   UNL A   1      39.172  36.193  40.325  1.00  0.00    -0.200 F 
ENDBRANCH  43  67
BRANCH  55  78
ATOM     78  C   UNL A   1      43.767  28.609  35.189  1.00  0.00     0.064 A 
ATOM     79  C   UNL A   1      45.079  29.086  35.064  1.00  0.00     0.173 A 
ATOM     80  C   UNL A   1      43.541  27.528  36.057  1.00  0.00     0.173 A 
ATOM     81  F   UNL A   1      45.351  30.107  34.237  1.00  0.00    -0.203 F 
ATOM     82  C   UNL A   1      46.125  28.496  35.770  1.00  0.00     0.198 A 
ATOM     83  C   UNL A   1      44.584  26.963  36.786  1.00  0.00     0.198 A 
ATOM     84  F   UNL A   1      42.304  27.038  36.218  1.00  0.00    -0.203 F 
ATOM     85  F   UNL A   1      47.378  28.943  35.604  1.00  0.00    -0.200 F 
ATOM     86  C   UNL A   1      45.875  27.444  36.637  1.00  0.00     0.200 A 
ATOM     87  F   UNL A   1      44.336  25.957  37.636  1.00  0.00    -0.200 F 
ATOM     88  F   UNL A   1      46.881  26.889  37.328  1.00  0.00    -0.200 F 
ENDBRANCH  55  78
ENDBRANCH  29  30
ENDBRANCH  21  24
ENDBRANCH  19  20
ENDBRANCH  18  19
ENDBRANCH   1  18
TORSDOF 14
ENDMDL
MODEL 3
REMARK VINA RESULT:     -11.2      6.188     11.481
REMARK SMILES COC(=O)[C@H]1CCN(C(=O)CC(=O)NCCCNC(=O)c2ccc(-c3c4nc(c(-c5c(F)c(F)c(F)c(F)c5F)c5ccc([nH]5)c(-c5c(F)c(F)c(F)c(F)c5F)c5nc(c(-c6c(F)c(F)c(F)c(F)c6F)c6ccc3[nH]6)C=C5)C=C4)cc2)C1
REMARK SMILES IDX 15 1 14 2 12 3 13 4 11 6 9 7 10 8 8 9 5 10 6 11 84 12 7 13
REMARK SMILES IDX 3 14 4 15 2 16 1 17 16 18 17 19 18 20 19 21 20 23 21 24
REMARK SMILES IDX 22 25 83 26 23 27 82 28 24 29 25 30 26 31 76 32 27 33 81 34
REMARK SMILES IDX 75 35 77 36 28 37 80 38 74 39 73 40 29 42 61 43 41 44 60 45
REMARK SMILES IDX 42 46 45 47 59 48 78 49 43 50 44 51 58 53 79 54 46 55 30 56
REMARK SMILES IDX 31 57 39 58 32 59 33 60 37 61 40 62 34 63 35 64 38 65 36 66
REMARK SMILES IDX 62 67 63 68 71 69 64 70 65 71 69 72 72 73 66 74 67 75 70 76
REMARK SMILES IDX 68 77 47 78 48 79 56 80 49 81 50 82 54 83 57 84 51 85 52 86
REMARK SMILES IDX 55 87 53 88
REMARK H PARENT 14 5 18 22 77 41 45 52
REMARK Flexibility Score: inf
ROOT
ATOM      1  C   UNL A   1      31.789  30.696  26.022  1.00  0.00     0.117 C 
ENDROOT
BRANCH   1   2
ATOM      2  N   UNL A   1      31.430  29.669  26.985  1.00  0.00    -0.356 N 
ATOM      3  C   UNL A   1      32.083  28.507  27.273  1.00  0.00     0.229 C 
ATOM      4  O   UNL A   1      31.558  27.718  28.061  1.00  0.00    -0.275 OA
ATOM      5  H   UNL A   1      30.605  29.833  27.497  1.00  0.00     0.163 HD
BRANCH   3   6
ATOM      6  C   UNL A   1      33.425  28.227  26.661  1.00  0.00     0.200 C 
BRANCH   6   7
ATOM      7  C   UNL A   1      33.361  27.547  25.319  1.00  0.00     0.232 C 
ATOM      8  O   UNL A   1      33.974  28.015  24.355  1.00  0.00    -0.274 OA
BRANCH   7   9
ATOM      9  N   UNL A   1      32.618  26.397  25.204  1.00  0.00    -0.341 N 
ATOM     10  C   UNL A   1      31.836  24.213  25.695  1.00  0.00     0.120 C 
ATOM     11  C   UNL A   1      30.716  25.048  25.070  1.00  0.00     0.038 C 
ATOM     12  C   UNL A   1      32.941  25.220  25.993  1.00  0.00     0.134 C 
ATOM     13  C   UNL A   1      31.458  26.165  24.361  1.00  0.00     0.120 C 
BRANCH  10  14
ATOM     14  C   UNL A   1      31.377  23.546  26.966  1.00  0.00     0.310 C 
ATOM     15  O   UNL A   1      32.096  22.877  27.699  1.00  0.00    -0.252 OA
BRANCH  14  16
ATOM     16  O   UNL A   1      30.062  23.811  27.194  1.00  0.00    -0.469 OA
ATOM     17  C   UNL A   1      29.251  22.639  27.300  1.00  0.00     0.282 C 
ENDBRANCH  14  16
ENDBRANCH  10  14
ENDBRANCH   7   9
ENDBRANCH   6   7
ENDBRANCH   3   6
ENDBRANCH   1   2
BRANCH   1  18
ATOM     18  C   UNL A   1      31.482  32.095  26.547  1.00  0.00     0.042 C 
BRANCH  18  19
ATOM     19  C   UNL A   1      32.640  32.735  27.305  1.00  0.00     0.118 C 
BRANCH  19  20
ATOM     20  N   UNL A   1      32.392  34.131  27.644  1.00  0.00    -0.352 N 
ATOM     21  C   UNL A   1      32.986  34.924  28.596  1.00  0.00     0.251 C 
ATOM     22  H   UNL A   1      31.694  34.572  27.110  1.00  0.00     0.163 HD
ATOM     23  O   UNL A   1      32.523  36.030  28.849  1.00  0.00    -0.269 OA
BRANCH  21  24
ATOM     24  C   UNL A   1      34.173  34.438  29.328  1.00  0.00     0.039 A 
ATOM     25  C   UNL A   1      33.995  33.758  30.536  1.00  0.00     0.014 A 
ATOM     26  C   UNL A   1      35.459  34.660  28.830  1.00  0.00     0.014 A 
ATOM     27  C   UNL A   1      35.104  33.238  31.208  1.00  0.00     0.010 A 
ATOM     28  C   UNL A   1      36.553  34.074  29.457  1.00  0.00     0.010 A 
ATOM     29  C   UNL A   1      36.387  33.359  30.654  1.00  0.00    -0.014 A 
BRANCH  29  30
ATOM     30  C   UNL A   1      37.583  32.764  31.306  1.00  0.00     0.031 A 
ATOM     31  C   UNL A   1      38.311  31.632  30.636  1.00  0.00     0.074 A 
ATOM     32  C   UNL A   1      37.957  33.175  32.533  1.00  0.00     0.049 A 
ATOM     33  N   UNL A   1      39.273  30.874  31.097  1.00  0.00    -0.248 NA
ATOM     34  C   UNL A   1      37.874  31.286  29.274  1.00  0.00     0.031 C 
ATOM     35  C   UNL A   1      37.314  34.242  33.301  1.00  0.00     0.029 A 
ATOM     36  N   UNL A   1      38.955  32.726  33.362  1.00  0.00    -0.354 N 
ATOM     37  C   UNL A   1      39.541  29.954  30.093  1.00  0.00     0.074 A 
ATOM     38  C   UNL A   1      38.604  30.209  29.022  1.00  0.00     0.031 C 
ATOM     39  C   UNL A   1      37.936  34.371  34.483  1.00  0.00     0.029 A 
ATOM     40  C   UNL A   1      38.989  33.363  34.579  1.00  0.00     0.049 A 
ATOM     41  H   UNL A   1      39.587  32.015  33.108  1.00  0.00     0.167 HD
ATOM     42  C   UNL A   1      40.500  28.997  30.058  1.00  0.00     0.037 A 
ATOM     43  C   UNL A   1      39.766  33.144  35.658  1.00  0.00     0.037 A 
ATOM     44  C   UNL A   1      41.443  28.761  31.119  1.00  0.00     0.049 A 
ATOM     45  C   UNL A   1      40.806  32.056  35.606  1.00  0.00     0.074 A 
ATOM     46  C   UNL A   1      42.477  27.843  31.164  1.00  0.00     0.029 A 
ATOM     47  N   UNL A   1      41.463  29.447  32.324  1.00  0.00    -0.354 N 
ATOM     48  N   UNL A   1      41.084  31.222  34.632  1.00  0.00    -0.248 NA
ATOM     49  C   UNL A   1      41.644  31.880  36.800  1.00  0.00     0.031 C 
ATOM     50  C   UNL A   1      43.090  27.937  32.418  1.00  0.00     0.029 A 
ATOM     51  C   UNL A   1      42.481  28.959  33.128  1.00  0.00     0.049 A 
ATOM     52  H   UNL A   1      40.846  30.173  32.572  1.00  0.00     0.167 HD
ATOM     53  C   UNL A   1      42.151  30.454  35.079  1.00  0.00     0.074 A 
ATOM     54  C   UNL A   1      42.474  30.923  36.410  1.00  0.00     0.031 C 
ATOM     55  C   UNL A   1      42.806  29.453  34.442  1.00  0.00     0.037 A 
BRANCH  42  56
ATOM     56  C   UNL A   1      40.576  28.133  28.832  1.00  0.00     0.064 A 
ATOM     57  C   UNL A   1      39.866  26.925  28.736  1.00  0.00     0.173 A 
ATOM     58  C   UNL A   1      41.340  28.531  27.725  1.00  0.00     0.173 A 
ATOM     59  F   UNL A   1      39.128  26.491  29.769  1.00  0.00    -0.203 F 
ATOM     60  C   UNL A   1      39.947  26.134  27.593  1.00  0.00     0.198 A 
ATOM     61  C   UNL A   1      41.390  27.755  26.569  1.00  0.00     0.198 A 
ATOM     62  F   UNL A   1      42.034  29.679  27.758  1.00  0.00    -0.203 F 
ATOM     63  F   UNL A   1      39.306  24.958  27.548  1.00  0.00    -0.200 F 
ATOM     64  C   UNL A   1      40.702  26.553  26.508  1.00  0.00     0.200 A 
ATOM     65  F   UNL A   1      42.106  28.170  25.515  1.00  0.00    -0.200 F 
ATOM     66  F   UNL A   1      40.771  25.794  25.406  1.00  0.00    -0.200 F 
ENDBRANCH  42  56
BRANCH  43  67
ATOM     67  C   UNL A   1      39.593  33.974  36.880  1.00  0.00     0.064 A 
ATOM     68  C   UNL A   1      40.211  35.229  36.994  1.00  0.00     0.173 A 
ATOM     69  C   UNL A   1      38.822  33.528  37.963  1.00  0.00     0.173 A 
ATOM     70  F   UNL A   1      40.976  35.690  35.994  1.00  0.00    -0.203 F 
ATOM     71  C   UNL A   1      40.086  35.990  38.154  1.00  0.00     0.198 A 
ATOM     72  C   UNL A   1      38.671  34.306  39.110  1.00  0.00     0.198 A 
ATOM     73  F   UNL A   1      38.205  32.339  37.905  1.00  0.00    -0.203 F 
ATOM     74  F   UNL A   1      40.734  37.159  38.256  1.00  0.00    -0.200 F 
ATOM     75  C   UNL A   1      39.312  35.532  39.209  1.00  0.00     0.200 A 
ATOM     76  F   UNL A   1      37.909  33.865  40.120  1.00  0.00    -0.200 F 
ATOM     77  F   UNL A   1      39.192  36.265  40.322  1.00  0.00    -0.200 F 
ENDBRANCH  43  67
BRANCH  55  78
ATOM     78  C   UNL A   1      43.982  28.833  35.141  1.00  0.00     0.064 A 
ATOM     79  C   UNL A   1      45.289  29.308  34.960  1.00  0.00     0.173 A 
ATOM     80  C   UNL A   1      43.784  27.789  36.058  1.00  0.00     0.173 A 
ATOM     81  F   UNL A   1      45.534  30.295  34.085  1.00  0.00    -0.203 F 
ATOM     82  C   UNL A   1      46.356  28.749  35.659  1.00  0.00     0.198 A 
ATOM     83  C   UNL A   1      44.848  27.255  36.779  1.00  0.00     0.198 A 
ATOM     84  F   UNL A   1      42.553  27.302  36.272  1.00  0.00    -0.203 F 
ATOM     85  F   UNL A   1      47.602  29.192  35.441  1.00  0.00    -0.200 F 
ATOM     86  C   UNL A   1      46.133  27.732  36.575  1.00  0.00     0.200 A 
ATOM     87  F   UNL A   1      44.628  26.284  37.676  1.00  0.00    -0.200 F 
ATOM     88  F   UNL A   1      47.160  27.207  37.260  1.00  0.00    -0.200 F 
ENDBRANCH  55  78
ENDBRANCH  29  30
ENDBRANCH  21  24
ENDBRANCH  19  20
ENDBRANCH  18  19
ENDBRANCH   1  18
TORSDOF 14
ENDMDL
