MODEL 1
REMARK VINA RESULT:     -14.5      0.000      0.000
REMARK SMILES Cc1ccc(C)c([C@H]2[NH2+][C@@H](C(=O)NCCCNC(=O)c3ccc(-c4c5nc(c(-c6c(F)c(F)c(F)c(F)c6F)c6ccc([nH]6)c(-c6c(F)c(F)c(F)c(F)c6F)c6nc(c(-c7c(F)c(F)c(F)c(F)c7F)c7ccc4[nH]7)C=C6)C=C5)cc3)Cc3c2[nH]c2ccccc32)c1
REMARK SMILES IDX 15 1 14 2 13 3 11 4 12 5 10 7 8 8 9 9 85 10 84 13 86 14
REMARK SMILES IDX 83 15 92 16 87 17 91 19 88 20 90 21 89 22 7 23 1 24 2 25
REMARK SMILES IDX 3 26 93 27 4 28 5 29 6 30 16 31 17 32 18 33 19 35 20 36
REMARK SMILES IDX 21 37 82 38 22 39 81 40 23 41 24 42 25 43 75 44 26 45 80 46
REMARK SMILES IDX 74 47 76 48 27 49 79 50 73 51 72 52 28 54 60 55 40 56 59 57
REMARK SMILES IDX 41 58 44 59 58 60 77 61 42 62 43 63 57 65 78 66 45 67 29 68
REMARK SMILES IDX 30 69 38 70 31 71 32 72 36 73 39 74 33 75 34 76 37 77 35 78
REMARK SMILES IDX 61 79 62 80 70 81 63 82 64 83 68 84 71 85 65 86 66 87 69 88
REMARK SMILES IDX 67 89 46 90 47 91 55 92 48 93 49 94 53 95 56 96 50 97 51 98
REMARK SMILES IDX 54 99 52 100
REMARK H PARENT 13 6 9 11 9 12 86 18 17 34 76 53 44 64
REMARK Flexibility Score: inf
ROOT
ATOM      1  C   UNL A   1      36.231  22.098  25.773  1.00  0.00     0.042 C 
ENDROOT
BRANCH   1   2
ATOM      2  C   UNL A   1      35.120  23.162  25.891  1.00  0.00     0.118 C 
BRANCH   2   3
ATOM      3  N   UNL A   1      34.426  23.418  24.628  1.00  0.00    -0.351 N 
ATOM      4  C   UNL A   1      33.561  24.371  24.199  1.00  0.00     0.278 C 
ATOM      5  O   UNL A   1      33.222  24.281  23.008  1.00  0.00    -0.268 OA
ATOM      6  H   UNL A   1      34.636  22.751  23.935  1.00  0.00     0.163 HD
BRANCH   4   7
ATOM      7  C   UNL A   1      33.091  25.591  25.016  1.00  0.00     0.277 C 
ATOM      8  C   UNL A   1      31.270  27.322  24.913  1.00  0.00     0.262 C 
ATOM      9  N   UNL A   1      31.982  26.201  24.257  1.00  0.00    -0.325 N 
ATOM     10  C   UNL A   1      32.268  28.185  25.660  1.00  0.00     0.083 A 
ATOM     11  H   UNL A   1      32.364  26.549  23.377  1.00  0.00     0.347 HD
ATOM     12  H   UNL A   1      31.287  25.462  24.153  1.00  0.00     0.347 HD
ATOM     13  C   UNL A   1      33.575  27.828  25.931  1.00  0.00    -0.006 A 
ATOM     14  N   UNL A   1      32.056  29.388  26.299  1.00  0.00    -0.353 N 
ATOM     15  C   UNL A   1      34.174  26.587  25.408  1.00  0.00     0.114 C 
ATOM     16  C   UNL A   1      34.200  28.843  26.678  1.00  0.00     0.003 A 
ATOM     17  C   UNL A   1      33.232  29.819  26.904  1.00  0.00     0.046 A 
ATOM     18  H   UNL A   1      31.199  29.870  26.323  1.00  0.00     0.166 HD
ATOM     19  C   UNL A   1      35.508  29.010  27.168  1.00  0.00     0.010 A 
ATOM     20  C   UNL A   1      33.534  30.979  27.632  1.00  0.00     0.026 A 
ATOM     21  C   UNL A   1      35.822  30.162  27.884  1.00  0.00     0.001 A 
ATOM     22  C   UNL A   1      34.846  31.130  28.112  1.00  0.00     0.002 A 
BRANCH   8  23
ATOM     23  C   UNL A   1      30.437  27.957  23.788  1.00  0.00     0.019 A 
ATOM     24  C   UNL A   1      26.751  28.760  23.091  1.00  0.00     0.044 C 
ATOM     25  C   UNL A   1      28.247  28.740  22.989  1.00  0.00    -0.051 A 
ATOM     26  C   UNL A   1      28.878  29.587  22.077  1.00  0.00     0.004 A 
ATOM     27  C   UNL A   1      29.027  27.945  23.843  1.00  0.00     0.014 A 
ATOM     28  C   UNL A   1      30.265  29.604  21.984  1.00  0.00     0.004 A 
ATOM     29  C   UNL A   1      31.058  28.785  22.808  1.00  0.00    -0.042 A 
ATOM     30  C   UNL A   1      32.551  28.962  22.679  1.00  0.00     0.045 C 
ENDBRANCH   8  23
ENDBRANCH   4   7
ENDBRANCH   2   3
ENDBRANCH   1   2
BRANCH   1  31
ATOM     31  C   UNL A   1      37.667  22.583  25.504  1.00  0.00     0.118 C 
BRANCH  31  32
ATOM     32  N   UNL A   1      38.689  21.814  26.221  1.00  0.00    -0.352 N 
ATOM     33  C   UNL A   1      39.835  22.202  26.897  1.00  0.00     0.251 C 
ATOM     34  H   UNL A   1      38.532  20.842  26.223  1.00  0.00     0.163 HD
ATOM     35  O   UNL A   1      40.681  21.372  27.184  1.00  0.00    -0.269 OA
BRANCH  33  36
ATOM     36  C   UNL A   1      40.036  23.618  27.283  1.00  0.00     0.039 A 
ATOM     37  C   UNL A   1      39.071  24.599  27.058  1.00  0.00     0.014 A 
ATOM     38  C   UNL A   1      41.230  23.976  27.882  1.00  0.00     0.014 A 
ATOM     39  C   UNL A   1      39.315  25.901  27.506  1.00  0.00     0.010 A 
ATOM     40  C   UNL A   1      41.416  25.192  28.469  1.00  0.00     0.010 A 
ATOM     41  C   UNL A   1      40.491  26.182  28.223  1.00  0.00    -0.014 A 
BRANCH  41  42
ATOM     42  C   UNL A   1      40.727  27.473  28.845  1.00  0.00     0.031 A 
ATOM     43  C   UNL A   1      41.831  28.242  28.232  1.00  0.00     0.074 A 
ATOM     44  C   UNL A   1      39.882  28.058  29.721  1.00  0.00     0.049 A 
ATOM     45  N   UNL A   1      42.984  28.488  28.753  1.00  0.00    -0.248 NA
ATOM     46  C   UNL A   1      41.703  28.664  26.829  1.00  0.00     0.031 C 
ATOM     47  C   UNL A   1      38.546  27.625  30.145  1.00  0.00     0.029 A 
ATOM     48  N   UNL A   1      40.016  29.260  30.341  1.00  0.00    -0.354 N 
ATOM     49  C   UNL A   1      43.663  29.269  27.827  1.00  0.00     0.074 A 
ATOM     50  C   UNL A   1      42.915  29.176  26.600  1.00  0.00     0.031 C 
ATOM     51  C   UNL A   1      37.916  28.650  30.760  1.00  0.00     0.029 A 
ATOM     52  C   UNL A   1      38.854  29.745  30.922  1.00  0.00     0.049 A 
ATOM     53  H   UNL A   1      40.872  29.748  30.376  1.00  0.00     0.167 HD
ATOM     54  C   UNL A   1      44.644  30.122  28.235  1.00  0.00     0.037 A 
ATOM     55  C   UNL A   1      38.675  30.977  31.459  1.00  0.00     0.037 A 
ATOM     56  C   UNL A   1      45.064  29.812  29.584  1.00  0.00     0.049 A 
ATOM     57  C   UNL A   1      40.023  31.539  31.737  1.00  0.00     0.074 A 
ATOM     58  C   UNL A   1      45.533  28.669  30.209  1.00  0.00     0.029 A 
ATOM     59  N   UNL A   1      44.643  30.635  30.602  1.00  0.00    -0.354 N 
ATOM     60  N   UNL A   1      40.821  31.094  32.668  1.00  0.00    -0.248 NA
ATOM     61  C   UNL A   1      40.670  32.299  30.675  1.00  0.00     0.031 C 
ATOM     62  C   UNL A   1      44.889  28.659  31.484  1.00  0.00     0.029 A 
ATOM     63  C   UNL A   1      44.142  29.831  31.593  1.00  0.00     0.049 A 
ATOM     64  H   UNL A   1      44.692  31.619  30.616  1.00  0.00     0.167 HD
ATOM     65  C   UNL A   1      42.080  31.113  32.087  1.00  0.00     0.074 A 
ATOM     66  C   UNL A   1      41.942  31.959  30.903  1.00  0.00     0.031 C 
ATOM     67  C   UNL A   1      43.038  30.208  32.445  1.00  0.00     0.037 A 
BRANCH  54  68
ATOM     68  C   UNL A   1      44.952  31.452  27.587  1.00  0.00     0.064 A 
ATOM     69  C   UNL A   1      46.209  31.625  26.968  1.00  0.00     0.173 A 
ATOM     70  C   UNL A   1      44.218  32.637  27.801  1.00  0.00     0.173 A 
ATOM     71  F   UNL A   1      46.998  30.570  26.717  1.00  0.00    -0.203 F 
ATOM     72  C   UNL A   1      46.730  32.890  26.692  1.00  0.00     0.198 A 
ATOM     73  C   UNL A   1      44.717  33.896  27.469  1.00  0.00     0.198 A 
ATOM     74  F   UNL A   1      43.043  32.651  28.440  1.00  0.00    -0.203 F 
ATOM     75  F   UNL A   1      47.986  33.007  26.243  1.00  0.00    -0.200 F 
ATOM     76  C   UNL A   1      45.987  34.026  26.952  1.00  0.00     0.200 A 
ATOM     77  F   UNL A   1      43.984  34.986  27.740  1.00  0.00    -0.200 F 
ATOM     78  F   UNL A   1      46.509  35.243  26.752  1.00  0.00    -0.200 F 
ENDBRANCH  54  68
BRANCH  55  79
ATOM     79  C   UNL A   1      37.442  31.794  31.542  1.00  0.00     0.064 A 
ATOM     80  C   UNL A   1      36.782  31.983  32.768  1.00  0.00     0.173 A 
ATOM     81  C   UNL A   1      37.035  32.628  30.481  1.00  0.00     0.173 A 
ATOM     82  F   UNL A   1      37.134  31.261  33.841  1.00  0.00    -0.203 F 
ATOM     83  C   UNL A   1      35.801  32.966  32.932  1.00  0.00     0.198 A 
ATOM     84  C   UNL A   1      36.046  33.600  30.641  1.00  0.00     0.198 A 
ATOM     85  F   UNL A   1      37.654  32.582  29.294  1.00  0.00    -0.203 F 
ATOM     86  F   UNL A   1      35.247  33.162  34.136  1.00  0.00    -0.200 F 
ATOM     87  C   UNL A   1      35.442  33.781  31.871  1.00  0.00     0.200 A 
ATOM     88  F   UNL A   1      35.731  34.405  29.617  1.00  0.00    -0.200 F 
ATOM     89  F   UNL A   1      34.548  34.764  32.044  1.00  0.00    -0.200 F 
ENDBRANCH  55  79
BRANCH  67  90
ATOM     90  C   UNL A   1      42.820  29.384  33.683  1.00  0.00     0.064 A 
ATOM     91  C   UNL A   1      42.089  28.183  33.726  1.00  0.00     0.173 A 
ATOM     92  C   UNL A   1      43.495  29.765  34.853  1.00  0.00     0.173 A 
ATOM     93  F   UNL A   1      41.507  27.686  32.629  1.00  0.00    -0.203 F 
ATOM     94  C   UNL A   1      41.994  27.436  34.900  1.00  0.00     0.198 A 
ATOM     95  C   UNL A   1      43.435  28.994  36.010  1.00  0.00     0.198 A 
ATOM     96  F   UNL A   1      44.254  30.873  34.862  1.00  0.00    -0.203 F 
ATOM     97  F   UNL A   1      41.271  26.306  34.920  1.00  0.00    -0.200 F 
ATOM     98  C   UNL A   1      42.672  27.838  36.038  1.00  0.00     0.200 A 
ATOM     99  F   UNL A   1      44.136  29.361  37.092  1.00  0.00    -0.200 F 
ATOM    100  F   UNL A   1      42.612  27.099  37.155  1.00  0.00    -0.200 F 
ENDBRANCH  67  90
ENDBRANCH  41  42
ENDBRANCH  33  36
ENDBRANCH  31  32
ENDBRANCH   1  31
TORSDOF 11
ENDMDL
MODEL 2
REMARK VINA RESULT:     -14.4      3.100      8.915
REMARK SMILES Cc1ccc(C)c([C@H]2[NH2+][C@@H](C(=O)NCCCNC(=O)c3ccc(-c4c5nc(c(-c6c(F)c(F)c(F)c(F)c6F)c6ccc([nH]6)c(-c6c(F)c(F)c(F)c(F)c6F)c6nc(c(-c7c(F)c(F)c(F)c(F)c7F)c7ccc4[nH]7)C=C6)C=C5)cc3)Cc3c2[nH]c2ccccc32)c1
REMARK SMILES IDX 15 1 14 2 13 3 11 4 12 5 10 7 8 8 9 9 85 10 84 13 86 14
REMARK SMILES IDX 83 15 92 16 87 17 91 19 88 20 90 21 89 22 7 23 1 24 2 25
REMARK SMILES IDX 3 26 93 27 4 28 5 29 6 30 16 31 17 32 18 33 19 35 20 36
REMARK SMILES IDX 21 37 82 38 22 39 81 40 23 41 24 42 25 43 75 44 26 45 80 46
REMARK SMILES IDX 74 47 76 48 27 49 79 50 73 51 72 52 28 54 60 55 40 56 59 57
REMARK SMILES IDX 41 58 44 59 58 60 77 61 42 62 43 63 57 65 78 66 45 67 29 68
REMARK SMILES IDX 30 69 38 70 31 71 32 72 36 73 39 74 33 75 34 76 37 77 35 78
REMARK SMILES IDX 61 79 62 80 70 81 63 82 64 83 68 84 71 85 65 86 66 87 69 88
REMARK SMILES IDX 67 89 46 90 47 91 55 92 48 93 49 94 53 95 56 96 50 97 51 98
REMARK SMILES IDX 54 99 52 100
REMARK H PARENT 13 6 9 11 9 12 86 18 17 34 76 53 44 64
REMARK Flexibility Score: inf
ROOT
ATOM      1  C   UNL A   1      33.207  29.307  25.895  1.00  0.00     0.042 C 
ENDROOT
BRANCH   1   2
ATOM      2  C   UNL A   1      33.674  27.870  25.586  1.00  0.00     0.118 C 
BRANCH   2   3
ATOM      3  N   UNL A   1      32.570  26.918  25.452  1.00  0.00    -0.351 N 
ATOM      4  C   UNL A   1      32.483  25.612  25.091  1.00  0.00     0.278 C 
ATOM      5  O   UNL A   1      31.345  25.121  25.152  1.00  0.00    -0.268 OA
ATOM      6  H   UNL A   1      31.696  27.312  25.675  1.00  0.00     0.163 HD
BRANCH   4   7
ATOM      7  C   UNL A   1      33.673  24.692  24.754  1.00  0.00     0.277 C 
ATOM      8  C   UNL A   1      34.057  22.300  24.086  1.00  0.00     0.262 C 
ATOM      9  N   UNL A   1      33.115  23.341  24.556  1.00  0.00    -0.325 N 
ATOM     10  C   UNL A   1      35.401  22.494  24.759  1.00  0.00     0.083 A 
ATOM     11  H   UNL A   1      32.730  23.031  25.448  1.00  0.00     0.347 HD
ATOM     12  H   UNL A   1      32.427  23.440  23.810  1.00  0.00     0.347 HD
ATOM     13  C   UNL A   1      35.776  23.621  25.465  1.00  0.00    -0.006 A 
ATOM     14  N   UNL A   1      36.515  21.684  24.706  1.00  0.00    -0.353 N 
ATOM     15  C   UNL A   1      34.840  24.726  25.733  1.00  0.00     0.114 C 
ATOM     16  C   UNL A   1      37.102  23.481  25.914  1.00  0.00     0.003 A 
ATOM     17  C   UNL A   1      37.557  22.257  25.428  1.00  0.00     0.046 A 
ATOM     18  H   UNL A   1      36.566  20.826  24.227  1.00  0.00     0.166 HD
ATOM     19  C   UNL A   1      37.942  24.292  26.699  1.00  0.00     0.010 A 
ATOM     20  C   UNL A   1      38.858  21.813  25.699  1.00  0.00     0.026 A 
ATOM     21  C   UNL A   1      39.234  23.857  26.982  1.00  0.00     0.001 A 
ATOM     22  C   UNL A   1      39.683  22.634  26.486  1.00  0.00     0.002 A 
BRANCH   8  23
ATOM     23  C   UNL A   1      33.305  20.977  24.302  1.00  0.00     0.019 A 
ATOM     24  C   UNL A   1      32.150  17.989  22.191  1.00  0.00     0.044 C 
ATOM     25  C   UNL A   1      32.493  18.850  23.369  1.00  0.00    -0.051 A 
ATOM     26  C   UNL A   1      32.449  18.301  24.650  1.00  0.00     0.004 A 
ATOM     27  C   UNL A   1      32.931  20.174  23.202  1.00  0.00     0.014 A 
ATOM     28  C   UNL A   1      32.789  19.074  25.755  1.00  0.00     0.004 A 
ATOM     29  C   UNL A   1      33.194  20.413  25.606  1.00  0.00    -0.042 A 
ATOM     30  C   UNL A   1      33.627  21.119  26.868  1.00  0.00     0.045 C 
ENDBRANCH   8  23
ENDBRANCH   4   7
ENDBRANCH   2   3
ENDBRANCH   1   2
BRANCH   1  31
ATOM     31  C   UNL A   1      33.569  29.902  27.267  1.00  0.00     0.118 C 
BRANCH  31  32
ATOM     32  N   UNL A   1      34.074  31.277  27.195  1.00  0.00    -0.352 N 
ATOM     33  C   UNL A   1      35.238  31.861  27.668  1.00  0.00     0.251 C 
ATOM     34  H   UNL A   1      33.475  31.900  26.723  1.00  0.00     0.163 HD
ATOM     35  O   UNL A   1      35.325  33.076  27.733  1.00  0.00    -0.269 OA
BRANCH  33  36
ATOM     36  C   UNL A   1      36.384  31.021  28.085  1.00  0.00     0.039 A 
ATOM     37  C   UNL A   1      36.485  29.672  27.746  1.00  0.00     0.014 A 
ATOM     38  C   UNL A   1      37.384  31.599  28.845  1.00  0.00     0.014 A 
ATOM     39  C   UNL A   1      37.629  28.965  28.130  1.00  0.00     0.010 A 
ATOM     40  C   UNL A   1      38.572  30.975  29.085  1.00  0.00     0.010 A 
ATOM     41  C   UNL A   1      38.673  29.634  28.792  1.00  0.00    -0.014 A 
BRANCH  41  42
ATOM     42  C   UNL A   1      39.945  28.992  29.076  1.00  0.00     0.031 A 
ATOM     43  C   UNL A   1      40.204  28.786  30.518  1.00  0.00     0.074 A 
ATOM     44  C   UNL A   1      40.717  28.393  28.145  1.00  0.00     0.049 A 
ATOM     45  N   UNL A   1      41.073  29.404  31.242  1.00  0.00    -0.248 NA
ATOM     46  C   UNL A   1      39.306  27.905  31.278  1.00  0.00     0.031 C 
ATOM     47  C   UNL A   1      40.431  28.149  26.727  1.00  0.00     0.029 A 
ATOM     48  N   UNL A   1      41.908  27.763  28.321  1.00  0.00    -0.354 N 
ATOM     49  C   UNL A   1      40.975  28.851  32.512  1.00  0.00     0.074 A 
ATOM     50  C   UNL A   1      39.753  28.088  32.522  1.00  0.00     0.031 C 
ATOM     51  C   UNL A   1      41.305  27.240  26.242  1.00  0.00     0.029 A 
ATOM     52  C   UNL A   1      42.305  26.965  27.257  1.00  0.00     0.049 A 
ATOM     53  H   UNL A   1      42.448  27.865  29.139  1.00  0.00     0.167 HD
ATOM     54  C   UNL A   1      42.045  28.872  33.355  1.00  0.00     0.037 A 
ATOM     55  C   UNL A   1      43.360  26.114  27.238  1.00  0.00     0.037 A 
ATOM     56  C   UNL A   1      43.045  29.808  32.891  1.00  0.00     0.049 A 
ATOM     57  C   UNL A   1      44.270  26.511  28.345  1.00  0.00     0.074 A 
ATOM     58  C   UNL A   1      43.030  31.154  32.568  1.00  0.00     0.029 A 
ATOM     59  N   UNL A   1      44.180  29.306  32.299  1.00  0.00    -0.354 N 
ATOM     60  N   UNL A   1      44.975  27.609  28.352  1.00  0.00    -0.248 NA
ATOM     61  C   UNL A   1      44.045  25.909  29.653  1.00  0.00     0.031 C 
ATOM     62  C   UNL A   1      43.839  31.259  31.396  1.00  0.00     0.029 A 
ATOM     63  C   UNL A   1      44.366  29.997  31.129  1.00  0.00     0.049 A 
ATOM     64  H   UNL A   1      44.752  28.585  32.649  1.00  0.00     0.167 HD
ATOM     65  C   UNL A   1      44.885  28.072  29.656  1.00  0.00     0.074 A 
ATOM     66  C   UNL A   1      44.392  26.937  30.432  1.00  0.00     0.031 C 
ATOM     67  C   UNL A   1      44.931  29.408  29.937  1.00  0.00     0.037 A 
BRANCH  54  68
ATOM     68  C   UNL A   1      42.364  27.795  34.366  1.00  0.00     0.064 A 
ATOM     69  C   UNL A   1      42.986  26.612  33.915  1.00  0.00     0.173 A 
ATOM     70  C   UNL A   1      41.830  27.736  35.670  1.00  0.00     0.173 A 
ATOM     71  F   UNL A   1      43.528  26.548  32.690  1.00  0.00    -0.203 F 
ATOM     72  C   UNL A   1      42.973  25.435  34.668  1.00  0.00     0.198 A 
ATOM     73  C   UNL A   1      41.871  26.576  36.442  1.00  0.00     0.198 A 
ATOM     74  F   UNL A   1      41.147  28.748  36.216  1.00  0.00    -0.203 F 
ATOM     75  F   UNL A   1      43.445  24.301  34.134  1.00  0.00    -0.200 F 
ATOM     76  C   UNL A   1      42.406  25.416  35.928  1.00  0.00     0.200 A 
ATOM     77  F   UNL A   1      41.304  26.575  37.658  1.00  0.00    -0.200 F 
ATOM     78  F   UNL A   1      42.330  24.275  36.624  1.00  0.00    -0.200 F 
ENDBRANCH  54  68
BRANCH  55  79
ATOM     79  C   UNL A   1      43.533  24.851  26.484  1.00  0.00     0.064 A 
ATOM     80  C   UNL A   1      44.393  24.785  25.374  1.00  0.00     0.173 A 
ATOM     81  C   UNL A   1      43.074  23.619  26.991  1.00  0.00     0.173 A 
ATOM     82  F   UNL A   1      44.908  25.906  24.852  1.00  0.00    -0.203 F 
ATOM     83  C   UNL A   1      44.794  23.562  24.827  1.00  0.00     0.198 A 
ATOM     84  C   UNL A   1      43.465  22.398  26.436  1.00  0.00     0.198 A 
ATOM     85  F   UNL A   1      42.314  23.568  28.093  1.00  0.00    -0.203 F 
ATOM     86  F   UNL A   1      45.672  23.540  23.814  1.00  0.00    -0.200 F 
ATOM     87  C   UNL A   1      44.339  22.370  25.366  1.00  0.00     0.200 A 
ATOM     88  F   UNL A   1      43.045  21.252  26.987  1.00  0.00    -0.200 F 
ATOM     89  F   UNL A   1      44.773  21.198  24.883  1.00  0.00    -0.200 F 
ENDBRANCH  55  79
BRANCH  67  90
ATOM     90  C   UNL A   1      45.380  30.353  28.857  1.00  0.00     0.064 A 
ATOM     91  C   UNL A   1      44.533  30.916  27.885  1.00  0.00     0.173 A 
ATOM     92  C   UNL A   1      46.707  30.809  28.892  1.00  0.00     0.173 A 
ATOM     93  F   UNL A   1      43.227  30.625  27.849  1.00  0.00    -0.203 F 
ATOM     94  C   UNL A   1      45.010  31.845  26.960  1.00  0.00     0.198 A 
ATOM     95  C   UNL A   1      47.168  31.768  27.996  1.00  0.00     0.198 A 
ATOM     96  F   UNL A   1      47.551  30.351  29.830  1.00  0.00    -0.203 F 
ATOM     97  F   UNL A   1      44.188  32.349  26.028  1.00  0.00    -0.200 F 
ATOM     98  C   UNL A   1      46.325  32.275  27.021  1.00  0.00     0.200 A 
ATOM     99  F   UNL A   1      48.427  32.220  28.094  1.00  0.00    -0.200 F 
ATOM    100  F   UNL A   1      46.774  33.196  26.157  1.00  0.00    -0.200 F 
ENDBRANCH  67  90
ENDBRANCH  41  42
ENDBRANCH  33  36
ENDBRANCH  31  32
ENDBRANCH   1  31
TORSDOF 11
ENDMDL
MODEL 3
REMARK VINA RESULT:     -14.3      0.853      3.210
REMARK SMILES Cc1ccc(C)c([C@H]2[NH2+][C@@H](C(=O)NCCCNC(=O)c3ccc(-c4c5nc(c(-c6c(F)c(F)c(F)c(F)c6F)c6ccc([nH]6)c(-c6c(F)c(F)c(F)c(F)c6F)c6nc(c(-c7c(F)c(F)c(F)c(F)c7F)c7ccc4[nH]7)C=C6)C=C5)cc3)Cc3c2[nH]c2ccccc32)c1
REMARK SMILES IDX 15 1 14 2 13 3 11 4 12 5 10 7 8 8 9 9 85 10 84 13 86 14
REMARK SMILES IDX 83 15 92 16 87 17 91 19 88 20 90 21 89 22 7 23 1 24 2 25
REMARK SMILES IDX 3 26 93 27 4 28 5 29 6 30 16 31 17 32 18 33 19 35 20 36
REMARK SMILES IDX 21 37 82 38 22 39 81 40 23 41 24 42 25 43 75 44 26 45 80 46
REMARK SMILES IDX 74 47 76 48 27 49 79 50 73 51 72 52 28 54 60 55 40 56 59 57
REMARK SMILES IDX 41 58 44 59 58 60 77 61 42 62 43 63 57 65 78 66 45 67 29 68
REMARK SMILES IDX 30 69 38 70 31 71 32 72 36 73 39 74 33 75 34 76 37 77 35 78
REMARK SMILES IDX 61 79 62 80 70 81 63 82 64 83 68 84 71 85 65 86 66 87 69 88
REMARK SMILES IDX 67 89 46 90 47 91 55 92 48 93 49 94 53 95 56 96 50 97 51 98
REMARK SMILES IDX 54 99 52 100
REMARK H PARENT 13 6 9 11 9 12 86 18 17 34 76 53 44 64
REMARK Flexibility Score: inf
ROOT
ATOM      1  C   UNL A   1      35.861  23.107  26.255  1.00  0.00     0.042 C 
ENDROOT
BRANCH   1   2
ATOM      2  C   UNL A   1      34.528  22.936  25.497  1.00  0.00     0.118 C 
BRANCH   2   3
ATOM      3  N   UNL A   1      33.351  23.169  26.334  1.00  0.00    -0.351 N 
ATOM      4  C   UNL A   1      32.446  24.175  26.439  1.00  0.00     0.278 C 
ATOM      5  O   UNL A   1      31.530  23.981  27.253  1.00  0.00    -0.268 OA
ATOM      6  H   UNL A   1      33.176  22.430  26.962  1.00  0.00     0.163 HD
BRANCH   4   7
ATOM      7  C   UNL A   1      32.400  25.437  25.554  1.00  0.00     0.277 C 
ATOM      8  C   UNL A   1      33.485  27.703  25.470  1.00  0.00     0.262 C 
ATOM      9  N   UNL A   1      33.261  26.439  26.210  1.00  0.00    -0.325 N 
ATOM     10  C   UNL A   1      32.202  28.116  24.776  1.00  0.00     0.083 A 
ATOM     11  H   UNL A   1      32.834  26.676  27.106  1.00  0.00     0.347 HD
ATOM     12  H   UNL A   1      34.179  26.001  26.282  1.00  0.00     0.347 HD
ATOM     13  C   UNL A   1      31.096  27.305  24.614  1.00  0.00    -0.006 A 
ATOM     14  N   UNL A   1      31.932  29.279  24.088  1.00  0.00    -0.353 N 
ATOM     15  C   UNL A   1      31.011  25.962  25.216  1.00  0.00     0.114 C 
ATOM     16  C   UNL A   1      30.106  27.991  23.887  1.00  0.00     0.003 A 
ATOM     17  C   UNL A   1      30.646  29.233  23.561  1.00  0.00     0.046 A 
ATOM     18  H   UNL A   1      32.558  30.032  23.986  1.00  0.00     0.166 HD
ATOM     19  C   UNL A   1      28.798  27.658  23.492  1.00  0.00     0.010 A 
ATOM     20  C   UNL A   1      29.907  30.170  22.825  1.00  0.00     0.026 A 
ATOM     21  C   UNL A   1      28.051  28.584  22.769  1.00  0.00     0.001 A 
ATOM     22  C   UNL A   1      28.601  29.821  22.440  1.00  0.00     0.002 A 
BRANCH   8  23
ATOM     23  C   UNL A   1      34.102  28.651  26.511  1.00  0.00     0.019 A 
ATOM     24  C   UNL A   1      37.559  30.093  27.341  1.00  0.00     0.044 C 
ATOM     25  C   UNL A   1      36.076  29.878  27.319  1.00  0.00    -0.051 A 
ATOM     26  C   UNL A   1      35.247  30.780  27.985  1.00  0.00     0.004 A 
ATOM     27  C   UNL A   1      35.501  28.832  26.578  1.00  0.00     0.014 A 
ATOM     28  C   UNL A   1      33.866  30.614  27.956  1.00  0.00     0.004 A 
ATOM     29  C   UNL A   1      33.279  29.549  27.249  1.00  0.00    -0.042 A 
ATOM     30  C   UNL A   1      31.770  29.530  27.213  1.00  0.00     0.045 C 
ENDBRANCH   8  23
ENDBRANCH   4   7
ENDBRANCH   2   3
ENDBRANCH   1   2
BRANCH   1  31
ATOM     31  C   UNL A   1      37.168  22.941  25.459  1.00  0.00     0.118 C 
BRANCH  31  32
ATOM     32  N   UNL A   1      38.156  22.087  26.126  1.00  0.00    -0.352 N 
ATOM     33  C   UNL A   1      39.355  22.378  26.757  1.00  0.00     0.251 C 
ATOM     34  H   UNL A   1      37.924  21.130  26.126  1.00  0.00     0.163 HD
ATOM     35  O   UNL A   1      40.146  21.481  27.001  1.00  0.00    -0.269 OA
BRANCH  33  36
ATOM     36  C   UNL A   1      39.681  23.769  27.147  1.00  0.00     0.039 A 
ATOM     37  C   UNL A   1      38.826  24.838  26.885  1.00  0.00     0.014 A 
ATOM     38  C   UNL A   1      40.882  24.010  27.790  1.00  0.00     0.014 A 
ATOM     39  C   UNL A   1      39.181  26.113  27.340  1.00  0.00     0.010 A 
ATOM     40  C   UNL A   1      41.165  25.205  28.381  1.00  0.00     0.010 A 
ATOM     41  C   UNL A   1      40.353  26.280  28.099  1.00  0.00    -0.014 A 
BRANCH  41  42
ATOM     42  C   UNL A   1      40.692  27.545  28.727  1.00  0.00     0.031 A 
ATOM     43  C   UNL A   1      41.859  28.222  28.120  1.00  0.00     0.074 A 
ATOM     44  C   UNL A   1      39.895  28.195  29.601  1.00  0.00     0.049 A 
ATOM     45  N   UNL A   1      43.026  28.370  28.647  1.00  0.00    -0.248 NA
ATOM     46  C   UNL A   1      41.772  28.658  26.719  1.00  0.00     0.031 C 
ATOM     47  C   UNL A   1      38.526  27.873  30.018  1.00  0.00     0.029 A 
ATOM     48  N   UNL A   1      40.126  29.380  30.226  1.00  0.00    -0.354 N 
ATOM     49  C   UNL A   1      43.771  29.096  27.726  1.00  0.00     0.074 A 
ATOM     50  C   UNL A   1      43.022  29.069  26.497  1.00  0.00     0.031 C 
ATOM     51  C   UNL A   1      37.980  28.944  30.635  1.00  0.00     0.029 A 
ATOM     52  C   UNL A   1      39.005  29.958  30.804  1.00  0.00     0.049 A 
ATOM     53  H   UNL A   1      41.018  29.795  30.267  1.00  0.00     0.167 HD
ATOM     54  C   UNL A   1      44.818  29.863  28.142  1.00  0.00     0.037 A 
ATOM     55  C   UNL A   1      38.926  31.199  31.346  1.00  0.00     0.037 A 
ATOM     56  C   UNL A   1      45.205  29.515  29.491  1.00  0.00     0.049 A 
ATOM     57  C   UNL A   1      40.315  31.646  31.631  1.00  0.00     0.074 A 
ATOM     58  C   UNL A   1      45.575  28.335  30.114  1.00  0.00     0.029 A 
ATOM     59  N   UNL A   1      44.849  30.366  30.510  1.00  0.00    -0.354 N 
ATOM     60  N   UNL A   1      41.070  31.133  32.564  1.00  0.00    -0.248 NA
ATOM     61  C   UNL A   1      41.027  32.353  30.575  1.00  0.00     0.031 C 
ATOM     62  C   UNL A   1      44.926  28.373  31.386  1.00  0.00     0.029 A 
ATOM     63  C   UNL A   1      44.279  29.602  31.497  1.00  0.00     0.049 A 
ATOM     64  H   UNL A   1      44.979  31.342  30.529  1.00  0.00     0.167 HD
ATOM     65  C   UNL A   1      42.328  31.050  31.987  1.00  0.00     0.074 A 
ATOM     66  C   UNL A   1      42.265  31.908  30.806  1.00  0.00     0.031 C 
ATOM     67  C   UNL A   1      43.207  30.068  32.345  1.00  0.00     0.037 A 
BRANCH  54  68
ATOM     68  C   UNL A   1      45.238  31.165  27.499  1.00  0.00     0.064 A 
ATOM     69  C   UNL A   1      46.568  31.295  27.049  1.00  0.00     0.173 A 
ATOM     70  C   UNL A   1      44.507  32.369  27.578  1.00  0.00     0.173 A 
ATOM     71  F   UNL A   1      47.362  30.219  26.938  1.00  0.00    -0.203 F 
ATOM     72  C   UNL A   1      47.148  32.542  26.806  1.00  0.00     0.198 A 
ATOM     73  C   UNL A   1      45.072  33.607  27.276  1.00  0.00     0.198 A 
ATOM     74  F   UNL A   1      43.258  32.425  28.053  1.00  0.00    -0.203 F 
ATOM     75  F   UNL A   1      48.456  32.622  26.525  1.00  0.00    -0.200 F 
ATOM     76  C   UNL A   1      46.402  33.698  26.929  1.00  0.00     0.200 A 
ATOM     77  F   UNL A   1      44.334  34.718  27.413  1.00  0.00    -0.200 F 
ATOM     78  F   UNL A   1      46.972  34.899  26.763  1.00  0.00    -0.200 F 
ENDBRANCH  54  68
BRANCH  55  79
ATOM     79  C   UNL A   1      37.765  32.115  31.427  1.00  0.00     0.064 A 
ATOM     80  C   UNL A   1      37.313  32.810  30.293  1.00  0.00     0.173 A 
ATOM     81  C   UNL A   1      36.907  32.123  32.546  1.00  0.00     0.173 A 
ATOM     82  F   UNL A   1      38.048  32.821  29.172  1.00  0.00    -0.203 F 
ATOM     83  C   UNL A   1      36.068  33.446  30.268  1.00  0.00     0.198 A 
ATOM     84  C   UNL A   1      35.669  32.769  32.524  1.00  0.00     0.198 A 
ATOM     85  F   UNL A   1      37.209  31.425  33.649  1.00  0.00    -0.203 F 
ATOM     86  F   UNL A   1      35.643  34.038  29.142  1.00  0.00    -0.200 F 
ATOM     87  C   UNL A   1      35.243  33.415  31.380  1.00  0.00     0.200 A 
ATOM     88  F   UNL A   1      34.866  32.703  33.594  1.00  0.00    -0.200 F 
ATOM     89  F   UNL A   1      34.023  33.969  31.334  1.00  0.00    -0.200 F 
ENDBRANCH  55  79
BRANCH  67  90
ATOM     90  C   UNL A   1      42.916  29.260  33.580  1.00  0.00     0.064 A 
ATOM     91  C   UNL A   1      42.106  28.110  33.611  1.00  0.00     0.173 A 
ATOM     92  C   UNL A   1      43.597  29.596  34.760  1.00  0.00     0.173 A 
ATOM     93  F   UNL A   1      41.509  27.652  32.504  1.00  0.00    -0.203 F 
ATOM     94  C   UNL A   1      41.944  27.371  34.783  1.00  0.00     0.198 A 
ATOM     95  C   UNL A   1      43.468  28.831  35.915  1.00  0.00     0.198 A 
ATOM     96  F   UNL A   1      44.427  30.651  34.781  1.00  0.00    -0.203 F 
ATOM     97  F   UNL A   1      41.148  26.292  34.792  1.00  0.00    -0.200 F 
ATOM     98  C   UNL A   1      42.631  27.728  35.931  1.00  0.00     0.200 A 
ATOM     99  F   UNL A   1      44.176  29.151  37.008  1.00  0.00    -0.200 F 
ATOM    100  F   UNL A   1      42.505  26.995  37.047  1.00  0.00    -0.200 F 
ENDBRANCH  67  90
ENDBRANCH  41  42
ENDBRANCH  33  36
ENDBRANCH  31  32
ENDBRANCH   1  31
TORSDOF 11
ENDMDL
