MODEL 1
REMARK VINA RESULT:     -11.6      0.000      0.000
REMARK SMILES O=C(NCCCNC(=O)c1ccc2ncccc2n1)c1ccc(-c2c3nc(c(-c4c(F)c(F)c(F)c(F)c4F)c4ccc([nH]4)c(-c4c(F)c(F)c(F)c(F)c4F)c4nc(c(-c5c(F)c(F)c(F)c(F)c5F)c5ccc2[nH]5)C=C4)C=C3)cc1
REMARK SMILES IDX 4 1 3 2 1 3 2 4 20 6 21 7 82 8 22 9 81 10 23 11 24 12 25 13
REMARK SMILES IDX 75 14 26 15 80 16 74 17 76 18 27 19 79 20 73 21 72 22 28 24
REMARK SMILES IDX 60 25 40 26 59 27 41 28 44 29 58 30 77 31 42 32 43 33 57 35
REMARK SMILES IDX 78 36 45 37 29 38 30 39 38 40 31 41 32 42 36 43 39 44 33 45
REMARK SMILES IDX 34 46 37 47 35 48 61 49 62 50 70 51 63 52 64 53 68 54 71 55
REMARK SMILES IDX 65 56 66 57 69 58 67 59 46 60 47 61 55 62 48 63 49 64 53 65
REMARK SMILES IDX 56 66 50 67 51 68 54 69 52 70 5 71 6 72 7 73 8 74 9 76 10 77
REMARK SMILES IDX 11 78 19 79 12 80 18 81 13 82 17 83 14 84 16 85 15 86
REMARK H PARENT 3 5 76 23 44 34 7 75
REMARK Flexibility Score: inf
ROOT
ATOM      1  C   UNL A   1      34.438  32.806  28.215  1.00  0.00     0.118 C 
ENDROOT
BRANCH   1   2
ATOM      2  N   UNL A   1      33.745  31.595  27.789  1.00  0.00    -0.352 N 
ATOM      3  O   UNL A   1      33.514  29.480  27.052  1.00  0.00    -0.269 OA
ATOM      4  C   UNL A   1      34.219  30.320  27.608  1.00  0.00     0.251 C 
ATOM      5  H   UNL A   1      32.786  31.711  27.601  1.00  0.00     0.163 HD
BRANCH   4   6
ATOM      6  C   UNL A   1      35.576  29.953  28.064  1.00  0.00     0.039 A 
ATOM      7  C   UNL A   1      36.682  30.156  27.236  1.00  0.00     0.014 A 
ATOM      8  C   UNL A   1      35.755  29.439  29.352  1.00  0.00     0.014 A 
ATOM      9  C   UNL A   1      37.933  29.703  27.628  1.00  0.00     0.010 A 
ATOM     10  C   UNL A   1      37.034  29.085  29.790  1.00  0.00     0.010 A 
ATOM     11  C   UNL A   1      38.131  29.195  28.922  1.00  0.00    -0.014 A 
BRANCH  11  12
ATOM     12  C   UNL A   1      39.515  28.895  29.366  1.00  0.00     0.031 A 
ATOM     13  C   UNL A   1      40.249  29.801  30.312  1.00  0.00     0.074 A 
ATOM     14  C   UNL A   1      40.092  27.763  28.917  1.00  0.00     0.049 A 
ATOM     15  N   UNL A   1      41.456  29.668  30.805  1.00  0.00    -0.248 NA
ATOM     16  C   UNL A   1      39.551  31.015  30.759  1.00  0.00     0.031 C 
ATOM     17  C   UNL A   1      39.474  26.819  27.980  1.00  0.00     0.029 A 
ATOM     18  N   UNL A   1      41.310  27.200  29.196  1.00  0.00    -0.354 N 
ATOM     19  C   UNL A   1      41.669  30.784  31.601  1.00  0.00     0.074 A 
ATOM     20  C   UNL A   1      40.474  31.598  31.514  1.00  0.00     0.031 C 
ATOM     21  C   UNL A   1      40.294  25.776  27.798  1.00  0.00     0.029 A 
ATOM     22  C   UNL A   1      41.523  26.009  28.545  1.00  0.00     0.049 A 
ATOM     23  H   UNL A   1      41.969  27.609  29.803  1.00  0.00     0.167 HD
ATOM     24  C   UNL A   1      42.761  31.093  32.339  1.00  0.00     0.037 A 
ATOM     25  C   UNL A   1      42.600  25.204  28.528  1.00  0.00     0.037 A 
ATOM     26  C   UNL A   1      43.936  30.262  32.435  1.00  0.00     0.049 A 
ATOM     27  C   UNL A   1      43.802  25.588  29.341  1.00  0.00     0.074 A 
ATOM     28  C   UNL A   1      45.071  30.462  33.201  1.00  0.00     0.029 A 
ATOM     29  N   UNL A   1      44.128  29.077  31.740  1.00  0.00    -0.354 N 
ATOM     30  N   UNL A   1      43.969  26.622  30.129  1.00  0.00    -0.248 NA
ATOM     31  C   UNL A   1      44.965  24.697  29.260  1.00  0.00     0.031 C 
ATOM     32  C   UNL A   1      45.973  29.427  32.929  1.00  0.00     0.029 A 
ATOM     33  C   UNL A   1      45.377  28.553  32.035  1.00  0.00     0.049 A 
ATOM     34  H   UNL A   1      43.474  28.669  31.128  1.00  0.00     0.167 HD
ATOM     35  C   UNL A   1      45.250  26.502  30.646  1.00  0.00     0.074 A 
ATOM     36  C   UNL A   1      45.804  25.277  30.107  1.00  0.00     0.031 C 
ATOM     37  C   UNL A   1      45.911  27.334  31.487  1.00  0.00     0.037 A 
BRANCH  24  38
ATOM     38  C   UNL A   1      42.764  32.389  33.097  1.00  0.00     0.064 A 
ATOM     39  C   UNL A   1      43.190  33.587  32.507  1.00  0.00     0.173 A 
ATOM     40  C   UNL A   1      42.242  32.446  34.398  1.00  0.00     0.173 A 
ATOM     41  F   UNL A   1      43.704  33.585  31.268  1.00  0.00    -0.203 F 
ATOM     42  C   UNL A   1      43.100  34.795  33.195  1.00  0.00     0.198 A 
ATOM     43  C   UNL A   1      42.131  33.658  35.074  1.00  0.00     0.198 A 
ATOM     44  F   UNL A   1      41.814  31.329  35.005  1.00  0.00    -0.203 F 
ATOM     45  F   UNL A   1      43.533  35.926  32.622  1.00  0.00    -0.200 F 
ATOM     46  C   UNL A   1      42.562  34.831  34.474  1.00  0.00     0.200 A 
ATOM     47  F   UNL A   1      41.597  33.693  36.303  1.00  0.00    -0.200 F 
ATOM     48  F   UNL A   1      42.456  35.997  35.126  1.00  0.00    -0.200 F 
ENDBRANCH  24  38
BRANCH  25  49
ATOM     49  C   UNL A   1      42.599  23.976  27.691  1.00  0.00     0.064 A 
ATOM     50  C   UNL A   1      42.244  22.732  28.228  1.00  0.00     0.173 A 
ATOM     51  C   UNL A   1      42.962  24.023  26.336  1.00  0.00     0.173 A 
ATOM     52  F   UNL A   1      41.906  22.633  29.522  1.00  0.00    -0.203 F 
ATOM     53  C   UNL A   1      42.278  21.577  27.449  1.00  0.00     0.198 A 
ATOM     54  C   UNL A   1      42.961  22.874  25.550  1.00  0.00     0.198 A 
ATOM     55  F   UNL A   1      43.304  25.190  25.771  1.00  0.00    -0.203 F 
ATOM     56  F   UNL A   1      41.987  20.392  28.001  1.00  0.00    -0.200 F 
ATOM     57  C   UNL A   1      42.631  21.649  26.110  1.00  0.00     0.200 A 
ATOM     58  F   UNL A   1      43.284  22.953  24.251  1.00  0.00    -0.200 F 
ATOM     59  F   UNL A   1      42.661  20.539  25.361  1.00  0.00    -0.200 F 
ENDBRANCH  25  49
BRANCH  37  60
ATOM     60  C   UNL A   1      47.301  26.931  31.883  1.00  0.00     0.064 A 
ATOM     61  C   UNL A   1      47.533  26.059  32.958  1.00  0.00     0.173 A 
ATOM     62  C   UNL A   1      48.410  27.408  31.170  1.00  0.00     0.173 A 
ATOM     63  F   UNL A   1      46.505  25.592  33.682  1.00  0.00    -0.203 F 
ATOM     64  C   UNL A   1      48.828  25.704  33.322  1.00  0.00     0.198 A 
ATOM     65  C   UNL A   1      49.702  27.025  31.518  1.00  0.00     0.198 A 
ATOM     66  F   UNL A   1      48.240  28.240  30.132  1.00  0.00    -0.203 F 
ATOM     67  F   UNL A   1      49.030  24.914  34.386  1.00  0.00    -0.200 F 
ATOM     68  C   UNL A   1      49.911  26.181  32.599  1.00  0.00     0.200 A 
ATOM     69  F   UNL A   1      50.746  27.478  30.810  1.00  0.00    -0.200 F 
ATOM     70  F   UNL A   1      51.157  25.835  32.948  1.00  0.00    -0.200 F 
ENDBRANCH  37  60
ENDBRANCH  11  12
ENDBRANCH   4   6
ENDBRANCH   1   2
BRANCH   1  71
ATOM     71  C   UNL A   1      33.585  34.054  28.059  1.00  0.00     0.042 C 
BRANCH  71  72
ATOM     72  C   UNL A   1      34.142  35.267  28.788  1.00  0.00     0.118 C 
BRANCH  72  73
ATOM     73  N   UNL A   1      33.125  35.961  29.564  1.00  0.00    -0.351 N 
ATOM     74  C   UNL A   1      32.872  35.901  30.917  1.00  0.00     0.269 C 
ATOM     75  H   UNL A   1      32.535  36.558  29.050  1.00  0.00     0.163 HD
ATOM     76  O   UNL A   1      31.874  36.453  31.371  1.00  0.00    -0.268 OA
BRANCH  74  77
ATOM     77  C   UNL A   1      33.824  35.182  31.807  1.00  0.00     0.129 A 
ATOM     78  C   UNL A   1      34.404  35.846  32.876  1.00  0.00     0.036 A 
ATOM     79  N   UNL A   1      34.112  33.902  31.472  1.00  0.00    -0.241 NA
ATOM     80  C   UNL A   1      35.398  35.187  33.590  1.00  0.00     0.033 A 
ATOM     81  C   UNL A   1      35.049  33.275  32.209  1.00  0.00     0.090 A 
ATOM     82  C   UNL A   1      35.754  33.888  33.271  1.00  0.00     0.089 A 
ATOM     83  C   UNL A   1      35.374  31.958  31.931  1.00  0.00     0.032 A 
ATOM     84  N   UNL A   1      36.733  33.281  33.969  1.00  0.00    -0.255 NA
ATOM     85  C   UNL A   1      36.371  31.302  32.650  1.00  0.00     0.022 A 
ATOM     86  C   UNL A   1      37.025  32.005  33.643  1.00  0.00     0.112 A 
ENDBRANCH  74  77
ENDBRANCH  72  73
ENDBRANCH  71  72
ENDBRANCH   1  71
TORSDOF 10
ENDMDL
MODEL 2
REMARK VINA RESULT:     -11.5      0.178      1.667
REMARK SMILES O=C(NCCCNC(=O)c1ccc2ncccc2n1)c1ccc(-c2c3nc(c(-c4c(F)c(F)c(F)c(F)c4F)c4ccc([nH]4)c(-c4c(F)c(F)c(F)c(F)c4F)c4nc(c(-c5c(F)c(F)c(F)c(F)c5F)c5ccc2[nH]5)C=C4)C=C3)cc1
REMARK SMILES IDX 4 1 3 2 1 3 2 4 20 6 21 7 82 8 22 9 81 10 23 11 24 12 25 13
REMARK SMILES IDX 75 14 26 15 80 16 74 17 76 18 27 19 79 20 73 21 72 22 28 24
REMARK SMILES IDX 60 25 40 26 59 27 41 28 44 29 58 30 77 31 42 32 43 33 57 35
REMARK SMILES IDX 78 36 45 37 29 38 30 39 38 40 31 41 32 42 36 43 39 44 33 45
REMARK SMILES IDX 34 46 37 47 35 48 61 49 62 50 70 51 63 52 64 53 68 54 71 55
REMARK SMILES IDX 65 56 66 57 69 58 67 59 46 60 47 61 55 62 48 63 49 64 53 65
REMARK SMILES IDX 56 66 50 67 51 68 54 69 52 70 5 71 6 72 7 73 8 74 9 76 10 77
REMARK SMILES IDX 11 78 19 79 12 80 18 81 13 82 17 83 14 84 16 85 15 86
REMARK H PARENT 3 5 76 23 44 34 7 75
REMARK Flexibility Score: inf
ROOT
ATOM      1  C   UNL A   1      34.400  32.835  28.174  1.00  0.00     0.118 C 
ENDROOT
BRANCH   1   2
ATOM      2  N   UNL A   1      33.714  31.607  27.789  1.00  0.00    -0.352 N 
ATOM      3  O   UNL A   1      33.494  29.470  27.114  1.00  0.00    -0.269 OA
ATOM      4  C   UNL A   1      34.197  30.331  27.638  1.00  0.00     0.251 C 
ATOM      5  H   UNL A   1      32.752  31.709  27.609  1.00  0.00     0.163 HD
BRANCH   4   6
ATOM      6  C   UNL A   1      35.562  29.990  28.089  1.00  0.00     0.039 A 
ATOM      7  C   UNL A   1      36.653  30.154  27.235  1.00  0.00     0.014 A 
ATOM      8  C   UNL A   1      35.763  29.539  29.398  1.00  0.00     0.014 A 
ATOM      9  C   UNL A   1      37.912  29.722  27.627  1.00  0.00     0.010 A 
ATOM     10  C   UNL A   1      37.050  29.208  29.831  1.00  0.00     0.010 A 
ATOM     11  C   UNL A   1      38.132  29.278  28.941  1.00  0.00    -0.014 A 
BRANCH  11  12
ATOM     12  C   UNL A   1      39.524  29.002  29.376  1.00  0.00     0.031 A 
ATOM     13  C   UNL A   1      40.251  29.924  30.312  1.00  0.00     0.074 A 
ATOM     14  C   UNL A   1      40.116  27.877  28.929  1.00  0.00     0.049 A 
ATOM     15  N   UNL A   1      41.463  29.813  30.797  1.00  0.00    -0.248 NA
ATOM     16  C   UNL A   1      39.537  31.129  30.758  1.00  0.00     0.031 C 
ATOM     17  C   UNL A   1      39.506  26.919  28.002  1.00  0.00     0.029 A 
ATOM     18  N   UNL A   1      41.344  27.334  29.201  1.00  0.00    -0.354 N 
ATOM     19  C   UNL A   1      41.664  30.937  31.585  1.00  0.00     0.074 A 
ATOM     20  C   UNL A   1      40.456  31.731  31.503  1.00  0.00     0.031 C 
ATOM     21  C   UNL A   1      40.340  25.887  27.818  1.00  0.00     0.029 A 
ATOM     22  C   UNL A   1      41.571  26.143  28.555  1.00  0.00     0.049 A 
ATOM     23  H   UNL A   1      42.001  27.757  29.801  1.00  0.00     0.167 HD
ATOM     24  C   UNL A   1      42.758  31.266  32.313  1.00  0.00     0.037 A 
ATOM     25  C   UNL A   1      42.661  25.355  28.534  1.00  0.00     0.037 A 
ATOM     26  C   UNL A   1      43.946  30.454  32.405  1.00  0.00     0.049 A 
ATOM     27  C   UNL A   1      43.862  25.762  29.336  1.00  0.00     0.074 A 
ATOM     28  C   UNL A   1      45.084  30.676  33.161  1.00  0.00     0.029 A 
ATOM     29  N   UNL A   1      44.151  29.269  31.714  1.00  0.00    -0.354 N 
ATOM     30  N   UNL A   1      44.019  26.803  30.117  1.00  0.00    -0.248 NA
ATOM     31  C   UNL A   1      45.039  24.890  29.251  1.00  0.00     0.031 C 
ATOM     32  C   UNL A   1      45.999  29.654  32.888  1.00  0.00     0.029 A 
ATOM     33  C   UNL A   1      45.411  28.766  32.003  1.00  0.00     0.049 A 
ATOM     34  H   UNL A   1      43.499  28.847  31.109  1.00  0.00     0.167 HD
ATOM     35  C   UNL A   1      45.305  26.706  30.626  1.00  0.00     0.074 A 
ATOM     36  C   UNL A   1      45.875  25.487  30.089  1.00  0.00     0.031 C 
ATOM     37  C   UNL A   1      45.960  27.552  31.457  1.00  0.00     0.037 A 
BRANCH  24  38
ATOM     38  C   UNL A   1      42.745  32.566  33.064  1.00  0.00     0.064 A 
ATOM     39  C   UNL A   1      43.165  33.765  32.471  1.00  0.00     0.173 A 
ATOM     40  C   UNL A   1      42.215  32.626  34.362  1.00  0.00     0.173 A 
ATOM     41  F   UNL A   1      43.687  33.761  31.235  1.00  0.00    -0.203 F 
ATOM     42  C   UNL A   1      43.062  34.976  33.152  1.00  0.00     0.198 A 
ATOM     43  C   UNL A   1      42.091  33.840  35.031  1.00  0.00     0.198 A 
ATOM     44  F   UNL A   1      41.792  31.509  34.973  1.00  0.00    -0.203 F 
ATOM     45  F   UNL A   1      43.489  36.107  32.575  1.00  0.00    -0.200 F 
ATOM     46  C   UNL A   1      42.515  35.014  34.427  1.00  0.00     0.200 A 
ATOM     47  F   UNL A   1      41.549  33.878  36.256  1.00  0.00    -0.200 F 
ATOM     48  F   UNL A   1      42.397  36.183  35.072  1.00  0.00    -0.200 F 
ENDBRANCH  24  38
BRANCH  25  49
ATOM     49  C   UNL A   1      42.673  24.123  27.703  1.00  0.00     0.064 A 
ATOM     50  C   UNL A   1      43.060  24.159  26.358  1.00  0.00     0.173 A 
ATOM     51  C   UNL A   1      42.287  22.885  28.238  1.00  0.00     0.173 A 
ATOM     52  F   UNL A   1      43.421  25.323  25.796  1.00  0.00    -0.203 F 
ATOM     53  C   UNL A   1      43.037  23.009  25.571  1.00  0.00     0.198 A 
ATOM     54  C   UNL A   1      42.297  21.729  27.462  1.00  0.00     0.198 A 
ATOM     55  F   UNL A   1      41.913  22.794  29.523  1.00  0.00    -0.203 F 
ATOM     56  F   UNL A   1      43.359  23.081  24.274  1.00  0.00    -0.200 F 
ATOM     57  C   UNL A   1      42.660  21.794  26.125  1.00  0.00     0.200 A 
ATOM     58  F   UNL A   1      41.951  20.555  28.007  1.00  0.00    -0.200 F 
ATOM     59  F   UNL A   1      42.640  20.688  25.370  1.00  0.00    -0.200 F 
ENDBRANCH  25  49
BRANCH  37  60
ATOM     60  C   UNL A   1      47.358  27.174  31.845  1.00  0.00     0.064 A 
ATOM     61  C   UNL A   1      48.467  27.596  31.096  1.00  0.00     0.173 A 
ATOM     62  C   UNL A   1      47.593  26.397  32.989  1.00  0.00     0.173 A 
ATOM     63  F   UNL A   1      48.291  28.325  29.984  1.00  0.00    -0.203 F 
ATOM     64  C   UNL A   1      49.758  27.227  31.462  1.00  0.00     0.198 A 
ATOM     65  C   UNL A   1      48.888  26.057  33.369  1.00  0.00     0.198 A 
ATOM     66  F   UNL A   1      46.567  25.973  33.742  1.00  0.00    -0.203 F 
ATOM     67  F   UNL A   1      50.798  27.595  30.701  1.00  0.00    -0.200 F 
ATOM     68  C   UNL A   1      49.968  26.465  32.601  1.00  0.00     0.200 A 
ATOM     69  F   UNL A   1      49.090  25.330  34.477  1.00  0.00    -0.200 F 
ATOM     70  F   UNL A   1      51.212  26.114  32.953  1.00  0.00    -0.200 F 
ENDBRANCH  37  60
ENDBRANCH  11  12
ENDBRANCH   4   6
ENDBRANCH   1   2
BRANCH   1  71
ATOM     71  C   UNL A   1      33.523  34.067  28.025  1.00  0.00     0.042 C 
BRANCH  71  72
ATOM     72  C   UNL A   1      34.060  35.289  28.753  1.00  0.00     0.118 C 
BRANCH  72  73
ATOM     73  N   UNL A   1      33.032  35.967  29.529  1.00  0.00    -0.351 N 
ATOM     74  C   UNL A   1      32.794  35.922  30.885  1.00  0.00     0.269 C 
ATOM     75  H   UNL A   1      32.421  36.540  29.012  1.00  0.00     0.163 HD
ATOM     76  O   UNL A   1      31.785  36.453  31.341  1.00  0.00    -0.268 OA
BRANCH  74  77
ATOM     77  C   UNL A   1      33.773  35.242  31.777  1.00  0.00     0.129 A 
ATOM     78  C   UNL A   1      34.390  35.955  32.792  1.00  0.00     0.036 A 
ATOM     79  N   UNL A   1      34.047  33.947  31.495  1.00  0.00    -0.241 NA
ATOM     80  C   UNL A   1      35.406  35.327  33.504  1.00  0.00     0.033 A 
ATOM     81  C   UNL A   1      35.006  33.352  32.230  1.00  0.00     0.090 A 
ATOM     82  C   UNL A   1      35.748  34.012  33.236  1.00  0.00     0.089 A 
ATOM     83  C   UNL A   1      35.318  32.021  32.005  1.00  0.00     0.032 A 
ATOM     84  N   UNL A   1      36.748  33.435  33.930  1.00  0.00    -0.255 NA
ATOM     85  C   UNL A   1      36.337  31.397  32.721  1.00  0.00     0.022 A 
ATOM     86  C   UNL A   1      37.026  32.144  33.656  1.00  0.00     0.112 A 
ENDBRANCH  74  77
ENDBRANCH  72  73
ENDBRANCH  71  72
ENDBRANCH   1  71
TORSDOF 10
ENDMDL
MODEL 3
REMARK VINA RESULT:     -11.5      0.312      1.215
REMARK SMILES O=C(NCCCNC(=O)c1ccc2ncccc2n1)c1ccc(-c2c3nc(c(-c4c(F)c(F)c(F)c(F)c4F)c4ccc([nH]4)c(-c4c(F)c(F)c(F)c(F)c4F)c4nc(c(-c5c(F)c(F)c(F)c(F)c5F)c5ccc2[nH]5)C=C4)C=C3)cc1
REMARK SMILES IDX 4 1 3 2 1 3 2 4 20 6 21 7 82 8 22 9 81 10 23 11 24 12 25 13
REMARK SMILES IDX 75 14 26 15 80 16 74 17 76 18 27 19 79 20 73 21 72 22 28 24
REMARK SMILES IDX 60 25 40 26 59 27 41 28 44 29 58 30 77 31 42 32 43 33 57 35
REMARK SMILES IDX 78 36 45 37 29 38 30 39 38 40 31 41 32 42 36 43 39 44 33 45
REMARK SMILES IDX 34 46 37 47 35 48 61 49 62 50 70 51 63 52 64 53 68 54 71 55
REMARK SMILES IDX 65 56 66 57 69 58 67 59 46 60 47 61 55 62 48 63 49 64 53 65
REMARK SMILES IDX 56 66 50 67 51 68 54 69 52 70 5 71 6 72 7 73 8 74 9 76 10 77
REMARK SMILES IDX 11 78 19 79 12 80 18 81 13 82 17 83 14 84 16 85 15 86
REMARK H PARENT 3 5 76 23 44 34 7 75
REMARK Flexibility Score: inf
ROOT
ATOM      1  C   UNL A   1      34.624  32.808  28.068  1.00  0.00     0.118 C 
ENDROOT
BRANCH   1   2
ATOM      2  N   UNL A   1      33.910  31.574  27.759  1.00  0.00    -0.352 N 
ATOM      3  O   UNL A   1      33.642  29.413  27.185  1.00  0.00    -0.269 OA
ATOM      4  C   UNL A   1      34.372  30.286  27.650  1.00  0.00     0.251 C 
ATOM      5  H   UNL A   1      32.944  31.682  27.603  1.00  0.00     0.163 HD
BRANCH   4   6
ATOM      6  C   UNL A   1      35.746  29.946  28.075  1.00  0.00     0.039 A 
ATOM      7  C   UNL A   1      36.831  30.200  27.236  1.00  0.00     0.014 A 
ATOM      8  C   UNL A   1      35.959  29.403  29.346  1.00  0.00     0.014 A 
ATOM      9  C   UNL A   1      38.101  29.771  27.596  1.00  0.00     0.010 A 
ATOM     10  C   UNL A   1      37.255  29.073  29.755  1.00  0.00     0.010 A 
ATOM     11  C   UNL A   1      38.333  29.235  28.873  1.00  0.00    -0.014 A 
BRANCH  11  12
ATOM     12  C   UNL A   1      39.732  28.962  29.287  1.00  0.00     0.031 A 
ATOM     13  C   UNL A   1      40.476  29.892  30.200  1.00  0.00     0.074 A 
ATOM     14  C   UNL A   1      40.314  27.830  28.841  1.00  0.00     0.049 A 
ATOM     15  N   UNL A   1      41.696  29.784  30.665  1.00  0.00    -0.248 NA
ATOM     16  C   UNL A   1      39.772  31.104  30.645  1.00  0.00     0.031 C 
ATOM     17  C   UNL A   1      39.687  26.864  27.935  1.00  0.00     0.029 A 
ATOM     18  N   UNL A   1      41.546  27.289  29.098  1.00  0.00    -0.354 N 
ATOM     19  C   UNL A   1      41.913  30.916  31.438  1.00  0.00     0.074 A 
ATOM     20  C   UNL A   1      40.705  31.711  31.368  1.00  0.00     0.031 C 
ATOM     21  C   UNL A   1      40.516  25.829  27.749  1.00  0.00     0.029 A 
ATOM     22  C   UNL A   1      41.760  26.090  28.461  1.00  0.00     0.049 A 
ATOM     23  H   UNL A   1      42.214  27.717  29.682  1.00  0.00     0.167 HD
ATOM     24  C   UNL A   1      43.019  31.251  32.143  1.00  0.00     0.037 A 
ATOM     25  C   UNL A   1      42.848  25.301  28.430  1.00  0.00     0.037 A 
ATOM     26  C   UNL A   1      44.207  30.438  32.223  1.00  0.00     0.049 A 
ATOM     27  C   UNL A   1      44.064  25.714  29.207  1.00  0.00     0.074 A 
ATOM     28  C   UNL A   1      45.358  30.667  32.957  1.00  0.00     0.029 A 
ATOM     29  N   UNL A   1      44.399  29.246  31.542  1.00  0.00    -0.354 N 
ATOM     30  N   UNL A   1      44.236  26.763  29.974  1.00  0.00    -0.248 NA
ATOM     31  C   UNL A   1      45.238  24.839  29.111  1.00  0.00     0.031 C 
ATOM     32  C   UNL A   1      46.267  29.641  32.679  1.00  0.00     0.029 A 
ATOM     33  C   UNL A   1      45.662  28.744  31.814  1.00  0.00     0.049 A 
ATOM     34  H   UNL A   1      43.736  28.818  30.953  1.00  0.00     0.167 HD
ATOM     35  C   UNL A   1      45.530  26.669  30.461  1.00  0.00     0.074 A 
ATOM     36  C   UNL A   1      46.089  25.443  29.927  1.00  0.00     0.031 C 
ATOM     37  C   UNL A   1      46.200  27.523  31.272  1.00  0.00     0.037 A 
BRANCH  24  38
ATOM     38  C   UNL A   1      43.022  32.559  32.880  1.00  0.00     0.064 A 
ATOM     39  C   UNL A   1      43.418  33.754  32.262  1.00  0.00     0.173 A 
ATOM     40  C   UNL A   1      42.530  32.631  34.193  1.00  0.00     0.173 A 
ATOM     41  F   UNL A   1      43.903  33.739  31.011  1.00  0.00    -0.203 F 
ATOM     42  C   UNL A   1      43.328  34.971  32.933  1.00  0.00     0.198 A 
ATOM     43  C   UNL A   1      42.418  33.852  34.852  1.00  0.00     0.198 A 
ATOM     44  F   UNL A   1      42.131  31.518  34.827  1.00  0.00    -0.203 F 
ATOM     45  F   UNL A   1      43.732  36.098  32.332  1.00  0.00    -0.200 F 
ATOM     46  C   UNL A   1      42.819  35.021  34.223  1.00  0.00     0.200 A 
ATOM     47  F   UNL A   1      41.912  33.900  36.092  1.00  0.00    -0.200 F 
ATOM     48  F   UNL A   1      42.713  36.196  34.859  1.00  0.00    -0.200 F 
ENDBRANCH  24  38
BRANCH  25  49
ATOM     49  C   UNL A   1      42.844  24.060  27.612  1.00  0.00     0.064 A 
ATOM     50  C   UNL A   1      42.487  22.825  28.169  1.00  0.00     0.173 A 
ATOM     51  C   UNL A   1      43.205  24.084  26.257  1.00  0.00     0.173 A 
ATOM     52  F   UNL A   1      42.151  22.747  29.466  1.00  0.00    -0.203 F 
ATOM     53  C   UNL A   1      42.518  21.657  27.409  1.00  0.00     0.198 A 
ATOM     54  C   UNL A   1      43.201  22.924  25.489  1.00  0.00     0.198 A 
ATOM     55  F   UNL A   1      43.548  25.242  25.672  1.00  0.00    -0.203 F 
ATOM     56  F   UNL A   1      42.226  20.482  27.981  1.00  0.00    -0.200 F 
ATOM     57  C   UNL A   1      42.870  21.708  26.068  1.00  0.00     0.200 A 
ATOM     58  F   UNL A   1      43.523  22.981  24.189  1.00  0.00    -0.200 F 
ATOM     59  F   UNL A   1      42.897  20.586  25.337  1.00  0.00    -0.200 F 
ENDBRANCH  25  49
BRANCH  37  60
ATOM     60  C   UNL A   1      47.605  27.147  31.640  1.00  0.00     0.064 A 
ATOM     61  C   UNL A   1      48.707  27.644  30.929  1.00  0.00     0.173 A 
ATOM     62  C   UNL A   1      47.850  26.295  32.727  1.00  0.00     0.173 A 
ATOM     63  F   UNL A   1      48.521  28.446  29.871  1.00  0.00    -0.203 F 
ATOM     64  C   UNL A   1      50.004  27.276  31.275  1.00  0.00     0.198 A 
ATOM     65  C   UNL A   1      49.150  25.956  33.089  1.00  0.00     0.198 A 
ATOM     66  F   UNL A   1      46.830  25.798  33.442  1.00  0.00    -0.203 F 
ATOM     67  F   UNL A   1      51.040  27.718  30.548  1.00  0.00    -0.200 F 
ATOM     68  C   UNL A   1      50.226  26.439  32.358  1.00  0.00     0.200 A 
ATOM     69  F   UNL A   1      49.363  25.156  34.144  1.00  0.00    -0.200 F 
ATOM     70  F   UNL A   1      51.475  26.089  32.691  1.00  0.00    -0.200 F 
ENDBRANCH  37  60
ENDBRANCH  11  12
ENDBRANCH   4   6
ENDBRANCH   1   2
BRANCH   1  71
ATOM     71  C   UNL A   1      33.729  34.035  27.997  1.00  0.00     0.042 C 
BRANCH  71  72
ATOM     72  C   UNL A   1      34.287  35.238  28.740  1.00  0.00     0.118 C 
BRANCH  72  73
ATOM     73  N   UNL A   1      33.258  35.960  29.475  1.00  0.00    -0.351 N 
ATOM     74  C   UNL A   1      32.954  35.914  30.819  1.00  0.00     0.269 C 
ATOM     75  H   UNL A   1      32.700  36.567  28.937  1.00  0.00     0.163 HD
ATOM     76  O   UNL A   1      31.952  36.490  31.233  1.00  0.00    -0.268 OA
BRANCH  74  77
ATOM     77  C   UNL A   1      33.857  35.178  31.746  1.00  0.00     0.129 A 
ATOM     78  C   UNL A   1      34.349  35.814  32.876  1.00  0.00     0.036 A 
ATOM     79  N   UNL A   1      34.191  33.917  31.388  1.00  0.00    -0.241 NA
ATOM     80  C   UNL A   1      35.304  35.146  33.633  1.00  0.00     0.033 A 
ATOM     81  C   UNL A   1      35.087  33.280  32.166  1.00  0.00     0.090 A 
ATOM     82  C   UNL A   1      35.707  33.866  33.294  1.00  0.00     0.089 A 
ATOM     83  C   UNL A   1      35.456  31.979  31.865  1.00  0.00     0.032 A 
ATOM     84  N   UNL A   1      36.646  33.250  34.037  1.00  0.00    -0.255 NA
ATOM     85  C   UNL A   1      36.414  31.315  32.628  1.00  0.00     0.022 A 
ATOM     86  C   UNL A   1      36.985  31.992  33.687  1.00  0.00     0.112 A 
ENDBRANCH  74  77
ENDBRANCH  72  73
ENDBRANCH  71  72
ENDBRANCH   1  71
TORSDOF 10
ENDMDL
