MODEL 1
REMARK VINA RESULT:     -14.0      0.000      0.000
REMARK SMILES CC1(C)S[C@H](c2ccc(-c3cccc([N+](=O)[O-])c3)o2)[NH2+][C@@H]1C(=O)NCCCNC(=O)c1ccc(-c2c3nc(c(-c4c(F)c(F)c(F)c(F)c4F)c4ccc([nH]4)c(-c4c(F)c(F)c(F)c(F)c4F)c4nc(c(-c5c(F)c(F)c(F)c(F)c5F)c5ccc2[nH]5)C=C4)C=C3)cc1
REMARK SMILES IDX 25 1 24 2 22 3 23 4 21 6 1 7 2 8 3 9 4 10 5 11 20 12 6 15
REMARK SMILES IDX 7 16 19 17 8 18 9 19 10 20 11 21 18 22 12 23 14 24 13 25
REMARK SMILES IDX 15 26 16 27 17 28 26 29 27 30 28 31 29 32 30 34 31 35 32 36
REMARK SMILES IDX 93 37 33 38 92 39 34 40 35 41 36 42 86 43 37 44 91 45 85 46
REMARK SMILES IDX 87 47 38 48 90 49 84 50 83 51 39 53 71 54 51 55 70 56 52 57
REMARK SMILES IDX 55 58 69 59 88 60 53 61 54 62 68 64 89 65 56 66 40 67 41 68
REMARK SMILES IDX 49 69 42 70 43 71 47 72 50 73 44 74 45 75 48 76 46 77 72 78
REMARK SMILES IDX 73 79 81 80 74 81 75 82 79 83 82 84 76 85 77 86 80 87 78 88
REMARK SMILES IDX 57 89 58 90 66 91 59 92 60 93 64 94 67 95 61 96 62 97 65 98
REMARK SMILES IDX 63 99
REMARK H PARENT 24 5 20 13 20 14 28 33 87 52 55 63
REMARK Flexibility Score: inf
ROOT
ATOM      1  C   UNL A   1      31.940  28.203  27.629  1.00  0.00     0.118 C 
ENDROOT
BRANCH   1   2
ATOM      2  N   UNL A   1      32.987  27.655  26.788  1.00  0.00    -0.351 N 
ATOM      3  C   UNL A   1      32.950  26.463  26.104  1.00  0.00     0.279 C 
ATOM      4  O   UNL A   1      33.862  26.251  25.307  1.00  0.00    -0.268 OA
ATOM      5  H   UNL A   1      33.807  28.191  26.699  1.00  0.00     0.163 HD
BRANCH   3   6
ATOM      6  C   UNL A   1      31.851  25.435  26.478  1.00  0.00     0.289 C 
ATOM      7  C   UNL A   1      31.179  23.018  26.806  1.00  0.00     0.030 C 
ATOM      8  C   UNL A   1      31.932  24.007  25.888  1.00  0.00     0.078 C 
ATOM      9  C   UNL A   1      33.327  23.441  25.624  1.00  0.00     0.030 C 
ATOM     10  S   UNL A   1      31.014  24.137  24.317  1.00  0.00    -0.078 SA
ATOM     11  C   UNL A   1      30.151  25.651  24.789  1.00  0.00     0.311 C 
ATOM     12  N   UNL A   1      30.488  25.980  26.179  1.00  0.00    -0.317 N 
ATOM     13  H   UNL A   1      29.803  25.561  26.809  1.00  0.00     0.348 HD
ATOM     14  H   UNL A   1      30.479  26.992  26.310  1.00  0.00     0.348 HD
BRANCH  11  15
ATOM     15  C   UNL A   1      30.335  26.754  23.792  1.00  0.00     0.172 A 
ATOM     16  C   UNL A   1      30.958  26.753  22.557  1.00  0.00     0.054 A 
ATOM     17  O   UNL A   1      29.812  28.000  24.033  1.00  0.00    -0.454 OA
ATOM     18  C   UNL A   1      30.789  28.044  22.010  1.00  0.00     0.051 A 
ATOM     19  C   UNL A   1      30.085  28.777  22.941  1.00  0.00     0.134 A 
BRANCH  19  20
ATOM     20  C   UNL A   1      29.570  30.139  22.945  1.00  0.00     0.024 A 
ATOM     21  C   UNL A   1      29.708  30.972  24.065  1.00  0.00     0.012 A 
ATOM     22  C   UNL A   1      28.933  30.643  21.800  1.00  0.00     0.097 A 
ATOM     23  C   UNL A   1      29.218  32.284  24.049  1.00  0.00     0.008 A 
ATOM     24  C   UNL A   1      28.429  31.951  21.794  1.00  0.00     0.270 A 
ATOM     25  C   UNL A   1      28.570  32.777  22.915  1.00  0.00     0.085 A 
BRANCH  24  26
ATOM     26  N   UNL A   1      27.715  32.445  20.611  1.00  0.00     0.062 N 
ATOM     27  O   UNL A   1      27.401  33.646  20.592  1.00  0.00    -0.258 OA
ATOM     28  O   UNL A   1      27.509  31.647  19.685  1.00  0.00    -0.258 OA
ENDBRANCH  24  26
ENDBRANCH  19  20
ENDBRANCH  11  15
ENDBRANCH   3   6
ENDBRANCH   1   2
BRANCH   1  29
ATOM     29  C   UNL A   1      31.418  29.546  27.153  1.00  0.00     0.042 C 
BRANCH  29  30
ATOM     30  C   UNL A   1      32.452  30.429  26.476  1.00  0.00     0.118 C 
BRANCH  30  31
ATOM     31  N   UNL A   1      32.468  31.804  26.951  1.00  0.00    -0.352 N 
ATOM     32  C   UNL A   1      33.463  32.498  27.600  1.00  0.00     0.251 C 
ATOM     33  H   UNL A   1      31.643  32.314  26.783  1.00  0.00     0.163 HD
ATOM     34  O   UNL A   1      33.254  33.635  28.007  1.00  0.00    -0.269 OA
BRANCH  32  35
ATOM     35  C   UNL A   1      34.770  31.855  27.864  1.00  0.00     0.039 A 
ATOM     36  C   UNL A   1      35.886  32.679  28.031  1.00  0.00     0.014 A 
ATOM     37  C   UNL A   1      34.890  30.475  28.038  1.00  0.00     0.014 A 
ATOM     38  C   UNL A   1      37.071  32.140  28.526  1.00  0.00     0.010 A 
ATOM     39  C   UNL A   1      36.033  29.956  28.634  1.00  0.00     0.010 A 
ATOM     40  C   UNL A   1      37.120  30.794  28.920  1.00  0.00    -0.014 A 
BRANCH  40  41
ATOM     41  C   UNL A   1      38.260  30.278  29.718  1.00  0.00     0.031 A 
ATOM     42  C   UNL A   1      38.470  30.723  31.134  1.00  0.00     0.074 A 
ATOM     43  C   UNL A   1      39.153  29.463  29.118  1.00  0.00     0.049 A 
ATOM     44  N   UNL A   1      39.431  30.405  31.963  1.00  0.00    -0.248 NA
ATOM     45  C   UNL A   1      37.494  31.678  31.680  1.00  0.00     0.031 C 
ATOM     46  C   UNL A   1      39.098  29.031  27.718  1.00  0.00     0.029 A 
ATOM     47  N   UNL A   1      40.281  28.852  29.604  1.00  0.00    -0.354 N 
ATOM     48  C   UNL A   1      39.179  31.125  33.123  1.00  0.00     0.074 A 
ATOM     49  C   UNL A   1      38.014  31.944  32.869  1.00  0.00     0.031 C 
ATOM     50  C   UNL A   1      40.114  28.192  27.472  1.00  0.00     0.029 A 
ATOM     51  C   UNL A   1      40.916  28.054  28.684  1.00  0.00     0.049 A 
ATOM     52  H   UNL A   1      40.605  28.974  30.526  1.00  0.00     0.167 HD
ATOM     53  C   UNL A   1      39.844  31.081  34.302  1.00  0.00     0.037 A 
ATOM     54  C   UNL A   1      42.019  27.292  28.804  1.00  0.00     0.037 A 
ATOM     55  C   UNL A   1      40.988  30.245  34.551  1.00  0.00     0.049 A 
ATOM     56  C   UNL A   1      42.724  27.245  30.130  1.00  0.00     0.074 A 
ATOM     57  C   UNL A   1      41.703  30.084  35.725  1.00  0.00     0.029 A 
ATOM     58  N   UNL A   1      41.586  29.426  33.603  1.00  0.00    -0.354 N 
ATOM     59  N   UNL A   1      42.430  27.869  31.245  1.00  0.00    -0.248 NA
ATOM     60  C   UNL A   1      43.908  26.381  30.220  1.00  0.00     0.031 C 
ATOM     61  C   UNL A   1      42.755  29.195  35.478  1.00  0.00     0.029 A 
ATOM     62  C   UNL A   1      42.670  28.768  34.163  1.00  0.00     0.049 A 
ATOM     63  H   UNL A   1      41.285  29.327  32.672  1.00  0.00     0.167 HD
ATOM     64  C   UNL A   1      43.375  27.457  32.173  1.00  0.00     0.074 A 
ATOM     65  C   UNL A   1      44.241  26.515  31.495  1.00  0.00     0.031 C 
ATOM     66  C   UNL A   1      43.514  27.828  33.469  1.00  0.00     0.037 A 
BRANCH  53  67
ATOM     67  C   UNL A   1      39.338  31.955  35.412  1.00  0.00     0.064 A 
ATOM     68  C   UNL A   1      39.680  33.315  35.487  1.00  0.00     0.173 A 
ATOM     69  C   UNL A   1      38.485  31.439  36.399  1.00  0.00     0.173 A 
ATOM     70  F   UNL A   1      40.503  33.855  34.575  1.00  0.00    -0.203 F 
ATOM     71  C   UNL A   1      39.216  34.115  36.528  1.00  0.00     0.198 A 
ATOM     72  C   UNL A   1      37.998  32.250  37.421  1.00  0.00     0.198 A 
ATOM     73  F   UNL A   1      38.122  30.148  36.373  1.00  0.00    -0.203 F 
ATOM     74  F   UNL A   1      39.601  35.396  36.607  1.00  0.00    -0.200 F 
ATOM     75  C   UNL A   1      38.370  33.585  37.489  1.00  0.00     0.200 A 
ATOM     76  F   UNL A   1      37.173  31.738  38.345  1.00  0.00    -0.200 F 
ATOM     77  F   UNL A   1      37.921  34.357  38.488  1.00  0.00    -0.200 F 
ENDBRANCH  53  67
BRANCH  54  78
ATOM     78  C   UNL A   1      42.493  26.480  27.652  1.00  0.00     0.064 A 
ATOM     79  C   UNL A   1      41.958  25.209  27.403  1.00  0.00     0.173 A 
ATOM     80  C   UNL A   1      43.482  26.954  26.779  1.00  0.00     0.173 A 
ATOM     81  F   UNL A   1      41.022  24.705  28.221  1.00  0.00    -0.203 F 
ATOM     82  C   UNL A   1      42.407  24.434  26.336  1.00  0.00     0.198 A 
ATOM     83  C   UNL A   1      43.911  26.190  25.696  1.00  0.00     0.198 A 
ATOM     84  F   UNL A   1      44.021  28.168  26.968  1.00  0.00    -0.203 F 
ATOM     85  F   UNL A   1      41.908  23.205  26.146  1.00  0.00    -0.200 F 
ATOM     86  C   UNL A   1      43.379  24.927  25.479  1.00  0.00     0.200 A 
ATOM     87  F   UNL A   1      44.841  26.676  24.862  1.00  0.00    -0.200 F 
ATOM     88  F   UNL A   1      43.809  24.184  24.451  1.00  0.00    -0.200 F 
ENDBRANCH  54  78
BRANCH  66  89
ATOM     89  C   UNL A   1      44.628  27.190  34.243  1.00  0.00     0.064 A 
ATOM     90  C   UNL A   1      45.893  27.788  34.339  1.00  0.00     0.173 A 
ATOM     91  C   UNL A   1      44.415  25.983  34.927  1.00  0.00     0.173 A 
ATOM     92  F   UNL A   1      46.149  28.933  33.688  1.00  0.00    -0.203 F 
ATOM     93  C   UNL A   1      46.913  27.187  35.072  1.00  0.00     0.198 A 
ATOM     94  C   UNL A   1      45.430  25.401  35.682  1.00  0.00     0.198 A 
ATOM     95  F   UNL A   1      43.221  25.375  34.870  1.00  0.00    -0.203 F 
ATOM     96  F   UNL A   1      48.128  27.752  35.110  1.00  0.00    -0.200 F 
ATOM     97  C   UNL A   1      46.678  26.000  35.747  1.00  0.00     0.200 A 
ATOM     98  F   UNL A   1      45.199  24.259  36.344  1.00  0.00    -0.200 F 
ATOM     99  F   UNL A   1      47.660  25.426  36.457  1.00  0.00    -0.200 F 
ENDBRANCH  66  89
ENDBRANCH  40  41
ENDBRANCH  32  35
ENDBRANCH  30  31
ENDBRANCH  29  30
ENDBRANCH   1  29
TORSDOF 13
ENDMDL
MODEL 2
REMARK VINA RESULT:     -14.0      2.455      5.314
REMARK SMILES CC1(C)S[C@H](c2ccc(-c3cccc([N+](=O)[O-])c3)o2)[NH2+][C@@H]1C(=O)NCCCNC(=O)c1ccc(-c2c3nc(c(-c4c(F)c(F)c(F)c(F)c4F)c4ccc([nH]4)c(-c4c(F)c(F)c(F)c(F)c4F)c4nc(c(-c5c(F)c(F)c(F)c(F)c5F)c5ccc2[nH]5)C=C4)C=C3)cc1
REMARK SMILES IDX 25 1 24 2 22 3 23 4 21 6 1 7 2 8 3 9 4 10 5 11 20 12 6 15
REMARK SMILES IDX 7 16 19 17 8 18 9 19 10 20 11 21 18 22 12 23 14 24 13 25
REMARK SMILES IDX 15 26 16 27 17 28 26 29 27 30 28 31 29 32 30 34 31 35 32 36
REMARK SMILES IDX 93 37 33 38 92 39 34 40 35 41 36 42 86 43 37 44 91 45 85 46
REMARK SMILES IDX 87 47 38 48 90 49 84 50 83 51 39 53 71 54 51 55 70 56 52 57
REMARK SMILES IDX 55 58 69 59 88 60 53 61 54 62 68 64 89 65 56 66 40 67 41 68
REMARK SMILES IDX 49 69 42 70 43 71 47 72 50 73 44 74 45 75 48 76 46 77 72 78
REMARK SMILES IDX 73 79 81 80 74 81 75 82 79 83 82 84 76 85 77 86 80 87 78 88
REMARK SMILES IDX 57 89 58 90 66 91 59 92 60 93 64 94 67 95 61 96 62 97 65 98
REMARK SMILES IDX 63 99
REMARK H PARENT 24 5 20 13 20 14 28 33 87 52 55 63
REMARK Flexibility Score: inf
ROOT
ATOM      1  C   UNL A   1      32.039  27.837  27.570  1.00  0.00     0.118 C 
ENDROOT
BRANCH   1   2
ATOM      2  N   UNL A   1      31.377  26.725  26.915  1.00  0.00    -0.351 N 
ATOM      3  C   UNL A   1      31.825  26.037  25.813  1.00  0.00     0.279 C 
ATOM      4  O   UNL A   1      31.214  25.015  25.507  1.00  0.00    -0.268 OA
ATOM      5  H   UNL A   1      30.519  26.435  27.299  1.00  0.00     0.163 HD
BRANCH   3   6
ATOM      6  C   UNL A   1      32.971  26.660  24.973  1.00  0.00     0.289 C 
ATOM      7  C   UNL A   1      33.693  27.879  22.877  1.00  0.00     0.030 C 
ATOM      8  C   UNL A   1      32.814  26.738  23.436  1.00  0.00     0.078 C 
ATOM      9  C   UNL A   1      31.398  26.919  22.889  1.00  0.00     0.030 C 
ATOM     10  S   UNL A   1      33.500  25.152  22.851  1.00  0.00    -0.078 SA
ATOM     11  C   UNL A   1      34.415  24.831  24.375  1.00  0.00     0.311 C 
ATOM     12  N   UNL A   1      34.276  25.986  25.269  1.00  0.00    -0.317 N 
ATOM     13  H   UNL A   1      35.044  26.638  25.112  1.00  0.00     0.348 HD
ATOM     14  H   UNL A   1      34.298  25.680  26.242  1.00  0.00     0.348 HD
BRANCH  11  15
ATOM     15  C   UNL A   1      34.087  23.497  24.973  1.00  0.00     0.172 A 
ATOM     16  C   UNL A   1      33.861  23.134  26.288  1.00  0.00     0.054 A 
ATOM     17  O   UNL A   1      33.932  22.396  24.168  1.00  0.00    -0.454 OA
ATOM     18  C   UNL A   1      33.533  21.760  26.286  1.00  0.00     0.051 A 
ATOM     19  C   UNL A   1      33.587  21.346  24.973  1.00  0.00     0.134 A 
BRANCH  19  20
ATOM     20  C   UNL A   1      33.310  20.071  24.325  1.00  0.00     0.024 A 
ATOM     21  C   UNL A   1      32.452  19.982  23.219  1.00  0.00     0.012 A 
ATOM     22  C   UNL A   1      33.923  18.903  24.803  1.00  0.00     0.097 A 
ATOM     23  C   UNL A   1      32.204  18.750  22.599  1.00  0.00     0.008 A 
ATOM     24  C   UNL A   1      33.660  17.670  24.191  1.00  0.00     0.270 A 
ATOM     25  C   UNL A   1      32.803  17.587  23.087  1.00  0.00     0.085 A 
BRANCH  24  26
ATOM     26  N   UNL A   1      34.263  16.448  24.736  1.00  0.00     0.062 N 
ATOM     27  O   UNL A   1      35.439  16.515  25.127  1.00  0.00    -0.258 OA
ATOM     28  O   UNL A   1      33.550  15.436  24.813  1.00  0.00    -0.258 OA
ENDBRANCH  24  26
ENDBRANCH  19  20
ENDBRANCH  11  15
ENDBRANCH   3   6
ENDBRANCH   1   2
BRANCH   1  29
ATOM     29  C   UNL A   1      31.501  29.194  27.159  1.00  0.00     0.042 C 
BRANCH  29  30
ATOM     30  C   UNL A   1      32.508  30.097  26.467  1.00  0.00     0.118 C 
BRANCH  30  31
ATOM     31  N   UNL A   1      32.502  31.473  26.941  1.00  0.00    -0.352 N 
ATOM     32  C   UNL A   1      33.487  32.185  27.586  1.00  0.00     0.251 C 
ATOM     33  H   UNL A   1      31.668  31.969  26.775  1.00  0.00     0.163 HD
ATOM     34  O   UNL A   1      33.260  33.318  27.992  1.00  0.00    -0.269 OA
BRANCH  32  35
ATOM     35  C   UNL A   1      34.806  31.565  27.846  1.00  0.00     0.039 A 
ATOM     36  C   UNL A   1      35.914  32.406  27.966  1.00  0.00     0.014 A 
ATOM     37  C   UNL A   1      34.944  30.192  28.059  1.00  0.00     0.014 A 
ATOM     38  C   UNL A   1      37.115  31.896  28.457  1.00  0.00     0.010 A 
ATOM     39  C   UNL A   1      36.104  29.704  28.650  1.00  0.00     0.010 A 
ATOM     40  C   UNL A   1      37.186  30.562  28.891  1.00  0.00    -0.014 A 
BRANCH  40  41
ATOM     41  C   UNL A   1      38.346  30.084  29.683  1.00  0.00     0.031 A 
ATOM     42  C   UNL A   1      38.563  30.557  31.089  1.00  0.00     0.074 A 
ATOM     43  C   UNL A   1      39.249  29.278  29.086  1.00  0.00     0.049 A 
ATOM     44  N   UNL A   1      39.540  30.273  31.912  1.00  0.00    -0.248 NA
ATOM     45  C   UNL A   1      37.573  31.499  31.631  1.00  0.00     0.031 C 
ATOM     46  C   UNL A   1      39.187  28.823  27.694  1.00  0.00     0.029 A 
ATOM     47  N   UNL A   1      40.396  28.700  29.568  1.00  0.00    -0.354 N 
ATOM     48  C   UNL A   1      39.286  31.006  33.063  1.00  0.00     0.074 A 
ATOM     49  C   UNL A   1      38.101  31.796  32.810  1.00  0.00     0.031 C 
ATOM     50  C   UNL A   1      40.218  28.001  27.450  1.00  0.00     0.029 A 
ATOM     51  C   UNL A   1      41.037  27.901  28.653  1.00  0.00     0.049 A 
ATOM     52  H   UNL A   1      40.728  28.844  30.484  1.00  0.00     0.167 HD
ATOM     53  C   UNL A   1      39.965  30.995  34.235  1.00  0.00     0.037 A 
ATOM     54  C   UNL A   1      42.157  27.164  28.773  1.00  0.00     0.037 A 
ATOM     55  C   UNL A   1      41.130  30.188  34.484  1.00  0.00     0.049 A 
ATOM     56  C   UNL A   1      42.878  27.153  30.091  1.00  0.00     0.074 A 
ATOM     57  C   UNL A   1      41.861  30.061  35.651  1.00  0.00     0.029 A 
ATOM     58  N   UNL A   1      41.734  29.366  33.542  1.00  0.00    -0.354 N 
ATOM     59  N   UNL A   1      42.584  27.790  31.199  1.00  0.00    -0.248 NA
ATOM     60  C   UNL A   1      44.082  26.317  30.180  1.00  0.00     0.031 C 
ATOM     61  C   UNL A   1      42.929  29.191  35.406  1.00  0.00     0.029 A 
ATOM     62  C   UNL A   1      42.838  28.740  34.099  1.00  0.00     0.049 A 
ATOM     63  H   UNL A   1      41.424  29.246  32.616  1.00  0.00     0.167 HD
ATOM     64  C   UNL A   1      43.548  27.412  32.122  1.00  0.00     0.074 A 
ATOM     65  C   UNL A   1      44.427  26.478  31.450  1.00  0.00     0.031 C 
ATOM     66  C   UNL A   1      43.694  27.808  33.411  1.00  0.00     0.037 A 
BRANCH  53  67
ATOM     67  C   UNL A   1      39.453  31.877  35.336  1.00  0.00     0.064 A 
ATOM     68  C   UNL A   1      38.571  31.390  36.314  1.00  0.00     0.173 A 
ATOM     69  C   UNL A   1      39.862  33.215  35.432  1.00  0.00     0.173 A 
ATOM     70  F   UNL A   1      38.139  30.121  36.260  1.00  0.00    -0.203 F 
ATOM     71  C   UNL A   1      38.092  32.218  37.325  1.00  0.00     0.198 A 
ATOM     72  C   UNL A   1      39.405  34.033  36.463  1.00  0.00     0.198 A 
ATOM     73  F   UNL A   1      40.708  33.731  34.527  1.00  0.00    -0.203 F 
ATOM     74  F   UNL A   1      37.208  31.744  38.214  1.00  0.00    -0.200 F 
ATOM     75  C   UNL A   1      38.514  33.536  37.403  1.00  0.00     0.200 A 
ATOM     76  F   UNL A   1      39.821  35.304  36.542  1.00  0.00    -0.200 F 
ATOM     77  F   UNL A   1      38.055  34.332  38.378  1.00  0.00    -0.200 F 
ENDBRANCH  53  67
BRANCH  54  78
ATOM     78  C   UNL A   1      42.636  26.343  27.629  1.00  0.00     0.064 A 
ATOM     79  C   UNL A   1      42.129  25.055  27.410  1.00  0.00     0.173 A 
ATOM     80  C   UNL A   1      43.600  26.826  26.733  1.00  0.00     0.173 A 
ATOM     81  F   UNL A   1      41.217  24.543  28.250  1.00  0.00    -0.203 F 
ATOM     82  C   UNL A   1      42.582  24.272  26.349  1.00  0.00     0.198 A 
ATOM     83  C   UNL A   1      44.033  26.054  25.657  1.00  0.00     0.198 A 
ATOM     84  F   UNL A   1      44.111  28.056  26.893  1.00  0.00    -0.203 F 
ATOM     85  F   UNL A   1      42.112  23.028  26.189  1.00  0.00    -0.200 F 
ATOM     86  C   UNL A   1      43.529  24.774  25.470  1.00  0.00     0.200 A 
ATOM     87  F   UNL A   1      44.938  26.548  24.801  1.00  0.00    -0.200 F 
ATOM     88  F   UNL A   1      43.964  24.024  24.449  1.00  0.00    -0.200 F 
ENDBRANCH  54  78
BRANCH  66  89
ATOM     89  C   UNL A   1      44.830  27.205  34.182  1.00  0.00     0.064 A 
ATOM     90  C   UNL A   1      46.086  27.827  34.245  1.00  0.00     0.173 A 
ATOM     91  C   UNL A   1      44.648  26.012  34.896  1.00  0.00     0.173 A 
ATOM     92  F   UNL A   1      46.313  28.962  33.564  1.00  0.00    -0.203 F 
ATOM     93  C   UNL A   1      47.127  27.260  34.975  1.00  0.00     0.198 A 
ATOM     94  C   UNL A   1      45.684  25.463  35.647  1.00  0.00     0.198 A 
ATOM     95  F   UNL A   1      43.464  25.382  34.871  1.00  0.00    -0.203 F 
ATOM     96  F   UNL A   1      48.332  27.846  34.982  1.00  0.00    -0.200 F 
ATOM     97  C   UNL A   1      46.923  26.084  35.680  1.00  0.00     0.200 A 
ATOM     98  F   UNL A   1      45.482  24.333  36.339  1.00  0.00    -0.200 F 
ATOM     99  F   UNL A   1      47.925  25.544  36.387  1.00  0.00    -0.200 F 
ENDBRANCH  66  89
ENDBRANCH  40  41
ENDBRANCH  32  35
ENDBRANCH  30  31
ENDBRANCH  29  30
ENDBRANCH   1  29
TORSDOF 13
ENDMDL
MODEL 3
REMARK VINA RESULT:     -13.9      2.425      5.231
REMARK SMILES CC1(C)S[C@H](c2ccc(-c3cccc([N+](=O)[O-])c3)o2)[NH2+][C@@H]1C(=O)NCCCNC(=O)c1ccc(-c2c3nc(c(-c4c(F)c(F)c(F)c(F)c4F)c4ccc([nH]4)c(-c4c(F)c(F)c(F)c(F)c4F)c4nc(c(-c5c(F)c(F)c(F)c(F)c5F)c5ccc2[nH]5)C=C4)C=C3)cc1
REMARK SMILES IDX 25 1 24 2 22 3 23 4 21 6 1 7 2 8 3 9 4 10 5 11 20 12 6 15
REMARK SMILES IDX 7 16 19 17 8 18 9 19 10 20 11 21 18 22 12 23 14 24 13 25
REMARK SMILES IDX 15 26 16 27 17 28 26 29 27 30 28 31 29 32 30 34 31 35 32 36
REMARK SMILES IDX 93 37 33 38 92 39 34 40 35 41 36 42 86 43 37 44 91 45 85 46
REMARK SMILES IDX 87 47 38 48 90 49 84 50 83 51 39 53 71 54 51 55 70 56 52 57
REMARK SMILES IDX 55 58 69 59 88 60 53 61 54 62 68 64 89 65 56 66 40 67 41 68
REMARK SMILES IDX 49 69 42 70 43 71 47 72 50 73 44 74 45 75 48 76 46 77 72 78
REMARK SMILES IDX 73 79 81 80 74 81 75 82 79 83 82 84 76 85 77 86 80 87 78 88
REMARK SMILES IDX 57 89 58 90 66 91 59 92 60 93 64 94 67 95 61 96 62 97 65 98
REMARK SMILES IDX 63 99
REMARK H PARENT 24 5 20 13 20 14 28 33 87 52 55 63
REMARK Flexibility Score: inf
ROOT
ATOM      1  C   UNL A   1      31.980  27.854  27.547  1.00  0.00     0.118 C 
ENDROOT
BRANCH   1   2
ATOM      2  N   UNL A   1      31.248  26.814  26.850  1.00  0.00    -0.351 N 
ATOM      3  C   UNL A   1      31.632  26.172  25.697  1.00  0.00     0.279 C 
ATOM      4  O   UNL A   1      30.965  25.198  25.353  1.00  0.00    -0.268 OA
ATOM      5  H   UNL A   1      30.389  26.540  27.244  1.00  0.00     0.163 HD
BRANCH   3   6
ATOM      6  C   UNL A   1      32.781  26.792  24.859  1.00  0.00     0.289 C 
ATOM      7  C   UNL A   1      33.507  28.024  22.773  1.00  0.00     0.030 C 
ATOM      8  C   UNL A   1      32.618  26.887  23.323  1.00  0.00     0.078 C 
ATOM      9  C   UNL A   1      31.202  27.089  22.785  1.00  0.00     0.030 C 
ATOM     10  S   UNL A   1      33.285  25.300  22.720  1.00  0.00    -0.078 SA
ATOM     11  C   UNL A   1      34.203  24.954  24.236  1.00  0.00     0.311 C 
ATOM     12  N   UNL A   1      34.079  26.101  25.142  1.00  0.00    -0.317 N 
ATOM     13  H   UNL A   1      34.854  26.746  24.989  1.00  0.00     0.348 HD
ATOM     14  H   UNL A   1      34.103  25.784  26.112  1.00  0.00     0.348 HD
BRANCH  11  15
ATOM     15  C   UNL A   1      33.863  23.617  24.822  1.00  0.00     0.172 A 
ATOM     16  C   UNL A   1      33.631  23.244  26.133  1.00  0.00     0.054 A 
ATOM     17  O   UNL A   1      33.701  22.524  24.007  1.00  0.00    -0.454 OA
ATOM     18  C   UNL A   1      33.292  21.873  26.118  1.00  0.00     0.051 A 
ATOM     19  C   UNL A   1      33.346  21.469  24.802  1.00  0.00     0.134 A 
BRANCH  19  20
ATOM     20  C   UNL A   1      33.061  20.202  24.143  1.00  0.00     0.024 A 
ATOM     21  C   UNL A   1      32.412  20.152  22.901  1.00  0.00     0.012 A 
ATOM     22  C   UNL A   1      33.456  19.001  24.750  1.00  0.00     0.097 A 
ATOM     23  C   UNL A   1      32.155  18.926  22.274  1.00  0.00     0.008 A 
ATOM     24  C   UNL A   1      33.183  17.775  24.127  1.00  0.00     0.270 A 
ATOM     25  C   UNL A   1      32.535  17.731  22.887  1.00  0.00     0.085 A 
BRANCH  24  26
ATOM     26  N   UNL A   1      33.550  16.523  24.800  1.00  0.00     0.062 N 
ATOM     27  O   UNL A   1      32.920  16.217  25.825  1.00  0.00    -0.258 OA
ATOM     28  O   UNL A   1      34.435  15.827  24.282  1.00  0.00    -0.258 OA
ENDBRANCH  24  26
ENDBRANCH  19  20
ENDBRANCH  11  15
ENDBRANCH   3   6
ENDBRANCH   1   2
BRANCH   1  29
ATOM     29  C   UNL A   1      31.485  29.255  27.242  1.00  0.00     0.042 C 
BRANCH  29  30
ATOM     30  C   UNL A   1      32.487  30.144  26.524  1.00  0.00     0.118 C 
BRANCH  30  31
ATOM     31  N   UNL A   1      32.502  31.523  26.986  1.00  0.00    -0.352 N 
ATOM     32  C   UNL A   1      33.500  32.228  27.617  1.00  0.00     0.251 C 
ATOM     33  H   UNL A   1      31.673  32.028  26.822  1.00  0.00     0.163 HD
ATOM     34  O   UNL A   1      33.290  33.368  28.015  1.00  0.00    -0.269 OA
BRANCH  32  35
ATOM     35  C   UNL A   1      34.814  31.594  27.873  1.00  0.00     0.039 A 
ATOM     36  C   UNL A   1      35.930  32.423  28.002  1.00  0.00     0.014 A 
ATOM     37  C   UNL A   1      34.939  30.218  28.075  1.00  0.00     0.014 A 
ATOM     38  C   UNL A   1      37.125  31.898  28.489  1.00  0.00     0.010 A 
ATOM     39  C   UNL A   1      36.094  29.715  28.663  1.00  0.00     0.010 A 
ATOM     40  C   UNL A   1      37.183  30.560  28.911  1.00  0.00    -0.014 A 
BRANCH  40  41
ATOM     41  C   UNL A   1      38.338  30.065  29.700  1.00  0.00     0.031 A 
ATOM     42  C   UNL A   1      38.565  30.532  31.107  1.00  0.00     0.074 A 
ATOM     43  C   UNL A   1      39.229  29.248  29.101  1.00  0.00     0.049 A 
ATOM     44  N   UNL A   1      39.539  30.233  31.928  1.00  0.00    -0.248 NA
ATOM     45  C   UNL A   1      37.589  31.487  31.653  1.00  0.00     0.031 C 
ATOM     46  C   UNL A   1      39.158  28.795  27.708  1.00  0.00     0.029 A 
ATOM     47  N   UNL A   1      40.369  28.653  29.579  1.00  0.00    -0.354 N 
ATOM     48  C   UNL A   1      39.298  30.968  33.080  1.00  0.00     0.074 A 
ATOM     49  C   UNL A   1      38.123  31.775  32.831  1.00  0.00     0.031 C 
ATOM     50  C   UNL A   1      40.177  27.960  27.460  1.00  0.00     0.029 A 
ATOM     51  C   UNL A   1      40.997  27.846  28.662  1.00  0.00     0.049 A 
ATOM     52  H   UNL A   1      40.704  28.791  30.495  1.00  0.00     0.167 HD
ATOM     53  C   UNL A   1      39.979  30.946  34.250  1.00  0.00     0.037 A 
ATOM     54  C   UNL A   1      42.107  27.094  28.778  1.00  0.00     0.037 A 
ATOM     55  C   UNL A   1      41.133  30.123  34.496  1.00  0.00     0.049 A 
ATOM     56  C   UNL A   1      42.830  27.071  30.095  1.00  0.00     0.074 A 
ATOM     57  C   UNL A   1      41.865  29.984  35.662  1.00  0.00     0.029 A 
ATOM     58  N   UNL A   1      41.724  29.294  33.551  1.00  0.00    -0.354 N 
ATOM     59  N   UNL A   1      42.548  27.710  31.205  1.00  0.00    -0.248 NA
ATOM     60  C   UNL A   1      44.022  26.218  30.180  1.00  0.00     0.031 C 
ATOM     61  C   UNL A   1      42.920  29.099  35.413  1.00  0.00     0.029 A 
ATOM     62  C   UNL A   1      42.820  28.652  34.105  1.00  0.00     0.049 A 
ATOM     63  H   UNL A   1      41.411  29.179  32.626  1.00  0.00     0.167 HD
ATOM     64  C   UNL A   1      43.508  27.318  32.125  1.00  0.00     0.074 A 
ATOM     65  C   UNL A   1      44.372  26.372  31.449  1.00  0.00     0.031 C 
ATOM     66  C   UNL A   1      43.662  27.709  33.414  1.00  0.00     0.037 A 
BRANCH  53  67
ATOM     67  C   UNL A   1      39.481  31.833  35.354  1.00  0.00     0.064 A 
ATOM     68  C   UNL A   1      39.891  33.172  35.460  1.00  0.00     0.173 A 
ATOM     69  C   UNL A   1      38.570  31.350  36.306  1.00  0.00     0.173 A 
ATOM     70  F   UNL A   1      40.772  33.678  34.583  1.00  0.00    -0.203 F 
ATOM     71  C   UNL A   1      39.434  33.983  36.494  1.00  0.00     0.198 A 
ATOM     72  C   UNL A   1      38.091  32.174  37.322  1.00  0.00     0.198 A 
ATOM     73  F   UNL A   1      38.141  30.081  36.250  1.00  0.00    -0.203 F 
ATOM     74  F   UNL A   1      39.882  35.241  36.604  1.00  0.00    -0.200 F 
ATOM     75  C   UNL A   1      38.529  33.486  37.420  1.00  0.00     0.200 A 
ATOM     76  F   UNL A   1      37.209  31.695  38.210  1.00  0.00    -0.200 F 
ATOM     77  F   UNL A   1      38.088  34.269  38.414  1.00  0.00    -0.200 F 
ENDBRANCH  53  67
BRANCH  54  78
ATOM     78  C   UNL A   1      42.572  26.269  27.632  1.00  0.00     0.064 A 
ATOM     79  C   UNL A   1      43.547  26.752  26.750  1.00  0.00     0.173 A 
ATOM     80  C   UNL A   1      42.058  24.985  27.397  1.00  0.00     0.173 A 
ATOM     81  F   UNL A   1      44.057  27.981  26.924  1.00  0.00    -0.203 F 
ATOM     82  C   UNL A   1      43.979  25.993  25.664  1.00  0.00     0.198 A 
ATOM     83  C   UNL A   1      42.510  24.215  26.327  1.00  0.00     0.198 A 
ATOM     84  F   UNL A   1      41.129  24.472  28.216  1.00  0.00    -0.203 F 
ATOM     85  F   UNL A   1      44.882  26.497  24.813  1.00  0.00    -0.200 F 
ATOM     86  C   UNL A   1      43.465  24.722  25.457  1.00  0.00     0.200 A 
ATOM     87  F   UNL A   1      42.021  22.982  26.138  1.00  0.00    -0.200 F 
ATOM     88  F   UNL A   1      43.881  23.990  24.415  1.00  0.00    -0.200 F 
ENDBRANCH  54  78
BRANCH  66  89
ATOM     89  C   UNL A   1      44.791  27.090  34.182  1.00  0.00     0.064 A 
ATOM     90  C   UNL A   1      46.025  27.742  34.326  1.00  0.00     0.173 A 
ATOM     91  C   UNL A   1      44.624  25.847  34.810  1.00  0.00     0.173 A 
ATOM     92  F   UNL A   1      46.238  28.924  33.729  1.00  0.00    -0.203 F 
ATOM     93  C   UNL A   1      47.060  27.158  35.053  1.00  0.00     0.198 A 
ATOM     94  C   UNL A   1      45.651  25.280  35.559  1.00  0.00     0.198 A 
ATOM     95  F   UNL A   1      43.461  25.187  34.705  1.00  0.00    -0.203 F 
ATOM     96  F   UNL A   1      48.245  27.775  35.138  1.00  0.00    -0.200 F 
ATOM     97  C   UNL A   1      46.869  25.933  35.673  1.00  0.00     0.200 A 
ATOM     98  F   UNL A   1      45.463  24.102  36.168  1.00  0.00    -0.200 F 
ATOM     99  F   UNL A   1      47.864  25.376  36.377  1.00  0.00    -0.200 F 
ENDBRANCH  66  89
ENDBRANCH  40  41
ENDBRANCH  32  35
ENDBRANCH  30  31
ENDBRANCH  29  30
ENDBRANCH   1  29
TORSDOF 13
ENDMDL
