MODEL 1
REMARK VINA RESULT:     -14.1      0.000      0.000
REMARK SMILES O=C(NCCCNC(=O)[C@@H](Cc1c[nH]c2ccccc12)NC(=O)c1ccc(F)cc1F)c1ccc(-c2c3nc(c(-c4c(F)c(F)c(F)c(F)c4F)c4ccc([nH]4)c(-c4c(F)c(F)c(F)c(F)c4F)c4nc(c(-c5c(F)c(F)c(F)c(F)c5F)c5ccc2[nH]5)C=C4)C=C3)cc1
REMARK SMILES IDX 5 1 4 2 3 3 1 4 2 5 32 7 33 8 94 9 34 10 93 11 35 12 36 13
REMARK SMILES IDX 37 14 87 15 38 16 92 17 86 18 88 19 39 20 91 21 85 22 84 23
REMARK SMILES IDX 40 25 72 26 52 27 71 28 53 29 56 30 70 31 89 32 54 33 55 34
REMARK SMILES IDX 69 36 90 37 57 38 41 39 42 40 50 41 43 42 44 43 48 44 51 45
REMARK SMILES IDX 45 46 46 47 49 48 47 49 73 50 74 51 82 52 75 53 76 54 80 55
REMARK SMILES IDX 83 56 77 57 78 58 81 59 79 60 58 61 59 62 67 63 60 64 61 65
REMARK SMILES IDX 65 66 68 67 62 68 63 69 66 70 64 71 6 72 7 73 8 74 9 76
REMARK SMILES IDX 10 77 11 78 12 79 13 80 20 81 14 82 15 83 19 84 16 86 18 87
REMARK SMILES IDX 17 88 21 89 22 90 23 92 24 93 25 94 30 95 26 96 29 97 31 98
REMARK SMILES IDX 27 99 28 100
REMARK H PARENT 3 6 88 24 56 35 7 75 14 85 21 91
REMARK Flexibility Score: inf
ROOT
ATOM      1  C   UNL A   1      31.787  28.152  26.366  1.00  0.00     0.042 C 
ENDROOT
BRANCH   1   2
ATOM      2  C   UNL A   1      32.732  29.161  25.728  1.00  0.00     0.118 C 
BRANCH   2   3
ATOM      3  N   UNL A   1      32.519  30.501  26.243  1.00  0.00    -0.352 N 
ATOM      4  O   UNL A   1      32.706  32.267  27.593  1.00  0.00    -0.269 OA
ATOM      5  C   UNL A   1      33.240  31.261  27.127  1.00  0.00     0.251 C 
ATOM      6  H   UNL A   1      31.711  30.943  25.894  1.00  0.00     0.163 HD
BRANCH   5   7
ATOM      7  C   UNL A   1      34.632  30.934  27.542  1.00  0.00     0.039 A 
ATOM      8  C   UNL A   1      35.574  31.906  27.881  1.00  0.00     0.014 A 
ATOM      9  C   UNL A   1      34.945  29.585  27.771  1.00  0.00     0.014 A 
ATOM     10  C   UNL A   1      36.824  31.541  28.387  1.00  0.00     0.010 A 
ATOM     11  C   UNL A   1      36.160  29.221  28.364  1.00  0.00     0.010 A 
ATOM     12  C   UNL A   1      37.103  30.201  28.696  1.00  0.00    -0.014 A 
BRANCH  12  13
ATOM     13  C   UNL A   1      38.286  29.870  29.536  1.00  0.00     0.031 A 
ATOM     14  C   UNL A   1      39.395  28.992  29.038  1.00  0.00     0.074 A 
ATOM     15  C   UNL A   1      38.342  30.372  30.786  1.00  0.00     0.049 A 
ATOM     16  N   UNL A   1      40.482  28.607  29.659  1.00  0.00    -0.248 NA
ATOM     17  C   UNL A   1      39.268  28.474  27.669  1.00  0.00     0.031 C 
ATOM     18  C   UNL A   1      37.316  31.224  31.393  1.00  0.00     0.029 A 
ATOM     19  N   UNL A   1      39.298  30.259  31.764  1.00  0.00    -0.354 N 
ATOM     20  C   UNL A   1      41.169  27.801  28.763  1.00  0.00     0.074 A 
ATOM     21  C   UNL A   1      40.361  27.729  27.561  1.00  0.00     0.031 C 
ATOM     22  C   UNL A   1      37.724  31.606  32.611  1.00  0.00     0.029 A 
ATOM     23  C   UNL A   1      39.007  30.976  32.899  1.00  0.00     0.049 A 
ATOM     24  H   UNL A   1      40.113  29.718  31.662  1.00  0.00     0.167 HD
ATOM     25  C   UNL A   1      42.366  27.185  28.928  1.00  0.00     0.037 A 
ATOM     26  C   UNL A   1      39.689  31.110  34.051  1.00  0.00     0.037 A 
ATOM     27  C   UNL A   1      43.158  27.242  30.132  1.00  0.00     0.049 A 
ATOM     28  C   UNL A   1      40.990  30.386  34.221  1.00  0.00     0.074 A 
ATOM     29  C   UNL A   1      44.373  26.633  30.397  1.00  0.00     0.029 A 
ATOM     30  N   UNL A   1      42.812  27.950  31.274  1.00  0.00    -0.354 N 
ATOM     31  N   UNL A   1      41.624  29.621  33.368  1.00  0.00    -0.248 NA
ATOM     32  C   UNL A   1      41.666  30.538  35.517  1.00  0.00     0.031 C 
ATOM     33  C   UNL A   1      44.745  26.942  31.710  1.00  0.00     0.029 A 
ATOM     34  C   UNL A   1      43.786  27.785  32.249  1.00  0.00     0.049 A 
ATOM     35  H   UNL A   1      41.995  28.490  31.378  1.00  0.00     0.167 HD
ATOM     36  C   UNL A   1      42.781  29.210  34.013  1.00  0.00     0.074 A 
ATOM     37  C   UNL A   1      42.767  29.823  35.326  1.00  0.00     0.031 C 
ATOM     38  C   UNL A   1      43.763  28.398  33.553  1.00  0.00     0.037 A 
BRANCH  25  39
ATOM     39  C   UNL A   1      42.891  26.379  27.774  1.00  0.00     0.064 A 
ATOM     40  C   UNL A   1      43.713  26.970  26.803  1.00  0.00     0.173 A 
ATOM     41  C   UNL A   1      42.545  25.030  27.608  1.00  0.00     0.173 A 
ATOM     42  F   UNL A   1      44.070  28.258  26.911  1.00  0.00    -0.203 F 
ATOM     43  C   UNL A   1      44.167  26.240  25.706  1.00  0.00     0.198 A 
ATOM     44  C   UNL A   1      43.020  24.296  26.523  1.00  0.00     0.198 A 
ATOM     45  F   UNL A   1      41.771  24.415  28.515  1.00  0.00    -0.203 F 
ATOM     46  F   UNL A   1      44.935  26.830  24.781  1.00  0.00    -0.200 F 
ATOM     47  C   UNL A   1      43.825  24.903  25.571  1.00  0.00     0.200 A 
ATOM     48  F   UNL A   1      42.709  22.997  26.408  1.00  0.00    -0.200 F 
ATOM     49  F   UNL A   1      44.277  24.196  24.526  1.00  0.00    -0.200 F 
ENDBRANCH  25  39
BRANCH  26  50
ATOM     50  C   UNL A   1      39.152  32.000  35.110  1.00  0.00     0.064 A 
ATOM     51  C   UNL A   1      39.422  33.376  35.117  1.00  0.00     0.173 A 
ATOM     52  C   UNL A   1      38.420  31.470  36.180  1.00  0.00     0.173 A 
ATOM     53  F   UNL A   1      40.125  33.927  34.117  1.00  0.00    -0.203 F 
ATOM     54  C   UNL A   1      39.006  34.183  36.173  1.00  0.00     0.198 A 
ATOM     55  C   UNL A   1      37.984  32.282  37.224  1.00  0.00     0.198 A 
ATOM     56  F   UNL A   1      38.124  30.162  36.206  1.00  0.00    -0.203 F 
ATOM     57  F   UNL A   1      39.317  35.487  36.181  1.00  0.00    -0.200 F 
ATOM     58  C   UNL A   1      38.288  33.636  37.226  1.00  0.00     0.200 A 
ATOM     59  F   UNL A   1      37.276  31.753  38.232  1.00  0.00    -0.200 F 
ATOM     60  F   UNL A   1      37.892  34.412  38.243  1.00  0.00    -0.200 F 
ENDBRANCH  26  50
BRANCH  38  61
ATOM     61  C   UNL A   1      44.924  28.145  34.468  1.00  0.00     0.064 A 
ATOM     62  C   UNL A   1      44.902  27.057  35.355  1.00  0.00     0.173 A 
ATOM     63  C   UNL A   1      46.041  28.991  34.492  1.00  0.00     0.173 A 
ATOM     64  F   UNL A   1      43.854  26.219  35.372  1.00  0.00    -0.203 F 
ATOM     65  C   UNL A   1      45.956  26.829  36.235  1.00  0.00     0.198 A 
ATOM     66  C   UNL A   1      47.106  28.746  35.357  1.00  0.00     0.198 A 
ATOM     67  F   UNL A   1      46.116  30.034  33.652  1.00  0.00    -0.203 F 
ATOM     68  F   UNL A   1      45.906  25.793  37.084  1.00  0.00    -0.200 F 
ATOM     69  C   UNL A   1      47.060  27.669  36.230  1.00  0.00     0.200 A 
ATOM     70  F   UNL A   1      48.183  29.543  35.334  1.00  0.00    -0.200 F 
ATOM     71  F   UNL A   1      48.083  27.437  37.064  1.00  0.00    -0.200 F 
ENDBRANCH  38  61
ENDBRANCH  12  13
ENDBRANCH   5   7
ENDBRANCH   2   3
ENDBRANCH   1   2
BRANCH   1  72
ATOM     72  C   UNL A   1      31.670  26.843  25.589  1.00  0.00     0.117 C 
BRANCH  72  73
ATOM     73  N   UNL A   1      31.263  25.766  26.476  1.00  0.00    -0.354 N 
ATOM     74  C   UNL A   1      31.221  24.419  26.301  1.00  0.00     0.242 C 
ATOM     75  H   UNL A   1      30.961  26.066  27.364  1.00  0.00     0.163 HD
ATOM     76  O   UNL A   1      30.396  23.809  26.994  1.00  0.00    -0.273 OA
BRANCH  74  77
ATOM     77  C   UNL A   1      32.064  23.643  25.266  1.00  0.00     0.176 C 
BRANCH  77  78
ATOM     78  C   UNL A   1      31.642  22.180  25.036  1.00  0.00     0.072 C 
BRANCH  78  79
ATOM     79  C   UNL A   1      32.700  21.120  25.070  1.00  0.00    -0.020 A 
ATOM     80  C   UNL A   1      33.808  21.137  25.898  1.00  0.00     0.087 A 
ATOM     81  C   UNL A   1      32.835  19.957  24.238  1.00  0.00     0.003 A 
ATOM     82  N   UNL A   1      34.545  20.008  25.668  1.00  0.00    -0.361 N 
ATOM     83  C   UNL A   1      33.950  19.248  24.690  1.00  0.00     0.046 A 
ATOM     84  C   UNL A   1      32.105  19.419  23.156  1.00  0.00     0.010 A 
ATOM     85  H   UNL A   1      35.379  19.773  26.135  1.00  0.00     0.166 HD
ATOM     86  C   UNL A   1      34.323  18.001  24.173  1.00  0.00     0.026 A 
ATOM     87  C   UNL A   1      32.463  18.173  22.626  1.00  0.00     0.001 A 
ATOM     88  C   UNL A   1      33.547  17.469  23.140  1.00  0.00     0.002 A 
ENDBRANCH  78  79
ENDBRANCH  77  78
BRANCH  77  89
ATOM     89  N   UNL A   1      32.380  24.372  24.034  1.00  0.00    -0.340 N 
ATOM     90  C   UNL A   1      33.591  24.606  23.438  1.00  0.00     0.254 C 
ATOM     91  H   UNL A   1      31.604  24.750  23.561  1.00  0.00     0.164 HD
ATOM     92  O   UNL A   1      33.645  25.324  22.437  1.00  0.00    -0.269 OA
BRANCH  90  93
ATOM     93  C   UNL A   1      34.823  23.984  23.951  1.00  0.00     0.075 A 
ATOM     94  C   UNL A   1      35.472  22.971  23.232  1.00  0.00     0.020 A 
ATOM     95  C   UNL A   1      35.377  24.452  25.144  1.00  0.00     0.138 A 
ATOM     96  C   UNL A   1      36.633  22.393  23.748  1.00  0.00     0.040 A 
ATOM     97  C   UNL A   1      36.546  23.892  25.650  1.00  0.00     0.079 A 
ATOM     98  F   UNL A   1      34.784  25.431  25.841  1.00  0.00    -0.206 F 
ATOM     99  C   UNL A   1      37.157  22.859  24.951  1.00  0.00     0.126 A 
ATOM    100  F   UNL A   1      38.272  22.302  25.441  1.00  0.00    -0.207 F 
ENDBRANCH  90  93
ENDBRANCH  77  89
ENDBRANCH  74  77
ENDBRANCH  72  73
ENDBRANCH   1  72
TORSDOF 14
ENDMDL
MODEL 2
REMARK VINA RESULT:     -14.0      0.419      7.024
REMARK SMILES O=C(NCCCNC(=O)[C@@H](Cc1c[nH]c2ccccc12)NC(=O)c1ccc(F)cc1F)c1ccc(-c2c3nc(c(-c4c(F)c(F)c(F)c(F)c4F)c4ccc([nH]4)c(-c4c(F)c(F)c(F)c(F)c4F)c4nc(c(-c5c(F)c(F)c(F)c(F)c5F)c5ccc2[nH]5)C=C4)C=C3)cc1
REMARK SMILES IDX 5 1 4 2 3 3 1 4 2 5 32 7 33 8 94 9 34 10 93 11 35 12 36 13
REMARK SMILES IDX 37 14 87 15 38 16 92 17 86 18 88 19 39 20 91 21 85 22 84 23
REMARK SMILES IDX 40 25 72 26 52 27 71 28 53 29 56 30 70 31 89 32 54 33 55 34
REMARK SMILES IDX 69 36 90 37 57 38 41 39 42 40 50 41 43 42 44 43 48 44 51 45
REMARK SMILES IDX 45 46 46 47 49 48 47 49 73 50 74 51 82 52 75 53 76 54 80 55
REMARK SMILES IDX 83 56 77 57 78 58 81 59 79 60 58 61 59 62 67 63 60 64 61 65
REMARK SMILES IDX 65 66 68 67 62 68 63 69 66 70 64 71 6 72 7 73 8 74 9 76
REMARK SMILES IDX 10 77 11 78 12 79 13 80 20 81 14 82 15 83 19 84 16 86 18 87
REMARK SMILES IDX 17 88 21 89 22 90 23 92 24 93 25 94 30 95 26 96 29 97 31 98
REMARK SMILES IDX 27 99 28 100
REMARK H PARENT 3 6 88 24 56 35 7 75 14 85 21 91
REMARK Flexibility Score: inf
ROOT
ATOM      1  C   UNL A   1      31.828  28.162  26.389  1.00  0.00     0.042 C 
ENDROOT
BRANCH   1   2
ATOM      2  C   UNL A   1      32.798  29.155  25.765  1.00  0.00     0.118 C 
BRANCH   2   3
ATOM      3  N   UNL A   1      32.600  30.498  26.275  1.00  0.00    -0.352 N 
ATOM      4  O   UNL A   1      32.812  32.268  27.617  1.00  0.00    -0.269 OA
ATOM      5  C   UNL A   1      33.334  31.256  27.151  1.00  0.00     0.251 C 
ATOM      6  H   UNL A   1      31.794  30.946  25.930  1.00  0.00     0.163 HD
BRANCH   5   7
ATOM      7  C   UNL A   1      34.726  30.919  27.557  1.00  0.00     0.039 A 
ATOM      8  C   UNL A   1      35.675  31.884  27.897  1.00  0.00     0.014 A 
ATOM      9  C   UNL A   1      35.033  29.567  27.777  1.00  0.00     0.014 A 
ATOM     10  C   UNL A   1      36.926  31.509  28.395  1.00  0.00     0.010 A 
ATOM     11  C   UNL A   1      36.248  29.193  28.363  1.00  0.00     0.010 A 
ATOM     12  C   UNL A   1      37.199  30.166  28.696  1.00  0.00    -0.014 A 
BRANCH  12  13
ATOM     13  C   UNL A   1      38.384  29.824  29.528  1.00  0.00     0.031 A 
ATOM     14  C   UNL A   1      38.580  30.390  30.903  1.00  0.00     0.074 A 
ATOM     15  C   UNL A   1      39.309  28.991  29.011  1.00  0.00     0.049 A 
ATOM     16  N   UNL A   1      39.566  30.193  31.741  1.00  0.00    -0.248 NA
ATOM     17  C   UNL A   1      37.537  31.297  31.402  1.00  0.00     0.031 C 
ATOM     18  C   UNL A   1      39.242  28.390  27.677  1.00  0.00     0.029 A 
ATOM     19  N   UNL A   1      40.471  28.489  29.541  1.00  0.00    -0.354 N 
ATOM     20  C   UNL A   1      39.270  30.950  32.865  1.00  0.00     0.074 A 
ATOM     21  C   UNL A   1      38.021  31.634  32.591  1.00  0.00     0.031 C 
ATOM     22  C   UNL A   1      40.279  27.556  27.517  1.00  0.00     0.029 A 
ATOM     23  C   UNL A   1      41.118  27.611  28.707  1.00  0.00     0.049 A 
ATOM     24  H   UNL A   1      40.807  28.734  30.433  1.00  0.00     0.167 HD
ATOM     25  C   UNL A   1      39.972  31.057  34.020  1.00  0.00     0.037 A 
ATOM     26  C   UNL A   1      42.265  26.927  28.872  1.00  0.00     0.037 A 
ATOM     27  C   UNL A   1      41.224  30.391  34.283  1.00  0.00     0.049 A 
ATOM     28  C   UNL A   1      43.043  27.095  30.143  1.00  0.00     0.074 A 
ATOM     29  C   UNL A   1      42.018  30.457  35.415  1.00  0.00     0.029 A 
ATOM     30  N   UNL A   1      41.867  29.537  33.398  1.00  0.00    -0.354 N 
ATOM     31  N   UNL A   1      42.754  27.820  31.195  1.00  0.00    -0.248 NA
ATOM     32  C   UNL A   1      44.308  26.357  30.245  1.00  0.00     0.031 C 
ATOM     33  C   UNL A   1      43.157  29.673  35.203  1.00  0.00     0.029 A 
ATOM     34  C   UNL A   1      43.052  29.078  33.957  1.00  0.00     0.049 A 
ATOM     35  H   UNL A   1      41.533  29.293  32.504  1.00  0.00     0.167 HD
ATOM     36  C   UNL A   1      43.790  27.617  32.092  1.00  0.00     0.074 A 
ATOM     37  C   UNL A   1      44.710  26.688  31.466  1.00  0.00     0.031 C 
ATOM     38  C   UNL A   1      43.960  28.154  33.325  1.00  0.00     0.037 A 
BRANCH  25  39
ATOM     39  C   UNL A   1      39.405  31.943  35.093  1.00  0.00     0.064 A 
ATOM     40  C   UNL A   1      39.702  33.314  35.121  1.00  0.00     0.173 A 
ATOM     41  C   UNL A   1      38.602  31.425  36.120  1.00  0.00     0.173 A 
ATOM     42  F   UNL A   1      40.469  33.860  34.165  1.00  0.00    -0.203 F 
ATOM     43  C   UNL A   1      39.217  34.133  36.138  1.00  0.00     0.198 A 
ATOM     44  C   UNL A   1      38.099  32.251  37.122  1.00  0.00     0.198 A 
ATOM     45  F   UNL A   1      38.279  30.123  36.132  1.00  0.00    -0.203 F 
ATOM     46  F   UNL A   1      39.529  35.436  36.155  1.00  0.00    -0.200 F 
ATOM     47  C   UNL A   1      38.412  33.602  37.134  1.00  0.00     0.200 A 
ATOM     48  F   UNL A   1      37.300  31.740  38.069  1.00  0.00    -0.200 F 
ATOM     49  F   UNL A   1      37.930  34.393  38.103  1.00  0.00    -0.200 F 
ENDBRANCH  25  39
BRANCH  26  50
ATOM     50  C   UNL A   1      42.714  25.998  27.806  1.00  0.00     0.064 A 
ATOM     51  C   UNL A   1      43.623  26.401  26.817  1.00  0.00     0.173 A 
ATOM     52  C   UNL A   1      42.176  24.708  27.715  1.00  0.00     0.173 A 
ATOM     53  F   UNL A   1      44.157  27.631  26.859  1.00  0.00    -0.203 F 
ATOM     54  C   UNL A   1      43.953  25.559  25.759  1.00  0.00     0.198 A 
ATOM     55  C   UNL A   1      42.525  23.857  26.669  1.00  0.00     0.198 A 
ATOM     56  F   UNL A   1      41.316  24.273  28.648  1.00  0.00    -0.203 F 
ATOM     57  F   UNL A   1      44.787  25.985  24.800  1.00  0.00    -0.200 F 
ATOM     58  C   UNL A   1      43.403  24.287  25.685  1.00  0.00     0.200 A 
ATOM     59  F   UNL A   1      42.006  22.622  26.610  1.00  0.00    -0.200 F 
ATOM     60  F   UNL A   1      43.718  23.478  24.665  1.00  0.00    -0.200 F 
ENDBRANCH  26  50
BRANCH  38  61
ATOM     61  C   UNL A   1      45.176  27.729  34.094  1.00  0.00     0.064 A 
ATOM     62  C   UNL A   1      45.119  26.619  34.950  1.00  0.00     0.173 A 
ATOM     63  C   UNL A   1      46.385  28.433  34.008  1.00  0.00     0.173 A 
ATOM     64  F   UNL A   1      43.984  25.913  35.069  1.00  0.00    -0.203 F 
ATOM     65  C   UNL A   1      46.228  26.232  35.696  1.00  0.00     0.198 A 
ATOM     66  C   UNL A   1      47.501  28.029  34.737  1.00  0.00     0.198 A 
ATOM     67  F   UNL A   1      46.494  29.490  33.191  1.00  0.00    -0.203 F 
ATOM     68  F   UNL A   1      46.146  25.179  36.521  1.00  0.00    -0.200 F 
ATOM     69  C   UNL A   1      47.420  26.933  35.584  1.00  0.00     0.200 A 
ATOM     70  F   UNL A   1      48.659  28.691  34.609  1.00  0.00    -0.200 F 
ATOM     71  F   UNL A   1      48.494  26.548  36.289  1.00  0.00    -0.200 F 
ENDBRANCH  38  61
ENDBRANCH  12  13
ENDBRANCH   5   7
ENDBRANCH   2   3
ENDBRANCH   1   2
BRANCH   1  72
ATOM     72  C   UNL A   1      31.712  26.849  25.619  1.00  0.00     0.117 C 
BRANCH  72  73
ATOM     73  N   UNL A   1      31.314  25.774  26.514  1.00  0.00    -0.354 N 
ATOM     74  C   UNL A   1      31.270  24.427  26.344  1.00  0.00     0.242 C 
ATOM     75  H   UNL A   1      31.022  26.077  27.404  1.00  0.00     0.163 HD
ATOM     76  O   UNL A   1      30.453  23.819  27.048  1.00  0.00    -0.273 OA
BRANCH  74  77
ATOM     77  C   UNL A   1      32.103  23.648  25.303  1.00  0.00     0.176 C 
BRANCH  77  78
ATOM     78  C   UNL A   1      31.674  22.186  25.077  1.00  0.00     0.072 C 
BRANCH  78  79
ATOM     79  C   UNL A   1      32.731  21.124  25.088  1.00  0.00    -0.020 A 
ATOM     80  C   UNL A   1      33.851  21.134  25.901  1.00  0.00     0.087 A 
ATOM     81  C   UNL A   1      32.852  19.966  24.247  1.00  0.00     0.003 A 
ATOM     82  N   UNL A   1      34.582  20.005  25.652  1.00  0.00    -0.361 N 
ATOM     83  C   UNL A   1      33.972  19.252  24.678  1.00  0.00     0.046 A 
ATOM     84  C   UNL A   1      32.105  19.437  23.173  1.00  0.00     0.010 A 
ATOM     85  H   UNL A   1      35.423  19.765  26.106  1.00  0.00     0.166 HD
ATOM     86  C   UNL A   1      34.335  18.008  24.147  1.00  0.00     0.026 A 
ATOM     87  C   UNL A   1      32.453  18.194  22.630  1.00  0.00     0.001 A 
ATOM     88  C   UNL A   1      33.543  17.484  23.123  1.00  0.00     0.002 A 
ENDBRANCH  78  79
ENDBRANCH  77  78
BRANCH  77  89
ATOM     89  N   UNL A   1      32.413  24.375  24.068  1.00  0.00    -0.340 N 
ATOM     90  C   UNL A   1      33.619  24.602  23.462  1.00  0.00     0.254 C 
ATOM     91  H   UNL A   1      31.634  24.758  23.603  1.00  0.00     0.164 HD
ATOM     92  O   UNL A   1      33.669  25.320  22.461  1.00  0.00    -0.269 OA
BRANCH  90  93
ATOM     93  C   UNL A   1      34.852  23.972  23.963  1.00  0.00     0.075 A 
ATOM     94  C   UNL A   1      35.497  22.965  23.230  1.00  0.00     0.020 A 
ATOM     95  C   UNL A   1      35.412  24.426  25.159  1.00  0.00     0.138 A 
ATOM     96  C   UNL A   1      36.658  22.379  23.736  1.00  0.00     0.040 A 
ATOM     97  C   UNL A   1      36.581  23.857  25.655  1.00  0.00     0.079 A 
ATOM     98  F   UNL A   1      34.823  25.398  25.869  1.00  0.00    -0.206 F 
ATOM     99  C   UNL A   1      37.188  22.831  24.942  1.00  0.00     0.126 A 
ATOM    100  F   UNL A   1      38.304  22.266  25.422  1.00  0.00    -0.207 F 
ENDBRANCH  90  93
ENDBRANCH  77  89
ENDBRANCH  74  77
ENDBRANCH  72  73
ENDBRANCH   1  72
TORSDOF 14
ENDMDL
MODEL 3
REMARK VINA RESULT:     -14.0      1.948      7.576
REMARK SMILES O=C(NCCCNC(=O)[C@@H](Cc1c[nH]c2ccccc12)NC(=O)c1ccc(F)cc1F)c1ccc(-c2c3nc(c(-c4c(F)c(F)c(F)c(F)c4F)c4ccc([nH]4)c(-c4c(F)c(F)c(F)c(F)c4F)c4nc(c(-c5c(F)c(F)c(F)c(F)c5F)c5ccc2[nH]5)C=C4)C=C3)cc1
REMARK SMILES IDX 5 1 4 2 3 3 1 4 2 5 32 7 33 8 94 9 34 10 93 11 35 12 36 13
REMARK SMILES IDX 37 14 87 15 38 16 92 17 86 18 88 19 39 20 91 21 85 22 84 23
REMARK SMILES IDX 40 25 72 26 52 27 71 28 53 29 56 30 70 31 89 32 54 33 55 34
REMARK SMILES IDX 69 36 90 37 57 38 41 39 42 40 50 41 43 42 44 43 48 44 51 45
REMARK SMILES IDX 45 46 46 47 49 48 47 49 73 50 74 51 82 52 75 53 76 54 80 55
REMARK SMILES IDX 83 56 77 57 78 58 81 59 79 60 58 61 59 62 67 63 60 64 61 65
REMARK SMILES IDX 65 66 68 67 62 68 63 69 66 70 64 71 6 72 7 73 8 74 9 76
REMARK SMILES IDX 10 77 11 78 12 79 13 80 20 81 14 82 15 83 19 84 16 86 18 87
REMARK SMILES IDX 17 88 21 89 22 90 23 92 24 93 25 94 30 95 26 96 29 97 31 98
REMARK SMILES IDX 27 99 28 100
REMARK H PARENT 3 6 88 24 56 35 7 75 14 85 21 91
REMARK Flexibility Score: inf
ROOT
ATOM      1  C   UNL A   1      31.061  31.234  25.622  1.00  0.00     0.042 C 
ENDROOT
BRANCH   1   2
ATOM      2  C   UNL A   1      31.905  31.423  26.874  1.00  0.00     0.118 C 
BRANCH   2   3
ATOM      3  N   UNL A   1      32.150  32.826  27.154  1.00  0.00    -0.352 N 
ATOM      4  O   UNL A   1      33.013  34.633  28.138  1.00  0.00    -0.269 OA
ATOM      5  C   UNL A   1      33.173  33.457  27.815  1.00  0.00     0.251 C 
ATOM      6  H   UNL A   1      31.457  33.433  26.808  1.00  0.00     0.163 HD
BRANCH   5   7
ATOM      7  C   UNL A   1      34.462  32.793  28.150  1.00  0.00     0.039 A 
ATOM      8  C   UNL A   1      35.660  33.492  28.309  1.00  0.00     0.014 A 
ATOM      9  C   UNL A   1      34.426  31.432  28.494  1.00  0.00     0.014 A 
ATOM     10  C   UNL A   1      36.813  32.837  28.750  1.00  0.00     0.010 A 
ATOM     11  C   UNL A   1      35.555  30.796  29.025  1.00  0.00     0.010 A 
ATOM     12  C   UNL A   1      36.755  31.501  29.176  1.00  0.00    -0.014 A 
BRANCH  12  13
ATOM     13  C   UNL A   1      37.888  30.925  29.950  1.00  0.00     0.031 A 
ATOM     14  C   UNL A   1      38.125  31.271  31.389  1.00  0.00     0.074 A 
ATOM     15  C   UNL A   1      38.728  30.080  29.319  1.00  0.00     0.049 A 
ATOM     16  N   UNL A   1      39.076  30.858  32.190  1.00  0.00    -0.248 NA
ATOM     17  C   UNL A   1      37.176  32.204  32.012  1.00  0.00     0.031 C 
ATOM     18  C   UNL A   1      38.616  29.680  27.915  1.00  0.00     0.029 A 
ATOM     19  N   UNL A   1      39.825  29.390  29.771  1.00  0.00    -0.354 N 
ATOM     20  C   UNL A   1      38.846  31.479  33.409  1.00  0.00     0.074 A 
ATOM     21  C   UNL A   1      37.678  32.321  33.235  1.00  0.00     0.031 C 
ATOM     22  C   UNL A   1      39.562  28.773  27.637  1.00  0.00     0.029 A 
ATOM     23  C   UNL A   1      40.388  28.574  28.822  1.00  0.00     0.049 A 
ATOM     24  H   UNL A   1      40.174  29.473  30.688  1.00  0.00     0.167 HD
ATOM     25  C   UNL A   1      39.542  31.351  34.566  1.00  0.00     0.037 A 
ATOM     26  C   UNL A   1      41.456  27.758  28.887  1.00  0.00     0.037 A 
ATOM     27  C   UNL A   1      40.715  30.528  34.729  1.00  0.00     0.049 A 
ATOM     28  C   UNL A   1      42.231  27.667  30.167  1.00  0.00     0.074 A 
ATOM     29  C   UNL A   1      41.497  30.353  35.859  1.00  0.00     0.029 A 
ATOM     30  N   UNL A   1      41.276  29.743  33.733  1.00  0.00    -0.354 N 
ATOM     31  N   UNL A   1      42.006  28.265  31.310  1.00  0.00    -0.248 NA
ATOM     32  C   UNL A   1      43.412  26.793  30.162  1.00  0.00     0.031 C 
ATOM     33  C   UNL A   1      42.551  29.491  35.536  1.00  0.00     0.029 A 
ATOM     34  C   UNL A   1      42.400  29.089  34.219  1.00  0.00     0.049 A 
ATOM     35  H   UNL A   1      40.930  29.661  32.815  1.00  0.00     0.167 HD
ATOM     36  C   UNL A   1      43.005  27.832  32.168  1.00  0.00     0.074 A 
ATOM     37  C   UNL A   1      43.831  26.908  31.416  1.00  0.00     0.031 C 
ATOM     38  C   UNL A   1      43.215  28.172  33.463  1.00  0.00     0.037 A 
BRANCH  25  39
ATOM     39  C   UNL A   1      39.057  32.134  35.753  1.00  0.00     0.064 A 
ATOM     40  C   UNL A   1      39.451  33.467  35.941  1.00  0.00     0.173 A 
ATOM     41  C   UNL A   1      38.235  31.549  36.727  1.00  0.00     0.173 A 
ATOM     42  F   UNL A   1      40.240  34.073  35.041  1.00  0.00    -0.203 F 
ATOM     43  C   UNL A   1      39.042  34.185  37.063  1.00  0.00     0.198 A 
ATOM     44  C   UNL A   1      37.808  32.277  37.836  1.00  0.00     0.198 A 
ATOM     45  F   UNL A   1      37.820  30.281  36.588  1.00  0.00    -0.203 F 
ATOM     46  F   UNL A   1      39.447  35.451  37.231  1.00  0.00    -0.200 F 
ATOM     47  C   UNL A   1      38.217  33.591  38.006  1.00  0.00     0.200 A 
ATOM     48  F   UNL A   1      36.990  31.709  38.733  1.00  0.00    -0.200 F 
ATOM     49  F   UNL A   1      37.809  34.288  39.076  1.00  0.00    -0.200 F 
ENDBRANCH  25  39
BRANCH  26  50
ATOM     50  C   UNL A   1      41.819  26.944  27.701  1.00  0.00     0.064 A 
ATOM     51  C   UNL A   1      41.260  25.676  27.484  1.00  0.00     0.173 A 
ATOM     52  C   UNL A   1      42.793  27.394  26.801  1.00  0.00     0.173 A 
ATOM     53  F   UNL A   1      40.329  25.201  28.324  1.00  0.00    -0.203 F 
ATOM     54  C   UNL A   1      41.688  24.875  26.429  1.00  0.00     0.198 A 
ATOM     55  C   UNL A   1      43.203  26.601  25.732  1.00  0.00     0.198 A 
ATOM     56  F   UNL A   1      43.342  28.607  26.959  1.00  0.00    -0.203 F 
ATOM     57  F   UNL A   1      41.173  23.647  26.271  1.00  0.00    -0.200 F 
ATOM     58  C   UNL A   1      42.659  25.337  25.554  1.00  0.00     0.200 A 
ATOM     59  F   UNL A   1      44.130  27.058  24.878  1.00  0.00    -0.200 F 
ATOM     60  F   UNL A   1      43.073  24.564  24.541  1.00  0.00    -0.200 F 
ENDBRANCH  26  50
BRANCH  38  61
ATOM     61  C   UNL A   1      44.371  27.520  34.162  1.00  0.00     0.064 A 
ATOM     62  C   UNL A   1      44.202  26.284  34.805  1.00  0.00     0.173 A 
ATOM     63  C   UNL A   1      45.633  28.127  34.223  1.00  0.00     0.173 A 
ATOM     64  F   UNL A   1      43.013  25.663  34.777  1.00  0.00    -0.203 F 
ATOM     65  C   UNL A   1      45.256  25.682  35.487  1.00  0.00     0.198 A 
ATOM     66  C   UNL A   1      46.692  27.511  34.885  1.00  0.00     0.198 A 
ATOM     67  F   UNL A   1      45.847  29.300  33.610  1.00  0.00    -0.203 F 
ATOM     68  F   UNL A   1      45.068  24.509  36.108  1.00  0.00    -0.200 F 
ATOM     69  C   UNL A   1      46.501  26.292  35.521  1.00  0.00     0.200 A 
ATOM     70  F   UNL A   1      47.901  28.089  34.896  1.00  0.00    -0.200 F 
ATOM     71  F   UNL A   1      47.520  25.702  36.161  1.00  0.00    -0.200 F 
ENDBRANCH  38  61
ENDBRANCH  12  13
ENDBRANCH   5   7
ENDBRANCH   2   3
ENDBRANCH   1   2
BRANCH   1  72
ATOM     72  C   UNL A   1      31.218  29.860  24.977  1.00  0.00     0.117 C 
BRANCH  72  73
ATOM     73  N   UNL A   1      30.401  29.770  23.777  1.00  0.00    -0.354 N 
ATOM     74  C   UNL A   1      30.390  28.874  22.757  1.00  0.00     0.242 C 
ATOM     75  H   UNL A   1      29.735  30.490  23.687  1.00  0.00     0.163 HD
ATOM     76  O   UNL A   1      29.968  29.294  21.672  1.00  0.00    -0.273 OA
BRANCH  74  77
ATOM     77  C   UNL A   1      30.927  27.429  22.854  1.00  0.00     0.176 C 
BRANCH  77  78
ATOM     78  C   UNL A   1      29.991  26.423  23.549  1.00  0.00     0.072 C 
BRANCH  78  79
ATOM     79  C   UNL A   1      30.483  25.729  24.782  1.00  0.00    -0.020 A 
ATOM     80  C   UNL A   1      30.693  26.344  26.004  1.00  0.00     0.087 A 
ATOM     81  C   UNL A   1      30.900  24.363  24.940  1.00  0.00     0.003 A 
ATOM     82  N   UNL A   1      31.125  25.404  26.899  1.00  0.00    -0.361 N 
ATOM     83  C   UNL A   1      31.219  24.177  26.287  1.00  0.00     0.046 A 
ATOM     84  C   UNL A   1      31.018  23.254  24.075  1.00  0.00     0.010 A 
ATOM     85  H   UNL A   1      31.338  25.580  27.844  1.00  0.00     0.166 HD
ATOM     86  C   UNL A   1      31.570  22.932  26.824  1.00  0.00     0.026 A 
ATOM     87  C   UNL A   1      31.366  22.001  24.594  1.00  0.00     0.001 A 
ATOM     88  C   UNL A   1      31.622  21.842  25.952  1.00  0.00     0.002 A 
ENDBRANCH  78  79
ENDBRANCH  77  78
BRANCH  77  89
ATOM     89  N   UNL A   1      31.564  26.909  21.640  1.00  0.00    -0.340 N 
ATOM     90  C   UNL A   1      32.710  26.173  21.496  1.00  0.00     0.254 C 
ATOM     91  H   UNL A   1      31.096  27.119  20.800  1.00  0.00     0.164 HD
ATOM     92  O   UNL A   1      33.121  25.907  20.364  1.00  0.00    -0.269 OA
BRANCH  90  93
ATOM     93  C   UNL A   1      33.439  25.663  22.669  1.00  0.00     0.075 A 
ATOM     94  C   UNL A   1      33.712  26.493  23.765  1.00  0.00     0.020 A 
ATOM     95  C   UNL A   1      33.813  24.318  22.706  1.00  0.00     0.138 A 
ATOM     96  C   UNL A   1      34.413  25.984  24.859  1.00  0.00     0.040 A 
ATOM     97  C   UNL A   1      34.495  23.803  23.805  1.00  0.00     0.079 A 
ATOM     98  F   UNL A   1      33.549  23.501  21.677  1.00  0.00    -0.206 F 
ATOM     99  C   UNL A   1      34.798  24.645  24.867  1.00  0.00     0.126 A 
ATOM    100  F   UNL A   1      35.469  24.161  25.920  1.00  0.00    -0.207 F 
ENDBRANCH  90  93
ENDBRANCH  77  89
ENDBRANCH  74  77
ENDBRANCH  72  73
ENDBRANCH   1  72
TORSDOF 14
ENDMDL
