MODEL 1
REMARK VINA RESULT:      -9.9      0.000      0.000
REMARK SMILES CC(C)(C)OC(=O)N1CCC[C@H](C(=O)N[C@H](C(=O)NCCCNC(=O)c2ccc(-c3c4nc(c(-c5c(F)c(F)c(F)c(F)c5F)c5ccc([nH]5)c(-c5c(F)c(F)c(F)c(F)c5F)c5nc(c(-c6c(F)c(F)c(F)c(F)c6F)c6ccc3[nH]6)C=C5)C=C4)cc2)c2ccccc2)C1
REMARK SMILES IDX 17 1 18 2 19 3 16 5 15 6 13 7 14 8 12 10 8 11 9 12 95 13
REMARK SMILES IDX 10 14 11 15 6 16 7 17 5 18 2 19 1 20 3 21 4 22 89 23 90 24
REMARK SMILES IDX 94 25 91 26 93 27 92 28 20 29 21 30 22 31 23 32 24 33 25 35
REMARK SMILES IDX 26 36 27 37 88 38 28 39 87 40 29 41 30 42 31 43 81 44 32 45
REMARK SMILES IDX 86 46 80 47 82 48 33 49 85 50 79 51 78 52 34 54 66 55 46 56
REMARK SMILES IDX 65 57 47 58 50 59 64 60 83 61 48 62 49 63 63 65 84 66 51 67
REMARK SMILES IDX 35 68 36 69 44 70 37 71 38 72 42 73 45 74 39 75 40 76 43 77
REMARK SMILES IDX 41 78 67 79 68 80 76 81 69 82 70 83 74 84 77 85 71 86 72 87
REMARK SMILES IDX 75 88 73 89 52 90 53 91 61 92 54 93 55 94 59 95 62 96 56 97
REMARK SMILES IDX 57 98 60 99 58 100
REMARK H PARENT 19 4 15 9 23 34 82 53 50 64
REMARK Flexibility Score: inf
ROOT
ATOM      1  C   UNL A   1      37.409  33.930  33.447  1.00  0.00     0.247 C 
ATOM      2  O   UNL A   1      37.548  35.146  33.636  1.00  0.00    -0.272 OA
ATOM      3  N   UNL A   1      36.420  33.658  32.524  1.00  0.00    -0.354 N 
ATOM      4  H   UNL A   1      35.812  34.412  32.346  1.00  0.00     0.163 HD
ENDROOT
BRANCH   1   5
ATOM      5  C   UNL A   1      38.307  32.726  34.313  1.00  0.00     0.202 C 
BRANCH   5   6
ATOM      6  N   UNL A   1      37.528  32.958  35.642  1.00  0.00    -0.340 N 
ATOM      7  C   UNL A   1      38.203  33.508  36.664  1.00  0.00     0.225 C 
ATOM      8  O   UNL A   1      37.854  33.786  37.784  1.00  0.00    -0.275 OA
ATOM      9  H   UNL A   1      36.579  32.709  35.730  1.00  0.00     0.164 HD
BRANCH   7  10
ATOM     10  C   UNL A   1      39.449  33.627  35.953  1.00  0.00     0.098 C 
ATOM     11  N   UNL A   1      41.874  33.148  38.120  1.00  0.00    -0.307 N 
ATOM     12  C   UNL A   1      42.343  34.924  38.112  1.00  0.00     0.123 C 
ATOM     13  C   UNL A   1      40.481  32.420  37.084  1.00  0.00     0.136 C 
ATOM     14  C   UNL A   1      41.188  36.223  37.228  1.00  0.00     0.023 C 
ATOM     15  C   UNL A   1      39.680  35.562  36.136  1.00  0.00     0.017 C 
BRANCH  11  16
ATOM     16  C   UNL A   1      42.580  32.321  38.977  1.00  0.00     0.410 C 
ATOM     17  O   UNL A   1      42.072  31.741  39.923  1.00  0.00    -0.224 OA
BRANCH  16  18
ATOM     18  O   UNL A   1      43.888  32.308  38.635  1.00  0.00    -0.444 OA
BRANCH  18  19
ATOM     19  C   UNL A   1      44.431  31.477  37.578  1.00  0.00     0.106 C 
ATOM     20  C   UNL A   1      45.629  30.764  38.221  1.00  0.00     0.056 C 
ATOM     21  C   UNL A   1      44.917  32.409  36.469  1.00  0.00     0.056 C 
ATOM     22  C   UNL A   1      43.481  30.407  37.027  1.00  0.00     0.056 C 
ENDBRANCH  18  19
ENDBRANCH  16  18
ENDBRANCH  11  16
ENDBRANCH   7  10
ENDBRANCH   5   6
BRANCH   5  23
ATOM     23  C   UNL A   1      39.296  30.941  33.838  1.00  0.00    -0.016 A 
ATOM     24  C   UNL A   1      40.764  30.543  33.956  1.00  0.00     0.006 A 
ATOM     25  C   UNL A   1      38.776  29.663  33.213  1.00  0.00     0.006 A 
ATOM     26  C   UNL A   1      41.473  29.399  33.479  1.00  0.00     0.000 A 
ATOM     27  C   UNL A   1      39.469  28.519  32.706  1.00  0.00     0.000 A 
ATOM     28  C   UNL A   1      40.826  28.401  32.811  1.00  0.00     0.000 A 
ENDBRANCH   5  23
ENDBRANCH   1   5
BRANCH   3  29
ATOM     29  C   UNL A   1      36.120  32.458  31.771  1.00  0.00     0.117 C 
BRANCH  29  30
ATOM     30  C   UNL A   1      34.761  32.417  31.116  1.00  0.00     0.042 C 
BRANCH  30  31
ATOM     31  C   UNL A   1      34.862  32.637  29.616  1.00  0.00     0.118 C 
BRANCH  31  32
ATOM     32  N   UNL A   1      34.078  31.677  28.821  1.00  0.00    -0.352 N 
ATOM     33  C   UNL A   1      34.435  30.551  28.112  1.00  0.00     0.251 C 
ATOM     34  H   UNL A   1      33.114  31.878  28.789  1.00  0.00     0.163 HD
ATOM     35  O   UNL A   1      33.622  30.000  27.379  1.00  0.00    -0.269 OA
BRANCH  33  36
ATOM     36  C   UNL A   1      35.809  30.032  28.217  1.00  0.00     0.039 A 
ATOM     37  C   UNL A   1      36.720  30.210  27.173  1.00  0.00     0.014 A 
ATOM     38  C   UNL A   1      36.210  29.417  29.395  1.00  0.00     0.014 A 
ATOM     39  C   UNL A   1      38.061  29.875  27.374  1.00  0.00     0.010 A 
ATOM     40  C   UNL A   1      37.556  29.281  29.662  1.00  0.00     0.010 A 
ATOM     41  C   UNL A   1      38.499  29.469  28.645  1.00  0.00    -0.014 A 
BRANCH  41  42
ATOM     42  C   UNL A   1      39.920  29.169  28.948  1.00  0.00     0.031 A 
ATOM     43  C   UNL A   1      40.746  30.192  29.686  1.00  0.00     0.074 A 
ATOM     44  C   UNL A   1      40.490  28.045  28.473  1.00  0.00     0.049 A 
ATOM     45  N   UNL A   1      42.034  30.210  29.920  1.00  0.00    -0.248 NA
ATOM     46  C   UNL A   1      40.043  31.398  30.163  1.00  0.00     0.031 C 
ATOM     47  C   UNL A   1      39.820  27.024  27.663  1.00  0.00     0.029 A 
ATOM     48  N   UNL A   1      41.773  27.577  28.598  1.00  0.00    -0.354 N 
ATOM     49  C   UNL A   1      42.288  31.439  30.515  1.00  0.00     0.074 A 
ATOM     50  C   UNL A   1      41.050  32.180  30.517  1.00  0.00     0.031 C 
ATOM     51  C   UNL A   1      40.683  26.026  27.411  1.00  0.00     0.029 A 
ATOM     52  C   UNL A   1      41.974  26.354  28.005  1.00  0.00     0.049 A 
ATOM     53  H   UNL A   1      42.483  28.070  29.069  1.00  0.00     0.167 HD
ATOM     54  C   UNL A   1      43.439  31.892  31.064  1.00  0.00     0.037 A 
ATOM     55  C   UNL A   1      43.077  25.584  27.961  1.00  0.00     0.037 A 
ATOM     56  C   UNL A   1      44.640  31.111  31.141  1.00  0.00     0.049 A 
ATOM     57  C   UNL A   1      44.324  26.072  28.651  1.00  0.00     0.074 A 
ATOM     58  C   UNL A   1      45.839  31.424  31.753  1.00  0.00     0.029 A 
ATOM     59  N   UNL A   1      44.781  29.841  30.599  1.00  0.00    -0.354 N 
ATOM     60  N   UNL A   1      44.534  27.203  29.280  1.00  0.00    -0.248 NA
ATOM     61  C   UNL A   1      45.482  25.169  28.636  1.00  0.00     0.031 C 
ATOM     62  C   UNL A   1      46.718  30.353  31.556  1.00  0.00     0.029 A 
ATOM     63  C   UNL A   1      46.050  29.357  30.860  1.00  0.00     0.049 A 
ATOM     64  H   UNL A   1      44.083  29.357  30.102  1.00  0.00     0.167 HD
ATOM     65  C   UNL A   1      45.833  27.136  29.764  1.00  0.00     0.074 A 
ATOM     66  C   UNL A   1      46.357  25.845  29.367  1.00  0.00     0.031 C 
ATOM     67  C   UNL A   1      46.534  28.058  30.469  1.00  0.00     0.037 A 
BRANCH  54  68
ATOM     68  C   UNL A   1      43.429  33.274  31.654  1.00  0.00     0.064 A 
ATOM     69  C   UNL A   1      43.598  34.418  30.857  1.00  0.00     0.173 A 
ATOM     70  C   UNL A   1      43.251  33.460  33.032  1.00  0.00     0.173 A 
ATOM     71  F   UNL A   1      43.791  34.299  29.534  1.00  0.00    -0.203 F 
ATOM     72  C   UNL A   1      43.635  35.689  31.423  1.00  0.00     0.198 A 
ATOM     73  C   UNL A   1      43.249  34.736  33.590  1.00  0.00     0.198 A 
ATOM     74  F   UNL A   1      43.082  32.404  33.842  1.00  0.00    -0.203 F 
ATOM     75  F   UNL A   1      43.872  36.758  30.648  1.00  0.00    -0.200 F 
ATOM     76  C   UNL A   1      43.454  35.849  32.787  1.00  0.00     0.200 A 
ATOM     77  F   UNL A   1      43.063  34.890  34.908  1.00  0.00    -0.200 F 
ATOM     78  F   UNL A   1      43.488  37.074  33.330  1.00  0.00    -0.200 F 
ENDBRANCH  54  68
BRANCH  55  79
ATOM     79  C   UNL A   1      43.034  24.252  27.305  1.00  0.00     0.064 A 
ATOM     80  C   UNL A   1      43.394  24.107  25.957  1.00  0.00     0.173 A 
ATOM     81  C   UNL A   1      42.635  23.102  28.000  1.00  0.00     0.173 A 
ATOM     82  F   UNL A   1      43.769  25.181  25.246  1.00  0.00    -0.203 F 
ATOM     83  C   UNL A   1      43.330  22.869  25.322  1.00  0.00     0.198 A 
ATOM     84  C   UNL A   1      42.599  21.858  27.370  1.00  0.00     0.198 A 
ATOM     85  F   UNL A   1      42.292  23.182  29.293  1.00  0.00    -0.203 F 
ATOM     86  F   UNL A   1      43.633  22.770  24.019  1.00  0.00    -0.200 F 
ATOM     87  C   UNL A   1      42.936  21.745  26.029  1.00  0.00     0.200 A 
ATOM     88  F   UNL A   1      42.231  20.770  28.061  1.00  0.00    -0.200 F 
ATOM     89  F   UNL A   1      42.874  20.553  25.418  1.00  0.00    -0.200 F 
ENDBRANCH  55  79
BRANCH  67  90
ATOM     90  C   UNL A   1      47.921  27.682  30.897  1.00  0.00     0.064 A 
ATOM     91  C   UNL A   1      49.039  27.972  30.103  1.00  0.00     0.173 A 
ATOM     92  C   UNL A   1      48.133  27.064  32.138  1.00  0.00     0.173 A 
ATOM     93  F   UNL A   1      48.884  28.551  28.903  1.00  0.00    -0.203 F 
ATOM     94  C   UNL A   1      50.321  27.628  30.523  1.00  0.00     0.198 A 
ATOM     95  C   UNL A   1      49.418  26.751  32.569  1.00  0.00     0.198 A 
ATOM     96  F   UNL A   1      47.095  26.776  32.938  1.00  0.00    -0.203 F 
ATOM     97  F   UNL A   1      51.371  27.868  29.729  1.00  0.00    -0.200 F 
ATOM     98  C   UNL A   1      50.509  27.025  31.759  1.00  0.00     0.200 A 
ATOM     99  F   UNL A   1      49.601  26.184  33.770  1.00  0.00    -0.200 F 
ATOM    100  F   UNL A   1      51.745  26.704  32.166  1.00  0.00    -0.200 F 
ENDBRANCH  67  90
ENDBRANCH  41  42
ENDBRANCH  33  36
ENDBRANCH  31  32
ENDBRANCH  30  31
ENDBRANCH  29  30
ENDBRANCH   3  29
TORSDOF 16
ENDMDL
MODEL 2
REMARK VINA RESULT:      -9.5      0.633      2.047
REMARK SMILES CC(C)(C)OC(=O)N1CCC[C@H](C(=O)N[C@H](C(=O)NCCCNC(=O)c2ccc(-c3c4nc(c(-c5c(F)c(F)c(F)c(F)c5F)c5ccc([nH]5)c(-c5c(F)c(F)c(F)c(F)c5F)c5nc(c(-c6c(F)c(F)c(F)c(F)c6F)c6ccc3[nH]6)C=C5)C=C4)cc2)c2ccccc2)C1
REMARK SMILES IDX 17 1 18 2 19 3 16 5 15 6 13 7 14 8 12 10 8 11 9 12 95 13
REMARK SMILES IDX 10 14 11 15 6 16 7 17 5 18 2 19 1 20 3 21 4 22 89 23 90 24
REMARK SMILES IDX 94 25 91 26 93 27 92 28 20 29 21 30 22 31 23 32 24 33 25 35
REMARK SMILES IDX 26 36 27 37 88 38 28 39 87 40 29 41 30 42 31 43 81 44 32 45
REMARK SMILES IDX 86 46 80 47 82 48 33 49 85 50 79 51 78 52 34 54 66 55 46 56
REMARK SMILES IDX 65 57 47 58 50 59 64 60 83 61 48 62 49 63 63 65 84 66 51 67
REMARK SMILES IDX 35 68 36 69 44 70 37 71 38 72 42 73 45 74 39 75 40 76 43 77
REMARK SMILES IDX 41 78 67 79 68 80 76 81 69 82 70 83 74 84 77 85 71 86 72 87
REMARK SMILES IDX 75 88 73 89 52 90 53 91 61 92 54 93 55 94 59 95 62 96 56 97
REMARK SMILES IDX 57 98 60 99 58 100
REMARK H PARENT 19 4 15 9 23 34 82 53 50 64
REMARK Flexibility Score: inf
ROOT
ATOM      1  C   UNL A   1      37.258  33.719  34.034  1.00  0.00     0.247 C 
ATOM      2  O   UNL A   1      37.220  34.871  34.487  1.00  0.00    -0.272 OA
ATOM      3  N   UNL A   1      36.277  33.500  33.089  1.00  0.00    -0.354 N 
ATOM      4  H   UNL A   1      35.553  34.168  33.092  1.00  0.00     0.163 HD
ENDROOT
BRANCH   1   5
ATOM      5  C   UNL A   1      38.370  32.513  34.596  1.00  0.00     0.202 C 
BRANCH   5   6
ATOM      6  N   UNL A   1      37.838  32.562  36.060  1.00  0.00    -0.340 N 
ATOM      7  C   UNL A   1      38.679  33.008  37.006  1.00  0.00     0.225 C 
ATOM      8  O   UNL A   1      38.533  33.140  38.196  1.00  0.00    -0.275 OA
ATOM      9  H   UNL A   1      36.922  32.276  36.282  1.00  0.00     0.164 HD
BRANCH   7  10
ATOM     10  C   UNL A   1      39.778  33.249  36.108  1.00  0.00     0.098 C 
ATOM     11  N   UNL A   1      42.556  32.660  37.763  1.00  0.00    -0.307 N 
ATOM     12  C   UNL A   1      42.974  34.447  37.859  1.00  0.00     0.123 C 
ATOM     13  C   UNL A   1      41.021  31.980  36.912  1.00  0.00     0.136 C 
ATOM     14  C   UNL A   1      41.650  35.777  37.327  1.00  0.00     0.023 C 
ATOM     15  C   UNL A   1      39.990  35.164  36.449  1.00  0.00     0.017 C 
BRANCH  11  16
ATOM     16  C   UNL A   1      43.422  31.783  38.395  1.00  0.00     0.410 C 
ATOM     17  O   UNL A   1      43.280  31.412  39.549  1.00  0.00    -0.224 OA
BRANCH  16  18
ATOM     18  O   UNL A   1      44.441  31.462  37.567  1.00  0.00    -0.444 OA
BRANCH  18  19
ATOM     19  C   UNL A   1      44.719  30.108  37.127  1.00  0.00     0.106 C 
ATOM     20  C   UNL A   1      45.291  29.407  38.368  1.00  0.00     0.056 C 
ATOM     21  C   UNL A   1      45.791  30.193  36.041  1.00  0.00     0.056 C 
ATOM     22  C   UNL A   1      43.504  29.308  36.646  1.00  0.00     0.056 C 
ENDBRANCH  18  19
ENDBRANCH  16  18
ENDBRANCH  11  16
ENDBRANCH   7  10
ENDBRANCH   5   6
BRANCH   5  23
ATOM     23  C   UNL A   1      39.359  30.861  33.770  1.00  0.00    -0.016 A 
ATOM     24  C   UNL A   1      38.823  29.610  33.081  1.00  0.00     0.006 A 
ATOM     25  C   UNL A   1      40.833  30.516  33.728  1.00  0.00     0.006 A 
ATOM     26  C   UNL A   1      39.472  28.407  32.671  1.00  0.00     0.000 A 
ATOM     27  C   UNL A   1      41.501  29.310  33.347  1.00  0.00     0.000 A 
ATOM     28  C   UNL A   1      40.815  28.240  32.846  1.00  0.00     0.000 A 
ENDBRANCH   5  23
ENDBRANCH   1   5
BRANCH   3  29
ATOM     29  C   UNL A   1      36.125  32.461  32.091  1.00  0.00     0.117 C 
BRANCH  29  30
ATOM     30  C   UNL A   1      34.835  32.485  31.308  1.00  0.00     0.042 C 
BRANCH  30  31
ATOM     31  C   UNL A   1      35.096  32.589  29.815  1.00  0.00     0.118 C 
BRANCH  31  32
ATOM     32  N   UNL A   1      34.265  31.685  29.003  1.00  0.00    -0.352 N 
ATOM     33  C   UNL A   1      34.570  30.575  28.246  1.00  0.00     0.251 C 
ATOM     34  H   UNL A   1      33.307  31.917  29.000  1.00  0.00     0.163 HD
ATOM     35  O   UNL A   1      33.725  30.077  27.511  1.00  0.00    -0.269 OA
BRANCH  33  36
ATOM     36  C   UNL A   1      35.929  30.010  28.301  1.00  0.00     0.039 A 
ATOM     37  C   UNL A   1      36.824  30.203  27.246  1.00  0.00     0.014 A 
ATOM     38  C   UNL A   1      36.333  29.335  29.444  1.00  0.00     0.014 A 
ATOM     39  C   UNL A   1      38.158  29.818  27.406  1.00  0.00     0.010 A 
ATOM     40  C   UNL A   1      37.679  29.146  29.678  1.00  0.00     0.010 A 
ATOM     41  C   UNL A   1      38.608  29.347  28.650  1.00  0.00    -0.014 A 
BRANCH  41  42
ATOM     42  C   UNL A   1      40.024  28.991  28.911  1.00  0.00     0.031 A 
ATOM     43  C   UNL A   1      40.911  29.980  29.625  1.00  0.00     0.074 A 
ATOM     44  C   UNL A   1      40.535  27.846  28.419  1.00  0.00     0.049 A 
ATOM     45  N   UNL A   1      42.205  29.946  29.820  1.00  0.00    -0.248 NA
ATOM     46  C   UNL A   1      40.271  31.212  30.122  1.00  0.00     0.031 C 
ATOM     47  C   UNL A   1      39.802  26.853  27.629  1.00  0.00     0.029 A 
ATOM     48  N   UNL A   1      41.801  27.327  28.506  1.00  0.00    -0.354 N 
ATOM     49  C   UNL A   1      42.525  31.164  30.407  1.00  0.00     0.074 A 
ATOM     50  C   UNL A   1      41.317  31.953  30.445  1.00  0.00     0.031 C 
ATOM     51  C   UNL A   1      40.616  25.821  27.352  1.00  0.00     0.029 A 
ATOM     52  C   UNL A   1      41.936  26.098  27.908  1.00  0.00     0.049 A 
ATOM     53  H   UNL A   1      42.544  27.791  28.956  1.00  0.00     0.167 HD
ATOM     54  C   UNL A   1      43.708  31.571  30.922  1.00  0.00     0.037 A 
ATOM     55  C   UNL A   1      43.006  25.286  27.832  1.00  0.00     0.037 A 
ATOM     56  C   UNL A   1      44.880  30.743  30.963  1.00  0.00     0.049 A 
ATOM     57  C   UNL A   1      44.292  25.723  28.484  1.00  0.00     0.074 A 
ATOM     58  C   UNL A   1      46.107  31.008  31.540  1.00  0.00     0.029 A 
ATOM     59  N   UNL A   1      44.954  29.469  30.418  1.00  0.00    -0.354 N 
ATOM     60  N   UNL A   1      44.565  26.844  29.107  1.00  0.00    -0.248 NA
ATOM     61  C   UNL A   1      45.412  24.775  28.435  1.00  0.00     0.031 C 
ATOM     62  C   UNL A   1      46.937  29.903  31.317  1.00  0.00     0.029 A 
ATOM     63  C   UNL A   1      46.211  28.935  30.641  1.00  0.00     0.049 A 
ATOM     64  H   UNL A   1      44.223  29.013  29.942  1.00  0.00     0.167 HD
ATOM     65  C   UNL A   1      45.873  26.725  29.553  1.00  0.00     0.074 A 
ATOM     66  C   UNL A   1      46.334  25.415  29.140  1.00  0.00     0.031 C 
ATOM     67  C   UNL A   1      46.630  27.618  30.237  1.00  0.00     0.037 A 
BRANCH  54  68
ATOM     68  C   UNL A   1      43.770  32.951  31.512  1.00  0.00     0.064 A 
ATOM     69  C   UNL A   1      43.630  33.171  32.892  1.00  0.00     0.173 A 
ATOM     70  C   UNL A   1      43.969  34.070  30.690  1.00  0.00     0.173 A 
ATOM     71  F   UNL A   1      43.419  32.139  33.724  1.00  0.00    -0.203 F 
ATOM     72  C   UNL A   1      43.641  34.459  33.420  1.00  0.00     0.198 A 
ATOM     73  C   UNL A   1      44.019  35.354  31.226  1.00  0.00     0.198 A 
ATOM     74  F   UNL A   1      44.112  33.920  29.365  1.00  0.00    -0.203 F 
ATOM     75  F   UNL A   1      43.431  34.646  34.731  1.00  0.00    -0.200 F 
ATOM     76  C   UNL A   1      43.842  35.549  32.588  1.00  0.00     0.200 A 
ATOM     77  F   UNL A   1      44.225  36.407  30.423  1.00  0.00    -0.200 F 
ATOM     78  F   UNL A   1      43.855  36.789  33.098  1.00  0.00    -0.200 F 
ENDBRANCH  54  68
BRANCH  55  79
ATOM     79  C   UNL A   1      42.892  23.956  27.177  1.00  0.00     0.064 A 
ATOM     80  C   UNL A   1      42.383  22.855  27.881  1.00  0.00     0.173 A 
ATOM     81  C   UNL A   1      43.286  23.754  25.847  1.00  0.00     0.173 A 
ATOM     82  F   UNL A   1      42.007  22.994  29.161  1.00  0.00    -0.203 F 
ATOM     83  C   UNL A   1      42.299  21.597  27.288  1.00  0.00     0.198 A 
ATOM     84  C   UNL A   1      43.174  22.501  25.247  1.00  0.00     0.198 A 
ATOM     85  F   UNL A   1      43.768  24.777  25.127  1.00  0.00    -0.203 F 
ATOM     86  F   UNL A   1      41.855  20.551  28.001  1.00  0.00    -0.200 F 
ATOM     87  C   UNL A   1      42.691  21.421  25.971  1.00  0.00     0.200 A 
ATOM     88  F   UNL A   1      43.540  22.339  23.968  1.00  0.00    -0.200 F 
ATOM     89  F   UNL A   1      42.610  20.211  25.401  1.00  0.00    -0.200 F 
ENDBRANCH  55  79
BRANCH  67  90
ATOM     90  C   UNL A   1      48.014  27.187  30.623  1.00  0.00     0.064 A 
ATOM     91  C   UNL A   1      48.260  26.477  31.807  1.00  0.00     0.173 A 
ATOM     92  C   UNL A   1      49.098  27.451  29.772  1.00  0.00     0.173 A 
ATOM     93  F   UNL A   1      47.257  26.212  32.657  1.00  0.00    -0.203 F 
ATOM     94  C   UNL A   1      49.549  26.072  32.140  1.00  0.00     0.198 A 
ATOM     95  C   UNL A   1      50.379  27.016  30.094  1.00  0.00     0.198 A 
ATOM     96  F   UNL A   1      48.910  28.117  28.623  1.00  0.00    -0.203 F 
ATOM     97  F   UNL A   1      49.771  25.439  33.299  1.00  0.00    -0.200 F 
ATOM     98  C   UNL A   1      50.606  26.335  31.280  1.00  0.00     0.200 A 
ATOM     99  F   UNL A   1      51.397  27.256  29.255  1.00  0.00    -0.200 F 
ATOM    100  F   UNL A   1      51.844  25.937  31.600  1.00  0.00    -0.200 F 
ENDBRANCH  67  90
ENDBRANCH  41  42
ENDBRANCH  33  36
ENDBRANCH  31  32
ENDBRANCH  30  31
ENDBRANCH  29  30
ENDBRANCH   3  29
TORSDOF 16
ENDMDL
MODEL 3
REMARK VINA RESULT:      -9.2      4.909     10.108
REMARK SMILES CC(C)(C)OC(=O)N1CCC[C@H](C(=O)N[C@H](C(=O)NCCCNC(=O)c2ccc(-c3c4nc(c(-c5c(F)c(F)c(F)c(F)c5F)c5ccc([nH]5)c(-c5c(F)c(F)c(F)c(F)c5F)c5nc(c(-c6c(F)c(F)c(F)c(F)c6F)c6ccc3[nH]6)C=C5)C=C4)cc2)c2ccccc2)C1
REMARK SMILES IDX 17 1 18 2 19 3 16 5 15 6 13 7 14 8 12 10 8 11 9 12 95 13
REMARK SMILES IDX 10 14 11 15 6 16 7 17 5 18 2 19 1 20 3 21 4 22 89 23 90 24
REMARK SMILES IDX 94 25 91 26 93 27 92 28 20 29 21 30 22 31 23 32 24 33 25 35
REMARK SMILES IDX 26 36 27 37 88 38 28 39 87 40 29 41 30 42 31 43 81 44 32 45
REMARK SMILES IDX 86 46 80 47 82 48 33 49 85 50 79 51 78 52 34 54 66 55 46 56
REMARK SMILES IDX 65 57 47 58 50 59 64 60 83 61 48 62 49 63 63 65 84 66 51 67
REMARK SMILES IDX 35 68 36 69 44 70 37 71 38 72 42 73 45 74 39 75 40 76 43 77
REMARK SMILES IDX 41 78 67 79 68 80 76 81 69 82 70 83 74 84 77 85 71 86 72 87
REMARK SMILES IDX 75 88 73 89 52 90 53 91 61 92 54 93 55 94 59 95 62 96 56 97
REMARK SMILES IDX 57 98 60 99 58 100
REMARK H PARENT 19 4 15 9 23 34 82 53 50 64
REMARK Flexibility Score: inf
ROOT
ATOM      1  C   UNL A   1      33.470  27.945  26.441  1.00  0.00     0.247 C 
ATOM      2  O   UNL A   1      34.624  27.510  26.559  1.00  0.00    -0.272 OA
ATOM      3  N   UNL A   1      33.326  29.196  27.003  1.00  0.00    -0.354 N 
ATOM      4  H   UNL A   1      34.050  29.450  27.621  1.00  0.00     0.163 HD
ENDROOT
BRANCH   1   5
ATOM      5  C   UNL A   1      32.182  27.034  25.720  1.00  0.00     0.202 C 
BRANCH   5   6
ATOM      6  N   UNL A   1      32.154  25.979  26.866  1.00  0.00    -0.340 N 
ATOM      7  C   UNL A   1      32.491  24.718  26.551  1.00  0.00     0.225 C 
ATOM      8  O   UNL A   1      32.547  23.722  27.227  1.00  0.00    -0.275 OA
ATOM      9  H   UNL A   1      31.897  26.226  27.784  1.00  0.00     0.164 HD
BRANCH   7  10
ATOM     10  C   UNL A   1      32.741  24.990  25.159  1.00  0.00     0.098 C 
ATOM     11  N   UNL A   1      32.859  22.102  23.594  1.00  0.00    -0.307 N 
ATOM     12  C   UNL A   1      34.679  22.207  23.365  1.00  0.00     0.123 C 
ATOM     13  C   UNL A   1      31.825  23.423  24.447  1.00  0.00     0.136 C 
ATOM     14  C   UNL A   1      35.688  23.596  24.289  1.00  0.00     0.023 C 
ATOM     15  C   UNL A   1      34.696  25.017  25.238  1.00  0.00     0.017 C 
BRANCH  11  16
ATOM     16  C   UNL A   1      32.238  20.952  23.135  1.00  0.00     0.410 C 
ATOM     17  O   UNL A   1      31.780  20.838  22.010  1.00  0.00    -0.224 OA
BRANCH  16  18
ATOM     18  O   UNL A   1      32.180  20.032  24.124  1.00  0.00    -0.444 OA
BRANCH  18  19
ATOM     19  C   UNL A   1      32.875  18.760  24.077  1.00  0.00     0.106 C 
ATOM     20  C   UNL A   1      32.182  17.899  25.143  1.00  0.00     0.056 C 
ATOM     21  C   UNL A   1      34.326  19.019  24.482  1.00  0.00     0.056 C 
ATOM     22  C   UNL A   1      32.797  18.016  22.739  1.00  0.00     0.056 C 
ENDBRANCH  18  19
ENDBRANCH  16  18
ENDBRANCH  11  16
ENDBRANCH   7  10
ENDBRANCH   5   6
BRANCH   5  23
ATOM     23  C   UNL A   1      30.549  27.445  24.474  1.00  0.00    -0.016 A 
ATOM     24  C   UNL A   1      30.272  28.612  23.531  1.00  0.00     0.006 A 
ATOM     25  C   UNL A   1      29.247  26.697  24.279  1.00  0.00     0.006 A 
ATOM     26  C   UNL A   1      29.097  28.987  22.813  1.00  0.00     0.000 A 
ATOM     27  C   UNL A   1      28.051  27.065  23.587  1.00  0.00     0.000 A 
ATOM     28  C   UNL A   1      27.964  28.229  22.877  1.00  0.00     0.000 A 
ENDBRANCH   5  23
ENDBRANCH   1   5
BRANCH   3  29
ATOM     29  C   UNL A   1      32.297  30.203  26.844  1.00  0.00     0.117 C 
BRANCH  29  30
ATOM     30  C   UNL A   1      32.781  31.630  26.770  1.00  0.00     0.042 C 
BRANCH  30  31
ATOM     31  C   UNL A   1      31.893  32.559  27.581  1.00  0.00     0.118 C 
BRANCH  31  32
ATOM     32  N   UNL A   1      32.405  33.936  27.677  1.00  0.00    -0.352 N 
ATOM     33  C   UNL A   1      33.569  34.457  28.197  1.00  0.00     0.251 C 
ATOM     34  H   UNL A   1      31.799  34.615  27.298  1.00  0.00     0.163 HD
ATOM     35  O   UNL A   1      33.703  35.670  28.319  1.00  0.00    -0.269 OA
BRANCH  33  36
ATOM     36  C   UNL A   1      34.641  33.547  28.635  1.00  0.00     0.039 A 
ATOM     37  C   UNL A   1      35.863  33.508  27.960  1.00  0.00     0.014 A 
ATOM     38  C   UNL A   1      34.444  32.770  29.768  1.00  0.00     0.014 A 
ATOM     39  C   UNL A   1      36.920  32.776  28.508  1.00  0.00     0.010 A 
ATOM     40  C   UNL A   1      35.535  32.223  30.410  1.00  0.00     0.010 A 
ATOM     41  C   UNL A   1      36.781  32.182  29.773  1.00  0.00    -0.014 A 
BRANCH  41  42
ATOM     42  C   UNL A   1      37.884  31.454  30.446  1.00  0.00     0.031 A 
ATOM     43  C   UNL A   1      38.225  31.793  31.875  1.00  0.00     0.074 A 
ATOM     44  C   UNL A   1      38.640  30.582  29.752  1.00  0.00     0.049 A 
ATOM     45  N   UNL A   1      39.238  31.400  32.605  1.00  0.00    -0.248 NA
ATOM     46  C   UNL A   1      37.349  32.766  32.556  1.00  0.00     0.031 C 
ATOM     47  C   UNL A   1      38.472  30.241  28.337  1.00  0.00     0.029 A 
ATOM     48  N   UNL A   1      39.713  29.825  30.147  1.00  0.00    -0.354 N 
ATOM     49  C   UNL A   1      39.142  32.115  33.792  1.00  0.00     0.074 A 
ATOM     50  C   UNL A   1      38.040  33.036  33.651  1.00  0.00     0.031 C 
ATOM     51  C   UNL A   1      39.372  29.304  27.998  1.00  0.00     0.029 A 
ATOM     52  C   UNL A   1      40.206  29.008  29.158  1.00  0.00     0.049 A 
ATOM     53  H   UNL A   1      40.095  29.862  31.053  1.00  0.00     0.167 HD
ATOM     54  C   UNL A   1      39.872  31.980  34.923  1.00  0.00     0.037 A 
ATOM     55  C   UNL A   1      41.211  28.114  29.195  1.00  0.00     0.037 A 
ATOM     56  C   UNL A   1      40.905  30.997  35.085  1.00  0.00     0.049 A 
ATOM     57  C   UNL A   1      41.957  27.921  30.489  1.00  0.00     0.074 A 
ATOM     58  C   UNL A   1      41.651  30.702  36.210  1.00  0.00     0.029 A 
ATOM     59  N   UNL A   1      41.322  30.131  34.084  1.00  0.00    -0.354 N 
ATOM     60  N   UNL A   1      41.809  28.546  31.632  1.00  0.00    -0.248 NA
ATOM     61  C   UNL A   1      43.000  26.886  30.501  1.00  0.00     0.031 C 
ATOM     62  C   UNL A   1      42.541  29.673  35.882  1.00  0.00     0.029 A 
ATOM     63  C   UNL A   1      42.318  29.300  34.565  1.00  0.00     0.049 A 
ATOM     64  H   UNL A   1      40.963  30.110  33.167  1.00  0.00     0.167 HD
ATOM     65  C   UNL A   1      42.712  27.962  32.508  1.00  0.00     0.074 A 
ATOM     66  C   UNL A   1      43.394  26.921  31.766  1.00  0.00     0.031 C 
ATOM     67  C   UNL A   1      42.961  28.259  33.807  1.00  0.00     0.037 A 
BRANCH  54  68
ATOM     68  C   UNL A   1      39.544  32.889  36.073  1.00  0.00     0.064 A 
ATOM     69  C   UNL A   1      38.571  32.550  37.028  1.00  0.00     0.173 A 
ATOM     70  C   UNL A   1      40.206  34.116  36.224  1.00  0.00     0.173 A 
ATOM     71  F   UNL A   1      37.893  31.396  36.923  1.00  0.00    -0.203 F 
ATOM     72  C   UNL A   1      38.243  33.423  38.061  1.00  0.00     0.198 A 
ATOM     73  C   UNL A   1      39.903  34.970  37.281  1.00  0.00     0.198 A 
ATOM     74  F   UNL A   1      41.146  34.491  35.343  1.00  0.00    -0.203 F 
ATOM     75  F   UNL A   1      37.259  33.107  38.916  1.00  0.00    -0.200 F 
ATOM     76  C   UNL A   1      38.913  34.629  38.192  1.00  0.00     0.200 A 
ATOM     77  F   UNL A   1      40.559  36.131  37.413  1.00  0.00    -0.200 F 
ATOM     78  F   UNL A   1      38.598  35.468  39.188  1.00  0.00    -0.200 F 
ENDBRANCH  54  68
BRANCH  55  79
ATOM     79  C   UNL A   1      41.524  27.290  27.998  1.00  0.00     0.064 A 
ATOM     80  C   UNL A   1      42.423  27.754  27.026  1.00  0.00     0.173 A 
ATOM     81  C   UNL A   1      40.939  26.033  27.797  1.00  0.00     0.173 A 
ATOM     82  F   UNL A   1      42.998  28.957  27.167  1.00  0.00    -0.203 F 
ATOM     83  C   UNL A   1      42.702  27.004  25.886  1.00  0.00     0.198 A 
ATOM     84  C   UNL A   1      41.241  25.271  26.669  1.00  0.00     0.198 A 
ATOM     85  F   UNL A   1      40.082  25.537  28.701  1.00  0.00    -0.203 F 
ATOM     86  F   UNL A   1      43.526  27.496  24.949  1.00  0.00    -0.200 F 
ATOM     87  C   UNL A   1      42.114  25.762  25.709  1.00  0.00     0.200 A 
ATOM     88  F   UNL A   1      40.682  24.064  26.509  1.00  0.00    -0.200 F 
ATOM     89  F   UNL A   1      42.382  25.041  24.612  1.00  0.00    -0.200 F 
ENDBRANCH  55  79
BRANCH  67  90
ATOM     90  C   UNL A   1      43.978  27.416  34.518  1.00  0.00     0.064 A 
ATOM     91  C   UNL A   1      43.630  26.203  35.128  1.00  0.00     0.173 A 
ATOM     92  C   UNL A   1      45.324  27.810  34.548  1.00  0.00     0.173 A 
ATOM     93  F   UNL A   1      42.354  25.791  35.135  1.00  0.00    -0.203 F 
ATOM     94  C   UNL A   1      44.591  25.427  35.770  1.00  0.00     0.198 A 
ATOM     95  C   UNL A   1      46.286  27.016  35.162  1.00  0.00     0.198 A 
ATOM     96  F   UNL A   1      45.707  28.958  33.968  1.00  0.00    -0.203 F 
ATOM     97  F   UNL A   1      44.231  24.296  36.390  1.00  0.00    -0.200 F 
ATOM     98  C   UNL A   1      45.919  25.830  35.780  1.00  0.00     0.200 A 
ATOM     99  F   UNL A   1      47.571  27.398  35.158  1.00  0.00    -0.200 F 
ATOM    100  F   UNL A   1      46.843  25.078  36.391  1.00  0.00    -0.200 F 
ENDBRANCH  67  90
ENDBRANCH  41  42
ENDBRANCH  33  36
ENDBRANCH  31  32
ENDBRANCH  30  31
ENDBRANCH  29  30
ENDBRANCH   3  29
TORSDOF 16
ENDMDL
