MODEL 1
REMARK VINA RESULT:     -11.9      0.000      0.000
REMARK SMILES CCC(CC)(NC(=O)c1c(C)noc1C)C(=O)NCCCNC(=O)c1ccc(-c2c3nc(c(-c4c(F)c(F)c(F)c(F)c4F)c4ccc([nH]4)c(-c4c(F)c(F)c(F)c(F)c4F)c4nc(c(-c5c(F)c(F)c(F)c(F)c5F)c5ccc2[nH]5)C=C4)C=C3)cc1
REMARK SMILES IDX 20 1 19 2 18 3 16 4 17 5 3 7 2 8 1 9 4 10 5 11 6 12 7 13
REMARK SMILES IDX 8 15 9 16 10 17 14 18 11 19 12 20 13 21 15 22 21 23 22 24
REMARK SMILES IDX 23 25 24 27 25 28 26 29 87 30 27 31 86 32 28 33 29 34 30 35
REMARK SMILES IDX 80 36 31 37 85 38 79 39 81 40 32 41 84 42 78 43 77 44 33 46
REMARK SMILES IDX 65 47 45 48 64 49 46 50 49 51 63 52 82 53 47 54 48 55 62 57
REMARK SMILES IDX 83 58 50 59 34 60 35 61 43 62 36 63 37 64 41 65 44 66 38 67
REMARK SMILES IDX 39 68 42 69 40 70 66 71 67 72 75 73 68 74 69 75 73 76 76 77
REMARK SMILES IDX 70 78 71 79 74 80 72 81 51 82 52 83 60 84 53 85 54 86 58 87
REMARK SMILES IDX 61 88 55 89 56 90 59 91 57 92
REMARK H PARENT 18 6 6 14 22 26 81 45 49 56
REMARK Flexibility Score: inf
ROOT
ATOM      1  C   UNL A   1      37.810  20.005  24.924  1.00  0.00     0.042 C 
ENDROOT
BRANCH   1   2
ATOM      2  C   UNL A   1      36.595  20.938  24.983  1.00  0.00     0.117 C 
BRANCH   2   3
ATOM      3  N   UNL A   1      35.880  21.163  26.240  1.00  0.00    -0.354 N 
ATOM      4  C   UNL A   1      34.672  21.746  26.570  1.00  0.00     0.245 C 
ATOM      5  O   UNL A   1      34.201  21.453  27.673  1.00  0.00    -0.272 OA
ATOM      6  H   UNL A   1      36.368  20.824  27.025  1.00  0.00     0.163 HD
BRANCH   4   7
ATOM      7  C   UNL A   1      33.854  22.555  25.547  1.00  0.00     0.118 C 
BRANCH   7   8
ATOM      8  C   UNL A   1      33.474  21.855  24.214  1.00  0.00     0.035 C 
ATOM      9  C   UNL A   1      32.528  20.661  24.267  1.00  0.00     0.007 C 
ENDBRANCH   7   8
BRANCH   7  10
ATOM     10  C   UNL A   1      34.798  23.782  25.260  1.00  0.00     0.035 C 
ATOM     11  C   UNL A   1      34.985  24.235  23.821  1.00  0.00     0.007 C 
ENDBRANCH   7  10
BRANCH   7  12
ATOM     12  N   UNL A   1      32.596  22.936  26.215  1.00  0.00    -0.337 N 
ATOM     13  C   UNL A   1      31.832  24.084  26.288  1.00  0.00     0.257 C 
ATOM     14  H   UNL A   1      32.208  22.196  26.734  1.00  0.00     0.164 HD
ATOM     15  O   UNL A   1      31.054  24.044  27.251  1.00  0.00    -0.269 OA
BRANCH  13  16
ATOM     16  C   UNL A   1      31.821  25.282  25.429  1.00  0.00     0.105 A 
ATOM     17  C   UNL A   1      31.267  25.223  24.085  1.00  0.00     0.093 A 
ATOM     18  C   UNL A   1      32.390  26.559  25.422  1.00  0.00     0.146 A 
ATOM     19  C   UNL A   1      30.653  24.081  23.363  1.00  0.00     0.071 C 
ATOM     20  N   UNL A   1      31.388  26.373  23.426  1.00  0.00    -0.084 NA
ATOM     21  O   UNL A   1      32.060  27.200  24.263  1.00  0.00    -0.361 OA
ATOM     22  C   UNL A   1      33.309  27.427  26.185  1.00  0.00     0.092 C 
ENDBRANCH  13  16
ENDBRANCH   7  12
ENDBRANCH   4   7
ENDBRANCH   2   3
ENDBRANCH   1   2
BRANCH   1  23
ATOM     23  C   UNL A   1      39.055  20.290  25.751  1.00  0.00     0.118 C 
BRANCH  23  24
ATOM     24  N   UNL A   1      40.008  19.203  25.812  1.00  0.00    -0.352 N 
ATOM     25  C   UNL A   1      41.347  19.242  26.125  1.00  0.00     0.251 C 
ATOM     26  H   UNL A   1      39.649  18.311  25.600  1.00  0.00     0.163 HD
ATOM     27  O   UNL A   1      42.013  18.210  26.093  1.00  0.00    -0.269 OA
BRANCH  25  28
ATOM     28  C   UNL A   1      42.007  20.529  26.441  1.00  0.00     0.039 A 
ATOM     29  C   UNL A   1      42.471  21.308  25.376  1.00  0.00     0.014 A 
ATOM     30  C   UNL A   1      42.166  20.978  27.755  1.00  0.00     0.014 A 
ATOM     31  C   UNL A   1      43.017  22.571  25.620  1.00  0.00     0.010 A 
ATOM     32  C   UNL A   1      42.674  22.259  27.996  1.00  0.00     0.010 A 
ATOM     33  C   UNL A   1      43.084  23.075  26.930  1.00  0.00    -0.014 A 
BRANCH  33  34
ATOM     34  C   UNL A   1      43.517  24.477  27.175  1.00  0.00     0.031 A 
ATOM     35  C   UNL A   1      42.552  25.510  27.679  1.00  0.00     0.074 A 
ATOM     36  C   UNL A   1      44.788  24.828  26.901  1.00  0.00     0.049 A 
ATOM     37  N   UNL A   1      42.756  26.780  27.929  1.00  0.00    -0.248 NA
ATOM     38  C   UNL A   1      41.174  25.063  27.926  1.00  0.00     0.031 C 
ATOM     39  C   UNL A   1      45.816  23.929  26.375  1.00  0.00     0.029 A 
ATOM     40  N   UNL A   1      45.433  26.036  27.017  1.00  0.00    -0.354 N 
ATOM     41  C   UNL A   1      41.537  27.285  28.360  1.00  0.00     0.074 A 
ATOM     42  C   UNL A   1      40.587  26.192  28.299  1.00  0.00     0.031 C 
ATOM     43  C   UNL A   1      46.963  24.609  26.227  1.00  0.00     0.029 A 
ATOM     44  C   UNL A   1      46.746  26.001  26.613  1.00  0.00     0.049 A 
ATOM     45  H   UNL A   1      44.996  26.850  27.357  1.00  0.00     0.167 HD
ATOM     46  C   UNL A   1      41.241  28.538  28.782  1.00  0.00     0.037 A 
ATOM     47  C   UNL A   1      47.668  26.981  26.549  1.00  0.00     0.037 A 
ATOM     48  C   UNL A   1      42.187  29.624  28.845  1.00  0.00     0.049 A 
ATOM     49  C   UNL A   1      47.303  28.372  26.990  1.00  0.00     0.074 A 
ATOM     50  C   UNL A   1      41.990  30.913  29.314  1.00  0.00     0.029 A 
ATOM     51  N   UNL A   1      43.503  29.554  28.416  1.00  0.00    -0.354 N 
ATOM     52  N   UNL A   1      46.166  28.817  27.466  1.00  0.00    -0.248 NA
ATOM     53  C   UNL A   1      48.352  29.396  26.886  1.00  0.00     0.031 C 
ATOM     54  C   UNL A   1      43.173  31.636  29.121  1.00  0.00     0.029 A 
ATOM     55  C   UNL A   1      44.121  30.785  28.579  1.00  0.00     0.049 A 
ATOM     56  H   UNL A   1      43.936  28.749  28.050  1.00  0.00     0.167 HD
ATOM     57  C   UNL A   1      46.367  30.163  27.737  1.00  0.00     0.074 A 
ATOM     58  C   UNL A   1      47.742  30.459  27.391  1.00  0.00     0.031 C 
ATOM     59  C   UNL A   1      45.489  31.072  28.228  1.00  0.00     0.037 A 
BRANCH  46  60
ATOM     60  C   UNL A   1      39.828  28.811  29.209  1.00  0.00     0.064 A 
ATOM     61  C   UNL A   1      38.856  29.246  28.297  1.00  0.00     0.173 A 
ATOM     62  C   UNL A   1      39.428  28.585  30.535  1.00  0.00     0.173 A 
ATOM     63  F   UNL A   1      39.187  29.481  27.018  1.00  0.00    -0.203 F 
ATOM     64  C   UNL A   1      37.543  29.472  28.701  1.00  0.00     0.198 A 
ATOM     65  C   UNL A   1      38.109  28.786  30.931  1.00  0.00     0.198 A 
ATOM     66  F   UNL A   1      40.316  28.157  31.446  1.00  0.00    -0.203 F 
ATOM     67  F   UNL A   1      36.641  29.929  27.821  1.00  0.00    -0.200 F 
ATOM     68  C   UNL A   1      37.169  29.236  30.016  1.00  0.00     0.200 A 
ATOM     69  F   UNL A   1      37.746  28.543  32.198  1.00  0.00    -0.200 F 
ATOM     70  F   UNL A   1      35.903  29.446  30.402  1.00  0.00    -0.200 F 
ENDBRANCH  46  60
BRANCH  47  71
ATOM     71  C   UNL A   1      49.036  26.678  26.054  1.00  0.00     0.064 A 
ATOM     72  C   UNL A   1      49.398  26.951  24.727  1.00  0.00     0.173 A 
ATOM     73  C   UNL A   1      50.004  26.104  26.890  1.00  0.00     0.173 A 
ATOM     74  F   UNL A   1      48.500  27.478  23.883  1.00  0.00    -0.203 F 
ATOM     75  C   UNL A   1      50.671  26.643  24.251  1.00  0.00     0.198 A 
ATOM     76  C   UNL A   1      51.285  25.822  26.421  1.00  0.00     0.198 A 
ATOM     77  F   UNL A   1      49.709  25.825  28.168  1.00  0.00    -0.203 F 
ATOM     78  F   UNL A   1      50.977  26.872  22.967  1.00  0.00    -0.200 F 
ATOM     79  C   UNL A   1      51.616  26.084  25.100  1.00  0.00     0.200 A 
ATOM     80  F   UNL A   1      52.199  25.295  27.248  1.00  0.00    -0.200 F 
ATOM     81  F   UNL A   1      52.841  25.793  24.643  1.00  0.00    -0.200 F 
ENDBRANCH  47  71
BRANCH  59  82
ATOM     82  C   UNL A   1      45.993  32.471  28.436  1.00  0.00     0.064 A 
ATOM     83  C   UNL A   1      45.872  33.450  27.438  1.00  0.00     0.173 A 
ATOM     84  C   UNL A   1      46.572  32.846  29.658  1.00  0.00     0.173 A 
ATOM     85  F   UNL A   1      45.343  33.138  26.246  1.00  0.00    -0.203 F 
ATOM     86  C   UNL A   1      46.334  34.747  27.649  1.00  0.00     0.198 A 
ATOM     87  C   UNL A   1      47.005  34.151  29.875  1.00  0.00     0.198 A 
ATOM     88  F   UNL A   1      46.707  31.949  30.645  1.00  0.00    -0.203 F 
ATOM     89  F   UNL A   1      46.250  35.654  26.666  1.00  0.00    -0.200 F 
ATOM     90  C   UNL A   1      46.892  35.099  28.869  1.00  0.00     0.200 A 
ATOM     91  F   UNL A   1      47.535  34.491  31.058  1.00  0.00    -0.200 F 
ATOM     92  F   UNL A   1      47.330  36.349  29.072  1.00  0.00    -0.200 F 
ENDBRANCH  59  82
ENDBRANCH  33  34
ENDBRANCH  25  28
ENDBRANCH  23  24
ENDBRANCH   1  23
TORSDOF 14
ENDMDL
MODEL 2
REMARK VINA RESULT:     -11.8      5.659     11.220
REMARK SMILES CCC(CC)(NC(=O)c1c(C)noc1C)C(=O)NCCCNC(=O)c1ccc(-c2c3nc(c(-c4c(F)c(F)c(F)c(F)c4F)c4ccc([nH]4)c(-c4c(F)c(F)c(F)c(F)c4F)c4nc(c(-c5c(F)c(F)c(F)c(F)c5F)c5ccc2[nH]5)C=C4)C=C3)cc1
REMARK SMILES IDX 20 1 19 2 18 3 16 4 17 5 3 7 2 8 1 9 4 10 5 11 6 12 7 13
REMARK SMILES IDX 8 15 9 16 10 17 14 18 11 19 12 20 13 21 15 22 21 23 22 24
REMARK SMILES IDX 23 25 24 27 25 28 26 29 87 30 27 31 86 32 28 33 29 34 30 35
REMARK SMILES IDX 80 36 31 37 85 38 79 39 81 40 32 41 84 42 78 43 77 44 33 46
REMARK SMILES IDX 65 47 45 48 64 49 46 50 49 51 63 52 82 53 47 54 48 55 62 57
REMARK SMILES IDX 83 58 50 59 34 60 35 61 43 62 36 63 37 64 41 65 44 66 38 67
REMARK SMILES IDX 39 68 42 69 40 70 66 71 67 72 75 73 68 74 69 75 73 76 76 77
REMARK SMILES IDX 70 78 71 79 74 80 72 81 51 82 52 83 60 84 53 85 54 86 58 87
REMARK SMILES IDX 61 88 55 89 56 90 59 91 57 92
REMARK H PARENT 18 6 6 14 22 26 81 45 49 56
REMARK Flexibility Score: inf
ROOT
ATOM      1  C   UNL A   1      31.634  31.981  26.516  1.00  0.00     0.042 C 
ENDROOT
BRANCH   1   2
ATOM      2  C   UNL A   1      31.824  30.504  26.148  1.00  0.00     0.117 C 
BRANCH   2   3
ATOM      3  N   UNL A   1      31.448  29.442  27.082  1.00  0.00    -0.354 N 
ATOM      4  C   UNL A   1      31.699  28.086  27.151  1.00  0.00     0.245 C 
ATOM      5  O   UNL A   1      31.541  27.550  28.251  1.00  0.00    -0.272 OA
ATOM      6  H   UNL A   1      30.893  29.766  27.828  1.00  0.00     0.163 HD
BRANCH   4   7
ATOM      7  C   UNL A   1      32.334  27.317  25.977  1.00  0.00     0.118 C 
BRANCH   7   8
ATOM      8  C   UNL A   1      33.716  27.804  25.462  1.00  0.00     0.035 C 
ATOM      9  C   UNL A   1      33.841  28.204  23.996  1.00  0.00     0.007 C 
ENDBRANCH   7   8
BRANCH   7  10
ATOM     10  C   UNL A   1      31.251  27.479  24.846  1.00  0.00     0.035 C 
ATOM     11  C   UNL A   1      30.026  26.580  24.878  1.00  0.00     0.007 C 
ENDBRANCH   7  10
BRANCH   7  12
ATOM     12  N   UNL A   1      32.501  25.922  26.424  1.00  0.00    -0.337 N 
ATOM     13  C   UNL A   1      32.834  24.730  25.814  1.00  0.00     0.257 C 
ATOM     14  H   UNL A   1      32.335  25.815  27.388  1.00  0.00     0.164 HD
ATOM     15  O   UNL A   1      32.502  23.761  26.511  1.00  0.00    -0.269 OA
BRANCH  13  16
ATOM     16  C   UNL A   1      33.489  24.467  24.519  1.00  0.00     0.105 A 
ATOM     17  C   UNL A   1      34.902  24.126  24.462  1.00  0.00     0.093 A 
ATOM     18  C   UNL A   1      33.202  24.625  23.160  1.00  0.00     0.146 A 
ATOM     19  C   UNL A   1      35.886  23.976  25.563  1.00  0.00     0.071 C 
ATOM     20  N   UNL A   1      35.348  23.979  23.216  1.00  0.00    -0.084 NA
ATOM     21  O   UNL A   1      34.289  24.264  22.419  1.00  0.00    -0.361 OA
ATOM     22  C   UNL A   1      32.166  25.141  22.242  1.00  0.00     0.092 C 
ENDBRANCH  13  16
ENDBRANCH   7  12
ENDBRANCH   4   7
ENDBRANCH   2   3
ENDBRANCH   1   2
BRANCH   1  23
ATOM     23  C   UNL A   1      32.720  32.747  27.257  1.00  0.00     0.118 C 
BRANCH  23  24
ATOM     24  N   UNL A   1      32.358  34.094  27.645  1.00  0.00    -0.352 N 
ATOM     25  C   UNL A   1      32.974  34.929  28.547  1.00  0.00     0.251 C 
ATOM     26  H   UNL A   1      31.560  34.463  27.202  1.00  0.00     0.163 HD
ATOM     27  O   UNL A   1      32.500  36.039  28.775  1.00  0.00    -0.269 OA
BRANCH  25  28
ATOM     28  C   UNL A   1      34.170  34.477  29.294  1.00  0.00     0.039 A 
ATOM     29  C   UNL A   1      33.978  33.882  30.544  1.00  0.00     0.014 A 
ATOM     30  C   UNL A   1      35.463  34.623  28.781  1.00  0.00     0.014 A 
ATOM     31  C   UNL A   1      35.068  33.357  31.243  1.00  0.00     0.010 A 
ATOM     32  C   UNL A   1      36.548  34.061  29.462  1.00  0.00     0.010 A 
ATOM     33  C   UNL A   1      36.358  33.405  30.688  1.00  0.00    -0.014 A 
BRANCH  33  34
ATOM     34  C   UNL A   1      37.491  32.709  31.356  1.00  0.00     0.031 A 
ATOM     35  C   UNL A   1      38.185  31.550  30.701  1.00  0.00     0.074 A 
ATOM     36  C   UNL A   1      37.870  33.105  32.587  1.00  0.00     0.049 A 
ATOM     37  N   UNL A   1      39.175  30.819  31.149  1.00  0.00    -0.248 NA
ATOM     38  C   UNL A   1      37.696  31.153  29.373  1.00  0.00     0.031 C 
ATOM     39  C   UNL A   1      37.257  34.195  33.347  1.00  0.00     0.029 A 
ATOM     40  N   UNL A   1      38.855  32.634  33.419  1.00  0.00    -0.354 N 
ATOM     41  C   UNL A   1      39.429  29.876  30.163  1.00  0.00     0.074 A 
ATOM     42  C   UNL A   1      38.461  30.102  29.109  1.00  0.00     0.031 C 
ATOM     43  C   UNL A   1      37.887  34.318  34.525  1.00  0.00     0.029 A 
ATOM     44  C   UNL A   1      38.924  33.296  34.622  1.00  0.00     0.049 A 
ATOM     45  H   UNL A   1      39.456  31.892  33.178  1.00  0.00     0.167 HD
ATOM     46  C   UNL A   1      40.390  28.921  30.132  1.00  0.00     0.037 A 
ATOM     47  C   UNL A   1      39.724  33.095  35.687  1.00  0.00     0.037 A 
ATOM     48  C   UNL A   1      41.355  28.698  31.180  1.00  0.00     0.049 A 
ATOM     49  C   UNL A   1      40.759  32.004  35.641  1.00  0.00     0.074 A 
ATOM     50  C   UNL A   1      42.401  27.791  31.210  1.00  0.00     0.029 A 
ATOM     51  N   UNL A   1      41.385  29.379  32.387  1.00  0.00    -0.354 N 
ATOM     52  N   UNL A   1      41.037  31.168  34.670  1.00  0.00    -0.248 NA
ATOM     53  C   UNL A   1      41.592  31.831  36.839  1.00  0.00     0.031 C 
ATOM     54  C   UNL A   1      43.033  27.889  32.455  1.00  0.00     0.029 A 
ATOM     55  C   UNL A   1      42.411  28.890  33.182  1.00  0.00     0.049 A 
ATOM     56  H   UNL A   1      40.769  30.104  32.642  1.00  0.00     0.167 HD
ATOM     57  C   UNL A   1      42.087  30.386  35.130  1.00  0.00     0.074 A 
ATOM     58  C   UNL A   1      42.411  30.859  36.461  1.00  0.00     0.031 C 
ATOM     59  C   UNL A   1      42.724  29.366  34.506  1.00  0.00     0.037 A 
BRANCH  46  60
ATOM     60  C   UNL A   1      40.448  28.033  28.923  1.00  0.00     0.064 A 
ATOM     61  C   UNL A   1      39.720  26.837  28.855  1.00  0.00     0.173 A 
ATOM     62  C   UNL A   1      41.199  28.409  27.799  1.00  0.00     0.173 A 
ATOM     63  F   UNL A   1      38.990  26.429  29.905  1.00  0.00    -0.203 F 
ATOM     64  C   UNL A   1      39.763  26.034  27.718  1.00  0.00     0.198 A 
ATOM     65  C   UNL A   1      41.219  27.619  26.653  1.00  0.00     0.198 A 
ATOM     66  F   UNL A   1      41.905  29.550  27.806  1.00  0.00    -0.203 F 
ATOM     67  F   UNL A   1      39.093  24.874  27.692  1.00  0.00    -0.200 F 
ATOM     68  C   UNL A   1      40.507  26.429  26.616  1.00  0.00     0.200 A 
ATOM     69  F   UNL A   1      41.926  28.008  25.583  1.00  0.00    -0.200 F 
ATOM     70  F   UNL A   1      40.542  25.660  25.519  1.00  0.00    -0.200 F 
ENDBRANCH  46  60
BRANCH  47  71
ATOM     71  C   UNL A   1      39.584  33.955  36.891  1.00  0.00     0.064 A 
ATOM     72  C   UNL A   1      38.801  33.547  37.980  1.00  0.00     0.173 A 
ATOM     73  C   UNL A   1      40.220  35.202  36.973  1.00  0.00     0.173 A 
ATOM     74  F   UNL A   1      38.155  32.374  37.938  1.00  0.00    -0.203 F 
ATOM     75  C   UNL A   1      38.645  34.364  39.098  1.00  0.00     0.198 A 
ATOM     76  C   UNL A   1      40.085  36.005  38.104  1.00  0.00     0.198 A 
ATOM     77  F   UNL A   1      40.980  35.638  35.959  1.00  0.00    -0.203 F 
ATOM     78  F   UNL A   1      37.855  33.970  40.107  1.00  0.00    -0.200 F 
ATOM     79  C   UNL A   1      39.292  35.589  39.162  1.00  0.00     0.200 A 
ATOM     80  F   UNL A   1      40.723  37.183  38.167  1.00  0.00    -0.200 F 
ATOM     81  F   UNL A   1      39.145  36.371  40.240  1.00  0.00    -0.200 F 
ENDBRANCH  47  71
BRANCH  59  82
ATOM     82  C   UNL A   1      43.848  28.700  35.247  1.00  0.00     0.064 A 
ATOM     83  C   UNL A   1      45.174  29.138  35.115  1.00  0.00     0.173 A 
ATOM     84  C   UNL A   1      43.592  27.635  36.123  1.00  0.00     0.173 A 
ATOM     85  F   UNL A   1      45.474  30.141  34.277  1.00  0.00    -0.203 F 
ATOM     86  C   UNL A   1      46.206  28.519  35.817  1.00  0.00     0.198 A 
ATOM     87  C   UNL A   1      44.622  27.037  36.845  1.00  0.00     0.198 A 
ATOM     88  F   UNL A   1      42.341  27.180  36.288  1.00  0.00    -0.203 F 
ATOM     89  F   UNL A   1      47.471  28.924  35.641  1.00  0.00    -0.200 F 
ATOM     90  C   UNL A   1      45.928  27.474  36.687  1.00  0.00     0.200 A 
ATOM     91  F   UNL A   1      44.350  26.036  37.692  1.00  0.00    -0.200 F 
ATOM     92  F   UNL A   1      46.921  26.884  37.366  1.00  0.00    -0.200 F 
ENDBRANCH  59  82
ENDBRANCH  33  34
ENDBRANCH  25  28
ENDBRANCH  23  24
ENDBRANCH   1  23
TORSDOF 14
ENDMDL
MODEL 3
REMARK VINA RESULT:     -11.8      5.555     11.161
REMARK SMILES CCC(CC)(NC(=O)c1c(C)noc1C)C(=O)NCCCNC(=O)c1ccc(-c2c3nc(c(-c4c(F)c(F)c(F)c(F)c4F)c4ccc([nH]4)c(-c4c(F)c(F)c(F)c(F)c4F)c4nc(c(-c5c(F)c(F)c(F)c(F)c5F)c5ccc2[nH]5)C=C4)C=C3)cc1
REMARK SMILES IDX 20 1 19 2 18 3 16 4 17 5 3 7 2 8 1 9 4 10 5 11 6 12 7 13
REMARK SMILES IDX 8 15 9 16 10 17 14 18 11 19 12 20 13 21 15 22 21 23 22 24
REMARK SMILES IDX 23 25 24 27 25 28 26 29 87 30 27 31 86 32 28 33 29 34 30 35
REMARK SMILES IDX 80 36 31 37 85 38 79 39 81 40 32 41 84 42 78 43 77 44 33 46
REMARK SMILES IDX 65 47 45 48 64 49 46 50 49 51 63 52 82 53 47 54 48 55 62 57
REMARK SMILES IDX 83 58 50 59 34 60 35 61 43 62 36 63 37 64 41 65 44 66 38 67
REMARK SMILES IDX 39 68 42 69 40 70 66 71 67 72 75 73 68 74 69 75 73 76 76 77
REMARK SMILES IDX 70 78 71 79 74 80 72 81 51 82 52 83 60 84 53 85 54 86 58 87
REMARK SMILES IDX 61 88 55 89 56 90 59 91 57 92
REMARK H PARENT 18 6 6 14 22 26 81 45 49 56
REMARK Flexibility Score: inf
ROOT
ATOM      1  C   UNL A   1      31.532  31.743  26.504  1.00  0.00     0.042 C 
ENDROOT
BRANCH   1   2
ATOM      2  C   UNL A   1      31.772  30.328  25.964  1.00  0.00     0.117 C 
BRANCH   2   3
ATOM      3  N   UNL A   1      32.781  30.077  24.934  1.00  0.00    -0.354 N 
ATOM      4  C   UNL A   1      33.012  29.048  24.042  1.00  0.00     0.245 C 
ATOM      5  O   UNL A   1      33.728  29.310  23.071  1.00  0.00    -0.272 OA
ATOM      6  H   UNL A   1      33.442  30.803  24.860  1.00  0.00     0.163 HD
BRANCH   4   7
ATOM      7  C   UNL A   1      32.261  27.707  24.136  1.00  0.00     0.118 C 
BRANCH   7   8
ATOM      8  C   UNL A   1      30.710  27.752  24.181  1.00  0.00     0.035 C 
ATOM      9  C   UNL A   1      29.971  28.391  23.011  1.00  0.00     0.007 C 
ENDBRANCH   7   8
BRANCH   7  10
ATOM     10  C   UNL A   1      32.820  27.105  25.480  1.00  0.00     0.035 C 
ATOM     11  C   UNL A   1      31.836  26.517  26.478  1.00  0.00     0.007 C 
ENDBRANCH   7  10
BRANCH   7  12
ATOM     12  N   UNL A   1      32.643  26.922  22.948  1.00  0.00    -0.337 N 
ATOM     13  C   UNL A   1      33.176  25.668  22.730  1.00  0.00     0.257 C 
ATOM     14  H   UNL A   1      32.477  27.409  22.109  1.00  0.00     0.164 HD
ATOM     15  O   UNL A   1      33.657  25.577  21.592  1.00  0.00    -0.269 OA
BRANCH  13  16
ATOM     16  C   UNL A   1      33.251  24.492  23.616  1.00  0.00     0.105 A 
ATOM     17  C   UNL A   1      32.053  23.734  23.942  1.00  0.00     0.093 A 
ATOM     18  C   UNL A   1      34.178  23.904  24.483  1.00  0.00     0.146 A 
ATOM     19  C   UNL A   1      30.651  23.942  23.500  1.00  0.00     0.071 C 
ATOM     20  N   UNL A   1      32.287  22.742  24.798  1.00  0.00    -0.084 NA
ATOM     21  O   UNL A   1      33.602  22.838  25.110  1.00  0.00    -0.361 OA
ATOM     22  C   UNL A   1      35.534  24.090  25.037  1.00  0.00     0.092 C 
ENDBRANCH  13  16
ENDBRANCH   7  12
ENDBRANCH   4   7
ENDBRANCH   2   3
ENDBRANCH   1   2
BRANCH   1  23
ATOM     23  C   UNL A   1      32.626  32.490  27.251  1.00  0.00     0.118 C 
BRANCH  23  24
ATOM     24  N   UNL A   1      32.310  33.864  27.580  1.00  0.00    -0.352 N 
ATOM     25  C   UNL A   1      32.962  34.721  28.434  1.00  0.00     0.251 C 
ATOM     26  H   UNL A   1      31.517  34.236  27.131  1.00  0.00     0.163 HD
ATOM     27  O   UNL A   1      32.525  35.854  28.616  1.00  0.00    -0.269 OA
BRANCH  25  28
ATOM     28  C   UNL A   1      34.155  34.269  29.186  1.00  0.00     0.039 A 
ATOM     29  C   UNL A   1      33.959  33.689  30.443  1.00  0.00     0.014 A 
ATOM     30  C   UNL A   1      35.449  34.398  28.672  1.00  0.00     0.014 A 
ATOM     31  C   UNL A   1      35.045  33.164  31.148  1.00  0.00     0.010 A 
ATOM     32  C   UNL A   1      36.530  33.836  29.358  1.00  0.00     0.010 A 
ATOM     33  C   UNL A   1      36.335  33.196  30.592  1.00  0.00    -0.014 A 
BRANCH  33  34
ATOM     34  C   UNL A   1      37.462  32.499  31.267  1.00  0.00     0.031 A 
ATOM     35  C   UNL A   1      38.153  31.333  30.621  1.00  0.00     0.074 A 
ATOM     36  C   UNL A   1      37.840  32.900  32.497  1.00  0.00     0.049 A 
ATOM     37  N   UNL A   1      39.139  30.600  31.077  1.00  0.00    -0.248 NA
ATOM     38  C   UNL A   1      37.667  30.930  29.294  1.00  0.00     0.031 C 
ATOM     39  C   UNL A   1      37.229  33.997  33.249  1.00  0.00     0.029 A 
ATOM     40  N   UNL A   1      38.820  32.429  33.336  1.00  0.00    -0.354 N 
ATOM     41  C   UNL A   1      39.392  29.649  30.097  1.00  0.00     0.074 A 
ATOM     42  C   UNL A   1      38.428  29.873  29.039  1.00  0.00     0.031 C 
ATOM     43  C   UNL A   1      37.855  34.124  34.428  1.00  0.00     0.029 A 
ATOM     44  C   UNL A   1      38.888  33.098  34.534  1.00  0.00     0.049 A 
ATOM     45  H   UNL A   1      39.418  31.683  33.101  1.00  0.00     0.167 HD
ATOM     46  C   UNL A   1      40.349  28.690  30.075  1.00  0.00     0.037 A 
ATOM     47  C   UNL A   1      39.684  32.900  35.603  1.00  0.00     0.037 A 
ATOM     48  C   UNL A   1      41.310  28.469  31.127  1.00  0.00     0.049 A 
ATOM     49  C   UNL A   1      40.714  31.804  35.567  1.00  0.00     0.074 A 
ATOM     50  C   UNL A   1      42.352  27.557  31.166  1.00  0.00     0.029 A 
ATOM     51  N   UNL A   1      41.338  29.157  32.331  1.00  0.00    -0.354 N 
ATOM     52  N   UNL A   1      40.991  30.961  34.602  1.00  0.00    -0.248 NA
ATOM     53  C   UNL A   1      41.542  31.634  36.769  1.00  0.00     0.031 C 
ATOM     54  C   UNL A   1      42.979  27.660  32.413  1.00  0.00     0.029 A 
ATOM     55  C   UNL A   1      42.360  28.669  33.132  1.00  0.00     0.049 A 
ATOM     56  H   UNL A   1      40.725  29.886  32.580  1.00  0.00     0.167 HD
ATOM     57  C   UNL A   1      42.036  30.177  35.070  1.00  0.00     0.074 A 
ATOM     58  C   UNL A   1      42.358  30.657  36.399  1.00  0.00     0.031 C 
ATOM     59  C   UNL A   1      42.671  29.150  34.454  1.00  0.00     0.037 A 
BRANCH  46  60
ATOM     60  C   UNL A   1      40.406  27.795  28.871  1.00  0.00     0.064 A 
ATOM     61  C   UNL A   1      41.215  28.102  27.767  1.00  0.00     0.173 A 
ATOM     62  C   UNL A   1      39.684  26.593  28.841  1.00  0.00     0.173 A 
ATOM     63  F   UNL A   1      41.922  29.243  27.743  1.00  0.00    -0.203 F 
ATOM     64  C   UNL A   1      41.278  27.252  26.666  1.00  0.00     0.198 A 
ATOM     65  C   UNL A   1      39.771  25.732  27.752  1.00  0.00     0.198 A 
ATOM     66  F   UNL A   1      38.904  26.245  29.877  1.00  0.00    -0.203 F 
ATOM     67  F   UNL A   1      42.025  27.586  25.605  1.00  0.00    -0.200 F 
ATOM     68  C   UNL A   1      40.561  26.065  26.662  1.00  0.00     0.200 A 
ATOM     69  F   UNL A   1      39.089  24.577  27.755  1.00  0.00    -0.200 F 
ATOM     70  F   UNL A   1      40.628  25.243  25.605  1.00  0.00    -0.200 F 
ENDBRANCH  46  60
BRANCH  47  71
ATOM     71  C   UNL A   1      39.544  33.768  36.801  1.00  0.00     0.064 A 
ATOM     72  C   UNL A   1      40.228  34.988  36.891  1.00  0.00     0.173 A 
ATOM     73  C   UNL A   1      38.733  33.392  37.882  1.00  0.00     0.173 A 
ATOM     74  F   UNL A   1      41.033  35.379  35.893  1.00  0.00    -0.203 F 
ATOM     75  C   UNL A   1      40.120  35.791  38.024  1.00  0.00     0.198 A 
ATOM     76  C   UNL A   1      38.604  34.210  39.003  1.00  0.00     0.198 A 
ATOM     77  F   UNL A   1      38.056  32.235  37.845  1.00  0.00    -0.203 F 
ATOM     78  F   UNL A   1      40.819  36.931  38.103  1.00  0.00    -0.200 F 
ATOM     79  C   UNL A   1      39.303  35.405  39.077  1.00  0.00     0.200 A 
ATOM     80  F   UNL A   1      37.804  33.838  40.012  1.00  0.00    -0.200 F 
ATOM     81  F   UNL A   1      39.197  36.180  40.165  1.00  0.00    -0.200 F 
ENDBRANCH  47  71
BRANCH  59  82
ATOM     82  C   UNL A   1      43.790  28.484  35.202  1.00  0.00     0.064 A 
ATOM     83  C   UNL A   1      43.573  27.337  35.979  1.00  0.00     0.173 A 
ATOM     84  C   UNL A   1      45.100  28.980  35.115  1.00  0.00     0.173 A 
ATOM     85  F   UNL A   1      42.336  26.833  36.110  1.00  0.00    -0.203 F 
ATOM     86  C   UNL A   1      44.622  26.723  36.659  1.00  0.00     0.198 A 
ATOM     87  C   UNL A   1      46.151  28.347  35.772  1.00  0.00     0.198 A 
ATOM     88  F   UNL A   1      45.362  30.073  34.383  1.00  0.00    -0.203 F 
ATOM     89  F   UNL A   1      44.383  25.655  37.432  1.00  0.00    -0.200 F 
ATOM     90  C   UNL A   1      45.911  27.224  36.549  1.00  0.00     0.200 A 
ATOM     91  F   UNL A   1      47.397  28.826  35.657  1.00  0.00    -0.200 F 
ATOM     92  F   UNL A   1      46.920  26.629  37.199  1.00  0.00    -0.200 F 
ENDBRANCH  59  82
ENDBRANCH  33  34
ENDBRANCH  25  28
ENDBRANCH  23  24
ENDBRANCH   1  23
TORSDOF 14
ENDMDL
