MODEL 1
REMARK VINA RESULT:     -11.5      0.000      0.000
REMARK SMILES CCc1nc(COC)cc(N2CCCC[C@H]2C(=O)NCCCNC(=O)c2ccc(-c3c4nc(c(-c5c(F)c(F)c(F)c(F)c5F)c5ccc([nH]5)c(-c5c(F)c(F)c(F)c(F)c5F)c5nc(c(-c6c(F)c(F)c(F)c(F)c6F)c6ccc3[nH]6)C=C5)C=C4)cc2)n1
REMARK SMILES IDX 20 1 19 2 17 3 18 4 16 6 11 7 12 8 13 9 15 10 14 11 10 12
REMARK SMILES IDX 3 13 4 14 89 15 5 16 9 17 2 18 1 19 6 20 7 21 8 22 21 23
REMARK SMILES IDX 22 24 23 25 24 26 25 28 26 29 27 30 88 31 28 32 87 33 29 34
REMARK SMILES IDX 30 35 31 36 81 37 32 38 86 39 80 40 82 41 33 42 85 43 79 44
REMARK SMILES IDX 78 45 34 47 66 48 46 49 65 50 47 51 50 52 64 53 83 54 48 55
REMARK SMILES IDX 49 56 63 58 84 59 51 60 35 61 36 62 44 63 37 64 38 65 42 66
REMARK SMILES IDX 45 67 39 68 40 69 43 70 41 71 67 72 68 73 76 74 69 75 70 76
REMARK SMILES IDX 74 77 77 78 71 79 72 80 75 81 73 82 52 83 53 84 61 85 54 86
REMARK SMILES IDX 55 87 59 88 62 89 56 90 57 91 60 92 58 93
REMARK H PARENT 19 5 23 27 82 46 50 57
REMARK Flexibility Score: inf
ROOT
ATOM      1  C   UNL A   1      37.067  20.665  24.884  1.00  0.00     0.117 C 
ENDROOT
BRANCH   1   2
ATOM      2  N   UNL A   1      37.476  21.955  25.377  1.00  0.00    -0.354 N 
ATOM      3  C   UNL A   1      36.744  22.981  25.888  1.00  0.00     0.242 C 
ATOM      4  O   UNL A   1      37.395  23.983  26.220  1.00  0.00    -0.273 OA
ATOM      5  H   UNL A   1      38.445  22.122  25.337  1.00  0.00     0.163 HD
BRANCH   3   6
ATOM      6  C   UNL A   1      35.198  22.981  26.038  1.00  0.00     0.173 C 
ATOM      7  N   UNL A   1      34.501  23.145  24.756  1.00  0.00    -0.344 N 
ATOM      8  C   UNL A   1      34.007  21.995  24.024  1.00  0.00     0.119 C 
ATOM      9  C   UNL A   1      33.224  21.034  24.905  1.00  0.00     0.022 C 
ATOM     10  C   UNL A   1      34.551  21.912  26.931  1.00  0.00     0.035 C 
ATOM     11  C   UNL A   1      33.852  20.728  26.259  1.00  0.00     0.004 C 
BRANCH   7  12
ATOM     12  C   UNL A   1      33.971  24.387  24.434  1.00  0.00     0.133 A 
ATOM     13  C   UNL A   1      33.191  26.442  25.125  1.00  0.00     0.130 A 
ATOM     14  N   UNL A   1      32.850  26.830  23.887  1.00  0.00    -0.235 NA
ATOM     15  N   UNL A   1      33.718  25.245  25.434  1.00  0.00    -0.216 NA
ATOM     16  C   UNL A   1      33.064  25.942  22.896  1.00  0.00     0.072 A 
ATOM     17  C   UNL A   1      33.663  24.717  23.127  1.00  0.00     0.073 A 
BRANCH  13  18
ATOM     18  C   UNL A   1      32.949  27.402  26.255  1.00  0.00     0.074 C 
ATOM     19  C   UNL A   1      34.170  28.267  26.523  1.00  0.00     0.012 C 
ENDBRANCH  13  18
BRANCH  16  20
ATOM     20  C   UNL A   1      32.549  26.289  21.516  1.00  0.00     0.216 C 
BRANCH  20  21
ATOM     21  O   UNL A   1      33.149  25.512  20.470  1.00  0.00    -0.378 OA
ATOM     22  C   UNL A   1      32.380  25.488  19.275  1.00  0.00     0.195 C 
ENDBRANCH  20  21
ENDBRANCH  16  20
ENDBRANCH   7  12
ENDBRANCH   3   6
ENDBRANCH   1   2
BRANCH   1  23
ATOM     23  C   UNL A   1      38.164  19.619  24.968  1.00  0.00     0.042 C 
BRANCH  23  24
ATOM     24  C   UNL A   1      39.163  19.876  26.079  1.00  0.00     0.118 C 
BRANCH  24  25
ATOM     25  N   UNL A   1      40.324  19.000  25.999  1.00  0.00    -0.352 N 
ATOM     26  C   UNL A   1      41.667  19.279  25.998  1.00  0.00     0.251 C 
ATOM     27  H   UNL A   1      40.106  18.042  25.935  1.00  0.00     0.163 HD
ATOM     28  O   UNL A   1      42.463  18.388  25.719  1.00  0.00    -0.269 OA
BRANCH  26  29
ATOM     29  C   UNL A   1      42.165  20.638  26.310  1.00  0.00     0.039 A 
ATOM     30  C   UNL A   1      42.419  21.521  25.257  1.00  0.00     0.014 A 
ATOM     31  C   UNL A   1      42.419  21.040  27.622  1.00  0.00     0.014 A 
ATOM     32  C   UNL A   1      42.875  22.813  25.527  1.00  0.00     0.010 A 
ATOM     33  C   UNL A   1      42.744  22.361  27.898  1.00  0.00     0.010 A 
ATOM     34  C   UNL A   1      43.008  23.256  26.853  1.00  0.00    -0.014 A 
BRANCH  34  35
ATOM     35  C   UNL A   1      43.467  24.632  27.166  1.00  0.00     0.031 A 
ATOM     36  C   UNL A   1      42.501  25.638  27.735  1.00  0.00     0.074 A 
ATOM     37  C   UNL A   1      44.737  24.990  26.893  1.00  0.00     0.049 A 
ATOM     38  N   UNL A   1      42.697  26.896  28.041  1.00  0.00    -0.248 NA
ATOM     39  C   UNL A   1      41.118  25.184  27.954  1.00  0.00     0.031 C 
ATOM     40  C   UNL A   1      45.745  24.124  26.278  1.00  0.00     0.029 A 
ATOM     41  N   UNL A   1      45.396  26.174  27.097  1.00  0.00    -0.354 N 
ATOM     42  C   UNL A   1      41.467  27.379  28.466  1.00  0.00     0.074 A 
ATOM     43  C   UNL A   1      40.511  26.306  28.309  1.00  0.00     0.031 C 
ATOM     44  C   UNL A   1      46.907  24.793  26.194  1.00  0.00     0.029 A 
ATOM     45  C   UNL A   1      46.715  26.144  26.712  1.00  0.00     0.049 A 
ATOM     46  H   UNL A   1      44.966  26.972  27.482  1.00  0.00     0.167 HD
ATOM     47  C   UNL A   1      41.165  28.597  28.975  1.00  0.00     0.037 A 
ATOM     48  C   UNL A   1      47.661  27.098  26.776  1.00  0.00     0.037 A 
ATOM     49  C   UNL A   1      42.128  29.648  29.164  1.00  0.00     0.049 A 
ATOM     50  C   UNL A   1      47.306  28.436  27.367  1.00  0.00     0.074 A 
ATOM     51  C   UNL A   1      41.945  30.896  29.731  1.00  0.00     0.029 A 
ATOM     52  N   UNL A   1      43.461  29.570  28.788  1.00  0.00    -0.354 N 
ATOM     53  N   UNL A   1      46.157  28.855  27.840  1.00  0.00    -0.248 NA
ATOM     54  C   UNL A   1      48.385  29.431  27.443  1.00  0.00     0.031 C 
ATOM     55  C   UNL A   1      43.156  31.592  29.656  1.00  0.00     0.029 A 
ATOM     56  C   UNL A   1      44.108  30.756  29.093  1.00  0.00     0.049 A 
ATOM     57  H   UNL A   1      43.885  28.788  28.366  1.00  0.00     0.167 HD
ATOM     58  C   UNL A   1      46.379  30.147  28.295  1.00  0.00     0.074 A 
ATOM     59  C   UNL A   1      47.780  30.435  28.061  1.00  0.00     0.031 C 
ATOM     60  C   UNL A   1      45.505  31.019  28.855  1.00  0.00     0.037 A 
BRANCH  47  61
ATOM     61  C   UNL A   1      39.738  28.851  29.374  1.00  0.00     0.064 A 
ATOM     62  C   UNL A   1      39.278  28.595  30.676  1.00  0.00     0.173 A 
ATOM     63  C   UNL A   1      38.823  29.380  28.451  1.00  0.00     0.173 A 
ATOM     64  F   UNL A   1      40.107  28.076  31.594  1.00  0.00    -0.203 F 
ATOM     65  C   UNL A   1      37.951  28.828  31.029  1.00  0.00     0.198 A 
ATOM     66  C   UNL A   1      37.504  29.645  28.818  1.00  0.00     0.198 A 
ATOM     67  F   UNL A   1      39.207  29.648  27.194  1.00  0.00    -0.203 F 
ATOM     68  F   UNL A   1      37.524  28.519  32.261  1.00  0.00    -0.200 F 
ATOM     69  C   UNL A   1      37.068  29.359  30.102  1.00  0.00     0.200 A 
ATOM     70  F   UNL A   1      36.656  30.171  27.924  1.00  0.00    -0.200 F 
ATOM     71  F   UNL A   1      35.792  29.588  30.445  1.00  0.00    -0.200 F 
ENDBRANCH  47  61
BRANCH  48  72
ATOM     72  C   UNL A   1      49.042  26.810  26.308  1.00  0.00     0.064 A 
ATOM     73  C   UNL A   1      49.416  27.045  24.976  1.00  0.00     0.173 A 
ATOM     74  C   UNL A   1      50.016  26.292  27.174  1.00  0.00     0.173 A 
ATOM     75  F   UNL A   1      48.516  27.524  24.105  1.00  0.00    -0.203 F 
ATOM     76  C   UNL A   1      50.700  26.751  24.525  1.00  0.00     0.198 A 
ATOM     77  C   UNL A   1      51.310  26.027  26.729  1.00  0.00     0.198 A 
ATOM     78  F   UNL A   1      49.714  26.056  28.460  1.00  0.00    -0.203 F 
ATOM     79  F   UNL A   1      51.014  26.941  23.236  1.00  0.00    -0.200 F 
ATOM     80  C   UNL A   1      51.648  26.248  25.403  1.00  0.00     0.200 A 
ATOM     81  F   UNL A   1      52.228  25.557  27.585  1.00  0.00    -0.200 F 
ATOM     82  F   UNL A   1      52.885  25.970  24.969  1.00  0.00    -0.200 F 
ENDBRANCH  48  72
BRANCH  60  83
ATOM     83  C   UNL A   1      46.047  32.352  29.285  1.00  0.00     0.064 A 
ATOM     84  C   UNL A   1      46.597  32.549  30.560  1.00  0.00     0.173 A 
ATOM     85  C   UNL A   1      46.040  33.439  28.398  1.00  0.00     0.173 A 
ATOM     86  F   UNL A   1      46.616  31.544  31.450  1.00  0.00    -0.203 F 
ATOM     87  C   UNL A   1      47.088  33.793  30.943  1.00  0.00     0.198 A 
ATOM     88  C   UNL A   1      46.563  34.672  28.772  1.00  0.00     0.198 A 
ATOM     89  F   UNL A   1      45.533  33.301  27.162  1.00  0.00    -0.203 F 
ATOM     90  F   UNL A   1      47.555  33.973  32.186  1.00  0.00    -0.200 F 
ATOM     91  C   UNL A   1      47.077  34.852  30.047  1.00  0.00     0.200 A 
ATOM     92  F   UNL A   1      46.566  35.690  27.898  1.00  0.00    -0.200 F 
ATOM     93  F   UNL A   1      47.554  36.049  30.415  1.00  0.00    -0.200 F 
ENDBRANCH  60  83
ENDBRANCH  34  35
ENDBRANCH  26  29
ENDBRANCH  24  25
ENDBRANCH  23  24
ENDBRANCH   1  23
TORSDOF 14
ENDMDL
MODEL 2
REMARK VINA RESULT:     -11.4      4.528      8.213
REMARK SMILES CCc1nc(COC)cc(N2CCCC[C@H]2C(=O)NCCCNC(=O)c2ccc(-c3c4nc(c(-c5c(F)c(F)c(F)c(F)c5F)c5ccc([nH]5)c(-c5c(F)c(F)c(F)c(F)c5F)c5nc(c(-c6c(F)c(F)c(F)c(F)c6F)c6ccc3[nH]6)C=C5)C=C4)cc2)n1
REMARK SMILES IDX 20 1 19 2 17 3 18 4 16 6 11 7 12 8 13 9 15 10 14 11 10 12
REMARK SMILES IDX 3 13 4 14 89 15 5 16 9 17 2 18 1 19 6 20 7 21 8 22 21 23
REMARK SMILES IDX 22 24 23 25 24 26 25 28 26 29 27 30 88 31 28 32 87 33 29 34
REMARK SMILES IDX 30 35 31 36 81 37 32 38 86 39 80 40 82 41 33 42 85 43 79 44
REMARK SMILES IDX 78 45 34 47 66 48 46 49 65 50 47 51 50 52 64 53 83 54 48 55
REMARK SMILES IDX 49 56 63 58 84 59 51 60 35 61 36 62 44 63 37 64 38 65 42 66
REMARK SMILES IDX 45 67 39 68 40 69 43 70 41 71 67 72 68 73 76 74 69 75 70 76
REMARK SMILES IDX 74 77 77 78 71 79 72 80 75 81 73 82 52 83 53 84 61 85 54 86
REMARK SMILES IDX 55 87 59 88 62 89 56 90 57 91 60 92 58 93
REMARK H PARENT 19 5 23 27 82 46 50 57
REMARK Flexibility Score: inf
ROOT
ATOM      1  C   UNL A   1      31.326  27.402  25.928  1.00  0.00     0.117 C 
ENDROOT
BRANCH   1   2
ATOM      2  N   UNL A   1      31.270  26.134  26.608  1.00  0.00    -0.354 N 
ATOM      3  C   UNL A   1      32.027  25.014  26.458  1.00  0.00     0.242 C 
ATOM      4  O   UNL A   1      31.722  24.066  27.196  1.00  0.00    -0.273 OA
ATOM      5  H   UNL A   1      30.568  26.067  27.296  1.00  0.00     0.163 HD
BRANCH   3   6
ATOM      6  C   UNL A   1      33.180  24.853  25.430  1.00  0.00     0.173 C 
ATOM      7  N   UNL A   1      32.893  23.840  24.407  1.00  0.00    -0.344 N 
ATOM      8  C   UNL A   1      32.361  24.220  23.113  1.00  0.00     0.119 C 
ATOM      9  C   UNL A   1      33.124  25.373  22.481  1.00  0.00     0.022 C 
ATOM     10  C   UNL A   1      33.821  26.120  24.847  1.00  0.00     0.035 C 
ATOM     11  C   UNL A   1      33.455  26.528  23.418  1.00  0.00     0.004 C 
BRANCH   7  12
ATOM     12  C   UNL A   1      33.484  22.589  24.516  1.00  0.00     0.133 A 
ATOM     13  C   UNL A   1      33.262  20.296  24.573  1.00  0.00     0.130 A 
ATOM     14  N   UNL A   1      34.566  20.084  24.803  1.00  0.00    -0.235 NA
ATOM     15  N   UNL A   1      32.692  21.508  24.452  1.00  0.00    -0.216 NA
ATOM     16  C   UNL A   1      35.344  21.178  24.914  1.00  0.00     0.072 A 
ATOM     17  C   UNL A   1      34.843  22.455  24.736  1.00  0.00     0.073 A 
BRANCH  13  18
ATOM     18  C   UNL A   1      32.363  19.097  24.462  1.00  0.00     0.074 C 
ATOM     19  C   UNL A   1      32.485  18.432  23.100  1.00  0.00     0.012 C 
ENDBRANCH  13  18
BRANCH  16  20
ATOM     20  C   UNL A   1      36.787  20.978  25.326  1.00  0.00     0.216 C 
BRANCH  20  21
ATOM     21  O   UNL A   1      37.544  22.196  25.366  1.00  0.00    -0.378 OA
ATOM     22  C   UNL A   1      38.803  22.055  26.011  1.00  0.00     0.195 C 
ENDBRANCH  20  21
ENDBRANCH  16  20
ENDBRANCH   7  12
ENDBRANCH   3   6
ENDBRANCH   1   2
BRANCH   1  23
ATOM     23  C   UNL A   1      31.854  28.526  26.802  1.00  0.00     0.042 C 
BRANCH  23  24
ATOM     24  C   UNL A   1      32.903  29.381  26.121  1.00  0.00     0.118 C 
BRANCH  24  25
ATOM     25  N   UNL A   1      32.731  30.801  26.398  1.00  0.00    -0.352 N 
ATOM     26  C   UNL A   1      33.403  31.643  27.247  1.00  0.00     0.251 C 
ATOM     27  H   UNL A   1      32.007  31.229  25.887  1.00  0.00     0.163 HD
ATOM     28  O   UNL A   1      32.950  32.763  27.463  1.00  0.00    -0.269 OA
BRANCH  26  29
ATOM     29  C   UNL A   1      34.652  31.215  27.916  1.00  0.00     0.039 A 
ATOM     30  C   UNL A   1      35.701  32.132  28.037  1.00  0.00     0.014 A 
ATOM     31  C   UNL A   1      34.817  29.913  28.392  1.00  0.00     0.014 A 
ATOM     32  C   UNL A   1      36.883  31.755  28.677  1.00  0.00     0.010 A 
ATOM     33  C   UNL A   1      35.937  29.580  29.143  1.00  0.00     0.010 A 
ATOM     34  C   UNL A   1      36.998  30.485  29.267  1.00  0.00    -0.014 A 
BRANCH  34  35
ATOM     35  C   UNL A   1      38.236  30.071  29.974  1.00  0.00     0.031 A 
ATOM     36  C   UNL A   1      38.507  30.565  31.371  1.00  0.00     0.074 A 
ATOM     37  C   UNL A   1      39.135  29.293  29.342  1.00  0.00     0.049 A 
ATOM     38  N   UNL A   1      39.543  30.347  32.141  1.00  0.00    -0.248 NA
ATOM     39  C   UNL A   1      37.500  31.456  31.970  1.00  0.00     0.031 C 
ATOM     40  C   UNL A   1      39.016  28.808  27.966  1.00  0.00     0.029 A 
ATOM     41  N   UNL A   1      40.327  28.772  29.775  1.00  0.00    -0.354 N 
ATOM     42  C   UNL A   1      39.318  31.084  33.296  1.00  0.00     0.074 A 
ATOM     43  C   UNL A   1      38.087  31.816  33.101  1.00  0.00     0.031 C 
ATOM     44  C   UNL A   1      40.070  28.026  27.682  1.00  0.00     0.029 A 
ATOM     45  C   UNL A   1      40.957  27.985  28.840  1.00  0.00     0.049 A 
ATOM     46  H   UNL A   1      40.698  28.943  30.671  1.00  0.00     0.167 HD
ATOM     47  C   UNL A   1      40.052  31.121  34.434  1.00  0.00     0.037 A 
ATOM     48  C   UNL A   1      42.116  27.306  28.914  1.00  0.00     0.037 A 
ATOM     49  C   UNL A   1      41.255  30.361  34.637  1.00  0.00     0.049 A 
ATOM     50  C   UNL A   1      42.902  27.346  30.197  1.00  0.00     0.074 A 
ATOM     51  C   UNL A   1      42.041  30.273  35.772  1.00  0.00     0.029 A 
ATOM     52  N   UNL A   1      41.847  29.553  33.676  1.00  0.00    -0.354 N 
ATOM     53  N   UNL A   1      42.638  27.983  31.311  1.00  0.00    -0.248 NA
ATOM     54  C   UNL A   1      44.143  26.561  30.234  1.00  0.00     0.031 C 
ATOM     55  C   UNL A   1      43.135  29.449  35.482  1.00  0.00     0.029 A 
ATOM     56  C   UNL A   1      43.000  28.979  34.186  1.00  0.00     0.049 A 
ATOM     57  H   UNL A   1      41.500  29.410  32.766  1.00  0.00     0.167 HD
ATOM     58  C   UNL A   1      43.659  27.655  32.191  1.00  0.00     0.074 A 
ATOM     59  C   UNL A   1      44.538  26.744  31.486  1.00  0.00     0.031 C 
ATOM     60  C   UNL A   1      43.857  28.070  33.467  1.00  0.00     0.037 A 
BRANCH  47  61
ATOM     61  C   UNL A   1      39.564  32.004  35.549  1.00  0.00     0.064 A 
ATOM     62  C   UNL A   1      38.673  31.535  36.526  1.00  0.00     0.173 A 
ATOM     63  C   UNL A   1      40.012  33.329  35.657  1.00  0.00     0.173 A 
ATOM     64  F   UNL A   1      38.202  30.280  36.464  1.00  0.00    -0.203 F 
ATOM     65  C   UNL A   1      38.223  32.366  37.550  1.00  0.00     0.198 A 
ATOM     66  C   UNL A   1      39.588  34.148  36.701  1.00  0.00     0.198 A 
ATOM     67  F   UNL A   1      40.868  33.830  34.753  1.00  0.00    -0.203 F 
ATOM     68  F   UNL A   1      37.327  31.911  38.435  1.00  0.00    -0.200 F 
ATOM     69  C   UNL A   1      38.687  33.670  37.640  1.00  0.00     0.200 A 
ATOM     70  F   UNL A   1      40.047  35.404  36.794  1.00  0.00    -0.200 F 
ATOM     71  F   UNL A   1      38.258  34.468  38.628  1.00  0.00    -0.200 F 
ENDBRANCH  47  61
BRANCH  48  72
ATOM     72  C   UNL A   1      42.581  26.499  27.755  1.00  0.00     0.064 A 
ATOM     73  C   UNL A   1      42.151  25.175  27.580  1.00  0.00     0.173 A 
ATOM     74  C   UNL A   1      43.463  27.028  26.801  1.00  0.00     0.173 A 
ATOM     75  F   UNL A   1      41.321  24.618  28.474  1.00  0.00    -0.203 F 
ATOM     76  C   UNL A   1      42.605  24.406  26.512  1.00  0.00     0.198 A 
ATOM     77  C   UNL A   1      43.891  26.267  25.715  1.00  0.00     0.198 A 
ATOM     78  F   UNL A   1      43.897  28.292  26.916  1.00  0.00    -0.203 F 
ATOM     79  F   UNL A   1      42.215  23.129  26.397  1.00  0.00    -0.200 F 
ATOM     80  C   UNL A   1      43.469  24.954  25.576  1.00  0.00     0.200 A 
ATOM     81  F   UNL A   1      44.713  26.807  24.804  1.00  0.00    -0.200 F 
ATOM     82  F   UNL A   1      43.902  24.214  24.546  1.00  0.00    -0.200 F 
ENDBRANCH  48  72
BRANCH  60  83
ATOM     83  C   UNL A   1      45.048  27.514  34.192  1.00  0.00     0.064 A 
ATOM     84  C   UNL A   1      44.976  26.320  34.924  1.00  0.00     0.173 A 
ATOM     85  C   UNL A   1      46.286  28.173  34.130  1.00  0.00     0.173 A 
ATOM     86  F   UNL A   1      43.812  25.660  35.026  1.00  0.00    -0.203 F 
ATOM     87  C   UNL A   1      46.089  25.824  35.595  1.00  0.00     0.198 A 
ATOM     88  C   UNL A   1      47.405  27.656  34.773  1.00  0.00     0.198 A 
ATOM     89  F   UNL A   1      46.411  29.314  33.435  1.00  0.00    -0.203 F 
ATOM     90  F   UNL A   1      45.981  24.713  36.338  1.00  0.00    -0.200 F 
ATOM     91  C   UNL A   1      47.304  26.488  35.514  1.00  0.00     0.200 A 
ATOM     92  F   UNL A   1      48.583  28.290  34.680  1.00  0.00    -0.200 F 
ATOM     93  F   UNL A   1      48.377  26.007  36.158  1.00  0.00    -0.200 F 
ENDBRANCH  60  83
ENDBRANCH  34  35
ENDBRANCH  26  29
ENDBRANCH  24  25
ENDBRANCH  23  24
ENDBRANCH   1  23
TORSDOF 14
ENDMDL
MODEL 3
REMARK VINA RESULT:     -11.4      5.230      9.400
REMARK SMILES CCc1nc(COC)cc(N2CCCC[C@H]2C(=O)NCCCNC(=O)c2ccc(-c3c4nc(c(-c5c(F)c(F)c(F)c(F)c5F)c5ccc([nH]5)c(-c5c(F)c(F)c(F)c(F)c5F)c5nc(c(-c6c(F)c(F)c(F)c(F)c6F)c6ccc3[nH]6)C=C5)C=C4)cc2)n1
REMARK SMILES IDX 20 1 19 2 17 3 18 4 16 6 11 7 12 8 13 9 15 10 14 11 10 12
REMARK SMILES IDX 3 13 4 14 89 15 5 16 9 17 2 18 1 19 6 20 7 21 8 22 21 23
REMARK SMILES IDX 22 24 23 25 24 26 25 28 26 29 27 30 88 31 28 32 87 33 29 34
REMARK SMILES IDX 30 35 31 36 81 37 32 38 86 39 80 40 82 41 33 42 85 43 79 44
REMARK SMILES IDX 78 45 34 47 66 48 46 49 65 50 47 51 50 52 64 53 83 54 48 55
REMARK SMILES IDX 49 56 63 58 84 59 51 60 35 61 36 62 44 63 37 64 38 65 42 66
REMARK SMILES IDX 45 67 39 68 40 69 43 70 41 71 67 72 68 73 76 74 69 75 70 76
REMARK SMILES IDX 74 77 77 78 71 79 72 80 75 81 73 82 52 83 53 84 61 85 54 86
REMARK SMILES IDX 55 87 59 88 62 89 56 90 57 91 60 92 58 93
REMARK H PARENT 19 5 23 27 82 46 50 57
REMARK Flexibility Score: inf
ROOT
ATOM      1  C   UNL A   1      31.383  30.574  25.686  1.00  0.00     0.117 C 
ENDROOT
BRANCH   1   2
ATOM      2  N   UNL A   1      32.593  29.888  26.057  1.00  0.00    -0.354 N 
ATOM      3  C   UNL A   1      33.225  28.831  25.479  1.00  0.00     0.242 C 
ATOM      4  O   UNL A   1      34.260  28.456  26.050  1.00  0.00    -0.273 OA
ATOM      5  H   UNL A   1      33.036  30.241  26.862  1.00  0.00     0.163 HD
BRANCH   3   6
ATOM      6  C   UNL A   1      32.723  28.079  24.216  1.00  0.00     0.173 C 
ATOM      7  N   UNL A   1      31.660  27.111  24.515  1.00  0.00    -0.344 N 
ATOM      8  C   UNL A   1      30.264  27.463  24.341  1.00  0.00     0.119 C 
ATOM      9  C   UNL A   1      29.988  28.117  22.997  1.00  0.00     0.022 C 
ATOM     10  C   UNL A   1      32.445  28.892  22.944  1.00  0.00     0.035 C 
ATOM     11  C   UNL A   1      30.989  29.184  22.572  1.00  0.00     0.004 C 
BRANCH   7  12
ATOM     12  C   UNL A   1      31.979  25.763  24.582  1.00  0.00     0.133 A 
ATOM     13  C   UNL A   1      31.931  23.775  25.747  1.00  0.00     0.130 A 
ATOM     14  N   UNL A   1      32.642  23.111  24.824  1.00  0.00    -0.235 NA
ATOM     15  N   UNL A   1      31.610  25.078  25.675  1.00  0.00    -0.216 NA
ATOM     16  C   UNL A   1      33.050  23.819  23.752  1.00  0.00     0.072 A 
ATOM     17  C   UNL A   1      32.702  25.147  23.576  1.00  0.00     0.073 A 
BRANCH  13  18
ATOM     18  C   UNL A   1      31.477  23.019  26.963  1.00  0.00     0.074 C 
ATOM     19  C   UNL A   1      29.962  22.898  27.011  1.00  0.00     0.012 C 
ENDBRANCH  13  18
BRANCH  16  20
ATOM     20  C   UNL A   1      33.981  23.140  22.772  1.00  0.00     0.216 C 
BRANCH  20  21
ATOM     21  O   UNL A   1      35.320  23.655  22.806  1.00  0.00    -0.378 OA
ATOM     22  C   UNL A   1      36.206  22.867  23.591  1.00  0.00     0.195 C 
ENDBRANCH  20  21
ENDBRANCH  16  20
ENDBRANCH   7  12
ENDBRANCH   3   6
ENDBRANCH   1   2
BRANCH   1  23
ATOM     23  C   UNL A   1      31.279  31.967  26.283  1.00  0.00     0.042 C 
BRANCH  23  24
ATOM     24  C   UNL A   1      32.542  32.419  26.987  1.00  0.00     0.118 C 
BRANCH  24  25
ATOM     25  N   UNL A   1      32.451  33.790  27.470  1.00  0.00    -0.352 N 
ATOM     26  C   UNL A   1      33.136  34.445  28.463  1.00  0.00     0.251 C 
ATOM     27  H   UNL A   1      31.782  34.342  27.003  1.00  0.00     0.163 HD
ATOM     28  O   UNL A   1      32.748  35.550  28.829  1.00  0.00    -0.269 OA
BRANCH  26  29
ATOM     29  C   UNL A   1      34.320  33.832  29.106  1.00  0.00     0.039 A 
ATOM     30  C   UNL A   1      34.126  32.809  30.040  1.00  0.00     0.014 A 
ATOM     31  C   UNL A   1      35.613  34.276  28.829  1.00  0.00     0.014 A 
ATOM     32  C   UNL A   1      35.228  32.206  30.648  1.00  0.00     0.010 A 
ATOM     33  C   UNL A   1      36.710  33.589  29.333  1.00  0.00     0.010 A 
ATOM     34  C   UNL A   1      36.533  32.567  30.274  1.00  0.00    -0.014 A 
BRANCH  34  35
ATOM     35  C   UNL A   1      37.720  31.923  30.889  1.00  0.00     0.031 A 
ATOM     36  C   UNL A   1      38.159  32.316  32.275  1.00  0.00     0.074 A 
ATOM     37  C   UNL A   1      38.430  31.023  30.182  1.00  0.00     0.049 A 
ATOM     38  N   UNL A   1      39.186  31.897  32.970  1.00  0.00    -0.248 NA
ATOM     39  C   UNL A   1      37.360  33.347  32.959  1.00  0.00     0.031 C 
ATOM     40  C   UNL A   1      38.144  30.612  28.806  1.00  0.00     0.029 A 
ATOM     41  N   UNL A   1      39.537  30.290  30.523  1.00  0.00    -0.354 N 
ATOM     42  C   UNL A   1      39.164  32.623  34.154  1.00  0.00     0.074 A 
ATOM     43  C   UNL A   1      38.069  33.562  34.056  1.00  0.00     0.031 C 
ATOM     44  C   UNL A   1      39.026  29.670  28.435  1.00  0.00     0.029 A 
ATOM     45  C   UNL A   1      39.962  29.439  29.531  1.00  0.00     0.049 A 
ATOM     46  H   UNL A   1      39.987  30.366  31.396  1.00  0.00     0.167 HD
ATOM     47  C   UNL A   1      39.961  32.495  35.241  1.00  0.00     0.037 A 
ATOM     48  C   UNL A   1      40.988  28.568  29.513  1.00  0.00     0.037 A 
ATOM     49  C   UNL A   1      41.024  31.533  35.347  1.00  0.00     0.049 A 
ATOM     50  C   UNL A   1      41.846  28.429  30.741  1.00  0.00     0.074 A 
ATOM     51  C   UNL A   1      41.851  31.273  36.425  1.00  0.00     0.029 A 
ATOM     52  N   UNL A   1      41.407  30.668  34.331  1.00  0.00    -0.354 N 
ATOM     53  N   UNL A   1      41.765  29.065  31.885  1.00  0.00    -0.248 NA
ATOM     54  C   UNL A   1      42.931  27.441  30.679  1.00  0.00     0.031 C 
ATOM     55  C   UNL A   1      42.764  30.284  36.046  1.00  0.00     0.029 A 
ATOM     56  C   UNL A   1      42.470  29.887  34.751  1.00  0.00     0.049 A 
ATOM     57  H   UNL A   1      40.984  30.617  33.443  1.00  0.00     0.167 HD
ATOM     58  C   UNL A   1      42.766  28.537  32.688  1.00  0.00     0.074 A 
ATOM     59  C   UNL A   1      43.428  27.512  31.906  1.00  0.00     0.031 C 
ATOM     60  C   UNL A   1      43.110  28.869  33.957  1.00  0.00     0.037 A 
BRANCH  47  61
ATOM     61  C   UNL A   1      39.704  33.411  36.404  1.00  0.00     0.064 A 
ATOM     62  C   UNL A   1      40.322  34.667  36.507  1.00  0.00     0.173 A 
ATOM     63  C   UNL A   1      38.808  33.041  37.419  1.00  0.00     0.173 A 
ATOM     64  F   UNL A   1      41.198  35.067  35.572  1.00  0.00    -0.203 F 
ATOM     65  C   UNL A   1      40.080  35.503  37.595  1.00  0.00     0.198 A 
ATOM     66  C   UNL A   1      38.541  33.893  38.489  1.00  0.00     0.198 A 
ATOM     67  F   UNL A   1      38.184  31.854  37.371  1.00  0.00    -0.203 F 
ATOM     68  F   UNL A   1      40.729  36.671  37.698  1.00  0.00    -0.200 F 
ATOM     69  C   UNL A   1      39.184  35.118  38.581  1.00  0.00     0.200 A 
ATOM     70  F   UNL A   1      37.665  33.525  39.433  1.00  0.00    -0.200 F 
ATOM     71  F   UNL A   1      38.947  35.925  39.625  1.00  0.00    -0.200 F 
ENDBRANCH  47  61
BRANCH  48  72
ATOM     72  C   UNL A   1      41.233  27.732  28.308  1.00  0.00     0.064 A 
ATOM     73  C   UNL A   1      40.609  26.485  28.157  1.00  0.00     0.173 A 
ATOM     74  C   UNL A   1      42.095  28.157  27.286  1.00  0.00     0.173 A 
ATOM     75  F   UNL A   1      39.789  26.028  29.114  1.00  0.00    -0.203 F 
ATOM     76  C   UNL A   1      40.856  25.686  27.043  1.00  0.00     0.198 A 
ATOM     77  C   UNL A   1      42.317  27.369  26.158  1.00  0.00     0.198 A 
ATOM     78  F   UNL A   1      42.710  29.345  27.376  1.00  0.00    -0.203 F 
ATOM     79  F   UNL A   1      40.283  24.478  26.949  1.00  0.00    -0.200 F 
ATOM     80  C   UNL A   1      41.705  26.131  26.042  1.00  0.00     0.200 A 
ATOM     81  F   UNL A   1      43.124  27.811  25.184  1.00  0.00    -0.200 F 
ATOM     82  F   UNL A   1      41.939  25.363  24.968  1.00  0.00    -0.200 F 
ENDBRANCH  48  72
BRANCH  60  83
ATOM     83  C   UNL A   1      44.229  28.092  34.589  1.00  0.00     0.064 A 
ATOM     84  C   UNL A   1      43.997  26.895  35.282  1.00  0.00     0.173 A 
ATOM     85  C   UNL A   1      45.555  28.539  34.475  1.00  0.00     0.173 A 
ATOM     86  F   UNL A   1      42.746  26.433  35.431  1.00  0.00    -0.203 F 
ATOM     87  C   UNL A   1      45.046  26.193  35.867  1.00  0.00     0.198 A 
ATOM     88  C   UNL A   1      46.604  27.816  35.031  1.00  0.00     0.198 A 
ATOM     89  F   UNL A   1      45.832  29.674  33.813  1.00  0.00    -0.203 F 
ATOM     90  F   UNL A   1      44.794  25.083  36.576  1.00  0.00    -0.200 F 
ATOM     91  C   UNL A   1      46.349  26.650  35.736  1.00  0.00     0.200 A 
ATOM     92  F   UNL A   1      47.865  28.251  34.889  1.00  0.00    -0.200 F 
ATOM     93  F   UNL A   1      47.359  25.970  36.297  1.00  0.00    -0.200 F 
ENDBRANCH  60  83
ENDBRANCH  34  35
ENDBRANCH  26  29
ENDBRANCH  24  25
ENDBRANCH  23  24
ENDBRANCH   1  23
TORSDOF 14
ENDMDL
