MODEL 1
REMARK VINA RESULT:     -10.8      0.000      0.000
REMARK SMILES C[C@H]([NH2+]Cc1ccccc1F)C(=O)NCCCNC(=O)c1ccc(-c2c3nc(c(-c4c(F)c(F)c(F)c(F)c4F)c4ccc([nH]4)c(-c4c(F)c(F)c(F)c(F)c4F)c4nc(c(-c5c(F)c(F)c(F)c(F)c5F)c5ccc2[nH]5)C=C4)C=C3)cc1
REMARK SMILES IDX 15 1 14 2 12 3 13 4 2 6 1 7 3 8 4 11 5 12 6 13 10 14 7 15
REMARK SMILES IDX 9 16 11 17 8 18 16 19 17 20 18 21 19 22 20 24 21 25 22 26
REMARK SMILES IDX 83 27 23 28 82 29 24 30 25 31 26 32 76 33 27 34 81 35 75 36
REMARK SMILES IDX 77 37 28 38 80 39 74 40 73 41 29 43 61 44 41 45 60 46 42 47
REMARK SMILES IDX 45 48 59 49 78 50 43 51 44 52 58 54 79 55 46 56 30 57 31 58
REMARK SMILES IDX 39 59 32 60 33 61 37 62 40 63 34 64 35 65 38 66 36 67 62 68
REMARK SMILES IDX 63 69 71 70 64 71 65 72 69 73 72 74 66 75 67 76 70 77 68 78
REMARK SMILES IDX 47 79 48 80 56 81 49 82 50 83 54 84 57 85 51 86 52 87 55 88
REMARK SMILES IDX 53 89
REMARK H PARENT 14 5 3 9 3 10 18 23 77 42 45 53
REMARK Flexibility Score: inf
ROOT
ATOM      1  C   UNL A   1      33.279  34.585  28.380  1.00  0.00     0.118 C 
ENDROOT
BRANCH   1   2
ATOM      2  N   UNL A   1      33.224  35.947  28.868  1.00  0.00    -0.351 N 
ATOM      3  C   UNL A   1      33.177  36.460  30.124  1.00  0.00     0.277 C 
ATOM      4  O   UNL A   1      32.969  37.677  30.205  1.00  0.00    -0.268 OA
ATOM      5  H   UNL A   1      33.220  36.628  28.156  1.00  0.00     0.163 HD
BRANCH   3   6
ATOM      6  C   UNL A   1      33.372  35.621  31.405  1.00  0.00     0.269 C 
ATOM      7  C   UNL A   1      32.299  35.869  32.462  1.00  0.00     0.086 C 
BRANCH   6   8
ATOM      8  N   UNL A   1      34.779  35.545  31.841  1.00  0.00    -0.332 N 
ATOM      9  H   UNL A   1      35.154  36.493  31.812  1.00  0.00     0.347 HD
ATOM     10  H   UNL A   1      35.203  34.874  31.200  1.00  0.00     0.347 HD
BRANCH   8  11
ATOM     11  C   UNL A   1      35.071  35.010  33.159  1.00  0.00     0.301 C 
BRANCH  11  12
ATOM     12  C   UNL A   1      36.029  33.841  33.162  1.00  0.00     0.042 A 
ATOM     13  C   UNL A   1      37.379  33.928  33.525  1.00  0.00     0.012 A 
ATOM     14  C   UNL A   1      35.530  32.590  32.774  1.00  0.00     0.132 A 
ATOM     15  C   UNL A   1      38.199  32.794  33.486  1.00  0.00     0.001 A 
ATOM     16  C   UNL A   1      36.340  31.459  32.728  1.00  0.00     0.040 A 
ATOM     17  F   UNL A   1      34.237  32.469  32.435  1.00  0.00    -0.206 F 
ATOM     18  C   UNL A   1      37.682  31.563  33.084  1.00  0.00     0.003 A 
ENDBRANCH  11  12
ENDBRANCH   8  11
ENDBRANCH   6   8
ENDBRANCH   3   6
ENDBRANCH   1   2
BRANCH   1  19
ATOM     19  C   UNL A   1      34.716  34.067  28.338  1.00  0.00     0.042 C 
BRANCH  19  20
ATOM     20  C   UNL A   1      34.933  32.769  29.110  1.00  0.00     0.118 C 
BRANCH  20  21
ATOM     21  N   UNL A   1      34.208  31.651  28.527  1.00  0.00    -0.352 N 
ATOM     22  C   UNL A   1      34.656  30.420  28.111  1.00  0.00     0.251 C 
ATOM     23  H   UNL A   1      33.242  31.799  28.412  1.00  0.00     0.163 HD
ATOM     24  O   UNL A   1      33.909  29.695  27.462  1.00  0.00    -0.269 OA
BRANCH  22  25
ATOM     25  C   UNL A   1      36.028  29.962  28.422  1.00  0.00     0.039 A 
ATOM     26  C   UNL A   1      37.016  30.092  27.438  1.00  0.00     0.014 A 
ATOM     27  C   UNL A   1      36.341  29.360  29.643  1.00  0.00     0.014 A 
ATOM     28  C   UNL A   1      38.323  29.679  27.702  1.00  0.00     0.010 A 
ATOM     29  C   UNL A   1      37.659  29.007  29.930  1.00  0.00     0.010 A 
ATOM     30  C   UNL A   1      38.663  29.165  28.964  1.00  0.00    -0.014 A 
BRANCH  30  31
ATOM     31  C   UNL A   1      40.064  28.803  29.296  1.00  0.00     0.031 A 
ATOM     32  C   UNL A   1      40.921  29.741  30.097  1.00  0.00     0.074 A 
ATOM     33  C   UNL A   1      40.583  27.657  28.816  1.00  0.00     0.049 A 
ATOM     34  N   UNL A   1      42.191  29.642  30.403  1.00  0.00    -0.248 NA
ATOM     35  C   UNL A   1      40.274  30.959  30.607  1.00  0.00     0.031 C 
ATOM     36  C   UNL A   1      39.859  26.680  28.003  1.00  0.00     0.029 A 
ATOM     37  N   UNL A   1      41.842  27.124  28.934  1.00  0.00    -0.354 N 
ATOM     38  C   UNL A   1      42.496  30.788  31.125  1.00  0.00     0.074 A 
ATOM     39  C   UNL A   1      41.291  31.587  31.181  1.00  0.00     0.031 C 
ATOM     40  C   UNL A   1      40.679  25.658  27.711  1.00  0.00     0.029 A 
ATOM     41  C   UNL A   1      41.996  25.925  28.281  1.00  0.00     0.049 A 
ATOM     42  H   UNL A   1      42.567  27.560  29.439  1.00  0.00     0.167 HD
ATOM     43  C   UNL A   1      43.672  31.129  31.703  1.00  0.00     0.037 A 
ATOM     44  C   UNL A   1      43.079  25.137  28.147  1.00  0.00     0.037 A 
ATOM     45  C   UNL A   1      44.859  30.317  31.674  1.00  0.00     0.049 A 
ATOM     46  C   UNL A   1      44.376  25.549  28.783  1.00  0.00     0.074 A 
ATOM     47  C   UNL A   1      46.078  30.552  32.286  1.00  0.00     0.029 A 
ATOM     48  N   UNL A   1      44.975  29.113  30.996  1.00  0.00    -0.354 N 
ATOM     49  N   UNL A   1      44.641  26.614  29.498  1.00  0.00    -0.248 NA
ATOM     50  C   UNL A   1      45.526  24.653  28.590  1.00  0.00     0.031 C 
ATOM     51  C   UNL A   1      46.945  29.508  31.948  1.00  0.00     0.029 A 
ATOM     52  C   UNL A   1      46.254  28.603  31.158  1.00  0.00     0.049 A 
ATOM     53  H   UNL A   1      44.257  28.684  30.478  1.00  0.00     0.167 HD
ATOM     54  C   UNL A   1      45.978  26.512  29.855  1.00  0.00     0.074 A 
ATOM     55  C   UNL A   1      46.470  25.274  29.287  1.00  0.00     0.031 C 
ATOM     56  C   UNL A   1      46.729  27.369  30.586  1.00  0.00     0.037 A 
BRANCH  43  57
ATOM     57  C   UNL A   1      43.737  32.437  32.435  1.00  0.00     0.064 A 
ATOM     58  C   UNL A   1      43.377  32.515  33.789  1.00  0.00     0.173 A 
ATOM     59  C   UNL A   1      44.083  33.626  31.777  1.00  0.00     0.173 A 
ATOM     60  F   UNL A   1      43.030  31.407  34.461  1.00  0.00    -0.203 F 
ATOM     61  C   UNL A   1      43.351  33.737  34.454  1.00  0.00     0.198 A 
ATOM     62  C   UNL A   1      44.081  34.844  32.452  1.00  0.00     0.198 A 
ATOM     63  F   UNL A   1      44.444  33.602  30.485  1.00  0.00    -0.203 F 
ATOM     64  F   UNL A   1      42.977  33.793  35.739  1.00  0.00    -0.200 F 
ATOM     65  C   UNL A   1      43.706  34.900  33.786  1.00  0.00     0.200 A 
ATOM     66  F   UNL A   1      44.443  35.963  31.811  1.00  0.00    -0.200 F 
ATOM     67  F   UNL A   1      43.688  36.075  34.429  1.00  0.00    -0.200 F 
ENDBRANCH  43  57
BRANCH  44  68
ATOM     68  C   UNL A   1      42.965  23.864  27.391  1.00  0.00     0.064 A 
ATOM     69  C   UNL A   1      42.534  22.682  28.010  1.00  0.00     0.173 A 
ATOM     70  C   UNL A   1      43.324  23.801  26.039  1.00  0.00     0.173 A 
ATOM     71  F   UNL A   1      42.181  22.692  29.304  1.00  0.00    -0.203 F 
ATOM     72  C   UNL A   1      42.488  21.479  27.309  1.00  0.00     0.198 A 
ATOM     73  C   UNL A   1      43.257  22.602  25.332  1.00  0.00     0.198 A 
ATOM     74  F   UNL A   1      43.723  24.911  25.400  1.00  0.00    -0.203 F 
ATOM     75  F   UNL A   1      42.104  20.357  27.931  1.00  0.00    -0.200 F 
ATOM     76  C   UNL A   1      42.846  21.441  25.969  1.00  0.00     0.200 A 
ATOM     77  F   UNL A   1      43.585  22.573  24.033  1.00  0.00    -0.200 F 
ATOM     78  F   UNL A   1      42.797  20.285  25.293  1.00  0.00    -0.200 F 
ENDBRANCH  44  68
BRANCH  56  79
ATOM     79  C   UNL A   1      48.162  27.006  30.832  1.00  0.00     0.064 A 
ATOM     80  C   UNL A   1      49.171  27.475  29.978  1.00  0.00     0.173 A 
ATOM     81  C   UNL A   1      48.522  26.122  31.858  1.00  0.00     0.173 A 
ATOM     82  F   UNL A   1      48.873  28.318  28.979  1.00  0.00    -0.203 F 
ATOM     83  C   UNL A   1      50.489  27.055  30.132  1.00  0.00     0.198 A 
ATOM     84  C   UNL A   1      49.845  25.721  32.023  1.00  0.00     0.198 A 
ATOM     85  F   UNL A   1      47.592  25.657  32.706  1.00  0.00    -0.203 F 
ATOM     86  F   UNL A   1      51.433  27.489  29.286  1.00  0.00    -0.200 F 
ATOM     87  C   UNL A   1      50.824  26.179  31.154  1.00  0.00     0.200 A 
ATOM     88  F   UNL A   1      50.172  24.890  33.021  1.00  0.00    -0.200 F 
ATOM     89  F   UNL A   1      52.094  25.778  31.303  1.00  0.00    -0.200 F 
ENDBRANCH  56  79
ENDBRANCH  30  31
ENDBRANCH  22  25
ENDBRANCH  20  21
ENDBRANCH  19  20
ENDBRANCH   1  19
TORSDOF 13
ENDMDL
MODEL 2
REMARK VINA RESULT:     -10.7      2.787      5.694
REMARK SMILES C[C@H]([NH2+]Cc1ccccc1F)C(=O)NCCCNC(=O)c1ccc(-c2c3nc(c(-c4c(F)c(F)c(F)c(F)c4F)c4ccc([nH]4)c(-c4c(F)c(F)c(F)c(F)c4F)c4nc(c(-c5c(F)c(F)c(F)c(F)c5F)c5ccc2[nH]5)C=C4)C=C3)cc1
REMARK SMILES IDX 15 1 14 2 12 3 13 4 2 6 1 7 3 8 4 11 5 12 6 13 10 14 7 15
REMARK SMILES IDX 9 16 11 17 8 18 16 19 17 20 18 21 19 22 20 24 21 25 22 26
REMARK SMILES IDX 83 27 23 28 82 29 24 30 25 31 26 32 76 33 27 34 81 35 75 36
REMARK SMILES IDX 77 37 28 38 80 39 74 40 73 41 29 43 61 44 41 45 60 46 42 47
REMARK SMILES IDX 45 48 59 49 78 50 43 51 44 52 58 54 79 55 46 56 30 57 31 58
REMARK SMILES IDX 39 59 32 60 33 61 37 62 40 63 34 64 35 65 38 66 36 67 62 68
REMARK SMILES IDX 63 69 71 70 64 71 65 72 69 73 72 74 66 75 67 76 70 77 68 78
REMARK SMILES IDX 47 79 48 80 56 81 49 82 50 83 54 84 57 85 51 86 52 87 55 88
REMARK SMILES IDX 53 89
REMARK H PARENT 14 5 3 9 3 10 18 23 77 42 45 53
REMARK Flexibility Score: inf
ROOT
ATOM      1  C   UNL A   1      32.212  26.715  26.236  1.00  0.00     0.118 C 
ENDROOT
BRANCH   1   2
ATOM      2  N   UNL A   1      31.576  25.583  26.877  1.00  0.00    -0.351 N 
ATOM      3  C   UNL A   1      31.631  24.250  26.628  1.00  0.00     0.277 C 
ATOM      4  O   UNL A   1      30.832  23.547  27.260  1.00  0.00    -0.268 OA
ATOM      5  H   UNL A   1      30.995  25.827  27.635  1.00  0.00     0.163 HD
BRANCH   3   6
ATOM      6  C   UNL A   1      32.614  23.599  25.632  1.00  0.00     0.269 C 
ATOM      7  C   UNL A   1      32.048  22.361  24.942  1.00  0.00     0.086 C 
BRANCH   6   8
ATOM      8  N   UNL A   1      34.000  23.549  26.134  1.00  0.00    -0.332 N 
ATOM      9  H   UNL A   1      34.190  22.582  26.394  1.00  0.00     0.347 HD
ATOM     10  H   UNL A   1      34.015  24.231  26.892  1.00  0.00     0.347 HD
BRANCH   8  11
ATOM     11  C   UNL A   1      35.074  23.974  25.252  1.00  0.00     0.301 C 
BRANCH  11  12
ATOM     12  C   UNL A   1      36.384  23.249  25.469  1.00  0.00     0.042 A 
ATOM     13  C   UNL A   1      37.483  23.791  26.147  1.00  0.00     0.012 A 
ATOM     14  C   UNL A   1      36.501  21.950  24.956  1.00  0.00     0.132 A 
ATOM     15  C   UNL A   1      38.663  23.053  26.290  1.00  0.00     0.001 A 
ATOM     16  C   UNL A   1      37.673  21.211  25.089  1.00  0.00     0.040 A 
ATOM     17  F   UNL A   1      35.461  21.395  24.313  1.00  0.00    -0.206 F 
ATOM     18  C   UNL A   1      38.759  21.766  25.759  1.00  0.00     0.003 A 
ENDBRANCH  11  12
ENDBRANCH   8  11
ENDBRANCH   6   8
ENDBRANCH   3   6
ENDBRANCH   1   2
BRANCH   1  19
ATOM     19  C   UNL A   1      32.414  27.869  27.216  1.00  0.00     0.042 C 
BRANCH  19  20
ATOM     20  C   UNL A   1      33.767  28.564  27.090  1.00  0.00     0.118 C 
BRANCH  20  21
ATOM     21  N   UNL A   1      33.712  29.960  27.495  1.00  0.00    -0.352 N 
ATOM     22  C   UNL A   1      34.608  30.714  28.212  1.00  0.00     0.251 C 
ATOM     23  H   UNL A   1      32.902  30.441  27.209  1.00  0.00     0.163 HD
ATOM     24  O   UNL A   1      34.275  31.824  28.615  1.00  0.00    -0.269 OA
BRANCH  22  25
ATOM     25  C   UNL A   1      35.964  30.204  28.517  1.00  0.00     0.039 A 
ATOM     26  C   UNL A   1      36.948  30.286  27.524  1.00  0.00     0.014 A 
ATOM     27  C   UNL A   1      36.262  29.602  29.742  1.00  0.00     0.014 A 
ATOM     28  C   UNL A   1      38.240  29.824  27.782  1.00  0.00     0.010 A 
ATOM     29  C   UNL A   1      37.567  29.199  30.021  1.00  0.00     0.010 A 
ATOM     30  C   UNL A   1      38.569  29.309  29.046  1.00  0.00    -0.014 A 
BRANCH  30  31
ATOM     31  C   UNL A   1      39.957  28.894  29.371  1.00  0.00     0.031 A 
ATOM     32  C   UNL A   1      40.853  29.798  30.168  1.00  0.00     0.074 A 
ATOM     33  C   UNL A   1      40.430  27.729  28.888  1.00  0.00     0.049 A 
ATOM     34  N   UNL A   1      42.119  29.652  30.468  1.00  0.00    -0.248 NA
ATOM     35  C   UNL A   1      40.254  31.040  30.683  1.00  0.00     0.031 C 
ATOM     36  C   UNL A   1      39.667  26.781  28.078  1.00  0.00     0.029 A 
ATOM     37  N   UNL A   1      41.669  27.150  29.000  1.00  0.00    -0.354 N 
ATOM     38  C   UNL A   1      42.471  30.785  31.190  1.00  0.00     0.074 A 
ATOM     39  C   UNL A   1      41.297  31.628  31.253  1.00  0.00     0.031 C 
ATOM     40  C   UNL A   1      40.446  25.730  27.781  1.00  0.00     0.029 A 
ATOM     41  C   UNL A   1      41.775  25.947  28.345  1.00  0.00     0.049 A 
ATOM     42  H   UNL A   1      42.413  27.558  29.501  1.00  0.00     0.167 HD
ATOM     43  C   UNL A   1      43.661  31.081  31.762  1.00  0.00     0.037 A 
ATOM     44  C   UNL A   1      42.827  25.119  28.205  1.00  0.00     0.037 A 
ATOM     45  C   UNL A   1      44.817  30.226  31.726  1.00  0.00     0.049 A 
ATOM     46  C   UNL A   1      44.142  25.481  28.835  1.00  0.00     0.074 A 
ATOM     47  C   UNL A   1      46.047  30.414  32.333  1.00  0.00     0.029 A 
ATOM     48  N   UNL A   1      44.885  29.018  31.047  1.00  0.00    -0.354 N 
ATOM     49  N   UNL A   1      44.450  26.535  29.549  1.00  0.00    -0.248 NA
ATOM     50  C   UNL A   1      45.257  24.544  28.636  1.00  0.00     0.031 C 
ATOM     51  C   UNL A   1      46.872  29.339  31.989  1.00  0.00     0.029 A 
ATOM     52  C   UNL A   1      46.145  28.461  31.203  1.00  0.00     0.049 A 
ATOM     53  H   UNL A   1      44.149  28.617  30.532  1.00  0.00     0.167 HD
ATOM     54  C   UNL A   1      45.784  26.383  29.899  1.00  0.00     0.074 A 
ATOM     55  C   UNL A   1      46.227  25.128  29.328  1.00  0.00     0.031 C 
ATOM     56  C   UNL A   1      46.570  27.211  30.628  1.00  0.00     0.037 A 
BRANCH  43  57
ATOM     57  C   UNL A   1      43.779  32.385  32.495  1.00  0.00     0.064 A 
ATOM     58  C   UNL A   1      44.248  33.532  31.836  1.00  0.00     0.173 A 
ATOM     59  C   UNL A   1      43.501  32.481  33.865  1.00  0.00     0.173 A 
ATOM     60  F   UNL A   1      44.535  33.490  30.526  1.00  0.00    -0.203 F 
ATOM     61  C   UNL A   1      44.444  34.725  32.527  1.00  0.00     0.198 A 
ATOM     62  C   UNL A   1      43.674  33.682  34.548  1.00  0.00     0.198 A 
ATOM     63  F   UNL A   1      43.042  31.414  34.538  1.00  0.00    -0.203 F 
ATOM     64  F   UNL A   1      44.918  35.800  31.884  1.00  0.00    -0.200 F 
ATOM     65  C   UNL A   1      44.154  34.799  33.881  1.00  0.00     0.200 A 
ATOM     66  F   UNL A   1      43.375  33.758  35.852  1.00  0.00    -0.200 F 
ATOM     67  F   UNL A   1      44.335  35.950  34.544  1.00  0.00    -0.200 F 
ENDBRANCH  43  57
BRANCH  44  68
ATOM     68  C   UNL A   1      42.662  23.852  27.449  1.00  0.00     0.064 A 
ATOM     69  C   UNL A   1      42.158  22.695  28.061  1.00  0.00     0.173 A 
ATOM     70  C   UNL A   1      43.043  23.767  26.103  1.00  0.00     0.173 A 
ATOM     71  F   UNL A   1      41.783  22.726  29.348  1.00  0.00    -0.203 F 
ATOM     72  C   UNL A   1      42.064  21.494  27.361  1.00  0.00     0.198 A 
ATOM     73  C   UNL A   1      42.927  22.572  25.397  1.00  0.00     0.198 A 
ATOM     74  F   UNL A   1      43.510  24.853  25.471  1.00  0.00    -0.203 F 
ATOM     75  F   UNL A   1      41.611  20.395  27.977  1.00  0.00    -0.200 F 
ATOM     76  C   UNL A   1      42.445  21.434  26.028  1.00  0.00     0.200 A 
ATOM     77  F   UNL A   1      43.278  22.523  24.105  1.00  0.00    -0.200 F 
ATOM     78  F   UNL A   1      42.349  20.281  25.353  1.00  0.00    -0.200 F 
ENDBRANCH  44  68
BRANCH  56  79
ATOM     79  C   UNL A   1      47.989  26.794  30.866  1.00  0.00     0.064 A 
ATOM     80  C   UNL A   1      49.012  27.227  30.008  1.00  0.00     0.173 A 
ATOM     81  C   UNL A   1      48.321  25.895  31.888  1.00  0.00     0.173 A 
ATOM     82  F   UNL A   1      48.741  28.082  29.012  1.00  0.00    -0.203 F 
ATOM     83  C   UNL A   1      50.314  26.757  30.155  1.00  0.00     0.198 A 
ATOM     84  C   UNL A   1      49.629  25.445  32.046  1.00  0.00     0.198 A 
ATOM     85  F   UNL A   1      47.379  25.464  32.741  1.00  0.00    -0.203 F 
ATOM     86  F   UNL A   1      51.269  27.158  29.305  1.00  0.00    -0.200 F 
ATOM     87  C   UNL A   1      50.621  25.868  31.174  1.00  0.00     0.200 A 
ATOM     88  F   UNL A   1      49.930  24.601  33.042  1.00  0.00    -0.200 F 
ATOM     89  F   UNL A   1      51.875  25.419  31.316  1.00  0.00    -0.200 F 
ENDBRANCH  56  79
ENDBRANCH  30  31
ENDBRANCH  22  25
ENDBRANCH  20  21
ENDBRANCH  19  20
ENDBRANCH   1  19
TORSDOF 13
ENDMDL
MODEL 3
REMARK VINA RESULT:     -10.6      4.345     10.352
REMARK SMILES C[C@H]([NH2+]Cc1ccccc1F)C(=O)NCCCNC(=O)c1ccc(-c2c3nc(c(-c4c(F)c(F)c(F)c(F)c4F)c4ccc([nH]4)c(-c4c(F)c(F)c(F)c(F)c4F)c4nc(c(-c5c(F)c(F)c(F)c(F)c5F)c5ccc2[nH]5)C=C4)C=C3)cc1
REMARK SMILES IDX 15 1 14 2 12 3 13 4 2 6 1 7 3 8 4 11 5 12 6 13 10 14 7 15
REMARK SMILES IDX 9 16 11 17 8 18 16 19 17 20 18 21 19 22 20 24 21 25 22 26
REMARK SMILES IDX 83 27 23 28 82 29 24 30 25 31 26 32 76 33 27 34 81 35 75 36
REMARK SMILES IDX 77 37 28 38 80 39 74 40 73 41 29 43 61 44 41 45 60 46 42 47
REMARK SMILES IDX 45 48 59 49 78 50 43 51 44 52 58 54 79 55 46 56 30 57 31 58
REMARK SMILES IDX 39 59 32 60 33 61 37 62 40 63 34 64 35 65 38 66 36 67 62 68
REMARK SMILES IDX 63 69 71 70 64 71 65 72 69 73 72 74 66 75 67 76 70 77 68 78
REMARK SMILES IDX 47 79 48 80 56 81 49 82 50 83 54 84 57 85 51 86 52 87 55 88
REMARK SMILES IDX 53 89
REMARK H PARENT 14 5 3 9 3 10 18 23 77 42 45 53
REMARK Flexibility Score: inf
ROOT
ATOM      1  C   UNL A   1      31.411  30.854  25.923  1.00  0.00     0.118 C 
ENDROOT
BRANCH   1   2
ATOM      2  N   UNL A   1      32.496  30.152  26.575  1.00  0.00    -0.351 N 
ATOM      3  C   UNL A   1      33.118  28.978  26.291  1.00  0.00     0.277 C 
ATOM      4  O   UNL A   1      33.912  28.566  27.147  1.00  0.00    -0.268 OA
ATOM      5  H   UNL A   1      32.849  30.611  27.372  1.00  0.00     0.163 HD
BRANCH   3   6
ATOM      6  C   UNL A   1      32.889  28.174  24.995  1.00  0.00     0.269 C 
ATOM      7  C   UNL A   1      33.584  28.776  23.776  1.00  0.00     0.086 C 
BRANCH   6   8
ATOM      8  N   UNL A   1      31.502  27.698  24.844  1.00  0.00    -0.332 N 
ATOM      9  H   UNL A   1      30.893  28.418  25.232  1.00  0.00     0.347 HD
ATOM     10  H   UNL A   1      31.494  26.796  25.322  1.00  0.00     0.347 HD
BRANCH   8  11
ATOM     11  C   UNL A   1      31.011  27.397  23.510  1.00  0.00     0.301 C 
BRANCH  11  12
ATOM     12  C   UNL A   1      29.948  28.346  23.006  1.00  0.00     0.042 A 
ATOM     13  C   UNL A   1      30.213  29.517  22.284  1.00  0.00     0.012 A 
ATOM     14  C   UNL A   1      28.610  28.032  23.282  1.00  0.00     0.132 A 
ATOM     15  C   UNL A   1      29.166  30.346  21.867  1.00  0.00     0.001 A 
ATOM     16  C   UNL A   1      27.563  28.854  22.876  1.00  0.00     0.040 A 
ATOM     17  F   UNL A   1      28.320  26.909  23.960  1.00  0.00    -0.206 F 
ATOM     18  C   UNL A   1      27.843  30.018  22.165  1.00  0.00     0.003 A 
ENDBRANCH  11  12
ENDBRANCH   8  11
ENDBRANCH   6   8
ENDBRANCH   3   6
ENDBRANCH   1   2
BRANCH   1  19
ATOM     19  C   UNL A   1      31.233  32.259  26.496  1.00  0.00     0.042 C 
BRANCH  19  20
ATOM     20  C   UNL A   1      32.462  32.796  27.223  1.00  0.00     0.118 C 
BRANCH  20  21
ATOM     21  N   UNL A   1      32.319  34.195  27.593  1.00  0.00    -0.352 N 
ATOM     22  C   UNL A   1      32.968  34.932  28.554  1.00  0.00     0.251 C 
ATOM     23  H   UNL A   1      31.650  34.694  27.072  1.00  0.00     0.163 HD
ATOM     24  O   UNL A   1      32.554  36.051  28.836  1.00  0.00    -0.269 OA
BRANCH  22  25
ATOM     25  C   UNL A   1      34.150  34.392  29.262  1.00  0.00     0.039 A 
ATOM     26  C   UNL A   1      33.956  33.730  30.480  1.00  0.00     0.014 A 
ATOM     27  C   UNL A   1      35.446  34.575  28.770  1.00  0.00     0.014 A 
ATOM     28  C   UNL A   1      35.048  33.198  31.168  1.00  0.00     0.010 A 
ATOM     29  C   UNL A   1      36.529  33.990  29.425  1.00  0.00     0.010 A 
ATOM     30  C   UNL A   1      36.341  33.294  30.628  1.00  0.00    -0.014 A 
BRANCH  30  31
ATOM     31  C   UNL A   1      37.504  32.660  31.298  1.00  0.00     0.031 A 
ATOM     32  C   UNL A   1      38.238  31.528  30.637  1.00  0.00     0.074 A 
ATOM     33  C   UNL A   1      37.856  33.062  32.534  1.00  0.00     0.049 A 
ATOM     34  N   UNL A   1      39.212  30.789  31.106  1.00  0.00    -0.248 NA
ATOM     35  C   UNL A   1      37.811  31.166  29.276  1.00  0.00     0.031 C 
ATOM     36  C   UNL A   1      37.202  34.130  33.291  1.00  0.00     0.029 A 
ATOM     37  N   UNL A   1      38.843  32.614  33.376  1.00  0.00    -0.354 N 
ATOM     38  C   UNL A   1      39.502  29.869  30.108  1.00  0.00     0.074 A 
ATOM     39  C   UNL A   1      38.579  30.115  29.022  1.00  0.00     0.031 C 
ATOM     40  C   UNL A   1      37.816  34.268  34.476  1.00  0.00     0.029 A 
ATOM     41  C   UNL A   1      38.881  33.273  34.581  1.00  0.00     0.049 A 
ATOM     42  H   UNL A   1      39.465  31.888  33.140  1.00  0.00     0.167 HD
ATOM     43  C   UNL A   1      40.466  28.918  30.096  1.00  0.00     0.037 A 
ATOM     44  C   UNL A   1      39.673  33.090  35.652  1.00  0.00     0.037 A 
ATOM     45  C   UNL A   1      41.405  28.697  31.164  1.00  0.00     0.049 A 
ATOM     46  C   UNL A   1      40.723  32.015  35.620  1.00  0.00     0.074 A 
ATOM     47  C   UNL A   1      42.457  27.799  31.213  1.00  0.00     0.029 A 
ATOM     48  N   UNL A   1      41.405  29.382  32.369  1.00  0.00    -0.354 N 
ATOM     49  N   UNL A   1      41.014  31.178  34.655  1.00  0.00    -0.248 NA
ATOM     50  C   UNL A   1      41.550  31.854  36.824  1.00  0.00     0.031 C 
ATOM     51  C   UNL A   1      43.071  27.914  32.464  1.00  0.00     0.029 A 
ATOM     52  C   UNL A   1      42.427  28.910  33.178  1.00  0.00     0.049 A 
ATOM     53  H   UNL A   1      40.774  30.096  32.614  1.00  0.00     0.167 HD
ATOM     54  C   UNL A   1      42.065  30.404  35.125  1.00  0.00     0.074 A 
ATOM     55  C   UNL A   1      42.370  30.876  36.460  1.00  0.00     0.031 C 
ATOM     56  C   UNL A   1      42.717  29.391  34.505  1.00  0.00     0.037 A 
BRANCH  43  57
ATOM     57  C   UNL A   1      40.570  28.043  28.882  1.00  0.00     0.064 A 
ATOM     58  C   UNL A   1      41.345  28.441  27.781  1.00  0.00     0.173 A 
ATOM     59  C   UNL A   1      39.843  26.849  28.777  1.00  0.00     0.173 A 
ATOM     60  F   UNL A   1      42.052  29.580  27.829  1.00  0.00    -0.203 F 
ATOM     61  C   UNL A   1      41.378  27.680  26.617  1.00  0.00     0.198 A 
ATOM     62  C   UNL A   1      39.899  26.077  27.620  1.00  0.00     0.198 A 
ATOM     63  F   UNL A   1      39.094  26.422  29.805  1.00  0.00    -0.203 F 
ATOM     64  F   UNL A   1      42.103  28.093  25.568  1.00  0.00    -0.200 F 
ATOM     65  C   UNL A   1      40.659  26.497  26.538  1.00  0.00     0.200 A 
ATOM     66  F   UNL A   1      39.219  24.925  27.552  1.00  0.00    -0.200 F 
ATOM     67  F   UNL A   1      40.698  25.761  25.419  1.00  0.00    -0.200 F 
ENDBRANCH  43  57
BRANCH  44  68
ATOM     68  C   UNL A   1      39.512  33.968  36.838  1.00  0.00     0.064 A 
ATOM     69  C   UNL A   1      40.160  35.208  36.924  1.00  0.00     0.173 A 
ATOM     70  C   UNL A   1      38.731  33.561  37.928  1.00  0.00     0.173 A 
ATOM     71  F   UNL A   1      40.922  35.640  35.908  1.00  0.00    -0.203 F 
ATOM     72  C   UNL A   1      40.052  35.998  38.067  1.00  0.00     0.198 A 
ATOM     73  C   UNL A   1      38.605  34.362  39.061  1.00  0.00     0.198 A 
ATOM     74  F   UNL A   1      38.076  32.392  37.882  1.00  0.00    -0.203 F 
ATOM     75  F   UNL A   1      40.709  37.164  38.138  1.00  0.00    -0.200 F 
ATOM     76  C   UNL A   1      39.272  35.576  39.133  1.00  0.00     0.200 A 
ATOM     77  F   UNL A   1      37.835  33.960  40.081  1.00  0.00    -0.200 F 
ATOM     78  F   UNL A   1      39.163  36.338  40.229  1.00  0.00    -0.200 F 
ENDBRANCH  44  68
BRANCH  56  79
ATOM     79  C   UNL A   1      43.834  28.724  35.247  1.00  0.00     0.064 A 
ATOM     80  C   UNL A   1      43.566  27.691  36.158  1.00  0.00     0.173 A 
ATOM     81  C   UNL A   1      45.158  29.167  35.123  1.00  0.00     0.173 A 
ATOM     82  F   UNL A   1      42.314  27.238  36.316  1.00  0.00    -0.203 F 
ATOM     83  C   UNL A   1      44.583  27.140  36.933  1.00  0.00     0.198 A 
ATOM     84  C   UNL A   1      46.176  28.599  35.883  1.00  0.00     0.198 A 
ATOM     85  F   UNL A   1      45.464  30.144  34.255  1.00  0.00    -0.203 F 
ATOM     86  F   UNL A   1      44.300  26.178  37.821  1.00  0.00    -0.200 F 
ATOM     87  C   UNL A   1      45.886  27.594  36.794  1.00  0.00     0.200 A 
ATOM     88  F   UNL A   1      47.437  29.024  35.736  1.00  0.00    -0.200 F 
ATOM     89  F   UNL A   1      46.864  27.061  37.539  1.00  0.00    -0.200 F 
ENDBRANCH  56  79
ENDBRANCH  30  31
ENDBRANCH  22  25
ENDBRANCH  20  21
ENDBRANCH  19  20
ENDBRANCH   1  19
TORSDOF 13
ENDMDL
