MODEL 1
REMARK VINA RESULT:     -13.3      0.000      0.000
REMARK SMILES Cc1ccccc1C[C@H](C[C@@H]1Cc2ccccc21)C(=O)NCCCNC(=O)c1ccc(-c2c3nc(c(-c4c(F)c(F)c(F)c(F)c4F)c4ccc([nH]4)c(-c4c(F)c(F)c(F)c(F)c4F)c4nc(c(-c5c(F)c(F)c(F)c(F)c5F)c5ccc2[nH]5)C=C4)C=C3)cc1
REMARK SMILES IDX 23 1 22 2 21 3 19 4 20 5 9 7 8 8 7 9 1 10 2 11 3 12 4 13
REMARK SMILES IDX 6 14 5 15 10 16 11 17 12 18 18 19 13 20 17 21 14 22 16 23
REMARK SMILES IDX 15 24 24 25 25 26 26 27 27 29 28 30 29 31 90 32 30 33 89 34
REMARK SMILES IDX 31 35 32 36 33 37 83 38 34 39 88 40 82 41 84 42 35 43 87 44
REMARK SMILES IDX 81 45 80 46 36 48 68 49 48 50 67 51 49 52 52 53 66 54 85 55
REMARK SMILES IDX 50 56 51 57 65 59 86 60 53 61 37 62 38 63 46 64 39 65 40 66
REMARK SMILES IDX 44 67 47 68 41 69 42 70 45 71 43 72 69 73 70 74 78 75 71 76
REMARK SMILES IDX 72 77 76 78 79 79 73 80 74 81 77 82 75 83 54 84 55 85 63 86
REMARK SMILES IDX 56 87 57 88 61 89 64 90 58 91 59 92 62 93 60 94
REMARK H PARENT 21 6 25 28 84 47 52 58
REMARK Flexibility Score: inf
ROOT
ATOM      1  C   UNL A   1      33.020  30.165  26.039  1.00  0.00     0.042 C 
ENDROOT
BRANCH   1   2
ATOM      2  C   UNL A   1      31.612  29.825  25.608  1.00  0.00     0.117 C 
BRANCH   2   3
ATOM      3  N   UNL A   1      31.387  29.883  24.179  1.00  0.00    -0.356 N 
ATOM      4  C   UNL A   1      31.254  28.923  23.231  1.00  0.00     0.223 C 
ATOM      5  O   UNL A   1      30.814  29.293  22.137  1.00  0.00    -0.275 OA
ATOM      6  H   UNL A   1      31.318  30.800  23.825  1.00  0.00     0.163 HD
BRANCH   4   7
ATOM      7  C   UNL A   1      31.657  27.459  23.419  1.00  0.00     0.083 C 
BRANCH   7   8
ATOM      8  C   UNL A   1      33.174  27.184  23.217  1.00  0.00     0.049 C 
BRANCH   8   9
ATOM      9  C   UNL A   1      33.779  25.915  23.790  1.00  0.00    -0.044 A 
ATOM     10  C   UNL A   1      33.911  26.807  26.209  1.00  0.00     0.044 C 
ATOM     11  C   UNL A   1      34.167  25.774  25.145  1.00  0.00    -0.048 A 
ATOM     12  C   UNL A   1      34.917  24.643  25.531  1.00  0.00     0.004 A 
ATOM     13  C   UNL A   1      35.234  23.637  24.619  1.00  0.00     0.000 A 
ATOM     14  C   UNL A   1      34.037  24.843  22.907  1.00  0.00     0.004 A 
ATOM     15  C   UNL A   1      34.769  23.724  23.313  1.00  0.00     0.000 A 
ENDBRANCH   8   9
ENDBRANCH   7   8
BRANCH   7  16
ATOM     16  C   UNL A   1      30.705  26.426  22.789  1.00  0.00     0.022 C 
BRANCH  16  17
ATOM     17  C   UNL A   1      29.904  25.630  23.836  1.00  0.00     0.025 C 
ATOM     18  C   UNL A   1      29.999  26.129  25.331  1.00  0.00     0.044 C 
ATOM     19  C   UNL A   1      30.610  24.383  24.333  1.00  0.00    -0.041 A 
ATOM     20  C   UNL A   1      30.728  24.845  25.618  1.00  0.00    -0.044 A 
ATOM     21  C   UNL A   1      31.061  23.133  23.968  1.00  0.00     0.004 A 
ATOM     22  C   UNL A   1      31.342  24.107  26.604  1.00  0.00     0.004 A 
ATOM     23  C   UNL A   1      31.686  22.357  24.945  1.00  0.00     0.000 A 
ATOM     24  C   UNL A   1      31.835  22.845  26.254  1.00  0.00     0.000 A 
ENDBRANCH  16  17
ENDBRANCH   7  16
ENDBRANCH   4   7
ENDBRANCH   2   3
ENDBRANCH   1   2
BRANCH   1  25
ATOM     25  C   UNL A   1      33.088  30.591  27.487  1.00  0.00     0.118 C 
BRANCH  25  26
ATOM     26  N   UNL A   1      33.978  31.705  27.806  1.00  0.00    -0.352 N 
ATOM     27  C   UNL A   1      35.281  31.663  28.307  1.00  0.00     0.251 C 
ATOM     28  H   UNL A   1      33.610  32.605  27.647  1.00  0.00     0.163 HD
ATOM     29  O   UNL A   1      35.901  32.685  28.520  1.00  0.00    -0.269 OA
BRANCH  27  30
ATOM     30  C   UNL A   1      35.950  30.336  28.430  1.00  0.00     0.039 A 
ATOM     31  C   UNL A   1      36.209  29.841  29.713  1.00  0.00     0.014 A 
ATOM     32  C   UNL A   1      36.631  29.825  27.340  1.00  0.00     0.014 A 
ATOM     33  C   UNL A   1      37.367  29.093  29.926  1.00  0.00     0.010 A 
ATOM     34  C   UNL A   1      37.878  29.296  27.580  1.00  0.00     0.010 A 
ATOM     35  C   UNL A   1      38.275  28.965  28.880  1.00  0.00    -0.014 A 
BRANCH  35  36
ATOM     36  C   UNL A   1      39.684  28.603  29.030  1.00  0.00     0.031 A 
ATOM     37  C   UNL A   1      40.133  27.239  28.648  1.00  0.00     0.074 A 
ATOM     38  C   UNL A   1      40.604  29.560  29.299  1.00  0.00     0.049 A 
ATOM     39  N   UNL A   1      41.297  26.758  28.919  1.00  0.00    -0.248 NA
ATOM     40  C   UNL A   1      39.293  26.290  27.923  1.00  0.00     0.031 C 
ATOM     41  C   UNL A   1      42.048  29.485  29.064  1.00  0.00     0.029 A 
ATOM     42  N   UNL A   1      40.440  30.765  30.010  1.00  0.00    -0.354 N 
ATOM     43  C   UNL A   1      41.463  25.603  28.191  1.00  0.00     0.074 A 
ATOM     44  C   UNL A   1      40.178  25.348  27.591  1.00  0.00     0.031 C 
ATOM     45  C   UNL A   1      42.668  30.379  29.849  1.00  0.00     0.029 A 
ATOM     46  C   UNL A   1      41.658  30.950  30.716  1.00  0.00     0.049 A 
ATOM     47  H   UNL A   1      39.650  31.353  30.017  1.00  0.00     0.167 HD
ATOM     48  C   UNL A   1      42.706  25.053  28.099  1.00  0.00     0.037 A 
ATOM     49  C   UNL A   1      41.711  30.937  32.079  1.00  0.00     0.037 A 
ATOM     50  C   UNL A   1      43.662  25.779  28.924  1.00  0.00     0.049 A 
ATOM     51  C   UNL A   1      42.616  29.872  32.658  1.00  0.00     0.074 A 
ATOM     52  C   UNL A   1      44.616  26.746  28.651  1.00  0.00     0.029 A 
ATOM     53  N   UNL A   1      43.489  25.778  30.303  1.00  0.00    -0.354 N 
ATOM     54  N   UNL A   1      43.045  28.840  31.987  1.00  0.00    -0.248 NA
ATOM     55  C   UNL A   1      43.090  29.870  34.038  1.00  0.00     0.031 C 
ATOM     56  C   UNL A   1      45.009  27.336  29.879  1.00  0.00     0.029 A 
ATOM     57  C   UNL A   1      44.304  26.719  30.896  1.00  0.00     0.049 A 
ATOM     58  H   UNL A   1      42.871  25.186  30.790  1.00  0.00     0.167 HD
ATOM     59  C   UNL A   1      43.807  28.037  32.802  1.00  0.00     0.074 A 
ATOM     60  C   UNL A   1      43.823  28.742  34.069  1.00  0.00     0.031 C 
ATOM     61  C   UNL A   1      44.333  26.859  32.345  1.00  0.00     0.037 A 
BRANCH  48  62
ATOM     62  C   UNL A   1      43.093  24.003  27.086  1.00  0.00     0.064 A 
ATOM     63  C   UNL A   1      42.717  22.654  27.262  1.00  0.00     0.173 A 
ATOM     64  C   UNL A   1      43.867  24.254  25.938  1.00  0.00     0.173 A 
ATOM     65  F   UNL A   1      41.906  22.276  28.257  1.00  0.00    -0.203 F 
ATOM     66  C   UNL A   1      43.169  21.632  26.423  1.00  0.00     0.198 A 
ATOM     67  C   UNL A   1      44.371  23.227  25.134  1.00  0.00     0.198 A 
ATOM     68  F   UNL A   1      44.112  25.503  25.525  1.00  0.00    -0.203 F 
ATOM     69  F   UNL A   1      42.777  20.370  26.643  1.00  0.00    -0.200 F 
ATOM     70  C   UNL A   1      44.028  21.913  25.382  1.00  0.00     0.200 A 
ATOM     71  F   UNL A   1      45.191  23.522  24.115  1.00  0.00    -0.200 F 
ATOM     72  F   UNL A   1      44.501  20.930  24.606  1.00  0.00    -0.200 F 
ENDBRANCH  48  62
BRANCH  49  73
ATOM     73  C   UNL A   1      40.470  31.466  32.700  1.00  0.00     0.064 A 
ATOM     74  C   UNL A   1      40.272  32.861  32.675  1.00  0.00     0.173 A 
ATOM     75  C   UNL A   1      39.345  30.654  32.881  1.00  0.00     0.173 A 
ATOM     76  F   UNL A   1      41.320  33.683  32.504  1.00  0.00    -0.203 F 
ATOM     77  C   UNL A   1      38.991  33.410  32.684  1.00  0.00     0.198 A 
ATOM     78  C   UNL A   1      38.064  31.211  32.908  1.00  0.00     0.198 A 
ATOM     79  F   UNL A   1      39.468  29.318  32.888  1.00  0.00    -0.203 F 
ATOM     80  F   UNL A   1      38.829  34.731  32.520  1.00  0.00    -0.200 F 
ATOM     81  C   UNL A   1      37.886  32.580  32.765  1.00  0.00     0.200 A 
ATOM     82  F   UNL A   1      36.990  30.409  32.953  1.00  0.00    -0.200 F 
ATOM     83  F   UNL A   1      36.653  33.092  32.653  1.00  0.00    -0.200 F 
ENDBRANCH  49  73
BRANCH  61  84
ATOM     84  C   UNL A   1      44.976  25.736  33.146  1.00  0.00     0.064 A 
ATOM     85  C   UNL A   1      46.338  25.399  33.105  1.00  0.00     0.173 A 
ATOM     86  C   UNL A   1      44.222  25.041  34.133  1.00  0.00     0.173 A 
ATOM     87  F   UNL A   1      47.197  26.038  32.302  1.00  0.00    -0.203 F 
ATOM     88  C   UNL A   1      46.889  24.424  33.946  1.00  0.00     0.198 A 
ATOM     89  C   UNL A   1      44.789  24.121  35.014  1.00  0.00     0.198 A 
ATOM     90  F   UNL A   1      42.909  25.253  34.301  1.00  0.00    -0.203 F 
ATOM     91  F   UNL A   1      48.190  24.116  33.836  1.00  0.00    -0.200 F 
ATOM     92  C   UNL A   1      46.122  23.800  34.911  1.00  0.00     0.200 A 
ATOM     93  F   UNL A   1      44.035  23.569  35.975  1.00  0.00    -0.200 F 
ATOM     94  F   UNL A   1      46.671  22.913  35.751  1.00  0.00    -0.200 F 
ENDBRANCH  61  84
ENDBRANCH  35  36
ENDBRANCH  27  30
ENDBRANCH  25  26
ENDBRANCH   1  25
TORSDOF 14
ENDMDL
MODEL 2
REMARK VINA RESULT:     -13.2      3.305      9.249
REMARK SMILES Cc1ccccc1C[C@H](C[C@@H]1Cc2ccccc21)C(=O)NCCCNC(=O)c1ccc(-c2c3nc(c(-c4c(F)c(F)c(F)c(F)c4F)c4ccc([nH]4)c(-c4c(F)c(F)c(F)c(F)c4F)c4nc(c(-c5c(F)c(F)c(F)c(F)c5F)c5ccc2[nH]5)C=C4)C=C3)cc1
REMARK SMILES IDX 23 1 22 2 21 3 19 4 20 5 9 7 8 8 7 9 1 10 2 11 3 12 4 13
REMARK SMILES IDX 6 14 5 15 10 16 11 17 12 18 18 19 13 20 17 21 14 22 16 23
REMARK SMILES IDX 15 24 24 25 25 26 26 27 27 29 28 30 29 31 90 32 30 33 89 34
REMARK SMILES IDX 31 35 32 36 33 37 83 38 34 39 88 40 82 41 84 42 35 43 87 44
REMARK SMILES IDX 81 45 80 46 36 48 68 49 48 50 67 51 49 52 52 53 66 54 85 55
REMARK SMILES IDX 50 56 51 57 65 59 86 60 53 61 37 62 38 63 46 64 39 65 40 66
REMARK SMILES IDX 44 67 47 68 41 69 42 70 45 71 43 72 69 73 70 74 78 75 71 76
REMARK SMILES IDX 72 77 76 78 79 79 73 80 74 81 77 82 75 83 54 84 55 85 63 86
REMARK SMILES IDX 56 87 57 88 61 89 64 90 58 91 59 92 62 93 60 94
REMARK H PARENT 21 6 25 28 84 47 52 58
REMARK Flexibility Score: inf
ROOT
ATOM      1  C   UNL A   1      37.286  20.909  25.065  1.00  0.00     0.042 C 
ENDROOT
BRANCH   1   2
ATOM      2  C   UNL A   1      35.982  21.118  25.801  1.00  0.00     0.117 C 
BRANCH   2   3
ATOM      3  N   UNL A   1      34.874  20.331  25.301  1.00  0.00    -0.356 N 
ATOM      4  C   UNL A   1      33.798  20.643  24.539  1.00  0.00     0.223 C 
ATOM      5  O   UNL A   1      33.167  19.690  24.069  1.00  0.00    -0.275 OA
ATOM      6  H   UNL A   1      34.908  19.384  25.569  1.00  0.00     0.163 HD
BRANCH   4   7
ATOM      7  C   UNL A   1      33.305  22.068  24.278  1.00  0.00     0.083 C 
BRANCH   7   8
ATOM      8  C   UNL A   1      31.761  22.233  24.358  1.00  0.00     0.049 C 
BRANCH   8   9
ATOM      9  C   UNL A   1      31.175  23.618  24.566  1.00  0.00    -0.044 A 
ATOM     10  C   UNL A   1      31.622  23.667  27.109  1.00  0.00     0.044 C 
ATOM     11  C   UNL A   1      31.061  24.239  25.834  1.00  0.00    -0.048 A 
ATOM     12  C   UNL A   1      30.308  25.426  25.954  1.00  0.00     0.004 A 
ATOM     13  C   UNL A   1      29.721  26.027  24.841  1.00  0.00     0.000 A 
ATOM     14  C   UNL A   1      30.645  24.292  23.444  1.00  0.00     0.004 A 
ATOM     15  C   UNL A   1      29.915  25.475  23.582  1.00  0.00     0.000 A 
ENDBRANCH   8   9
ENDBRANCH   7   8
BRANCH   7  16
ATOM     16  C   UNL A   1      33.991  22.801  23.111  1.00  0.00     0.022 C 
BRANCH  16  17
ATOM     17  C   UNL A   1      34.880  23.969  23.575  1.00  0.00     0.025 C 
ATOM     18  C   UNL A   1      34.989  24.203  25.132  1.00  0.00     0.044 C 
ATOM     19  C   UNL A   1      34.189  25.320  23.541  1.00  0.00    -0.041 A 
ATOM     20  C   UNL A   1      34.248  25.491  24.900  1.00  0.00    -0.044 A 
ATOM     21  C   UNL A   1      33.645  26.276  22.712  1.00  0.00     0.004 A 
ATOM     22  C   UNL A   1      33.728  26.607  25.516  1.00  0.00     0.004 A 
ATOM     23  C   UNL A   1      33.112  27.422  23.305  1.00  0.00     0.000 A 
ATOM     24  C   UNL A   1      33.145  27.582  24.700  1.00  0.00     0.000 A 
ENDBRANCH  16  17
ENDBRANCH   7  16
ENDBRANCH   4   7
ENDBRANCH   2   3
ENDBRANCH   1   2
BRANCH   1  25
ATOM     25  C   UNL A   1      38.216  22.092  25.203  1.00  0.00     0.118 C 
BRANCH  25  26
ATOM     26  N   UNL A   1      39.430  21.889  25.991  1.00  0.00    -0.352 N 
ATOM     27  C   UNL A   1      40.222  22.844  26.632  1.00  0.00     0.251 C 
ATOM     28  H   UNL A   1      39.729  20.955  26.081  1.00  0.00     0.163 HD
ATOM     29  O   UNL A   1      41.210  22.517  27.258  1.00  0.00    -0.269 OA
BRANCH  27  30
ATOM     30  C   UNL A   1      39.747  24.257  26.659  1.00  0.00     0.039 A 
ATOM     31  C   UNL A   1      40.537  25.234  26.044  1.00  0.00     0.014 A 
ATOM     32  C   UNL A   1      38.789  24.623  27.586  1.00  0.00     0.014 A 
ATOM     33  C   UNL A   1      40.590  26.510  26.606  1.00  0.00     0.010 A 
ATOM     34  C   UNL A   1      39.010  25.792  28.277  1.00  0.00     0.010 A 
ATOM     35  C   UNL A   1      39.943  26.728  27.817  1.00  0.00    -0.014 A 
BRANCH  35  36
ATOM     36  C   UNL A   1      40.231  27.827  28.738  1.00  0.00     0.031 A 
ATOM     37  C   UNL A   1      39.285  28.969  28.832  1.00  0.00     0.074 A 
ATOM     38  C   UNL A   1      41.223  27.702  29.652  1.00  0.00     0.049 A 
ATOM     39  N   UNL A   1      39.537  30.067  29.457  1.00  0.00    -0.248 NA
ATOM     40  C   UNL A   1      37.961  28.969  28.216  1.00  0.00     0.031 C 
ATOM     41  C   UNL A   1      41.380  28.467  30.892  1.00  0.00     0.029 A 
ATOM     42  N   UNL A   1      42.413  26.955  29.564  1.00  0.00    -0.354 N 
ATOM     43  C   UNL A   1      38.362  30.773  29.571  1.00  0.00     0.074 A 
ATOM     44  C   UNL A   1      37.407  30.049  28.771  1.00  0.00     0.031 C 
ATOM     45  C   UNL A   1      42.661  28.409  31.284  1.00  0.00     0.029 A 
ATOM     46  C   UNL A   1      43.394  27.733  30.234  1.00  0.00     0.049 A 
ATOM     47  H   UNL A   1      42.539  26.079  29.131  1.00  0.00     0.167 HD
ATOM     48  C   UNL A   1      38.310  31.838  30.420  1.00  0.00     0.037 A 
ATOM     49  C   UNL A   1      44.469  28.258  29.579  1.00  0.00     0.037 A 
ATOM     50  C   UNL A   1      39.619  32.106  31.002  1.00  0.00     0.049 A 
ATOM     51  C   UNL A   1      44.565  29.766  29.645  1.00  0.00     0.074 A 
ATOM     52  C   UNL A   1      40.200  31.799  32.222  1.00  0.00     0.029 A 
ATOM     53  N   UNL A   1      40.653  32.503  30.164  1.00  0.00    -0.354 N 
ATOM     54  N   UNL A   1      43.574  30.543  29.981  1.00  0.00    -0.248 NA
ATOM     55  C   UNL A   1      45.772  30.520  29.320  1.00  0.00     0.031 C 
ATOM     56  C   UNL A   1      41.599  32.006  32.107  1.00  0.00     0.029 A 
ATOM     57  C   UNL A   1      41.862  32.449  30.824  1.00  0.00     0.049 A 
ATOM     58  H   UNL A   1      40.539  32.786  29.228  1.00  0.00     0.167 HD
ATOM     59  C   UNL A   1      43.964  31.859  29.903  1.00  0.00     0.074 A 
ATOM     60  C   UNL A   1      45.357  31.786  29.508  1.00  0.00     0.031 C 
ATOM     61  C   UNL A   1      43.084  32.875  30.157  1.00  0.00     0.037 A 
BRANCH  48  62
ATOM     62  C   UNL A   1      37.029  32.483  30.890  1.00  0.00     0.064 A 
ATOM     63  C   UNL A   1      36.309  33.358  30.048  1.00  0.00     0.173 A 
ATOM     64  C   UNL A   1      36.478  32.312  32.173  1.00  0.00     0.173 A 
ATOM     65  F   UNL A   1      36.659  33.551  28.772  1.00  0.00    -0.203 F 
ATOM     66  C   UNL A   1      35.197  34.080  30.491  1.00  0.00     0.198 A 
ATOM     67  C   UNL A   1      35.405  33.079  32.636  1.00  0.00     0.198 A 
ATOM     68  F   UNL A   1      36.923  31.357  32.999  1.00  0.00    -0.203 F 
ATOM     69  F   UNL A   1      34.554  34.895  29.643  1.00  0.00    -0.200 F 
ATOM     70  C   UNL A   1      34.768  33.970  31.796  1.00  0.00     0.200 A 
ATOM     71  F   UNL A   1      34.991  32.945  33.905  1.00  0.00    -0.200 F 
ATOM     72  F   UNL A   1      33.733  34.697  32.236  1.00  0.00    -0.200 F 
ENDBRANCH  48  62
BRANCH  49  73
ATOM     73  C   UNL A   1      44.924  27.399  28.455  1.00  0.00     0.064 A 
ATOM     74  C   UNL A   1      45.634  26.226  28.778  1.00  0.00     0.173 A 
ATOM     75  C   UNL A   1      44.311  27.462  27.199  1.00  0.00     0.173 A 
ATOM     76  F   UNL A   1      46.239  26.117  29.972  1.00  0.00    -0.203 F 
ATOM     77  C   UNL A   1      45.610  25.112  27.942  1.00  0.00     0.198 A 
ATOM     78  C   UNL A   1      44.305  26.348  26.356  1.00  0.00     0.198 A 
ATOM     79  F   UNL A   1      43.599  28.542  26.846  1.00  0.00    -0.203 F 
ATOM     80  F   UNL A   1      46.180  23.965  28.338  1.00  0.00    -0.200 F 
ATOM     81  C   UNL A   1      44.915  25.163  26.746  1.00  0.00     0.200 A 
ATOM     82  F   UNL A   1      43.605  26.382  25.212  1.00  0.00    -0.200 F 
ATOM     83  F   UNL A   1      44.787  24.061  25.996  1.00  0.00    -0.200 F 
ENDBRANCH  49  73
BRANCH  61  84
ATOM     84  C   UNL A   1      43.253  34.363  29.885  1.00  0.00     0.064 A 
ATOM     85  C   UNL A   1      43.394  35.350  30.873  1.00  0.00     0.173 A 
ATOM     86  C   UNL A   1      43.435  34.828  28.552  1.00  0.00     0.173 A 
ATOM     87  F   UNL A   1      43.353  35.051  32.176  1.00  0.00    -0.203 F 
ATOM     88  C   UNL A   1      43.653  36.690  30.556  1.00  0.00     0.198 A 
ATOM     89  C   UNL A   1      43.759  36.149  28.245  1.00  0.00     0.198 A 
ATOM     90  F   UNL A   1      43.335  34.009  27.495  1.00  0.00    -0.203 F 
ATOM     91  F   UNL A   1      43.741  37.595  31.541  1.00  0.00    -0.200 F 
ATOM     92  C   UNL A   1      43.854  37.086  29.248  1.00  0.00     0.200 A 
ATOM     93  F   UNL A   1      44.001  36.497  26.973  1.00  0.00    -0.200 F 
ATOM     94  F   UNL A   1      44.160  38.357  28.959  1.00  0.00    -0.200 F 
ENDBRANCH  61  84
ENDBRANCH  35  36
ENDBRANCH  27  30
ENDBRANCH  25  26
ENDBRANCH   1  25
TORSDOF 14
ENDMDL
MODEL 3
REMARK VINA RESULT:     -13.2      0.362      1.617
REMARK SMILES Cc1ccccc1C[C@H](C[C@@H]1Cc2ccccc21)C(=O)NCCCNC(=O)c1ccc(-c2c3nc(c(-c4c(F)c(F)c(F)c(F)c4F)c4ccc([nH]4)c(-c4c(F)c(F)c(F)c(F)c4F)c4nc(c(-c5c(F)c(F)c(F)c(F)c5F)c5ccc2[nH]5)C=C4)C=C3)cc1
REMARK SMILES IDX 23 1 22 2 21 3 19 4 20 5 9 7 8 8 7 9 1 10 2 11 3 12 4 13
REMARK SMILES IDX 6 14 5 15 10 16 11 17 12 18 18 19 13 20 17 21 14 22 16 23
REMARK SMILES IDX 15 24 24 25 25 26 26 27 27 29 28 30 29 31 90 32 30 33 89 34
REMARK SMILES IDX 31 35 32 36 33 37 83 38 34 39 88 40 82 41 84 42 35 43 87 44
REMARK SMILES IDX 81 45 80 46 36 48 68 49 48 50 67 51 49 52 52 53 66 54 85 55
REMARK SMILES IDX 50 56 51 57 65 59 86 60 53 61 37 62 38 63 46 64 39 65 40 66
REMARK SMILES IDX 44 67 47 68 41 69 42 70 45 71 43 72 69 73 70 74 78 75 71 76
REMARK SMILES IDX 72 77 76 78 79 79 73 80 74 81 77 82 75 83 54 84 55 85 63 86
REMARK SMILES IDX 56 87 57 88 61 89 64 90 58 91 59 92 62 93 60 94
REMARK H PARENT 21 6 25 28 84 47 52 58
REMARK Flexibility Score: inf
ROOT
ATOM      1  C   UNL A   1      32.102  30.885  26.493  1.00  0.00     0.042 C 
ENDROOT
BRANCH   1   2
ATOM      2  C   UNL A   1      31.543  29.651  25.824  1.00  0.00     0.117 C 
BRANCH   2   3
ATOM      3  N   UNL A   1      31.370  29.768  24.391  1.00  0.00    -0.356 N 
ATOM      4  C   UNL A   1      31.249  28.847  23.403  1.00  0.00     0.223 C 
ATOM      5  O   UNL A   1      30.856  29.268  22.310  1.00  0.00    -0.275 OA
ATOM      6  H   UNL A   1      31.335  30.698  24.070  1.00  0.00     0.163 HD
BRANCH   4   7
ATOM      7  C   UNL A   1      31.611  27.368  23.549  1.00  0.00     0.083 C 
BRANCH   7   8
ATOM      8  C   UNL A   1      33.071  27.025  23.138  1.00  0.00     0.049 C 
BRANCH   8   9
ATOM      9  C   UNL A   1      33.752  25.820  23.761  1.00  0.00    -0.044 A 
ATOM     10  C   UNL A   1      34.003  26.893  26.096  1.00  0.00     0.044 C 
ATOM     11  C   UNL A   1      34.228  25.792  25.095  1.00  0.00    -0.048 A 
ATOM     12  C   UNL A   1      35.038  24.715  25.514  1.00  0.00     0.004 A 
ATOM     13  C   UNL A   1      35.332  23.654  24.658  1.00  0.00     0.000 A 
ATOM     14  C   UNL A   1      33.992  24.694  22.944  1.00  0.00     0.004 A 
ATOM     15  C   UNL A   1      34.785  23.630  23.382  1.00  0.00     0.000 A 
ENDBRANCH   8   9
ENDBRANCH   7   8
BRANCH   7  16
ATOM     16  C   UNL A   1      30.537  26.374  23.071  1.00  0.00     0.022 C 
BRANCH  16  17
ATOM     17  C   UNL A   1      29.872  25.606  24.229  1.00  0.00     0.025 C 
ATOM     18  C   UNL A   1      30.187  26.112  25.690  1.00  0.00     0.044 C 
ATOM     19  C   UNL A   1      30.611  24.344  24.634  1.00  0.00    -0.041 A 
ATOM     20  C   UNL A   1      30.919  24.813  25.886  1.00  0.00    -0.044 A 
ATOM     21  C   UNL A   1      30.977  23.082  24.223  1.00  0.00     0.004 A 
ATOM     22  C   UNL A   1      31.649  24.066  26.783  1.00  0.00     0.004 A 
ATOM     23  C   UNL A   1      31.715  22.297  25.110  1.00  0.00     0.000 A 
ATOM     24  C   UNL A   1      32.057  22.790  26.381  1.00  0.00     0.000 A 
ENDBRANCH  16  17
ENDBRANCH   7  16
ENDBRANCH   4   7
ENDBRANCH   2   3
ENDBRANCH   1   2
BRANCH   1  25
ATOM     25  C   UNL A   1      33.289  30.570  27.373  1.00  0.00     0.118 C 
BRANCH  25  26
ATOM     26  N   UNL A   1      34.160  31.687  27.732  1.00  0.00    -0.352 N 
ATOM     27  C   UNL A   1      35.458  31.649  28.249  1.00  0.00     0.251 C 
ATOM     28  H   UNL A   1      33.782  32.585  27.592  1.00  0.00     0.163 HD
ATOM     29  O   UNL A   1      36.061  32.674  28.496  1.00  0.00    -0.269 OA
BRANCH  27  30
ATOM     30  C   UNL A   1      36.143  30.328  28.347  1.00  0.00     0.039 A 
ATOM     31  C   UNL A   1      36.307  29.759  29.615  1.00  0.00     0.014 A 
ATOM     32  C   UNL A   1      36.921  29.897  27.288  1.00  0.00     0.014 A 
ATOM     33  C   UNL A   1      37.460  29.019  29.878  1.00  0.00     0.010 A 
ATOM     34  C   UNL A   1      38.155  29.376  27.598  1.00  0.00     0.010 A 
ATOM     35  C   UNL A   1      38.453  28.972  28.905  1.00  0.00    -0.014 A 
BRANCH  35  36
ATOM     36  C   UNL A   1      39.852  28.624  29.148  1.00  0.00     0.031 A 
ATOM     37  C   UNL A   1      40.343  27.269  28.787  1.00  0.00     0.074 A 
ATOM     38  C   UNL A   1      40.740  29.590  29.488  1.00  0.00     0.049 A 
ATOM     39  N   UNL A   1      41.492  26.800  29.134  1.00  0.00    -0.248 NA
ATOM     40  C   UNL A   1      39.567  26.317  27.998  1.00  0.00     0.031 C 
ATOM     41  C   UNL A   1      42.197  29.534  29.353  1.00  0.00     0.029 A 
ATOM     42  N   UNL A   1      40.512  30.786  30.196  1.00  0.00    -0.354 N 
ATOM     43  C   UNL A   1      41.721  25.653  28.410  1.00  0.00     0.074 A 
ATOM     44  C   UNL A   1      40.484  25.388  27.720  1.00  0.00     0.031 C 
ATOM     45  C   UNL A   1      42.750  30.428  30.186  1.00  0.00     0.029 A 
ATOM     46  C   UNL A   1      41.677  30.979  30.986  1.00  0.00     0.049 A 
ATOM     47  H   UNL A   1      39.717  31.364  30.153  1.00  0.00     0.167 HD
ATOM     48  C   UNL A   1      42.975  25.118  28.399  1.00  0.00     0.037 A 
ATOM     49  C   UNL A   1      41.635  30.954  32.349  1.00  0.00     0.037 A 
ATOM     50  C   UNL A   1      43.862  25.848  29.295  1.00  0.00     0.049 A 
ATOM     51  C   UNL A   1      42.511  29.895  32.981  1.00  0.00     0.074 A 
ATOM     52  C   UNL A   1      44.821  26.829  29.096  1.00  0.00     0.029 A 
ATOM     53  N   UNL A   1      43.594  25.833  30.658  1.00  0.00    -0.354 N 
ATOM     54  N   UNL A   1      42.998  28.874  32.332  1.00  0.00    -0.248 NA
ATOM     55  C   UNL A   1      42.889  29.885  34.390  1.00  0.00     0.031 C 
ATOM     56  C   UNL A   1      45.121  27.412  30.353  1.00  0.00     0.029 A 
ATOM     57  C   UNL A   1      44.355  26.778  31.313  1.00  0.00     0.049 A 
ATOM     58  H   UNL A   1      42.952  25.229  31.096  1.00  0.00     0.167 HD
ATOM     59  C   UNL A   1      43.712  28.072  33.191  1.00  0.00     0.074 A 
ATOM     60  C   UNL A   1      43.632  28.766  34.462  1.00  0.00     0.031 C 
ATOM     61  C   UNL A   1      44.282  26.905  32.762  1.00  0.00     0.037 A 
BRANCH  48  62
ATOM     62  C   UNL A   1      43.443  24.082  27.406  1.00  0.00     0.064 A 
ATOM     63  C   UNL A   1      44.247  24.448  26.305  1.00  0.00     0.173 A 
ATOM     64  C   UNL A   1      43.104  22.718  27.462  1.00  0.00     0.173 A 
ATOM     65  F   UNL A   1      44.723  25.690  26.165  1.00  0.00    -0.203 F 
ATOM     66  C   UNL A   1      44.587  23.547  25.291  1.00  0.00     0.198 A 
ATOM     67  C   UNL A   1      43.390  21.831  26.420  1.00  0.00     0.198 A 
ATOM     68  F   UNL A   1      42.536  22.187  28.552  1.00  0.00    -0.203 F 
ATOM     69  F   UNL A   1      45.353  23.955  24.270  1.00  0.00    -0.200 F 
ATOM     70  C   UNL A   1      44.126  22.249  25.329  1.00  0.00     0.200 A 
ATOM     71  F   UNL A   1      42.948  20.567  26.483  1.00  0.00    -0.200 F 
ATOM     72  F   UNL A   1      44.411  21.397  24.336  1.00  0.00    -0.200 F 
ENDBRANCH  48  62
BRANCH  49  73
ATOM     73  C   UNL A   1      40.348  31.463  32.888  1.00  0.00     0.064 A 
ATOM     74  C   UNL A   1      40.143  32.858  32.879  1.00  0.00     0.173 A 
ATOM     75  C   UNL A   1      39.218  30.642  32.965  1.00  0.00     0.173 A 
ATOM     76  F   UNL A   1      41.196  33.688  32.805  1.00  0.00    -0.203 F 
ATOM     77  C   UNL A   1      38.863  33.400  32.804  1.00  0.00     0.198 A 
ATOM     78  C   UNL A   1      37.935  31.192  32.908  1.00  0.00     0.198 A 
ATOM     79  F   UNL A   1      39.348  29.307  32.951  1.00  0.00    -0.203 F 
ATOM     80  F   UNL A   1      38.704  34.724  32.659  1.00  0.00    -0.200 F 
ATOM     81  C   UNL A   1      37.760  32.564  32.784  1.00  0.00     0.200 A 
ATOM     82  F   UNL A   1      36.866  30.384  32.855  1.00  0.00    -0.200 F 
ATOM     83  F   UNL A   1      36.535  33.072  32.592  1.00  0.00    -0.200 F 
ENDBRANCH  49  73
BRANCH  61  84
ATOM     84  C   UNL A   1      44.883  25.783  33.596  1.00  0.00     0.064 A 
ATOM     85  C   UNL A   1      44.144  24.859  34.351  1.00  0.00     0.173 A 
ATOM     86  C   UNL A   1      46.279  25.512  33.527  1.00  0.00     0.173 A 
ATOM     87  F   UNL A   1      42.810  24.919  34.426  1.00  0.00    -0.203 F 
ATOM     88  C   UNL A   1      44.751  23.783  35.013  1.00  0.00     0.198 A 
ATOM     89  C   UNL A   1      46.868  24.402  34.131  1.00  0.00     0.198 A 
ATOM     90  F   UNL A   1      47.121  26.299  32.843  1.00  0.00    -0.203 F 
ATOM     91  F   UNL A   1      43.998  22.953  35.750  1.00  0.00    -0.200 F 
ATOM     92  C   UNL A   1      46.105  23.543  34.888  1.00  0.00     0.200 A 
ATOM     93  F   UNL A   1      48.175  24.162  33.951  1.00  0.00    -0.200 F 
ATOM     94  F   UNL A   1      46.667  22.478  35.475  1.00  0.00    -0.200 F 
ENDBRANCH  61  84
ENDBRANCH  35  36
ENDBRANCH  27  30
ENDBRANCH  25  26
ENDBRANCH   1  25
TORSDOF 14
ENDMDL
