MODEL 1
REMARK VINA RESULT:     -13.1      0.000      0.000
REMARK SMILES O=C(NCCCNC(=O)c1cc(-c2cccc(Cl)c2)ccc1Cl)c1ccc(-c2c3nc(c(-c4c(F)c(F)c(F)c(F)c4F)c4ccc([nH]4)c(-c4c(F)c(F)c(F)c(F)c4F)c4nc(c(-c5c(F)c(F)c(F)c(F)c5F)c5ccc2[nH]5)C=C4)C=C3)cc1
REMARK SMILES IDX 4 1 3 2 1 3 2 4 24 6 25 7 86 8 26 9 85 10 27 11 28 12 29 13
REMARK SMILES IDX 79 14 30 15 84 16 78 17 80 18 31 19 83 20 77 21 76 22 32 24
REMARK SMILES IDX 64 25 44 26 63 27 45 28 48 29 62 30 81 31 46 32 47 33 61 35
REMARK SMILES IDX 82 36 49 37 33 38 34 39 42 40 35 41 36 42 40 43 43 44 37 45
REMARK SMILES IDX 38 46 41 47 39 48 65 49 66 50 74 51 67 52 68 53 72 54 75 55
REMARK SMILES IDX 69 56 70 57 73 58 71 59 50 60 51 61 59 62 52 63 53 64 57 65
REMARK SMILES IDX 60 66 54 67 55 68 58 69 56 70 5 71 6 72 7 73 8 74 9 76 10 77
REMARK SMILES IDX 11 78 22 79 12 80 21 81 23 82 20 83 13 84 14 85 19 86 15 87
REMARK SMILES IDX 17 88 16 89 18 90
REMARK H PARENT 3 5 80 23 48 34 7 75
REMARK Flexibility Score: inf
ROOT
ATOM      1  C   UNL A   1      33.020  29.193  25.281  1.00  0.00     0.118 C 
ENDROOT
BRANCH   1   2
ATOM      2  N   UNL A   1      32.570  30.433  25.901  1.00  0.00    -0.352 N 
ATOM      3  O   UNL A   1      32.475  32.138  27.367  1.00  0.00    -0.269 OA
ATOM      4  C   UNL A   1      33.113  31.192  26.912  1.00  0.00     0.251 C 
ATOM      5  H   UNL A   1      31.731  30.791  25.531  1.00  0.00     0.163 HD
BRANCH   4   6
ATOM      6  C   UNL A   1      34.435  30.861  27.490  1.00  0.00     0.039 A 
ATOM      7  C   UNL A   1      34.768  29.555  27.842  1.00  0.00     0.014 A 
ATOM      8  C   UNL A   1      35.374  31.884  27.670  1.00  0.00     0.014 A 
ATOM      9  C   UNL A   1      35.932  29.306  28.561  1.00  0.00     0.010 A 
ATOM     10  C   UNL A   1      36.599  31.611  28.290  1.00  0.00     0.010 A 
ATOM     11  C   UNL A   1      36.864  30.330  28.794  1.00  0.00    -0.014 A 
BRANCH  11  12
ATOM     12  C   UNL A   1      38.105  30.018  29.553  1.00  0.00     0.031 A 
ATOM     13  C   UNL A   1      38.292  30.493  30.970  1.00  0.00     0.074 A 
ATOM     14  C   UNL A   1      39.044  29.241  28.977  1.00  0.00     0.049 A 
ATOM     15  N   UNL A   1      39.278  30.250  31.799  1.00  0.00    -0.248 NA
ATOM     16  C   UNL A   1      37.247  31.363  31.529  1.00  0.00     0.031 C 
ATOM     17  C   UNL A   1      38.989  28.732  27.606  1.00  0.00     0.029 A 
ATOM     18  N   UNL A   1      40.207  28.714  29.479  1.00  0.00    -0.354 N 
ATOM     19  C   UNL A   1      38.987  30.958  32.959  1.00  0.00     0.074 A 
ATOM     20  C   UNL A   1      37.743  31.658  32.722  1.00  0.00     0.031 C 
ATOM     21  C   UNL A   1      40.029  27.912  27.398  1.00  0.00     0.029 A 
ATOM     22  C   UNL A   1      40.857  27.883  28.598  1.00  0.00     0.049 A 
ATOM     23  H   UNL A   1      40.545  28.912  30.383  1.00  0.00     0.167 HD
ATOM     24  C   UNL A   1      39.688  31.009  34.119  1.00  0.00     0.037 A 
ATOM     25  C   UNL A   1      41.993  27.178  28.738  1.00  0.00     0.037 A 
ATOM     26  C   UNL A   1      40.905  30.280  34.367  1.00  0.00     0.049 A 
ATOM     27  C   UNL A   1      42.739  27.241  30.040  1.00  0.00     0.074 A 
ATOM     28  C   UNL A   1      41.661  30.232  35.525  1.00  0.00     0.029 A 
ATOM     29  N   UNL A   1      41.543  29.469  33.440  1.00  0.00    -0.354 N 
ATOM     30  N   UNL A   1      42.432  27.886  31.138  1.00  0.00    -0.248 NA
ATOM     31  C   UNL A   1      43.993  26.482  30.118  1.00  0.00     0.031 C 
ATOM     32  C   UNL A   1      42.778  29.424  35.287  1.00  0.00     0.029 A 
ATOM     33  C   UNL A   1      42.695  28.931  33.995  1.00  0.00     0.049 A 
ATOM     34  H   UNL A   1      41.226  29.300  32.524  1.00  0.00     0.167 HD
ATOM     35  C   UNL A   1      43.441  27.595  32.044  1.00  0.00     0.074 A 
ATOM     36  C   UNL A   1      44.361  26.699  31.372  1.00  0.00     0.031 C 
ATOM     37  C   UNL A   1      43.594  28.035  33.317  1.00  0.00     0.037 A 
BRANCH  24  38
ATOM     38  C   UNL A   1      39.165  31.897  35.210  1.00  0.00     0.064 A 
ATOM     39  C   UNL A   1      38.411  31.392  36.279  1.00  0.00     0.173 A 
ATOM     40  C   UNL A   1      39.464  33.269  35.210  1.00  0.00     0.173 A 
ATOM     41  F   UNL A   1      38.087  30.091  36.321  1.00  0.00    -0.203 F 
ATOM     42  C   UNL A   1      37.956  32.230  37.295  1.00  0.00     0.198 A 
ATOM     43  C   UNL A   1      39.031  34.099  36.240  1.00  0.00     0.198 A 
ATOM     44  F   UNL A   1      40.188  33.803  34.214  1.00  0.00    -0.203 F 
ATOM     45  F   UNL A   1      37.202  31.732  38.284  1.00  0.00    -0.200 F 
ATOM     46  C   UNL A   1      38.272  33.581  37.278  1.00  0.00     0.200 A 
ATOM     47  F   UNL A   1      39.347  35.402  36.228  1.00  0.00    -0.200 F 
ATOM     48  F   UNL A   1      37.839  34.384  38.260  1.00  0.00    -0.200 F 
ENDBRANCH  24  38
BRANCH  25  49
ATOM     49  C   UNL A   1      42.480  26.333  27.618  1.00  0.00     0.064 A 
ATOM     50  C   UNL A   1      41.959  25.051  27.403  1.00  0.00     0.173 A 
ATOM     51  C   UNL A   1      43.463  26.797  26.731  1.00  0.00     0.173 A 
ATOM     52  F   UNL A   1      41.031  24.557  28.236  1.00  0.00    -0.203 F 
ATOM     53  C   UNL A   1      42.413  24.257  26.353  1.00  0.00     0.198 A 
ATOM     54  C   UNL A   1      43.895  26.015  25.663  1.00  0.00     0.198 A 
ATOM     55  F   UNL A   1      43.988  28.021  26.891  1.00  0.00    -0.203 F 
ATOM     56  F   UNL A   1      41.927  23.018  26.192  1.00  0.00    -0.200 F 
ATOM     57  C   UNL A   1      43.375  24.743  25.479  1.00  0.00     0.200 A 
ATOM     58  F   UNL A   1      44.812  26.495  24.813  1.00  0.00    -0.200 F 
ATOM     59  F   UNL A   1      43.806  23.982  24.463  1.00  0.00    -0.200 F 
ENDBRANCH  25  49
BRANCH  37  60
ATOM     60  C   UNL A   1      44.785  27.525  34.074  1.00  0.00     0.064 A 
ATOM     61  C   UNL A   1      46.010  28.208  34.067  1.00  0.00     0.173 A 
ATOM     62  C   UNL A   1      44.691  26.346  34.829  1.00  0.00     0.173 A 
ATOM     63  F   UNL A   1      46.152  29.329  33.345  1.00  0.00    -0.203 F 
ATOM     64  C   UNL A   1      47.107  27.713  34.764  1.00  0.00     0.198 A 
ATOM     65  C   UNL A   1      45.783  25.868  35.548  1.00  0.00     0.198 A 
ATOM     66  F   UNL A   1      43.540  25.660  34.873  1.00  0.00    -0.203 F 
ATOM     67  F   UNL A   1      48.283  28.353  34.700  1.00  0.00    -0.200 F 
ATOM     68  C   UNL A   1      46.993  26.547  35.508  1.00  0.00     0.200 A 
ATOM     69  F   UNL A   1      45.668  24.748  36.274  1.00  0.00    -0.200 F 
ATOM     70  F   UNL A   1      48.051  26.072  36.178  1.00  0.00    -0.200 F 
ENDBRANCH  37  60
ENDBRANCH  11  12
ENDBRANCH   4   6
ENDBRANCH   1   2
BRANCH   1  71
ATOM     71  C   UNL A   1      32.863  29.179  23.766  1.00  0.00     0.042 C 
BRANCH  71  72
ATOM     72  C   UNL A   1      34.059  28.616  23.015  1.00  0.00     0.118 C 
BRANCH  72  73
ATOM     73  N   UNL A   1      33.686  27.592  22.051  1.00  0.00    -0.352 N 
ATOM     74  C   UNL A   1      33.492  26.245  22.220  1.00  0.00     0.252 C 
ATOM     75  H   UNL A   1      33.553  27.917  21.132  1.00  0.00     0.163 HD
ATOM     76  O   UNL A   1      33.273  25.536  21.241  1.00  0.00    -0.269 OA
BRANCH  74  77
ATOM     77  C   UNL A   1      33.602  25.620  23.551  1.00  0.00     0.059 A 
ATOM     78  C   UNL A   1      34.820  24.981  23.851  1.00  0.00     0.024 A 
ATOM     79  C   UNL A   1      32.537  25.549  24.455  1.00  0.00     0.053 A 
ATOM     80  C   UNL A   1      35.003  24.310  25.070  1.00  0.00    -0.017 A 
ATOM     81  C   UNL A   1      32.735  24.955  25.701  1.00  0.00     0.022 A 
ATOM     82  Cl  UNL A   1      30.939  26.091  24.084  1.00  0.00    -0.083 Cl
ATOM     83  C   UNL A   1      33.957  24.350  26.007  1.00  0.00     0.010 A 
BRANCH  80  84
ATOM     84  C   UNL A   1      36.212  23.515  25.335  1.00  0.00    -0.017 A 
ATOM     85  C   UNL A   1      37.304  24.102  26.002  1.00  0.00     0.009 A 
ATOM     86  C   UNL A   1      36.313  22.166  24.963  1.00  0.00     0.029 A 
ATOM     87  C   UNL A   1      38.462  23.376  26.283  1.00  0.00     0.002 A 
ATOM     88  C   UNL A   1      37.475  21.442  25.244  1.00  0.00     0.041 A 
ATOM     89  C   UNL A   1      38.549  22.040  25.900  1.00  0.00     0.020 A 
ATOM     90  Cl  UNL A   1      37.586  19.790  24.773  1.00  0.00    -0.084 Cl
ENDBRANCH  80  84
ENDBRANCH  74  77
ENDBRANCH  72  73
ENDBRANCH  71  72
ENDBRANCH   1  71
TORSDOF 11
ENDMDL
MODEL 2
REMARK VINA RESULT:     -13.0      0.065      1.621
REMARK SMILES O=C(NCCCNC(=O)c1cc(-c2cccc(Cl)c2)ccc1Cl)c1ccc(-c2c3nc(c(-c4c(F)c(F)c(F)c(F)c4F)c4ccc([nH]4)c(-c4c(F)c(F)c(F)c(F)c4F)c4nc(c(-c5c(F)c(F)c(F)c(F)c5F)c5ccc2[nH]5)C=C4)C=C3)cc1
REMARK SMILES IDX 4 1 3 2 1 3 2 4 24 6 25 7 86 8 26 9 85 10 27 11 28 12 29 13
REMARK SMILES IDX 79 14 30 15 84 16 78 17 80 18 31 19 83 20 77 21 76 22 32 24
REMARK SMILES IDX 64 25 44 26 63 27 45 28 48 29 62 30 81 31 46 32 47 33 61 35
REMARK SMILES IDX 82 36 49 37 33 38 34 39 42 40 35 41 36 42 40 43 43 44 37 45
REMARK SMILES IDX 38 46 41 47 39 48 65 49 66 50 74 51 67 52 68 53 72 54 75 55
REMARK SMILES IDX 69 56 70 57 73 58 71 59 50 60 51 61 59 62 52 63 53 64 57 65
REMARK SMILES IDX 60 66 54 67 55 68 58 69 56 70 5 71 6 72 7 73 8 74 9 76 10 77
REMARK SMILES IDX 11 78 22 79 12 80 21 81 23 82 20 83 13 84 14 85 19 86 15 87
REMARK SMILES IDX 17 88 16 89 18 90
REMARK H PARENT 3 5 80 23 48 34 7 75
REMARK Flexibility Score: inf
ROOT
ATOM      1  C   UNL A   1      32.980  29.181  25.314  1.00  0.00     0.118 C 
ENDROOT
BRANCH   1   2
ATOM      2  N   UNL A   1      32.526  30.423  25.928  1.00  0.00    -0.352 N 
ATOM      3  O   UNL A   1      32.430  32.138  27.382  1.00  0.00    -0.269 OA
ATOM      4  C   UNL A   1      33.072  31.193  26.930  1.00  0.00     0.251 C 
ATOM      5  H   UNL A   1      31.682  30.773  25.562  1.00  0.00     0.163 HD
BRANCH   4   6
ATOM      6  C   UNL A   1      34.399  30.875  27.500  1.00  0.00     0.039 A 
ATOM      7  C   UNL A   1      34.764  29.565  27.807  1.00  0.00     0.014 A 
ATOM      8  C   UNL A   1      35.312  31.913  27.720  1.00  0.00     0.014 A 
ATOM      9  C   UNL A   1      35.932  29.320  28.521  1.00  0.00     0.010 A 
ATOM     10  C   UNL A   1      36.542  31.649  28.334  1.00  0.00     0.010 A 
ATOM     11  C   UNL A   1      36.838  30.358  28.794  1.00  0.00    -0.014 A 
BRANCH  11  12
ATOM     12  C   UNL A   1      38.084  30.050  29.546  1.00  0.00     0.031 A 
ATOM     13  C   UNL A   1      38.278  30.528  30.961  1.00  0.00     0.074 A 
ATOM     14  C   UNL A   1      39.021  29.273  28.966  1.00  0.00     0.049 A 
ATOM     15  N   UNL A   1      39.270  30.289  31.784  1.00  0.00    -0.248 NA
ATOM     16  C   UNL A   1      37.234  31.397  31.524  1.00  0.00     0.031 C 
ATOM     17  C   UNL A   1      38.958  28.761  27.597  1.00  0.00     0.029 A 
ATOM     18  N   UNL A   1      40.188  28.750  29.462  1.00  0.00    -0.354 N 
ATOM     19  C   UNL A   1      38.984  30.998  32.944  1.00  0.00     0.074 A 
ATOM     20  C   UNL A   1      37.738  31.696  32.713  1.00  0.00     0.031 C 
ATOM     21  C   UNL A   1      39.998  27.943  27.383  1.00  0.00     0.029 A 
ATOM     22  C   UNL A   1      40.834  27.919  28.579  1.00  0.00     0.049 A 
ATOM     23  H   UNL A   1      40.530  28.951  30.363  1.00  0.00     0.167 HD
ATOM     24  C   UNL A   1      39.692  31.053  34.100  1.00  0.00     0.037 A 
ATOM     25  C   UNL A   1      41.972  27.215  28.713  1.00  0.00     0.037 A 
ATOM     26  C   UNL A   1      40.912  30.328  34.342  1.00  0.00     0.049 A 
ATOM     27  C   UNL A   1      42.726  27.283  30.010  1.00  0.00     0.074 A 
ATOM     28  C   UNL A   1      41.675  30.284  35.496  1.00  0.00     0.029 A 
ATOM     29  N   UNL A   1      41.546  29.516  33.413  1.00  0.00    -0.354 N 
ATOM     30  N   UNL A   1      42.424  27.930  31.109  1.00  0.00    -0.248 NA
ATOM     31  C   UNL A   1      43.982  26.527  30.082  1.00  0.00     0.031 C 
ATOM     32  C   UNL A   1      42.793  29.477  35.253  1.00  0.00     0.029 A 
ATOM     33  C   UNL A   1      42.702  28.981  33.963  1.00  0.00     0.049 A 
ATOM     34  H   UNL A   1      41.224  29.344  32.499  1.00  0.00     0.167 HD
ATOM     35  C   UNL A   1      43.439  27.643  32.009  1.00  0.00     0.074 A 
ATOM     36  C   UNL A   1      44.357  26.747  31.334  1.00  0.00     0.031 C 
ATOM     37  C   UNL A   1      43.599  28.086  33.280  1.00  0.00     0.037 A 
BRANCH  24  38
ATOM     38  C   UNL A   1      39.174  31.943  35.192  1.00  0.00     0.064 A 
ATOM     39  C   UNL A   1      38.431  31.438  36.269  1.00  0.00     0.173 A 
ATOM     40  C   UNL A   1      39.467  33.316  35.185  1.00  0.00     0.173 A 
ATOM     41  F   UNL A   1      38.113  30.135  36.318  1.00  0.00    -0.203 F 
ATOM     42  C   UNL A   1      37.980  32.277  37.286  1.00  0.00     0.198 A 
ATOM     43  C   UNL A   1      39.038  34.148  36.216  1.00  0.00     0.198 A 
ATOM     44  F   UNL A   1      40.180  33.850  34.182  1.00  0.00    -0.203 F 
ATOM     45  F   UNL A   1      37.237  31.779  38.283  1.00  0.00    -0.200 F 
ATOM     46  C   UNL A   1      38.290  33.630  37.262  1.00  0.00     0.200 A 
ATOM     47  F   UNL A   1      39.349  35.452  36.198  1.00  0.00    -0.200 F 
ATOM     48  F   UNL A   1      37.861  34.433  38.245  1.00  0.00    -0.200 F 
ENDBRANCH  24  38
BRANCH  25  49
ATOM     49  C   UNL A   1      42.454  26.370  27.592  1.00  0.00     0.064 A 
ATOM     50  C   UNL A   1      43.440  26.834  26.712  1.00  0.00     0.173 A 
ATOM     51  C   UNL A   1      41.950  25.077  27.386  1.00  0.00     0.173 A 
ATOM     52  F   UNL A   1      43.939  28.070  26.857  1.00  0.00    -0.203 F 
ATOM     53  C   UNL A   1      43.895  26.043  25.659  1.00  0.00     0.198 A 
ATOM     54  C   UNL A   1      42.426  24.275  26.352  1.00  0.00     0.198 A 
ATOM     55  F   UNL A   1      41.009  24.585  28.205  1.00  0.00    -0.203 F 
ATOM     56  F   UNL A   1      44.811  26.524  24.809  1.00  0.00    -0.200 F 
ATOM     57  C   UNL A   1      43.392  24.762  25.485  1.00  0.00     0.200 A 
ATOM     58  F   UNL A   1      41.949  23.033  26.197  1.00  0.00    -0.200 F 
ATOM     59  F   UNL A   1      43.836  23.997  24.477  1.00  0.00    -0.200 F 
ENDBRANCH  25  49
BRANCH  37  60
ATOM     60  C   UNL A   1      44.796  27.579  34.032  1.00  0.00     0.064 A 
ATOM     61  C   UNL A   1      44.749  26.388  34.770  1.00  0.00     0.173 A 
ATOM     62  C   UNL A   1      46.006  28.287  33.996  1.00  0.00     0.173 A 
ATOM     63  F   UNL A   1      43.609  25.686  34.848  1.00  0.00    -0.203 F 
ATOM     64  C   UNL A   1      45.864  25.940  35.472  1.00  0.00     0.198 A 
ATOM     65  C   UNL A   1      47.127  27.822  34.677  1.00  0.00     0.198 A 
ATOM     66  F   UNL A   1      46.102  29.429  33.299  1.00  0.00    -0.203 F 
ATOM     67  F   UNL A   1      45.783  24.827  36.214  1.00  0.00    -0.200 F 
ATOM     68  C   UNL A   1      47.053  26.653  35.421  1.00  0.00     0.200 A 
ATOM     69  F   UNL A   1      48.277  28.507  34.618  1.00  0.00    -0.200 F 
ATOM     70  F   UNL A   1      48.125  26.220  36.097  1.00  0.00    -0.200 F 
ENDBRANCH  37  60
ENDBRANCH  11  12
ENDBRANCH   4   6
ENDBRANCH   1   2
BRANCH   1  71
ATOM     71  C   UNL A   1      32.833  29.164  23.798  1.00  0.00     0.042 C 
BRANCH  71  72
ATOM     72  C   UNL A   1      34.042  28.614  23.056  1.00  0.00     0.118 C 
BRANCH  72  73
ATOM     73  N   UNL A   1      33.685  27.603  22.073  1.00  0.00    -0.352 N 
ATOM     74  C   UNL A   1      33.497  26.253  22.219  1.00  0.00     0.252 C 
ATOM     75  H   UNL A   1      33.559  27.942  21.158  1.00  0.00     0.163 HD
ATOM     76  O   UNL A   1      33.293  25.558  21.227  1.00  0.00    -0.269 OA
BRANCH  74  77
ATOM     77  C   UNL A   1      33.598  25.607  23.541  1.00  0.00     0.059 A 
ATOM     78  C   UNL A   1      34.817  24.973  23.844  1.00  0.00     0.024 A 
ATOM     79  C   UNL A   1      32.524  25.514  24.432  1.00  0.00     0.053 A 
ATOM     80  C   UNL A   1      34.992  24.285  25.054  1.00  0.00    -0.017 A 
ATOM     81  C   UNL A   1      32.713  24.902  25.671  1.00  0.00     0.022 A 
ATOM     82  Cl  UNL A   1      30.926  26.050  24.052  1.00  0.00    -0.083 Cl
ATOM     83  C   UNL A   1      33.937  24.301  25.980  1.00  0.00     0.010 A 
BRANCH  80  84
ATOM     84  C   UNL A   1      36.205  23.495  25.320  1.00  0.00    -0.017 A 
ATOM     85  C   UNL A   1      37.295  24.088  25.984  1.00  0.00     0.009 A 
ATOM     86  C   UNL A   1      36.311  22.146  24.951  1.00  0.00     0.029 A 
ATOM     87  C   UNL A   1      38.457  23.367  26.265  1.00  0.00     0.002 A 
ATOM     88  C   UNL A   1      37.476  21.426  25.233  1.00  0.00     0.041 A 
ATOM     89  C   UNL A   1      38.549  22.031  25.886  1.00  0.00     0.020 A 
ATOM     90  Cl  UNL A   1      37.593  19.773  24.766  1.00  0.00    -0.084 Cl
ENDBRANCH  80  84
ENDBRANCH  74  77
ENDBRANCH  72  73
ENDBRANCH  71  72
ENDBRANCH   1  71
TORSDOF 11
ENDMDL
MODEL 3
REMARK VINA RESULT:     -12.7      1.439      2.042
REMARK SMILES O=C(NCCCNC(=O)c1cc(-c2cccc(Cl)c2)ccc1Cl)c1ccc(-c2c3nc(c(-c4c(F)c(F)c(F)c(F)c4F)c4ccc([nH]4)c(-c4c(F)c(F)c(F)c(F)c4F)c4nc(c(-c5c(F)c(F)c(F)c(F)c5F)c5ccc2[nH]5)C=C4)C=C3)cc1
REMARK SMILES IDX 4 1 3 2 1 3 2 4 24 6 25 7 86 8 26 9 85 10 27 11 28 12 29 13
REMARK SMILES IDX 79 14 30 15 84 16 78 17 80 18 31 19 83 20 77 21 76 22 32 24
REMARK SMILES IDX 64 25 44 26 63 27 45 28 48 29 62 30 81 31 46 32 47 33 61 35
REMARK SMILES IDX 82 36 49 37 33 38 34 39 42 40 35 41 36 42 40 43 43 44 37 45
REMARK SMILES IDX 38 46 41 47 39 48 65 49 66 50 74 51 67 52 68 53 72 54 75 55
REMARK SMILES IDX 69 56 70 57 73 58 71 59 50 60 51 61 59 62 52 63 53 64 57 65
REMARK SMILES IDX 60 66 54 67 55 68 58 69 56 70 5 71 6 72 7 73 8 74 9 76 10 77
REMARK SMILES IDX 11 78 22 79 12 80 21 81 23 82 20 83 13 84 14 85 19 86 15 87
REMARK SMILES IDX 17 88 16 89 18 90
REMARK H PARENT 3 5 80 23 48 34 7 75
REMARK Flexibility Score: inf
ROOT
ATOM      1  C   UNL A   1      33.047  29.128  26.075  1.00  0.00     0.118 C 
ENDROOT
BRANCH   1   2
ATOM      2  N   UNL A   1      32.799  30.518  26.437  1.00  0.00    -0.352 N 
ATOM      3  O   UNL A   1      33.013  32.482  27.515  1.00  0.00    -0.269 OA
ATOM      4  C   UNL A   1      33.496  31.384  27.247  1.00  0.00     0.251 C 
ATOM      5  H   UNL A   1      31.990  30.905  26.030  1.00  0.00     0.163 HD
BRANCH   4   6
ATOM      6  C   UNL A   1      34.798  31.000  27.835  1.00  0.00     0.039 A 
ATOM      7  C   UNL A   1      35.066  29.684  28.209  1.00  0.00     0.014 A 
ATOM      8  C   UNL A   1      35.786  31.978  28.001  1.00  0.00     0.014 A 
ATOM      9  C   UNL A   1      36.214  29.391  28.937  1.00  0.00     0.010 A 
ATOM     10  C   UNL A   1      36.995  31.655  28.629  1.00  0.00     0.010 A 
ATOM     11  C   UNL A   1      37.195  30.372  29.156  1.00  0.00    -0.014 A 
BRANCH  11  12
ATOM     12  C   UNL A   1      38.417  30.012  29.924  1.00  0.00     0.031 A 
ATOM     13  C   UNL A   1      38.599  30.456  31.352  1.00  0.00     0.074 A 
ATOM     14  C   UNL A   1      39.342  29.221  29.346  1.00  0.00     0.049 A 
ATOM     15  N   UNL A   1      39.567  30.171  32.188  1.00  0.00    -0.248 NA
ATOM     16  C   UNL A   1      37.570  31.343  31.914  1.00  0.00     0.031 C 
ATOM     17  C   UNL A   1      39.291  28.739  27.965  1.00  0.00     0.029 A 
ATOM     18  N   UNL A   1      40.484  28.654  29.852  1.00  0.00    -0.354 N 
ATOM     19  C   UNL A   1      39.280  30.865  33.358  1.00  0.00     0.074 A 
ATOM     20  C   UNL A   1      38.059  31.603  33.119  1.00  0.00     0.031 C 
ATOM     21  C   UNL A   1      40.311  27.895  27.754  1.00  0.00     0.029 A 
ATOM     22  C   UNL A   1      41.123  27.822  28.964  1.00  0.00     0.049 A 
ATOM     23  H   UNL A   1      40.815  28.826  30.764  1.00  0.00     0.167 HD
ATOM     24  C   UNL A   1      39.966  30.875  34.527  1.00  0.00     0.037 A 
ATOM     25  C   UNL A   1      42.238  27.083  29.105  1.00  0.00     0.037 A 
ATOM     26  C   UNL A   1      41.161  30.110  34.777  1.00  0.00     0.049 A 
ATOM     27  C   UNL A   1      42.968  27.103  30.416  1.00  0.00     0.074 A 
ATOM     28  C   UNL A   1      41.900  30.020  35.943  1.00  0.00     0.029 A 
ATOM     29  N   UNL A   1      41.789  29.298  33.843  1.00  0.00    -0.354 N 
ATOM     30  N   UNL A   1      42.664  27.735  31.523  1.00  0.00    -0.248 NA
ATOM     31  C   UNL A   1      44.200  26.308  30.496  1.00  0.00     0.031 C 
ATOM     32  C   UNL A   1      42.998  29.186  35.704  1.00  0.00     0.029 A 
ATOM     33  C   UNL A   1      42.918  28.719  34.402  1.00  0.00     0.049 A 
ATOM     34  H   UNL A   1      41.479  29.155  32.919  1.00  0.00     0.167 HD
ATOM     35  C   UNL A   1      43.653  27.400  32.435  1.00  0.00     0.074 A 
ATOM     36  C   UNL A   1      44.557  26.492  31.758  1.00  0.00     0.031 C 
ATOM     37  C   UNL A   1      43.802  27.812  33.718  1.00  0.00     0.037 A 
BRANCH  24  38
ATOM     38  C   UNL A   1      39.454  31.758  35.628  1.00  0.00     0.064 A 
ATOM     39  C   UNL A   1      38.498  31.309  36.552  1.00  0.00     0.173 A 
ATOM     40  C   UNL A   1      39.963  33.056  35.790  1.00  0.00     0.173 A 
ATOM     41  F   UNL A   1      37.971  30.081  36.435  1.00  0.00    -0.203 F 
ATOM     42  C   UNL A   1      38.054  32.136  37.581  1.00  0.00     0.198 A 
ATOM     43  C   UNL A   1      39.536  33.871  36.835  1.00  0.00     0.198 A 
ATOM     44  F   UNL A   1      40.884  33.532  34.938  1.00  0.00    -0.203 F 
ATOM     45  F   UNL A   1      37.109  31.701  38.427  1.00  0.00    -0.200 F 
ATOM     46  C   UNL A   1      38.577  33.413  37.727  1.00  0.00     0.200 A 
ATOM     47  F   UNL A   1      40.053  35.099  36.981  1.00  0.00    -0.200 F 
ATOM     48  F   UNL A   1      38.154  34.203  38.722  1.00  0.00    -0.200 F 
ENDBRANCH  24  38
BRANCH  25  49
ATOM     49  C   UNL A   1      42.716  26.247  27.975  1.00  0.00     0.064 A 
ATOM     50  C   UNL A   1      43.584  26.770  27.008  1.00  0.00     0.173 A 
ATOM     51  C   UNL A   1      42.329  24.905  27.847  1.00  0.00     0.173 A 
ATOM     52  F   UNL A   1      43.968  28.054  27.077  1.00  0.00    -0.203 F 
ATOM     53  C   UNL A   1      44.035  25.988  25.947  1.00  0.00     0.198 A 
ATOM     54  C   UNL A   1      42.803  24.115  26.803  1.00  0.00     0.198 A 
ATOM     55  F   UNL A   1      41.504  24.355  28.751  1.00  0.00    -0.203 F 
ATOM     56  F   UNL A   1      44.834  26.524  25.014  1.00  0.00    -0.200 F 
ATOM     57  C   UNL A   1      43.650  24.659  25.851  1.00  0.00     0.200 A 
ATOM     58  F   UNL A   1      42.442  22.827  26.723  1.00  0.00    -0.200 F 
ATOM     59  F   UNL A   1      44.091  23.904  24.834  1.00  0.00    -0.200 F 
ENDBRANCH  25  49
BRANCH  37  60
ATOM     60  C   UNL A   1      44.968  27.256  34.481  1.00  0.00     0.064 A 
ATOM     61  C   UNL A   1      46.207  27.913  34.513  1.00  0.00     0.173 A 
ATOM     62  C   UNL A   1      44.838  26.058  35.199  1.00  0.00     0.173 A 
ATOM     63  F   UNL A   1      46.384  29.052  33.828  1.00  0.00    -0.203 F 
ATOM     64  C   UNL A   1      47.282  27.376  35.215  1.00  0.00     0.198 A 
ATOM     65  C   UNL A   1      45.907  25.538  35.922  1.00  0.00     0.198 A 
ATOM     66  F   UNL A   1      43.672  25.395  35.204  1.00  0.00    -0.203 F 
ATOM     67  F   UNL A   1      48.470  27.993  35.190  1.00  0.00    -0.200 F 
ATOM     68  C   UNL A   1      47.131  26.192  35.922  1.00  0.00     0.200 A 
ATOM     69  F   UNL A   1      45.756  24.399  36.613  1.00  0.00    -0.200 F 
ATOM     70  F   UNL A   1      48.167  25.676  36.596  1.00  0.00    -0.200 F 
ENDBRANCH  37  60
ENDBRANCH  11  12
ENDBRANCH   4   6
ENDBRANCH   1   2
BRANCH   1  71
ATOM     71  C   UNL A   1      32.044  28.154  26.678  1.00  0.00     0.042 C 
BRANCH  71  72
ATOM     72  C   UNL A   1      31.839  26.881  25.871  1.00  0.00     0.118 C 
BRANCH  72  73
ATOM     73  N   UNL A   1      31.259  25.805  26.657  1.00  0.00    -0.352 N 
ATOM     74  C   UNL A   1      31.357  24.446  26.509  1.00  0.00     0.252 C 
ATOM     75  H   UNL A   1      30.706  26.098  27.417  1.00  0.00     0.163 HD
ATOM     76  O   UNL A   1      30.699  23.706  27.235  1.00  0.00    -0.269 OA
BRANCH  74  77
ATOM     77  C   UNL A   1      32.195  23.853  25.449  1.00  0.00     0.059 A 
ATOM     78  C   UNL A   1      33.508  23.493  25.808  1.00  0.00     0.024 A 
ATOM     79  C   UNL A   1      31.780  23.737  24.119  1.00  0.00     0.053 A 
ATOM     80  C   UNL A   1      34.399  22.972  24.858  1.00  0.00    -0.017 A 
ATOM     81  C   UNL A   1      32.631  23.147  23.184  1.00  0.00     0.022 A 
ATOM     82  Cl  UNL A   1      30.281  24.368  23.533  1.00  0.00    -0.083 Cl
ATOM     83  C   UNL A   1      33.923  22.761  23.554  1.00  0.00     0.010 A 
BRANCH  80  84
ATOM     84  C   UNL A   1      35.814  22.731  25.183  1.00  0.00    -0.017 A 
ATOM     85  C   UNL A   1      36.413  21.505  24.837  1.00  0.00     0.009 A 
ATOM     86  C   UNL A   1      36.608  23.699  25.815  1.00  0.00     0.029 A 
ATOM     87  C   UNL A   1      37.755  21.245  25.117  1.00  0.00     0.002 A 
ATOM     88  C   UNL A   1      37.952  23.436  26.095  1.00  0.00     0.041 A 
ATOM     89  C   UNL A   1      38.528  22.214  25.751  1.00  0.00     0.020 A 
ATOM     90  Cl  UNL A   1      38.911  24.632  26.878  1.00  0.00    -0.084 Cl
ENDBRANCH  80  84
ENDBRANCH  74  77
ENDBRANCH  72  73
ENDBRANCH  71  72
ENDBRANCH   1  71
TORSDOF 11
ENDMDL
