MODEL 1
REMARK VINA RESULT:     -15.1      0.000      0.000
REMARK SMILES O=C(NCCCNC(=O)c1ccccc1C(=O)Nc1ccc(N2C(=O)[C@H]3[C@@H]4CC[C@@H](C4)[C@@H]3C2=O)cc1)c1ccc(-c2c3nc(c(-c4c(F)c(F)c(F)c(F)c4F)c4ccc([nH]4)c(-c4c(F)c(F)c(F)c(F)c4F)c4nc(c(-c5c(F)c(F)c(F)c(F)c5F)c5ccc2[nH]5)C=C4)C=C3)cc1
REMARK SMILES IDX 5 1 4 2 3 3 1 4 2 5 37 7 38 8 99 9 39 10 98 11 40 12 41 13
REMARK SMILES IDX 42 14 92 15 43 16 97 17 91 18 93 19 44 20 96 21 90 22 89 23
REMARK SMILES IDX 45 25 77 26 57 27 76 28 58 29 61 30 75 31 94 32 59 33 60 34
REMARK SMILES IDX 74 36 95 37 62 38 46 39 47 40 55 41 48 42 49 43 53 44 56 45
REMARK SMILES IDX 50 46 51 47 54 48 52 49 78 50 79 51 87 52 80 53 81 54 85 55
REMARK SMILES IDX 88 56 82 57 83 58 86 59 84 60 63 61 64 62 72 63 65 64 66 65
REMARK SMILES IDX 70 66 73 67 67 68 68 69 71 70 69 71 6 72 7 73 8 74 9 76
REMARK SMILES IDX 10 77 11 78 15 79 12 80 14 81 13 82 16 83 17 84 18 85 19 87
REMARK SMILES IDX 20 88 36 89 21 90 35 91 22 92 23 93 24 94 33 95 25 96 26 97
REMARK SMILES IDX 32 98 34 99 27 100 30 101 28 102 31 103 29 104
REMARK H PARENT 3 6 93 24 61 35 7 75 18 86
REMARK Flexibility Score: inf
ROOT
ATOM      1  C   UNL A   1      38.093  20.134  25.377  1.00  0.00     0.042 C 
ENDROOT
BRANCH   1   2
ATOM      2  C   UNL A   1      39.511  20.353  25.881  1.00  0.00     0.118 C 
BRANCH   2   3
ATOM      3  N   UNL A   1      40.354  19.159  25.859  1.00  0.00    -0.352 N 
ATOM      4  O   UNL A   1      42.285  17.979  26.037  1.00  0.00    -0.269 OA
ATOM      5  C   UNL A   1      41.705  19.054  26.114  1.00  0.00     0.251 C 
ATOM      6  H   UNL A   1      39.897  18.318  25.631  1.00  0.00     0.163 HD
BRANCH   5   7
ATOM      7  C   UNL A   1      42.455  20.291  26.409  1.00  0.00     0.039 A 
ATOM      8  C   UNL A   1      42.396  20.842  27.687  1.00  0.00     0.014 A 
ATOM      9  C   UNL A   1      43.059  20.984  25.358  1.00  0.00     0.014 A 
ATOM     10  C   UNL A   1      42.707  22.184  27.850  1.00  0.00     0.010 A 
ATOM     11  C   UNL A   1      43.506  22.290  25.567  1.00  0.00     0.010 A 
ATOM     12  C   UNL A   1      43.273  22.925  26.796  1.00  0.00    -0.014 A 
BRANCH  12  13
ATOM     13  C   UNL A   1      43.640  24.346  27.031  1.00  0.00     0.031 A 
ATOM     14  C   UNL A   1      42.661  25.333  27.609  1.00  0.00     0.074 A 
ATOM     15  C   UNL A   1      44.902  24.728  26.753  1.00  0.00     0.049 A 
ATOM     16  N   UNL A   1      42.837  26.602  27.888  1.00  0.00    -0.248 NA
ATOM     17  C   UNL A   1      41.305  24.843  27.902  1.00  0.00     0.031 C 
ATOM     18  C   UNL A   1      45.937  23.858  26.189  1.00  0.00     0.029 A 
ATOM     19  N   UNL A   1      45.538  25.927  26.931  1.00  0.00    -0.354 N 
ATOM     20  C   UNL A   1      41.614  27.068  28.357  1.00  0.00     0.074 A 
ATOM     21  C   UNL A   1      40.694  25.951  28.303  1.00  0.00     0.031 C 
ATOM     22  C   UNL A   1      47.094  24.527  26.136  1.00  0.00     0.029 A 
ATOM     23  C   UNL A   1      46.863  25.897  26.570  1.00  0.00     0.049 A 
ATOM     24  H   UNL A   1      45.092  26.731  27.283  1.00  0.00     0.167 HD
ATOM     25  C   UNL A   1      41.293  28.312  28.791  1.00  0.00     0.037 A 
ATOM     26  C   UNL A   1      47.789  26.872  26.564  1.00  0.00     0.037 A 
ATOM     27  C   UNL A   1      42.226  29.411  28.858  1.00  0.00     0.049 A 
ATOM     28  C   UNL A   1      47.393  28.246  27.016  1.00  0.00     0.074 A 
ATOM     29  C   UNL A   1      42.014  30.697  29.324  1.00  0.00     0.029 A 
ATOM     30  N   UNL A   1      43.548  29.356  28.434  1.00  0.00    -0.354 N 
ATOM     31  N   UNL A   1      46.244  28.664  27.486  1.00  0.00    -0.248 NA
ATOM     32  C   UNL A   1      48.425  29.285  26.931  1.00  0.00     0.031 C 
ATOM     33  C   UNL A   1      43.184  31.437  29.122  1.00  0.00     0.029 A 
ATOM     34  C   UNL A   1      44.152  30.595  28.597  1.00  0.00     0.049 A 
ATOM     35  H   UNL A   1      43.992  28.555  28.073  1.00  0.00     0.167 HD
ATOM     36  C   UNL A   1      46.420  30.008  27.778  1.00  0.00     0.074 A 
ATOM     37  C   UNL A   1      47.796  30.327  27.452  1.00  0.00     0.031 C 
ATOM     38  C   UNL A   1      45.523  30.898  28.270  1.00  0.00     0.037 A 
BRANCH  25  39
ATOM     39  C   UNL A   1      39.866  28.570  29.199  1.00  0.00     0.064 A 
ATOM     40  C   UNL A   1      39.414  28.360  30.511  1.00  0.00     0.173 A 
ATOM     41  C   UNL A   1      38.946  29.078  28.268  1.00  0.00     0.173 A 
ATOM     42  F   UNL A   1      40.246  27.871  31.443  1.00  0.00    -0.203 F 
ATOM     43  C   UNL A   1      38.090  28.614  30.864  1.00  0.00     0.198 A 
ATOM     44  C   UNL A   1      37.633  29.363  28.633  1.00  0.00     0.198 A 
ATOM     45  F   UNL A   1      39.324  29.311  27.002  1.00  0.00    -0.203 F 
ATOM     46  F   UNL A   1      37.668  28.353  32.109  1.00  0.00    -0.200 F 
ATOM     47  C   UNL A   1      37.202  29.121  29.927  1.00  0.00     0.200 A 
ATOM     48  F   UNL A   1      36.782  29.872  27.729  1.00  0.00    -0.200 F 
ATOM     49  F   UNL A   1      35.931  29.371  30.271  1.00  0.00    -0.200 F 
ENDBRANCH  25  39
BRANCH  26  50
ATOM     50  C   UNL A   1      49.171  26.574  26.108  1.00  0.00     0.064 A 
ATOM     51  C   UNL A   1      49.567  26.840  24.791  1.00  0.00     0.173 A 
ATOM     52  C   UNL A   1      50.127  26.035  26.982  1.00  0.00     0.173 A 
ATOM     53  F   UNL A   1      48.684  27.343  23.915  1.00  0.00    -0.203 F 
ATOM     54  C   UNL A   1      50.861  26.559  24.360  1.00  0.00     0.198 A 
ATOM     55  C   UNL A   1      51.430  25.789  26.559  1.00  0.00     0.198 A 
ATOM     56  F   UNL A   1      49.802  25.772  28.256  1.00  0.00    -0.203 F 
ATOM     57  F   UNL A   1      51.200  26.779  23.082  1.00  0.00    -0.200 F 
ATOM     58  C   UNL A   1      51.794  26.040  25.246  1.00  0.00     0.200 A 
ATOM     59  F   UNL A   1      52.334  25.311  27.425  1.00  0.00    -0.200 F 
ATOM     60  F   UNL A   1      53.040  25.780  24.832  1.00  0.00    -0.200 F 
ENDBRANCH  26  50
BRANCH  38  61
ATOM     61  C   UNL A   1      46.021  32.291  28.530  1.00  0.00     0.064 A 
ATOM     62  C   UNL A   1      46.594  32.658  29.757  1.00  0.00     0.173 A 
ATOM     63  C   UNL A   1      45.928  33.272  27.530  1.00  0.00     0.173 A 
ATOM     64  F   UNL A   1      46.689  31.764  30.752  1.00  0.00    -0.203 F 
ATOM     65  C   UNL A   1      47.017  33.964  29.987  1.00  0.00     0.198 A 
ATOM     66  C   UNL A   1      46.387  34.568  27.751  1.00  0.00     0.198 A 
ATOM     67  F   UNL A   1      45.394  32.975  26.337  1.00  0.00    -0.203 F 
ATOM     68  F   UNL A   1      47.496  34.309  31.190  1.00  0.00    -0.200 F 
ATOM     69  C   UNL A   1      46.920  34.916  28.983  1.00  0.00     0.200 A 
ATOM     70  F   UNL A   1      46.306  35.481  26.773  1.00  0.00    -0.200 F 
ATOM     71  F   UNL A   1      47.328  36.172  29.206  1.00  0.00    -0.200 F 
ENDBRANCH  38  61
ENDBRANCH  12  13
ENDBRANCH   5   7
ENDBRANCH   2   3
ENDBRANCH   1   2
BRANCH   1  72
ATOM     72  C   UNL A   1      37.414  21.420  24.960  1.00  0.00     0.118 C 
BRANCH  72  73
ATOM     73  N   UNL A   1      36.664  22.022  26.047  1.00  0.00    -0.352 N 
ATOM     74  C   UNL A   1      35.313  22.141  26.201  1.00  0.00     0.252 C 
ATOM     75  H   UNL A   1      37.207  22.398  26.777  1.00  0.00     0.163 HD
ATOM     76  O   UNL A   1      34.862  22.778  27.154  1.00  0.00    -0.269 OA
BRANCH  74  77
ATOM     77  C   UNL A   1      34.385  21.651  25.171  1.00  0.00     0.052 A 
ATOM     78  C   UNL A   1      33.563  20.609  25.664  1.00  0.00     0.014 A 
ATOM     79  C   UNL A   1      34.192  22.151  23.874  1.00  0.00     0.052 A 
ATOM     80  C   UNL A   1      32.478  20.137  24.937  1.00  0.00     0.001 A 
ATOM     81  C   UNL A   1      33.057  21.675  23.174  1.00  0.00     0.014 A 
ATOM     82  C   UNL A   1      32.204  20.698  23.701  1.00  0.00     0.001 A 
BRANCH  79  83
ATOM     83  C   UNL A   1      34.936  23.234  23.148  1.00  0.00     0.256 C 
ATOM     84  O   UNL A   1      36.084  22.967  22.770  1.00  0.00    -0.269 OA
ATOM     85  N   UNL A   1      34.453  24.462  22.752  1.00  0.00    -0.322 N 
ATOM     86  H   UNL A   1      35.080  24.976  22.194  1.00  0.00     0.170 HD
BRANCH  85  87
ATOM     87  C   UNL A   1      33.246  25.110  22.993  1.00  0.00     0.041 A 
ATOM     88  C   UNL A   1      33.001  25.523  24.308  1.00  0.00     0.028 A 
ATOM     89  C   UNL A   1      32.346  25.418  21.984  1.00  0.00     0.028 A 
ATOM     90  C   UNL A   1      32.008  26.470  24.560  1.00  0.00     0.029 A 
ATOM     91  C   UNL A   1      31.269  26.258  22.267  1.00  0.00     0.029 A 
ATOM     92  C   UNL A   1      31.162  26.871  23.527  1.00  0.00     0.052 A 
BRANCH  92  93
ATOM     93  N   UNL A   1      30.326  27.993  23.666  1.00  0.00    -0.250 N 
ATOM     94  C   UNL A   1      28.950  27.954  23.409  1.00  0.00     0.237 C 
ATOM     95  C   UNL A   1      30.815  29.314  23.773  1.00  0.00     0.237 C 
ATOM     96  O   UNL A   1      28.170  27.026  23.443  1.00  0.00    -0.274 OA
ATOM     97  C   UNL A   1      28.681  29.324  22.897  1.00  0.00     0.095 C 
ATOM     98  C   UNL A   1      29.560  30.136  23.834  1.00  0.00     0.095 C 
ATOM     99  O   UNL A   1      31.954  29.728  23.906  1.00  0.00    -0.274 OA
ATOM    100  C   UNL A   1      27.434  30.196  22.768  1.00  0.00     0.002 C 
ATOM    101  C   UNL A   1      29.111  31.549  23.472  1.00  0.00     0.002 C 
ATOM    102  C   UNL A   1      27.713  31.049  21.512  1.00  0.00     0.005 C 
ATOM    103  C   UNL A   1      27.616  31.318  23.815  1.00  0.00     0.009 C 
ATOM    104  C   UNL A   1      28.985  31.835  21.947  1.00  0.00     0.005 C 
ENDBRANCH  92  93
ENDBRANCH  85  87
ENDBRANCH  79  83
ENDBRANCH  74  77
ENDBRANCH  72  73
ENDBRANCH   1  72
TORSDOF 13
ENDMDL
MODEL 2
REMARK VINA RESULT:     -15.1      0.039      1.510
REMARK SMILES O=C(NCCCNC(=O)c1ccccc1C(=O)Nc1ccc(N2C(=O)[C@H]3[C@@H]4CC[C@@H](C4)[C@@H]3C2=O)cc1)c1ccc(-c2c3nc(c(-c4c(F)c(F)c(F)c(F)c4F)c4ccc([nH]4)c(-c4c(F)c(F)c(F)c(F)c4F)c4nc(c(-c5c(F)c(F)c(F)c(F)c5F)c5ccc2[nH]5)C=C4)C=C3)cc1
REMARK SMILES IDX 5 1 4 2 3 3 1 4 2 5 37 7 38 8 99 9 39 10 98 11 40 12 41 13
REMARK SMILES IDX 42 14 92 15 43 16 97 17 91 18 93 19 44 20 96 21 90 22 89 23
REMARK SMILES IDX 45 25 77 26 57 27 76 28 58 29 61 30 75 31 94 32 59 33 60 34
REMARK SMILES IDX 74 36 95 37 62 38 46 39 47 40 55 41 48 42 49 43 53 44 56 45
REMARK SMILES IDX 50 46 51 47 54 48 52 49 78 50 79 51 87 52 80 53 81 54 85 55
REMARK SMILES IDX 88 56 82 57 83 58 86 59 84 60 63 61 64 62 72 63 65 64 66 65
REMARK SMILES IDX 70 66 73 67 67 68 68 69 71 70 69 71 6 72 7 73 8 74 9 76
REMARK SMILES IDX 10 77 11 78 15 79 12 80 14 81 13 82 16 83 17 84 18 85 19 87
REMARK SMILES IDX 20 88 36 89 21 90 35 91 22 92 23 93 24 94 33 95 25 96 26 97
REMARK SMILES IDX 32 98 34 99 27 100 30 101 28 102 31 103 29 104
REMARK H PARENT 3 6 93 24 61 35 7 75 18 86
REMARK Flexibility Score: inf
ROOT
ATOM      1  C   UNL A   1      38.120  20.145  25.378  1.00  0.00     0.042 C 
ENDROOT
BRANCH   1   2
ATOM      2  C   UNL A   1      39.529  20.360  25.910  1.00  0.00     0.118 C 
BRANCH   2   3
ATOM      3  N   UNL A   1      40.376  19.169  25.878  1.00  0.00    -0.352 N 
ATOM      4  O   UNL A   1      42.314  17.996  26.036  1.00  0.00    -0.269 OA
ATOM      5  C   UNL A   1      41.731  19.069  26.118  1.00  0.00     0.251 C 
ATOM      6  H   UNL A   1      39.920  18.326  25.656  1.00  0.00     0.163 HD
BRANCH   5   7
ATOM      7  C   UNL A   1      42.479  20.309  26.405  1.00  0.00     0.039 A 
ATOM      8  C   UNL A   1      42.443  20.853  27.687  1.00  0.00     0.014 A 
ATOM      9  C   UNL A   1      43.056  21.011  25.346  1.00  0.00     0.014 A 
ATOM     10  C   UNL A   1      42.749  22.195  27.851  1.00  0.00     0.010 A 
ATOM     11  C   UNL A   1      43.499  22.320  25.552  1.00  0.00     0.010 A 
ATOM     12  C   UNL A   1      43.288  22.946  26.790  1.00  0.00    -0.014 A 
BRANCH  12  13
ATOM     13  C   UNL A   1      43.651  24.368  27.026  1.00  0.00     0.031 A 
ATOM     14  C   UNL A   1      42.669  25.352  27.602  1.00  0.00     0.074 A 
ATOM     15  C   UNL A   1      44.912  24.754  26.748  1.00  0.00     0.049 A 
ATOM     16  N   UNL A   1      42.841  26.622  27.882  1.00  0.00    -0.248 NA
ATOM     17  C   UNL A   1      41.315  24.859  27.895  1.00  0.00     0.031 C 
ATOM     18  C   UNL A   1      45.950  23.886  26.185  1.00  0.00     0.029 A 
ATOM     19  N   UNL A   1      45.545  25.954  26.927  1.00  0.00    -0.354 N 
ATOM     20  C   UNL A   1      41.617  27.084  28.350  1.00  0.00     0.074 A 
ATOM     21  C   UNL A   1      40.700  25.965  28.295  1.00  0.00     0.031 C 
ATOM     22  C   UNL A   1      47.105  24.559  26.133  1.00  0.00     0.029 A 
ATOM     23  C   UNL A   1      46.870  25.928  26.567  1.00  0.00     0.049 A 
ATOM     24  H   UNL A   1      45.097  26.757  27.278  1.00  0.00     0.167 HD
ATOM     25  C   UNL A   1      41.292  28.327  28.785  1.00  0.00     0.037 A 
ATOM     26  C   UNL A   1      47.793  26.906  26.561  1.00  0.00     0.037 A 
ATOM     27  C   UNL A   1      42.222  29.429  28.852  1.00  0.00     0.049 A 
ATOM     28  C   UNL A   1      47.393  28.279  27.014  1.00  0.00     0.074 A 
ATOM     29  C   UNL A   1      42.007  30.715  29.318  1.00  0.00     0.029 A 
ATOM     30  N   UNL A   1      43.544  29.378  28.429  1.00  0.00    -0.354 N 
ATOM     31  N   UNL A   1      46.243  28.693  27.483  1.00  0.00    -0.248 NA
ATOM     32  C   UNL A   1      48.423  29.320  26.929  1.00  0.00     0.031 C 
ATOM     33  C   UNL A   1      43.175  31.458  29.116  1.00  0.00     0.029 A 
ATOM     34  C   UNL A   1      44.144  30.618  28.593  1.00  0.00     0.049 A 
ATOM     35  H   UNL A   1      43.990  28.578  28.068  1.00  0.00     0.167 HD
ATOM     36  C   UNL A   1      46.415  30.038  27.774  1.00  0.00     0.074 A 
ATOM     37  C   UNL A   1      47.790  30.361  27.449  1.00  0.00     0.031 C 
ATOM     38  C   UNL A   1      45.515  30.925  28.267  1.00  0.00     0.037 A 
BRANCH  25  39
ATOM     39  C   UNL A   1      39.864  28.582  29.191  1.00  0.00     0.064 A 
ATOM     40  C   UNL A   1      39.413  28.374  30.504  1.00  0.00     0.173 A 
ATOM     41  C   UNL A   1      38.942  29.083  28.258  1.00  0.00     0.173 A 
ATOM     42  F   UNL A   1      40.246  27.892  31.438  1.00  0.00    -0.203 F 
ATOM     43  C   UNL A   1      38.088  28.625  30.856  1.00  0.00     0.198 A 
ATOM     44  C   UNL A   1      37.628  29.364  28.622  1.00  0.00     0.198 A 
ATOM     45  F   UNL A   1      39.319  29.312  26.991  1.00  0.00    -0.203 F 
ATOM     46  F   UNL A   1      37.667  28.366  32.103  1.00  0.00    -0.200 F 
ATOM     47  C   UNL A   1      37.198  29.125  29.918  1.00  0.00     0.200 A 
ATOM     48  F   UNL A   1      36.775  29.866  27.717  1.00  0.00    -0.200 F 
ATOM     49  F   UNL A   1      35.926  29.371  30.261  1.00  0.00    -0.200 F 
ENDBRANCH  25  39
BRANCH  26  50
ATOM     50  C   UNL A   1      49.176  26.611  26.106  1.00  0.00     0.064 A 
ATOM     51  C   UNL A   1      50.114  26.045  26.979  1.00  0.00     0.173 A 
ATOM     52  C   UNL A   1      49.584  26.873  24.789  1.00  0.00     0.173 A 
ATOM     53  F   UNL A   1      49.776  25.789  28.251  1.00  0.00    -0.203 F 
ATOM     54  C   UNL A   1      51.413  25.770  26.557  1.00  0.00     0.198 A 
ATOM     55  C   UNL A   1      50.871  26.564  24.359  1.00  0.00     0.198 A 
ATOM     56  F   UNL A   1      48.720  27.405  23.912  1.00  0.00    -0.203 F 
ATOM     57  F   UNL A   1      52.304  25.272  27.425  1.00  0.00    -0.200 F 
ATOM     58  C   UNL A   1      51.788  26.023  25.246  1.00  0.00     0.200 A 
ATOM     59  F   UNL A   1      51.220  26.787  23.085  1.00  0.00    -0.200 F 
ATOM     60  F   UNL A   1      53.034  25.749  24.839  1.00  0.00    -0.200 F 
ENDBRANCH  26  50
BRANCH  38  61
ATOM     61  C   UNL A   1      46.010  32.320  28.527  1.00  0.00     0.064 A 
ATOM     62  C   UNL A   1      45.927  33.330  27.556  1.00  0.00     0.173 A 
ATOM     63  C   UNL A   1      46.571  32.649  29.770  1.00  0.00     0.173 A 
ATOM     64  F   UNL A   1      45.417  33.062  26.345  1.00  0.00    -0.203 F 
ATOM     65  C   UNL A   1      46.425  34.605  27.807  1.00  0.00     0.198 A 
ATOM     66  C   UNL A   1      47.032  33.936  30.031  1.00  0.00     0.198 A 
ATOM     67  F   UNL A   1      46.670  31.724  30.736  1.00  0.00    -0.203 F 
ATOM     68  F   UNL A   1      46.399  35.535  26.842  1.00  0.00    -0.200 F 
ATOM     69  C   UNL A   1      46.970  34.910  29.046  1.00  0.00     0.200 A 
ATOM     70  F   UNL A   1      47.544  34.231  31.234  1.00  0.00    -0.200 F 
ATOM     71  F   UNL A   1      47.447  36.139  29.286  1.00  0.00    -0.200 F 
ENDBRANCH  38  61
ENDBRANCH  12  13
ENDBRANCH   5   7
ENDBRANCH   2   3
ENDBRANCH   1   2
BRANCH   1  72
ATOM     72  C   UNL A   1      37.448  21.436  24.962  1.00  0.00     0.118 C 
BRANCH  72  73
ATOM     73  N   UNL A   1      36.697  22.038  26.048  1.00  0.00    -0.352 N 
ATOM     74  C   UNL A   1      35.346  22.153  26.203  1.00  0.00     0.252 C 
ATOM     75  H   UNL A   1      37.240  22.417  26.777  1.00  0.00     0.163 HD
ATOM     76  O   UNL A   1      34.894  22.791  27.154  1.00  0.00    -0.269 OA
BRANCH  74  77
ATOM     77  C   UNL A   1      34.419  21.657  25.174  1.00  0.00     0.052 A 
ATOM     78  C   UNL A   1      33.600  20.614  25.670  1.00  0.00     0.014 A 
ATOM     79  C   UNL A   1      34.224  22.154  23.876  1.00  0.00     0.052 A 
ATOM     80  C   UNL A   1      32.517  20.137  24.945  1.00  0.00     0.001 A 
ATOM     81  C   UNL A   1      33.090  21.672  23.179  1.00  0.00     0.014 A 
ATOM     82  C   UNL A   1      32.240  20.694  23.708  1.00  0.00     0.001 A 
BRANCH  79  83
ATOM     83  C   UNL A   1      34.963  23.238  23.147  1.00  0.00     0.256 C 
ATOM     84  O   UNL A   1      36.112  22.974  22.768  1.00  0.00    -0.269 OA
ATOM     85  N   UNL A   1      34.476  24.464  22.750  1.00  0.00    -0.322 N 
ATOM     86  H   UNL A   1      35.100  24.979  22.191  1.00  0.00     0.170 HD
BRANCH  85  87
ATOM     87  C   UNL A   1      33.267  25.109  22.991  1.00  0.00     0.041 A 
ATOM     88  C   UNL A   1      33.020  25.519  24.307  1.00  0.00     0.028 A 
ATOM     89  C   UNL A   1      32.367  25.416  21.982  1.00  0.00     0.028 A 
ATOM     90  C   UNL A   1      32.025  26.463  24.560  1.00  0.00     0.029 A 
ATOM     91  C   UNL A   1      31.288  26.254  22.266  1.00  0.00     0.029 A 
ATOM     92  C   UNL A   1      31.179  26.864  23.527  1.00  0.00     0.052 A 
BRANCH  92  93
ATOM     93  N   UNL A   1      30.340  27.983  23.667  1.00  0.00    -0.250 N 
ATOM     94  C   UNL A   1      28.963  27.940  23.415  1.00  0.00     0.237 C 
ATOM     95  C   UNL A   1      30.825  29.306  23.771  1.00  0.00     0.237 C 
ATOM     96  O   UNL A   1      28.186  27.010  23.453  1.00  0.00    -0.274 OA
ATOM     97  C   UNL A   1      28.688  29.308  22.902  1.00  0.00     0.095 C 
ATOM     98  C   UNL A   1      29.568  30.124  23.835  1.00  0.00     0.095 C 
ATOM     99  O   UNL A   1      31.963  29.723  23.899  1.00  0.00    -0.274 OA
ATOM    100  C   UNL A   1      27.438  30.177  22.776  1.00  0.00     0.002 C 
ATOM    101  C   UNL A   1      29.114  31.536  23.472  1.00  0.00     0.002 C 
ATOM    102  C   UNL A   1      27.710  31.029  21.518  1.00  0.00     0.005 C 
ATOM    103  C   UNL A   1      27.620  31.301  23.821  1.00  0.00     0.009 C 
ATOM    104  C   UNL A   1      28.982  31.819  21.947  1.00  0.00     0.005 C 
ENDBRANCH  92  93
ENDBRANCH  85  87
ENDBRANCH  79  83
ENDBRANCH  74  77
ENDBRANCH  72  73
ENDBRANCH   1  72
TORSDOF 13
ENDMDL
MODEL 3
REMARK VINA RESULT:     -15.0      5.327     11.345
REMARK SMILES O=C(NCCCNC(=O)c1ccccc1C(=O)Nc1ccc(N2C(=O)[C@H]3[C@@H]4CC[C@@H](C4)[C@@H]3C2=O)cc1)c1ccc(-c2c3nc(c(-c4c(F)c(F)c(F)c(F)c4F)c4ccc([nH]4)c(-c4c(F)c(F)c(F)c(F)c4F)c4nc(c(-c5c(F)c(F)c(F)c(F)c5F)c5ccc2[nH]5)C=C4)C=C3)cc1
REMARK SMILES IDX 5 1 4 2 3 3 1 4 2 5 37 7 38 8 99 9 39 10 98 11 40 12 41 13
REMARK SMILES IDX 42 14 92 15 43 16 97 17 91 18 93 19 44 20 96 21 90 22 89 23
REMARK SMILES IDX 45 25 77 26 57 27 76 28 58 29 61 30 75 31 94 32 59 33 60 34
REMARK SMILES IDX 74 36 95 37 62 38 46 39 47 40 55 41 48 42 49 43 53 44 56 45
REMARK SMILES IDX 50 46 51 47 54 48 52 49 78 50 79 51 87 52 80 53 81 54 85 55
REMARK SMILES IDX 88 56 82 57 83 58 86 59 84 60 63 61 64 62 72 63 65 64 66 65
REMARK SMILES IDX 70 66 73 67 67 68 68 69 71 70 69 71 6 72 7 73 8 74 9 76
REMARK SMILES IDX 10 77 11 78 15 79 12 80 14 81 13 82 16 83 17 84 18 85 19 87
REMARK SMILES IDX 20 88 36 89 21 90 35 91 22 92 23 93 24 94 33 95 25 96 26 97
REMARK SMILES IDX 32 98 34 99 27 100 30 101 28 102 31 103 29 104
REMARK H PARENT 3 6 93 24 61 35 7 75 18 86
REMARK Flexibility Score: inf
ROOT
ATOM      1  C   UNL A   1      33.623  33.160  28.333  1.00  0.00     0.042 C 
ENDROOT
BRANCH   1   2
ATOM      2  C   UNL A   1      34.596  32.213  27.647  1.00  0.00     0.118 C 
BRANCH   2   3
ATOM      3  N   UNL A   1      34.107  30.844  27.501  1.00  0.00    -0.352 N 
ATOM      4  O   UNL A   1      34.235  28.578  27.559  1.00  0.00    -0.269 OA
ATOM      5  C   UNL A   1      34.773  29.661  27.747  1.00  0.00     0.251 C 
ATOM      6  H   UNL A   1      33.180  30.753  27.184  1.00  0.00     0.163 HD
BRANCH   5   7
ATOM      7  C   UNL A   1      36.184  29.734  28.174  1.00  0.00     0.039 A 
ATOM      8  C   UNL A   1      37.166  30.079  27.250  1.00  0.00     0.014 A 
ATOM      9  C   UNL A   1      36.530  29.279  29.449  1.00  0.00     0.014 A 
ATOM     10  C   UNL A   1      38.481  29.725  27.508  1.00  0.00     0.010 A 
ATOM     11  C   UNL A   1      37.874  29.059  29.756  1.00  0.00     0.010 A 
ATOM     12  C   UNL A   1      38.856  29.217  28.766  1.00  0.00    -0.014 A 
BRANCH  12  13
ATOM     13  C   UNL A   1      40.286  28.900  29.017  1.00  0.00     0.031 A 
ATOM     14  C   UNL A   1      41.178  29.824  29.803  1.00  0.00     0.074 A 
ATOM     15  C   UNL A   1      40.766  27.728  28.555  1.00  0.00     0.049 A 
ATOM     16  N   UNL A   1      42.442  29.678  30.121  1.00  0.00    -0.248 NA
ATOM     17  C   UNL A   1      40.584  31.078  30.289  1.00  0.00     0.031 C 
ATOM     18  C   UNL A   1      39.994  26.754  27.779  1.00  0.00     0.029 A 
ATOM     19  N   UNL A   1      41.995  27.142  28.692  1.00  0.00    -0.354 N 
ATOM     20  C   UNL A   1      42.801  30.830  30.811  1.00  0.00     0.074 A 
ATOM     21  C   UNL A   1      41.628  31.678  30.848  1.00  0.00     0.031 C 
ATOM     22  C   UNL A   1      40.742  25.664  27.572  1.00  0.00     0.029 A 
ATOM     23  C   UNL A   1      42.072  25.899  28.115  1.00  0.00     0.049 A 
ATOM     24  H   UNL A   1      42.750  27.570  29.157  1.00  0.00     0.167 HD
ATOM     25  C   UNL A   1      44.000  31.145  31.362  1.00  0.00     0.037 A 
ATOM     26  C   UNL A   1      43.107  25.047  28.010  1.00  0.00     0.037 A 
ATOM     27  C   UNL A   1      45.155  30.282  31.335  1.00  0.00     0.049 A 
ATOM     28  C   UNL A   1      44.429  25.441  28.599  1.00  0.00     0.074 A 
ATOM     29  C   UNL A   1      46.402  30.487  31.901  1.00  0.00     0.029 A 
ATOM     30  N   UNL A   1      45.210  29.049  30.695  1.00  0.00    -0.354 N 
ATOM     31  N   UNL A   1      44.746  26.517  29.275  1.00  0.00    -0.248 NA
ATOM     32  C   UNL A   1      45.538  24.501  28.402  1.00  0.00     0.031 C 
ATOM     33  C   UNL A   1      47.228  29.414  31.549  1.00  0.00     0.029 A 
ATOM     34  C   UNL A   1      46.478  28.501  30.825  1.00  0.00     0.049 A 
ATOM     35  H   UNL A   1      44.458  28.627  30.221  1.00  0.00     0.167 HD
ATOM     36  C   UNL A   1      46.085  26.374  29.609  1.00  0.00     0.074 A 
ATOM     37  C   UNL A   1      46.510  25.094  29.077  1.00  0.00     0.031 C 
ATOM     38  C   UNL A   1      46.888  27.226  30.293  1.00  0.00     0.037 A 
BRANCH  25  39
ATOM     39  C   UNL A   1      44.142  32.495  32.015  1.00  0.00     0.064 A 
ATOM     40  C   UNL A   1      44.413  33.658  31.277  1.00  0.00     0.173 A 
ATOM     41  C   UNL A   1      43.960  32.633  33.401  1.00  0.00     0.173 A 
ATOM     42  F   UNL A   1      44.601  33.588  29.950  1.00  0.00    -0.203 F 
ATOM     43  C   UNL A   1      44.533  34.896  31.904  1.00  0.00     0.198 A 
ATOM     44  C   UNL A   1      44.046  33.878  34.020  1.00  0.00     0.198 A 
ATOM     45  F   UNL A   1      43.687  31.559  34.157  1.00  0.00    -0.203 F 
ATOM     46  F   UNL A   1      44.847  35.983  31.185  1.00  0.00    -0.200 F 
ATOM     47  C   UNL A   1      44.343  35.007  33.274  1.00  0.00     0.200 A 
ATOM     48  F   UNL A   1      43.842  33.984  35.341  1.00  0.00    -0.200 F 
ATOM     49  F   UNL A   1      44.451  36.200  33.874  1.00  0.00    -0.200 F 
ENDBRANCH  25  39
BRANCH  26  50
ATOM     50  C   UNL A   1      42.924  23.747  27.315  1.00  0.00     0.064 A 
ATOM     51  C   UNL A   1      43.288  23.593  25.971  1.00  0.00     0.173 A 
ATOM     52  C   UNL A   1      42.400  22.629  27.983  1.00  0.00     0.173 A 
ATOM     53  F   UNL A   1      43.781  24.635  25.286  1.00  0.00    -0.203 F 
ATOM     54  C   UNL A   1      43.115  22.376  25.316  1.00  0.00     0.198 A 
ATOM     55  C   UNL A   1      42.262  21.404  27.337  1.00  0.00     0.198 A 
ATOM     56  F   UNL A   1      42.047  22.722  29.273  1.00  0.00    -0.203 F 
ATOM     57  F   UNL A   1      43.427  22.268  24.017  1.00  0.00    -0.200 F 
ATOM     58  C   UNL A   1      42.609  21.280  26.001  1.00  0.00     0.200 A 
ATOM     59  F   UNL A   1      41.797  20.343  28.010  1.00  0.00    -0.200 F 
ATOM     60  F   UNL A   1      42.453  20.109  25.372  1.00  0.00    -0.200 F 
ENDBRANCH  26  50
BRANCH  38  61
ATOM     61  C   UNL A   1      48.299  26.773  30.544  1.00  0.00     0.064 A 
ATOM     62  C   UNL A   1      49.357  27.140  29.699  1.00  0.00     0.173 A 
ATOM     63  C   UNL A   1      48.593  25.963  31.651  1.00  0.00     0.173 A 
ATOM     64  F   UNL A   1      49.126  27.897  28.616  1.00  0.00    -0.203 F 
ATOM     65  C   UNL A   1      50.650  26.680  29.932  1.00  0.00     0.198 A 
ATOM     66  C   UNL A   1      49.894  25.537  31.902  1.00  0.00     0.198 A 
ATOM     67  F   UNL A   1      47.620  25.587  32.494  1.00  0.00    -0.203 F 
ATOM     68  F   UNL A   1      51.633  26.986  29.073  1.00  0.00    -0.200 F 
ATOM     69  C   UNL A   1      50.920  25.885  31.036  1.00  0.00     0.200 A 
ATOM     70  F   UNL A   1      50.154  24.782  32.979  1.00  0.00    -0.200 F 
ATOM     71  F   UNL A   1      52.165  25.444  31.259  1.00  0.00    -0.200 F 
ENDBRANCH  38  61
ENDBRANCH  12  13
ENDBRANCH   5   7
ENDBRANCH   2   3
ENDBRANCH   1   2
BRANCH   1  72
ATOM     72  C   UNL A   1      34.142  33.674  29.659  1.00  0.00     0.118 C 
BRANCH  72  73
ATOM     73  N   UNL A   1      34.408  32.600  30.597  1.00  0.00    -0.352 N 
ATOM     74  C   UNL A   1      35.571  32.282  31.238  1.00  0.00     0.252 C 
ATOM     75  H   UNL A   1      33.641  32.018  30.802  1.00  0.00     0.163 HD
ATOM     76  O   UNL A   1      35.628  31.264  31.928  1.00  0.00    -0.269 OA
BRANCH  74  77
ATOM     77  C   UNL A   1      36.803  33.050  31.000  1.00  0.00     0.052 A 
ATOM     78  C   UNL A   1      37.361  32.759  29.731  1.00  0.00     0.014 A 
ATOM     79  C   UNL A   1      37.375  34.039  31.815  1.00  0.00     0.052 A 
ATOM     80  C   UNL A   1      38.402  33.513  29.209  1.00  0.00     0.001 A 
ATOM     81  C   UNL A   1      38.411  34.812  31.238  1.00  0.00     0.014 A 
ATOM     82  C   UNL A   1      38.906  34.567  29.952  1.00  0.00     0.001 A 
BRANCH  79  83
ATOM     83  C   UNL A   1      36.962  34.508  33.179  1.00  0.00     0.256 C 
ATOM     84  O   UNL A   1      36.049  35.342  33.232  1.00  0.00    -0.269 OA
ATOM     85  N   UNL A   1      37.406  34.039  34.397  1.00  0.00    -0.322 N 
ATOM     86  H   UNL A   1      36.924  34.414  35.168  1.00  0.00     0.170 HD
BRANCH  85  87
ATOM     87  C   UNL A   1      38.406  33.135  34.739  1.00  0.00     0.041 A 
ATOM     88  C   UNL A   1      38.106  32.209  35.744  1.00  0.00     0.028 A 
ATOM     89  C   UNL A   1      39.624  33.078  34.076  1.00  0.00     0.028 A 
ATOM     90  C   UNL A   1      38.898  31.070  35.893  1.00  0.00     0.029 A 
ATOM     91  C   UNL A   1      40.483  32.008  34.326  1.00  0.00     0.029 A 
ATOM     92  C   UNL A   1      40.073  30.949  35.152  1.00  0.00     0.052 A 
BRANCH  92  93
ATOM     93  N   UNL A   1      40.761  29.725  35.077  1.00  0.00    -0.250 N 
ATOM     94  C   UNL A   1      41.850  29.411  35.901  1.00  0.00     0.237 C 
ATOM     95  C   UNL A   1      40.638  28.832  33.990  1.00  0.00     0.237 C 
ATOM     96  O   UNL A   1      42.147  29.826  37.002  1.00  0.00    -0.274 OA
ATOM     97  C   UNL A   1      42.683  28.553  35.019  1.00  0.00     0.095 C 
ATOM     98  C   UNL A   1      41.597  27.733  34.342  1.00  0.00     0.095 C 
ATOM     99  O   UNL A   1      39.874  28.845  33.039  1.00  0.00    -0.274 OA
ATOM    100  C   UNL A   1      43.785  27.521  35.254  1.00  0.00     0.002 C 
ATOM    101  C   UNL A   1      42.451  26.696  33.616  1.00  0.00     0.002 C 
ATOM    102  C   UNL A   1      44.682  27.653  34.005  1.00  0.00     0.005 C 
ATOM    103  C   UNL A   1      43.145  26.160  34.896  1.00  0.00     0.009 C 
ATOM    104  C   UNL A   1      43.691  27.265  32.867  1.00  0.00     0.005 C 
ENDBRANCH  92  93
ENDBRANCH  85  87
ENDBRANCH  79  83
ENDBRANCH  74  77
ENDBRANCH  72  73
ENDBRANCH   1  72
TORSDOF 13
ENDMDL
