MODEL 1
REMARK VINA RESULT:     -13.7      0.000      0.000
REMARK SMILES Cc1nc[nH]c1C(=O)N1CCC2(CC1)C[C@@H](C(=O)NCCCNC(=O)c1ccc(-c3c4nc(c(-c5c(F)c(F)c(F)c(F)c5F)c5ccc([nH]5)c(-c5c(F)c(F)c(F)c(F)c5F)c5nc(c(-c6c(F)c(F)c(F)c(F)c6F)c6ccc3[nH]6)C=C5)C=C4)cc1)N(C(=O)C1CC1)C2
REMARK SMILES IDX 21 1 20 2 19 3 17 4 18 5 16 7 7 8 8 9 9 10 10 11 14 12 11 13
REMARK SMILES IDX 13 14 12 15 15 16 95 17 89 18 6 19 1 20 2 21 3 22 4 23 5 24
REMARK SMILES IDX 90 26 91 27 92 28 93 29 94 30 22 31 23 32 24 33 25 35 26 36
REMARK SMILES IDX 27 37 88 38 28 39 87 40 29 41 30 42 31 43 81 44 32 45 86 46
REMARK SMILES IDX 80 47 82 48 33 49 85 50 79 51 78 52 34 54 66 55 46 56 65 57
REMARK SMILES IDX 47 58 50 59 64 60 83 61 48 62 49 63 63 65 84 66 51 67 35 68
REMARK SMILES IDX 36 69 44 70 37 71 38 72 42 73 45 74 39 75 40 76 43 77 41 78
REMARK SMILES IDX 67 79 68 80 76 81 69 82 70 83 74 84 77 85 71 86 72 87 75 88
REMARK SMILES IDX 73 89 52 90 53 91 61 92 54 93 55 94 59 95 62 96 56 97 57 98
REMARK SMILES IDX 60 99 58 100
REMARK H PARENT 19 6 5 25 23 34 82 53 50 64
REMARK Flexibility Score: inf
ROOT
ATOM      1  C   UNL A   1      31.432  31.982  26.501  1.00  0.00     0.042 C 
ENDROOT
BRANCH   1   2
ATOM      2  C   UNL A   1      31.602  30.504  26.235  1.00  0.00     0.117 C 
BRANCH   2   3
ATOM      3  N   UNL A   1      32.557  30.117  25.241  1.00  0.00    -0.354 N 
ATOM      4  C   UNL A   1      32.567  28.922  24.563  1.00  0.00     0.242 C 
ATOM      5  O   UNL A   1      32.948  28.968  23.388  1.00  0.00    -0.273 OA
ATOM      6  H   UNL A   1      33.269  30.763  25.026  1.00  0.00     0.163 HD
BRANCH   4   7
ATOM      7  C   UNL A   1      31.967  27.601  25.156  1.00  0.00     0.175 C 
ATOM      8  C   UNL A   1      34.904  21.481  24.691  1.00  0.00     0.272 C 
ATOM      9  O   UNL A   1      34.276  20.432  24.541  1.00  0.00    -0.267 OA
ATOM     10  N   UNL A   1      34.249  22.701  24.669  1.00  0.00    -0.337 N 
ATOM     11  C   UNL A   1      32.886  22.783  25.169  1.00  0.00     0.120 C 
ATOM     12  C   UNL A   1      34.661  23.782  23.799  1.00  0.00     0.120 C 
ATOM     13  C   UNL A   1      32.695  24.102  25.939  1.00  0.00     0.030 C 
ATOM     14  C   UNL A   1      34.450  25.114  24.498  1.00  0.00     0.030 C 
ATOM     15  C   UNL A   1      33.008  25.335  25.044  1.00  0.00    -0.006 C 
ATOM     16  C   UNL A   1      32.969  26.669  25.843  1.00  0.00     0.044 C 
ATOM     17  C   UNL A   1      31.871  25.472  24.003  1.00  0.00     0.127 C 
ATOM     18  N   UNL A   1      31.240  26.763  24.208  1.00  0.00    -0.330 N 
BRANCH   8  19
ATOM     19  C   UNL A   1      36.322  21.455  24.979  1.00  0.00     0.127 A 
ATOM     20  C   UNL A   1      37.076  23.669  26.157  1.00  0.00     0.069 C 
ATOM     21  C   UNL A   1      37.233  22.315  25.585  1.00  0.00     0.068 A 
ATOM     22  N   UNL A   1      38.466  21.712  25.712  1.00  0.00    -0.241 NA
ATOM     23  C   UNL A   1      38.315  20.496  25.253  1.00  0.00     0.197 A 
ATOM     24  N   UNL A   1      37.056  20.303  24.778  1.00  0.00    -0.340 N 
ATOM     25  H   UNL A   1      36.722  19.477  24.361  1.00  0.00     0.168 HD
ENDBRANCH   8  19
BRANCH  18  26
ATOM     26  C   UNL A   1      29.975  27.194  23.824  1.00  0.00     0.226 C 
ATOM     27  O   UNL A   1      28.968  26.684  24.302  1.00  0.00    -0.275 OA
BRANCH  26  28
ATOM     28  C   UNL A   1      29.745  28.301  22.856  1.00  0.00     0.079 C 
ATOM     29  C   UNL A   1      28.476  28.987  22.450  1.00  0.00     0.014 C 
ATOM     30  C   UNL A   1      29.456  29.702  23.337  1.00  0.00     0.014 C 
ENDBRANCH  26  28
ENDBRANCH  18  26
ENDBRANCH   4   7
ENDBRANCH   2   3
ENDBRANCH   1   2
BRANCH   1  31
ATOM     31  C   UNL A   1      32.606  32.583  27.245  1.00  0.00     0.118 C 
BRANCH  31  32
ATOM     32  N   UNL A   1      32.395  33.978  27.636  1.00  0.00    -0.352 N 
ATOM     33  C   UNL A   1      33.060  34.754  28.556  1.00  0.00     0.251 C 
ATOM     34  H   UNL A   1      31.661  34.433  27.164  1.00  0.00     0.163 HD
ATOM     35  O   UNL A   1      32.649  35.883  28.805  1.00  0.00    -0.269 OA
BRANCH  33  36
ATOM     36  C   UNL A   1      34.235  34.218  29.277  1.00  0.00     0.039 A 
ATOM     37  C   UNL A   1      34.034  33.354  30.355  1.00  0.00     0.014 A 
ATOM     38  C   UNL A   1      35.532  34.541  28.880  1.00  0.00     0.014 A 
ATOM     39  C   UNL A   1      35.133  32.757  30.974  1.00  0.00     0.010 A 
ATOM     40  C   UNL A   1      36.609  33.838  29.395  1.00  0.00     0.010 A 
ATOM     41  C   UNL A   1      36.428  32.957  30.467  1.00  0.00    -0.014 A 
BRANCH  41  42
ATOM     42  C   UNL A   1      37.603  32.272  31.058  1.00  0.00     0.031 A 
ATOM     43  C   UNL A   1      38.082  32.645  32.435  1.00  0.00     0.074 A 
ATOM     44  C   UNL A   1      38.272  31.359  30.329  1.00  0.00     0.049 A 
ATOM     45  N   UNL A   1      39.089  32.163  33.119  1.00  0.00    -0.248 NA
ATOM     46  C   UNL A   1      37.365  33.732  33.121  1.00  0.00     0.031 C 
ATOM     47  C   UNL A   1      37.957  30.984  28.948  1.00  0.00     0.029 A 
ATOM     48  N   UNL A   1      39.355  30.578  30.645  1.00  0.00    -0.354 N 
ATOM     49  C   UNL A   1      39.130  32.898  34.297  1.00  0.00     0.074 A 
ATOM     50  C   UNL A   1      38.104  33.910  34.203  1.00  0.00     0.031 C 
ATOM     51  C   UNL A   1      38.794  30.012  28.555  1.00  0.00     0.029 A 
ATOM     52  C   UNL A   1      39.727  29.722  29.639  1.00  0.00     0.049 A 
ATOM     53  H   UNL A   1      39.819  30.627  31.511  1.00  0.00     0.167 HD
ATOM     54  C   UNL A   1      39.929  32.721  35.376  1.00  0.00     0.037 A 
ATOM     55  C   UNL A   1      40.706  28.798  29.601  1.00  0.00     0.037 A 
ATOM     56  C   UNL A   1      40.926  31.689  35.470  1.00  0.00     0.049 A 
ATOM     57  C   UNL A   1      41.555  28.591  30.825  1.00  0.00     0.074 A 
ATOM     58  C   UNL A   1      41.735  31.367  36.544  1.00  0.00     0.029 A 
ATOM     59  N   UNL A   1      41.250  30.813  34.445  1.00  0.00    -0.354 N 
ATOM     60  N   UNL A   1      41.519  29.223  31.973  1.00  0.00    -0.248 NA
ATOM     61  C   UNL A   1      42.567  27.530  30.754  1.00  0.00     0.031 C 
ATOM     62  C   UNL A   1      42.592  30.335  36.146  1.00  0.00     0.029 A 
ATOM     63  C   UNL A   1      42.269  29.966  34.850  1.00  0.00     0.049 A 
ATOM     64  H   UNL A   1      40.820  30.795  33.558  1.00  0.00     0.167 HD
ATOM     65  C   UNL A   1      42.480  28.620  32.772  1.00  0.00     0.074 A 
ATOM     66  C   UNL A   1      43.071  27.560  31.981  1.00  0.00     0.031 C 
ATOM     67  C   UNL A   1      42.840  28.914  34.047  1.00  0.00     0.037 A 
BRANCH  54  68
ATOM     68  C   UNL A   1      39.751  33.663  36.535  1.00  0.00     0.064 A 
ATOM     69  C   UNL A   1      38.933  33.344  37.631  1.00  0.00     0.173 A 
ATOM     70  C   UNL A   1      40.419  34.896  36.557  1.00  0.00     0.173 A 
ATOM     71  F   UNL A   1      38.259  32.183  37.658  1.00  0.00    -0.203 F 
ATOM     72  C   UNL A   1      38.759  34.239  38.684  1.00  0.00     0.198 A 
ATOM     73  C   UNL A   1      40.273  35.773  37.630  1.00  0.00     0.198 A 
ATOM     74  F   UNL A   1      41.217  35.253  35.540  1.00  0.00    -0.203 F 
ATOM     75  F   UNL A   1      37.921  33.939  39.685  1.00  0.00    -0.200 F 
ATOM     76  C   UNL A   1      39.436  35.450  38.686  1.00  0.00     0.200 A 
ATOM     77  F   UNL A   1      40.939  36.936  37.637  1.00  0.00    -0.200 F 
ATOM     78  F   UNL A   1      39.271  36.309  39.701  1.00  0.00    -0.200 F 
ENDBRANCH  54  68
BRANCH  55  79
ATOM     79  C   UNL A   1      40.895  27.972  28.378  1.00  0.00     0.064 A 
ATOM     80  C   UNL A   1      40.302  26.707  28.261  1.00  0.00     0.173 A 
ATOM     81  C   UNL A   1      41.653  28.439  27.294  1.00  0.00     0.173 A 
ATOM     82  F   UNL A   1      39.578  26.210  29.276  1.00  0.00    -0.203 F 
ATOM     83  C   UNL A   1      40.475  25.933  27.115  1.00  0.00     0.198 A 
ATOM     84  C   UNL A   1      41.799  27.677  26.136  1.00  0.00     0.198 A 
ATOM     85  F   UNL A   1      42.230  29.648  27.348  1.00  0.00    -0.203 F 
ATOM     86  F   UNL A   1      39.931  24.711  27.048  1.00  0.00    -0.200 F 
ATOM     87  C   UNL A   1      41.218  26.421  26.051  1.00  0.00     0.200 A 
ATOM     88  F   UNL A   1      42.500  28.163  25.102  1.00  0.00    -0.200 F 
ATOM     89  F   UNL A   1      41.375  25.681  24.945  1.00  0.00    -0.200 F 
ENDBRANCH  55  79
BRANCH  67  90
ATOM     90  C   UNL A   1      43.893  28.050  34.680  1.00  0.00     0.064 A 
ATOM     91  C   UNL A   1      45.249  28.407  34.669  1.00  0.00     0.173 A 
ATOM     92  C   UNL A   1      43.529  26.864  35.337  1.00  0.00     0.173 A 
ATOM     93  F   UNL A   1      45.649  29.524  34.044  1.00  0.00    -0.203 F 
ATOM     94  C   UNL A   1      46.207  27.590  35.264  1.00  0.00     0.198 A 
ATOM     95  C   UNL A   1      44.486  26.070  35.962  1.00  0.00     0.198 A 
ATOM     96  F   UNL A   1      42.244  26.483  35.385  1.00  0.00    -0.203 F 
ATOM     97  F   UNL A   1      47.504  27.921  35.190  1.00  0.00    -0.200 F 
ATOM     98  C   UNL A   1      45.824  26.427  35.915  1.00  0.00     0.200 A 
ATOM     99  F   UNL A   1      44.111  24.957  36.608  1.00  0.00    -0.200 F 
ATOM    100  F   UNL A   1      46.748  25.646  36.492  1.00  0.00    -0.200 F 
ENDBRANCH  67  90
ENDBRANCH  41  42
ENDBRANCH  33  36
ENDBRANCH  31  32
ENDBRANCH   1  31
TORSDOF 13
ENDMDL
MODEL 2
REMARK VINA RESULT:     -13.7      0.879      7.239
REMARK SMILES Cc1nc[nH]c1C(=O)N1CCC2(CC1)C[C@@H](C(=O)NCCCNC(=O)c1ccc(-c3c4nc(c(-c5c(F)c(F)c(F)c(F)c5F)c5ccc([nH]5)c(-c5c(F)c(F)c(F)c(F)c5F)c5nc(c(-c6c(F)c(F)c(F)c(F)c6F)c6ccc3[nH]6)C=C5)C=C4)cc1)N(C(=O)C1CC1)C2
REMARK SMILES IDX 21 1 20 2 19 3 17 4 18 5 16 7 7 8 8 9 9 10 10 11 14 12 11 13
REMARK SMILES IDX 13 14 12 15 15 16 95 17 89 18 6 19 1 20 2 21 3 22 4 23 5 24
REMARK SMILES IDX 90 26 91 27 92 28 93 29 94 30 22 31 23 32 24 33 25 35 26 36
REMARK SMILES IDX 27 37 88 38 28 39 87 40 29 41 30 42 31 43 81 44 32 45 86 46
REMARK SMILES IDX 80 47 82 48 33 49 85 50 79 51 78 52 34 54 66 55 46 56 65 57
REMARK SMILES IDX 47 58 50 59 64 60 83 61 48 62 49 63 63 65 84 66 51 67 35 68
REMARK SMILES IDX 36 69 44 70 37 71 38 72 42 73 45 74 39 75 40 76 43 77 41 78
REMARK SMILES IDX 67 79 68 80 76 81 69 82 70 83 74 84 77 85 71 86 72 87 75 88
REMARK SMILES IDX 73 89 52 90 53 91 61 92 54 93 55 94 59 95 62 96 56 97 57 98
REMARK SMILES IDX 60 99 58 100
REMARK H PARENT 19 6 5 25 23 34 82 53 50 64
REMARK Flexibility Score: inf
ROOT
ATOM      1  C   UNL A   1      31.464  32.166  26.662  1.00  0.00     0.042 C 
ENDROOT
BRANCH   1   2
ATOM      2  C   UNL A   1      31.690  30.687  26.442  1.00  0.00     0.117 C 
BRANCH   2   3
ATOM      3  N   UNL A   1      32.712  30.306  25.515  1.00  0.00    -0.354 N 
ATOM      4  C   UNL A   1      32.776  29.109  24.844  1.00  0.00     0.242 C 
ATOM      5  O   UNL A   1      33.234  29.154  23.696  1.00  0.00    -0.273 OA
ATOM      6  H   UNL A   1      33.430  30.957  25.344  1.00  0.00     0.163 HD
BRANCH   4   7
ATOM      7  C   UNL A   1      32.151  27.784  25.402  1.00  0.00     0.175 C 
ATOM      8  C   UNL A   1      35.139  21.679  25.102  1.00  0.00     0.272 C 
ATOM      9  O   UNL A   1      34.525  20.627  24.916  1.00  0.00    -0.267 OA
ATOM     10  N   UNL A   1      34.480  22.896  25.043  1.00  0.00    -0.337 N 
ATOM     11  C   UNL A   1      33.090  22.971  25.465  1.00  0.00     0.120 C 
ATOM     12  C   UNL A   1      34.936  23.979  24.198  1.00  0.00     0.120 C 
ATOM     13  C   UNL A   1      32.850  24.288  26.223  1.00  0.00     0.030 C 
ATOM     14  C   UNL A   1      34.679  25.310  24.884  1.00  0.00     0.030 C 
ATOM     15  C   UNL A   1      33.207  25.523  25.348  1.00  0.00    -0.006 C 
ATOM     16  C   UNL A   1      33.116  26.857  26.144  1.00  0.00     0.044 C 
ATOM     17  C   UNL A   1      32.130  25.655  24.244  1.00  0.00     0.127 C 
ATOM     18  N   UNL A   1      31.482  26.944  24.413  1.00  0.00    -0.330 N 
BRANCH   8  19
ATOM     19  C   UNL A   1      36.539  21.660  25.470  1.00  0.00     0.127 A 
ATOM     20  C   UNL A   1      37.687  19.450  24.661  1.00  0.00     0.069 C 
ATOM     21  C   UNL A   1      37.604  20.783  25.294  1.00  0.00     0.068 A 
ATOM     22  N   UNL A   1      38.779  21.343  25.747  1.00  0.00    -0.241 NA
ATOM     23  C   UNL A   1      38.468  22.552  26.140  1.00  0.00     0.197 A 
ATOM     24  N   UNL A   1      37.133  22.779  26.017  1.00  0.00    -0.340 N 
ATOM     25  H   UNL A   1      36.668  23.606  26.276  1.00  0.00     0.168 HD
ENDBRANCH   8  19
BRANCH  18  26
ATOM     26  C   UNL A   1      30.239  27.368  23.959  1.00  0.00     0.226 C 
ATOM     27  O   UNL A   1      29.211  26.834  24.357  1.00  0.00    -0.275 OA
BRANCH  26  28
ATOM     28  C   UNL A   1      30.057  28.497  23.005  1.00  0.00     0.079 C 
ATOM     29  C   UNL A   1      28.805  29.119  22.465  1.00  0.00     0.014 C 
ATOM     30  C   UNL A   1      29.620  29.858  23.490  1.00  0.00     0.014 C 
ENDBRANCH  26  28
ENDBRANCH  18  26
ENDBRANCH   4   7
ENDBRANCH   2   3
ENDBRANCH   1   2
BRANCH   1  31
ATOM     31  C   UNL A   1      32.650  32.850  27.309  1.00  0.00     0.118 C 
BRANCH  31  32
ATOM     32  N   UNL A   1      32.392  34.244  27.672  1.00  0.00    -0.352 N 
ATOM     33  C   UNL A   1      32.989  35.043  28.619  1.00  0.00     0.251 C 
ATOM     34  H   UNL A   1      31.678  34.681  27.153  1.00  0.00     0.163 HD
ATOM     35  O   UNL A   1      32.543  36.166  28.831  1.00  0.00    -0.269 OA
BRANCH  33  36
ATOM     36  C   UNL A   1      34.130  34.537  29.412  1.00  0.00     0.039 A 
ATOM     37  C   UNL A   1      33.886  33.951  30.657  1.00  0.00     0.014 A 
ATOM     38  C   UNL A   1      35.434  34.611  28.925  1.00  0.00     0.014 A 
ATOM     39  C   UNL A   1      34.940  33.374  31.365  1.00  0.00     0.010 A 
ATOM     40  C   UNL A   1      36.450  33.911  29.556  1.00  0.00     0.010 A 
ATOM     41  C   UNL A   1      36.223  33.306  30.797  1.00  0.00    -0.014 A 
BRANCH  41  42
ATOM     42  C   UNL A   1      37.342  32.628  31.496  1.00  0.00     0.031 A 
ATOM     43  C   UNL A   1      38.054  31.474  30.842  1.00  0.00     0.074 A 
ATOM     44  C   UNL A   1      37.673  33.013  32.743  1.00  0.00     0.049 A 
ATOM     45  N   UNL A   1      39.050  30.755  31.293  1.00  0.00    -0.248 NA
ATOM     46  C   UNL A   1      37.558  31.041  29.526  1.00  0.00     0.031 C 
ATOM     47  C   UNL A   1      36.992  34.056  33.514  1.00  0.00     0.029 A 
ATOM     48  N   UNL A   1      38.666  32.576  33.582  1.00  0.00    -0.354 N 
ATOM     49  C   UNL A   1      39.281  29.783  30.328  1.00  0.00     0.074 A 
ATOM     50  C   UNL A   1      38.273  29.950  29.306  1.00  0.00     0.031 C 
ATOM     51  C   UNL A   1      37.617  34.211  34.691  1.00  0.00     0.029 A 
ATOM     52  C   UNL A   1      38.717  33.256  34.774  1.00  0.00     0.049 A 
ATOM     53  H   UNL A   1      39.282  31.844  33.352  1.00  0.00     0.167 HD
ATOM     54  C   UNL A   1      40.267  28.857  30.280  1.00  0.00     0.037 A 
ATOM     55  C   UNL A   1      39.565  33.128  35.813  1.00  0.00     0.037 A 
ATOM     56  C   UNL A   1      41.284  28.721  31.287  1.00  0.00     0.049 A 
ATOM     57  C   UNL A   1      40.678  32.121  35.720  1.00  0.00     0.074 A 
ATOM     58  C   UNL A   1      42.377  27.873  31.302  1.00  0.00     0.029 A 
ATOM     59  N   UNL A   1      41.328  29.454  32.464  1.00  0.00    -0.354 N 
ATOM     60  N   UNL A   1      40.950  31.274  34.755  1.00  0.00    -0.248 NA
ATOM     61  C   UNL A   1      41.612  32.063  36.850  1.00  0.00     0.031 C 
ATOM     62  C   UNL A   1      43.047  28.051  32.517  1.00  0.00     0.029 A 
ATOM     63  C   UNL A   1      42.415  29.059  33.227  1.00  0.00     0.049 A 
ATOM     64  H   UNL A   1      40.682  30.152  32.720  1.00  0.00     0.167 HD
ATOM     65  C   UNL A   1      42.100  30.605  35.146  1.00  0.00     0.074 A 
ATOM     66  C   UNL A   1      42.484  31.157  36.430  1.00  0.00     0.031 C 
ATOM     67  C   UNL A   1      42.780  29.624  34.502  1.00  0.00     0.037 A 
BRANCH  54  68
ATOM     68  C   UNL A   1      40.291  27.926  29.098  1.00  0.00     0.064 A 
ATOM     69  C   UNL A   1      41.031  28.216  27.940  1.00  0.00     0.173 A 
ATOM     70  C   UNL A   1      39.574  26.721  29.130  1.00  0.00     0.173 A 
ATOM     71  F   UNL A   1      41.725  29.361  27.849  1.00  0.00    -0.203 F 
ATOM     72  C   UNL A   1      41.020  27.354  26.845  1.00  0.00     0.198 A 
ATOM     73  C   UNL A   1      39.596  25.844  28.048  1.00  0.00     0.198 A 
ATOM     74  F   UNL A   1      38.852  26.390  30.210  1.00  0.00    -0.203 F 
ATOM     75  F   UNL A   1      41.681  27.685  25.728  1.00  0.00    -0.200 F 
ATOM     76  C   UNL A   1      40.309  26.166  26.903  1.00  0.00     0.200 A 
ATOM     77  F   UNL A   1      38.920  24.689  28.111  1.00  0.00    -0.200 F 
ATOM     78  F   UNL A   1      40.302  25.335  25.851  1.00  0.00    -0.200 F 
ENDBRANCH  54  68
BRANCH  55  79
ATOM     79  C   UNL A   1      39.418  34.013  36.998  1.00  0.00     0.064 A 
ATOM     80  C   UNL A   1      38.711  33.590  38.133  1.00  0.00     0.173 A 
ATOM     81  C   UNL A   1      39.998  35.289  37.032  1.00  0.00     0.173 A 
ATOM     82  F   UNL A   1      38.126  32.382  38.146  1.00  0.00    -0.203 F 
ATOM     83  C   UNL A   1      38.574  34.416  39.247  1.00  0.00     0.198 A 
ATOM     84  C   UNL A   1      39.887  36.102  38.158  1.00  0.00     0.198 A 
ATOM     85  F   UNL A   1      40.697  35.738  35.979  1.00  0.00    -0.203 F 
ATOM     86  F   UNL A   1      37.858  34.001  40.301  1.00  0.00    -0.200 F 
ATOM     87  C   UNL A   1      39.167  35.669  39.261  1.00  0.00     0.200 A 
ATOM     88  F   UNL A   1      40.481  37.304  38.176  1.00  0.00    -0.200 F 
ATOM     89  F   UNL A   1      39.045  36.458  40.337  1.00  0.00    -0.200 F 
ENDBRANCH  55  79
BRANCH  67  90
ATOM     90  C   UNL A   1      44.034  29.115  35.154  1.00  0.00     0.064 A 
ATOM     91  C   UNL A   1      44.019  28.026  36.037  1.00  0.00     0.173 A 
ATOM     92  C   UNL A   1      45.272  29.708  34.860  1.00  0.00     0.173 A 
ATOM     93  F   UNL A   1      42.861  27.432  36.359  1.00  0.00    -0.203 F 
ATOM     94  C   UNL A   1      45.195  27.571  36.629  1.00  0.00     0.198 A 
ATOM     95  C   UNL A   1      46.449  29.225  35.425  1.00  0.00     0.198 A 
ATOM     96  F   UNL A   1      45.342  30.746  34.014  1.00  0.00    -0.203 F 
ATOM     97  F   UNL A   1      45.150  26.566  37.515  1.00  0.00    -0.200 F 
ATOM     98  C   UNL A   1      46.408  28.166  36.317  1.00  0.00     0.200 A 
ATOM     99  F   UNL A   1      47.622  29.790  35.108  1.00  0.00    -0.200 F 
ATOM    100  F   UNL A   1      47.539  27.721  36.884  1.00  0.00    -0.200 F 
ENDBRANCH  67  90
ENDBRANCH  41  42
ENDBRANCH  33  36
ENDBRANCH  31  32
ENDBRANCH   1  31
TORSDOF 13
ENDMDL
MODEL 3
REMARK VINA RESULT:     -13.7      0.069      1.543
REMARK SMILES Cc1nc[nH]c1C(=O)N1CCC2(CC1)C[C@@H](C(=O)NCCCNC(=O)c1ccc(-c3c4nc(c(-c5c(F)c(F)c(F)c(F)c5F)c5ccc([nH]5)c(-c5c(F)c(F)c(F)c(F)c5F)c5nc(c(-c6c(F)c(F)c(F)c(F)c6F)c6ccc3[nH]6)C=C5)C=C4)cc1)N(C(=O)C1CC1)C2
REMARK SMILES IDX 21 1 20 2 19 3 17 4 18 5 16 7 7 8 8 9 9 10 10 11 14 12 11 13
REMARK SMILES IDX 13 14 12 15 15 16 95 17 89 18 6 19 1 20 2 21 3 22 4 23 5 24
REMARK SMILES IDX 90 26 91 27 92 28 93 29 94 30 22 31 23 32 24 33 25 35 26 36
REMARK SMILES IDX 27 37 88 38 28 39 87 40 29 41 30 42 31 43 81 44 32 45 86 46
REMARK SMILES IDX 80 47 82 48 33 49 85 50 79 51 78 52 34 54 66 55 46 56 65 57
REMARK SMILES IDX 47 58 50 59 64 60 83 61 48 62 49 63 63 65 84 66 51 67 35 68
REMARK SMILES IDX 36 69 44 70 37 71 38 72 42 73 45 74 39 75 40 76 43 77 41 78
REMARK SMILES IDX 67 79 68 80 76 81 69 82 70 83 74 84 77 85 71 86 72 87 75 88
REMARK SMILES IDX 73 89 52 90 53 91 61 92 54 93 55 94 59 95 62 96 56 97 57 98
REMARK SMILES IDX 60 99 58 100
REMARK H PARENT 19 6 5 25 23 34 82 53 50 64
REMARK Flexibility Score: inf
ROOT
ATOM      1  C   UNL A   1      31.440  31.994  26.494  1.00  0.00     0.042 C 
ENDROOT
BRANCH   1   2
ATOM      2  C   UNL A   1      31.614  30.514  26.240  1.00  0.00     0.117 C 
BRANCH   2   3
ATOM      3  N   UNL A   1      32.559  30.122  25.238  1.00  0.00    -0.354 N 
ATOM      4  C   UNL A   1      32.564  28.921  24.571  1.00  0.00     0.242 C 
ATOM      5  O   UNL A   1      32.932  28.958  23.391  1.00  0.00    -0.273 OA
ATOM      6  H   UNL A   1      33.265  30.768  25.009  1.00  0.00     0.163 HD
BRANCH   4   7
ATOM      7  C   UNL A   1      31.977  27.603  25.182  1.00  0.00     0.175 C 
ATOM      8  C   UNL A   1      34.928  21.489  24.732  1.00  0.00     0.272 C 
ATOM      9  O   UNL A   1      34.302  20.437  24.599  1.00  0.00    -0.267 OA
ATOM     10  N   UNL A   1      34.269  22.707  24.708  1.00  0.00    -0.337 N 
ATOM     11  C   UNL A   1      32.911  22.788  25.224  1.00  0.00     0.120 C 
ATOM     12  C   UNL A   1      34.667  23.782  23.824  1.00  0.00     0.120 C 
ATOM     13  C   UNL A   1      32.726  24.113  25.985  1.00  0.00     0.030 C 
ATOM     14  C   UNL A   1      34.460  25.119  24.514  1.00  0.00     0.030 C 
ATOM     15  C   UNL A   1      33.023  25.340  25.076  1.00  0.00    -0.006 C 
ATOM     16  C   UNL A   1      32.990  26.680  25.864  1.00  0.00     0.044 C 
ATOM     17  C   UNL A   1      31.874  25.464  24.047  1.00  0.00     0.127 C 
ATOM     18  N   UNL A   1      31.241  26.755  24.249  1.00  0.00    -0.330 N 
BRANCH   8  19
ATOM     19  C   UNL A   1      36.350  21.470  25.003  1.00  0.00     0.127 A 
ATOM     20  C   UNL A   1      37.118  23.711  26.119  1.00  0.00     0.069 C 
ATOM     21  C   UNL A   1      37.268  22.344  25.577  1.00  0.00     0.068 A 
ATOM     22  N   UNL A   1      38.502  21.744  25.704  1.00  0.00    -0.241 NA
ATOM     23  C   UNL A   1      38.346  20.518  25.275  1.00  0.00     0.197 A 
ATOM     24  N   UNL A   1      37.081  20.314  24.821  1.00  0.00    -0.340 N 
ATOM     25  H   UNL A   1      36.743  19.478  24.427  1.00  0.00     0.168 HD
ENDBRANCH   8  19
BRANCH  18  26
ATOM     26  C   UNL A   1      29.970  27.178  23.878  1.00  0.00     0.226 C 
ATOM     27  O   UNL A   1      28.971  26.678  24.381  1.00  0.00    -0.275 OA
BRANCH  26  28
ATOM     28  C   UNL A   1      29.724  28.267  22.892  1.00  0.00     0.079 C 
ATOM     29  C   UNL A   1      28.448  28.943  22.491  1.00  0.00     0.014 C 
ATOM     30  C   UNL A   1      29.439  29.676  23.351  1.00  0.00     0.014 C 
ENDBRANCH  26  28
ENDBRANCH  18  26
ENDBRANCH   4   7
ENDBRANCH   2   3
ENDBRANCH   1   2
BRANCH   1  31
ATOM     31  C   UNL A   1      32.617  32.606  27.224  1.00  0.00     0.118 C 
BRANCH  31  32
ATOM     32  N   UNL A   1      32.399  33.999  27.617  1.00  0.00    -0.352 N 
ATOM     33  C   UNL A   1      33.056  34.777  28.541  1.00  0.00     0.251 C 
ATOM     34  H   UNL A   1      31.664  34.452  27.143  1.00  0.00     0.163 HD
ATOM     35  O   UNL A   1      32.639  35.903  28.790  1.00  0.00    -0.269 OA
BRANCH  33  36
ATOM     36  C   UNL A   1      34.231  34.245  29.265  1.00  0.00     0.039 A 
ATOM     37  C   UNL A   1      34.029  33.376  30.341  1.00  0.00     0.014 A 
ATOM     38  C   UNL A   1      35.527  34.575  28.874  1.00  0.00     0.014 A 
ATOM     39  C   UNL A   1      35.129  32.783  30.963  1.00  0.00     0.010 A 
ATOM     40  C   UNL A   1      36.606  33.876  29.392  1.00  0.00     0.010 A 
ATOM     41  C   UNL A   1      36.425  32.991  30.461  1.00  0.00    -0.014 A 
BRANCH  41  42
ATOM     42  C   UNL A   1      37.601  32.311  31.055  1.00  0.00     0.031 A 
ATOM     43  C   UNL A   1      38.082  32.695  32.429  1.00  0.00     0.074 A 
ATOM     44  C   UNL A   1      38.269  31.392  30.332  1.00  0.00     0.049 A 
ATOM     45  N   UNL A   1      39.091  32.218  33.114  1.00  0.00    -0.248 NA
ATOM     46  C   UNL A   1      37.367  33.787  33.108  1.00  0.00     0.031 C 
ATOM     47  C   UNL A   1      37.952  31.007  28.955  1.00  0.00     0.029 A 
ATOM     48  N   UNL A   1      39.352  30.614  30.652  1.00  0.00    -0.354 N 
ATOM     49  C   UNL A   1      39.134  32.961  34.287  1.00  0.00     0.074 A 
ATOM     50  C   UNL A   1      38.108  33.973  34.187  1.00  0.00     0.031 C 
ATOM     51  C   UNL A   1      38.788  30.032  28.567  1.00  0.00     0.029 A 
ATOM     52  C   UNL A   1      39.722  29.750  29.652  1.00  0.00     0.049 A 
ATOM     53  H   UNL A   1      39.818  30.670  31.517  1.00  0.00     0.167 HD
ATOM     54  C   UNL A   1      39.935  32.793  35.365  1.00  0.00     0.037 A 
ATOM     55  C   UNL A   1      40.702  28.825  29.619  1.00  0.00     0.037 A 
ATOM     56  C   UNL A   1      40.932  31.761  35.466  1.00  0.00     0.049 A 
ATOM     57  C   UNL A   1      41.553  28.628  30.843  1.00  0.00     0.074 A 
ATOM     58  C   UNL A   1      41.744  31.447  36.540  1.00  0.00     0.029 A 
ATOM     59  N   UNL A   1      41.254  30.877  34.446  1.00  0.00    -0.354 N 
ATOM     60  N   UNL A   1      41.519  29.269  31.987  1.00  0.00    -0.248 NA
ATOM     61  C   UNL A   1      42.565  27.567  30.779  1.00  0.00     0.031 C 
ATOM     62  C   UNL A   1      42.600  30.412  36.149  1.00  0.00     0.029 A 
ATOM     63  C   UNL A   1      42.274  30.033  34.857  1.00  0.00     0.049 A 
ATOM     64  H   UNL A   1      40.823  30.853  33.561  1.00  0.00     0.167 HD
ATOM     65  C   UNL A   1      42.481  28.672  32.789  1.00  0.00     0.074 A 
ATOM     66  C   UNL A   1      43.070  27.606  32.004  1.00  0.00     0.031 C 
ATOM     67  C   UNL A   1      42.843  28.976  34.060  1.00  0.00     0.037 A 
BRANCH  54  68
ATOM     68  C   UNL A   1      39.759  33.743  36.518  1.00  0.00     0.064 A 
ATOM     69  C   UNL A   1      40.413  34.986  36.561  1.00  0.00     0.173 A 
ATOM     70  C   UNL A   1      38.914  33.414  37.587  1.00  0.00     0.173 A 
ATOM     71  F   UNL A   1      41.244  35.348  35.572  1.00  0.00    -0.203 F 
ATOM     72  C   UNL A   1      40.259  35.842  37.649  1.00  0.00     0.198 A 
ATOM     73  C   UNL A   1      38.732  34.289  38.656  1.00  0.00     0.198 A 
ATOM     74  F   UNL A   1      38.260  32.242  37.599  1.00  0.00    -0.203 F 
ATOM     75  F   UNL A   1      40.946  36.991  37.698  1.00  0.00    -0.200 F 
ATOM     76  C   UNL A   1      39.413  35.496  38.692  1.00  0.00     0.200 A 
ATOM     77  F   UNL A   1      37.903  33.960  39.655  1.00  0.00    -0.200 F 
ATOM     78  F   UNL A   1      39.262  36.322  39.736  1.00  0.00    -0.200 F 
ENDBRANCH  54  68
BRANCH  55  79
ATOM     79  C   UNL A   1      40.888  27.991  28.403  1.00  0.00     0.064 A 
ATOM     80  C   UNL A   1      40.298  26.723  28.297  1.00  0.00     0.173 A 
ATOM     81  C   UNL A   1      41.641  28.451  27.312  1.00  0.00     0.173 A 
ATOM     82  F   UNL A   1      39.578  26.233  29.318  1.00  0.00    -0.203 F 
ATOM     83  C   UNL A   1      40.468  25.940  27.157  1.00  0.00     0.198 A 
ATOM     84  C   UNL A   1      41.786  27.680  26.160  1.00  0.00     0.198 A 
ATOM     85  F   UNL A   1      42.216  29.661  27.355  1.00  0.00    -0.203 F 
ATOM     86  F   UNL A   1      39.927  24.716  27.101  1.00  0.00    -0.200 F 
ATOM     87  C   UNL A   1      41.207  26.422  26.086  1.00  0.00     0.200 A 
ATOM     88  F   UNL A   1      42.482  28.158  25.119  1.00  0.00    -0.200 F 
ATOM     89  F   UNL A   1      41.361  25.674  24.986  1.00  0.00    -0.200 F 
ENDBRANCH  55  79
BRANCH  67  90
ATOM     90  C   UNL A   1      43.897  28.116  34.698  1.00  0.00     0.064 A 
ATOM     91  C   UNL A   1      43.575  26.938  35.386  1.00  0.00     0.173 A 
ATOM     92  C   UNL A   1      45.253  28.464  34.586  1.00  0.00     0.173 A 
ATOM     93  F   UNL A   1      42.294  26.569  35.532  1.00  0.00    -0.203 F 
ATOM     94  C   UNL A   1      44.570  26.157  35.969  1.00  0.00     0.198 A 
ATOM     95  C   UNL A   1      46.246  27.660  35.137  1.00  0.00     0.198 A 
ATOM     96  F   UNL A   1      45.615  29.575  33.928  1.00  0.00    -0.203 F 
ATOM     97  F   UNL A   1      44.235  25.067  36.673  1.00  0.00    -0.200 F 
ATOM     98  C   UNL A   1      45.904  26.514  35.838  1.00  0.00     0.200 A 
ATOM     99  F   UNL A   1      47.535  27.998  34.993  1.00  0.00    -0.200 F 
ATOM    100  F   UNL A   1      46.859  25.757  36.394  1.00  0.00    -0.200 F 
ENDBRANCH  67  90
ENDBRANCH  41  42
ENDBRANCH  33  36
ENDBRANCH  31  32
ENDBRANCH   1  31
TORSDOF 13
ENDMDL
