MODEL 1
REMARK VINA RESULT:     -11.9      0.000      0.000
REMARK SMILES CN(Cc1csc(Br)c1)c1cccc(F)c1C(=O)NCCCNC(=O)c1ccc(-c2c3nc(c(-c4c(F)c(F)c(F)c(F)c4F)c4ccc([nH]4)c(-c4c(F)c(F)c(F)c(F)c4F)c4nc(c(-c5c(F)c(F)c(F)c(F)c5F)c5ccc2[nH]5)C=C4)C=C3)cc1
REMARK SMILES IDX 20 1 19 2 17 3 18 4 16 6 10 7 11 8 12 9 14 10 13 11 15 12
REMARK SMILES IDX 2 13 1 14 3 15 4 16 5 17 9 18 6 19 7 20 8 21 21 22 22 23
REMARK SMILES IDX 23 24 24 25 25 27 26 28 27 29 88 30 28 31 87 32 29 33 30 34
REMARK SMILES IDX 31 35 81 36 32 37 86 38 80 39 82 40 33 41 85 42 79 43 78 44
REMARK SMILES IDX 34 46 66 47 46 48 65 49 47 50 50 51 64 52 83 53 48 54 49 55
REMARK SMILES IDX 63 57 84 58 51 59 35 60 36 61 44 62 37 63 38 64 42 65 45 66
REMARK SMILES IDX 39 67 40 68 43 69 41 70 67 71 68 72 76 73 69 74 70 75 74 76
REMARK SMILES IDX 77 77 71 78 72 79 75 80 73 81 52 82 53 83 61 84 54 85 55 86
REMARK SMILES IDX 59 87 62 88 56 89 57 90 60 91 58 92
REMARK H PARENT 19 5 23 26 82 45 50 56
REMARK Flexibility Score: inf
ROOT
ATOM      1  C   UNL A   1      33.210  26.688  25.992  1.00  0.00     0.118 C 
ENDROOT
BRANCH   1   2
ATOM      2  N   UNL A   1      32.465  25.454  26.203  1.00  0.00    -0.352 N 
ATOM      3  C   UNL A   1      32.820  24.125  26.056  1.00  0.00     0.256 C 
ATOM      4  O   UNL A   1      32.090  23.281  26.574  1.00  0.00    -0.269 OA
ATOM      5  H   UNL A   1      31.539  25.591  26.505  1.00  0.00     0.163 HD
BRANCH   3   6
ATOM      6  C   UNL A   1      34.013  23.710  25.274  1.00  0.00     0.098 A 
ATOM      7  C   UNL A   1      33.963  23.566  23.865  1.00  0.00     0.053 A 
ATOM      8  C   UNL A   1      35.160  23.249  23.186  1.00  0.00     0.027 A 
ATOM      9  C   UNL A   1      36.355  23.022  23.870  1.00  0.00     0.005 A 
ATOM     10  C   UNL A   1      35.194  23.379  25.945  1.00  0.00     0.138 A 
ATOM     11  C   UNL A   1      36.365  23.065  25.257  1.00  0.00     0.040 A 
ATOM     12  F   UNL A   1      35.236  23.320  27.286  1.00  0.00    -0.206 F 
BRANCH   7  13
ATOM     13  N   UNL A   1      32.780  23.617  23.125  1.00  0.00    -0.370 N 
ATOM     14  C   UNL A   1      32.225  22.320  22.753  1.00  0.00     0.144 C 
BRANCH  13  15
ATOM     15  C   UNL A   1      32.506  24.758  22.255  1.00  0.00     0.152 C 
BRANCH  15  16
ATOM     16  C   UNL A   1      31.422  25.699  22.713  1.00  0.00    -0.017 A 
ATOM     17  C   UNL A   1      30.363  25.338  23.527  1.00  0.00     0.071 A 
ATOM     18  C   UNL A   1      31.342  27.094  22.370  1.00  0.00     0.033 A 
ATOM     19  S   UNL A   1      29.317  26.644  23.876  1.00  0.00    -0.136 S 
ATOM     20  C   UNL A   1      30.247  27.698  22.935  1.00  0.00     0.070 A 
ATOM     21  Br  UNL A   1      29.820  29.507  22.708  1.00  0.00    -0.039 Br
ENDBRANCH  15  16
ENDBRANCH  13  15
ENDBRANCH   7  13
ENDBRANCH   3   6
ENDBRANCH   1   2
BRANCH   1  22
ATOM     22  C   UNL A   1      32.369  27.953  25.870  1.00  0.00     0.042 C 
BRANCH  22  23
ATOM     23  C   UNL A   1      33.057  29.176  25.281  1.00  0.00     0.118 C 
BRANCH  23  24
ATOM     24  N   UNL A   1      32.654  30.438  25.881  1.00  0.00    -0.352 N 
ATOM     25  C   UNL A   1      33.189  31.198  26.891  1.00  0.00     0.251 C 
ATOM     26  H   UNL A   1      31.838  30.822  25.486  1.00  0.00     0.163 HD
ATOM     27  O   UNL A   1      32.588  32.206  27.255  1.00  0.00    -0.269 OA
BRANCH  25  28
ATOM     28  C   UNL A   1      34.444  30.822  27.584  1.00  0.00     0.039 A 
ATOM     29  C   UNL A   1      35.411  31.816  27.781  1.00  0.00     0.014 A 
ATOM     30  C   UNL A   1      34.717  29.517  27.996  1.00  0.00     0.014 A 
ATOM     31  C   UNL A   1      36.598  31.522  28.457  1.00  0.00     0.010 A 
ATOM     32  C   UNL A   1      35.858  29.244  28.752  1.00  0.00     0.010 A 
ATOM     33  C   UNL A   1      36.813  30.244  28.993  1.00  0.00    -0.014 A 
BRANCH  33  34
ATOM     34  C   UNL A   1      38.019  29.939  29.810  1.00  0.00     0.031 A 
ATOM     35  C   UNL A   1      39.083  29.013  29.289  1.00  0.00     0.074 A 
ATOM     36  C   UNL A   1      38.129  30.454  31.052  1.00  0.00     0.049 A 
ATOM     37  N   UNL A   1      40.161  28.570  29.887  1.00  0.00    -0.248 NA
ATOM     38  C   UNL A   1      38.902  28.494  27.923  1.00  0.00     0.031 C 
ATOM     39  C   UNL A   1      37.151  31.337  31.688  1.00  0.00     0.029 A 
ATOM     40  N   UNL A   1      39.110  30.307  32.004  1.00  0.00    -0.354 N 
ATOM     41  C   UNL A   1      40.774  27.716  28.980  1.00  0.00     0.074 A 
ATOM     42  C   UNL A   1      39.925  27.658  27.811  1.00  0.00     0.031 C 
ATOM     43  C   UNL A   1      37.593  31.677  32.909  1.00  0.00     0.029 A 
ATOM     44  C   UNL A   1      38.861  31.000  33.164  1.00  0.00     0.049 A 
ATOM     45  H   UNL A   1      39.914  29.756  31.867  1.00  0.00     0.167 HD
ATOM     46  C   UNL A   1      41.955  27.062  29.101  1.00  0.00     0.037 A 
ATOM     47  C   UNL A   1      39.567  31.076  34.308  1.00  0.00     0.037 A 
ATOM     48  C   UNL A   1      42.814  27.146  30.253  1.00  0.00     0.049 A 
ATOM     49  C   UNL A   1      40.864  30.323  34.426  1.00  0.00     0.074 A 
ATOM     50  C   UNL A   1      44.054  26.561  30.445  1.00  0.00     0.029 A 
ATOM     51  N   UNL A   1      42.524  27.857  31.408  1.00  0.00    -0.354 N 
ATOM     52  N   UNL A   1      41.458  29.559  33.541  1.00  0.00    -0.248 NA
ATOM     53  C   UNL A   1      41.591  30.441  35.698  1.00  0.00     0.031 C 
ATOM     54  C   UNL A   1      44.490  26.873  31.734  1.00  0.00     0.029 A 
ATOM     55  C   UNL A   1      43.551  27.704  32.325  1.00  0.00     0.049 A 
ATOM     56  H   UNL A   1      41.710  28.391  31.555  1.00  0.00     0.167 HD
ATOM     57  C   UNL A   1      42.635  29.127  34.137  1.00  0.00     0.074 A 
ATOM     58  C   UNL A   1      42.680  29.724  35.455  1.00  0.00     0.031 C 
ATOM     59  C   UNL A   1      43.591  28.309  33.633  1.00  0.00     0.037 A 
BRANCH  46  60
ATOM     60  C   UNL A   1      42.405  26.204  27.953  1.00  0.00     0.064 A 
ATOM     61  C   UNL A   1      43.267  26.719  26.972  1.00  0.00     0.173 A 
ATOM     62  C   UNL A   1      41.918  24.900  27.778  1.00  0.00     0.173 A 
ATOM     63  F   UNL A   1      43.755  27.964  27.086  1.00  0.00    -0.203 F 
ATOM     64  C   UNL A   1      43.611  25.966  25.853  1.00  0.00     0.198 A 
ATOM     65  C   UNL A   1      42.291  24.138  26.673  1.00  0.00     0.198 A 
ATOM     66  F   UNL A   1      41.099  24.356  28.690  1.00  0.00    -0.203 F 
ATOM     67  F   UNL A   1      44.405  26.494  24.911  1.00  0.00    -0.200 F 
ATOM     68  C   UNL A   1      43.127  24.675  25.706  1.00  0.00     0.200 A 
ATOM     69  F   UNL A   1      41.840  22.882  26.545  1.00  0.00    -0.200 F 
ATOM     70  F   UNL A   1      43.466  23.948  24.633  1.00  0.00    -0.200 F 
ENDBRANCH  46  60
BRANCH  47  71
ATOM     71  C   UNL A   1      39.071  31.927  35.422  1.00  0.00     0.064 A 
ATOM     72  C   UNL A   1      39.373  33.295  35.491  1.00  0.00     0.173 A 
ATOM     73  C   UNL A   1      38.309  31.375  36.462  1.00  0.00     0.173 A 
ATOM     74  F   UNL A   1      40.102  33.871  34.524  1.00  0.00    -0.203 F 
ATOM     75  C   UNL A   1      38.953  34.073  36.567  1.00  0.00     0.198 A 
ATOM     76  C   UNL A   1      37.864  32.161  37.524  1.00  0.00     0.198 A 
ATOM     77  F   UNL A   1      37.976  30.077  36.431  1.00  0.00    -0.203 F 
ATOM     78  F   UNL A   1      39.289  35.369  36.627  1.00  0.00    -0.200 F 
ATOM     79  C   UNL A   1      38.194  33.506  37.581  1.00  0.00     0.200 A 
ATOM     80  F   UNL A   1      37.110  31.615  38.488  1.00  0.00    -0.200 F 
ATOM     81  F   UNL A   1      37.780  34.257  38.611  1.00  0.00    -0.200 F 
ENDBRANCH  47  71
BRANCH  59  82
ATOM     82  C   UNL A   1      44.791  28.021  34.489  1.00  0.00     0.064 A 
ATOM     83  C   UNL A   1      44.786  26.925  35.368  1.00  0.00     0.173 A 
ATOM     84  C   UNL A   1      45.901  28.875  34.509  1.00  0.00     0.173 A 
ATOM     85  F   UNL A   1      43.743  26.082  35.393  1.00  0.00    -0.203 F 
ATOM     86  C   UNL A   1      45.841  26.712  36.251  1.00  0.00     0.198 A 
ATOM     87  C   UNL A   1      46.968  28.640  35.372  1.00  0.00     0.198 A 
ATOM     88  F   UNL A   1      45.958  29.928  33.680  1.00  0.00    -0.203 F 
ATOM     89  F   UNL A   1      45.794  25.685  37.111  1.00  0.00    -0.200 F 
ATOM     90  C   UNL A   1      46.931  27.567  36.251  1.00  0.00     0.200 A 
ATOM     91  F   UNL A   1      48.033  29.454  35.355  1.00  0.00    -0.200 F 
ATOM     92  F   UNL A   1      47.949  27.357  37.097  1.00  0.00    -0.200 F 
ENDBRANCH  59  82
ENDBRANCH  33  34
ENDBRANCH  25  28
ENDBRANCH  23  24
ENDBRANCH  22  23
ENDBRANCH   1  22
TORSDOF 13
ENDMDL
MODEL 2
REMARK VINA RESULT:     -11.9      4.670      9.484
REMARK SMILES CN(Cc1csc(Br)c1)c1cccc(F)c1C(=O)NCCCNC(=O)c1ccc(-c2c3nc(c(-c4c(F)c(F)c(F)c(F)c4F)c4ccc([nH]4)c(-c4c(F)c(F)c(F)c(F)c4F)c4nc(c(-c5c(F)c(F)c(F)c(F)c5F)c5ccc2[nH]5)C=C4)C=C3)cc1
REMARK SMILES IDX 20 1 19 2 17 3 18 4 16 6 10 7 11 8 12 9 14 10 13 11 15 12
REMARK SMILES IDX 2 13 1 14 3 15 4 16 5 17 9 18 6 19 7 20 8 21 21 22 22 23
REMARK SMILES IDX 23 24 24 25 25 27 26 28 27 29 88 30 28 31 87 32 29 33 30 34
REMARK SMILES IDX 31 35 81 36 32 37 86 38 80 39 82 40 33 41 85 42 79 43 78 44
REMARK SMILES IDX 34 46 66 47 46 48 65 49 47 50 50 51 64 52 83 53 48 54 49 55
REMARK SMILES IDX 63 57 84 58 51 59 35 60 36 61 44 62 37 63 38 64 42 65 45 66
REMARK SMILES IDX 39 67 40 68 43 69 41 70 67 71 68 72 76 73 69 74 70 75 74 76
REMARK SMILES IDX 77 77 71 78 72 79 75 80 73 81 52 82 53 83 61 84 54 85 55 86
REMARK SMILES IDX 59 87 62 88 56 89 57 90 60 91 58 92
REMARK H PARENT 19 5 23 26 82 45 50 56
REMARK Flexibility Score: inf
ROOT
ATOM      1  C   UNL A   1      36.622  20.710  24.781  1.00  0.00     0.118 C 
ENDROOT
BRANCH   1   2
ATOM      2  N   UNL A   1      35.894  21.100  25.980  1.00  0.00    -0.352 N 
ATOM      3  C   UNL A   1      34.559  21.391  26.197  1.00  0.00     0.256 C 
ATOM      4  O   UNL A   1      34.164  21.415  27.362  1.00  0.00    -0.269 OA
ATOM      5  H   UNL A   1      36.456  21.171  26.785  1.00  0.00     0.163 HD
BRANCH   3   6
ATOM      6  C   UNL A   1      33.629  21.704  25.082  1.00  0.00     0.098 A 
ATOM      7  C   UNL A   1      33.163  23.022  24.850  1.00  0.00     0.053 A 
ATOM      8  C   UNL A   1      32.349  23.251  23.720  1.00  0.00     0.027 A 
ATOM      9  C   UNL A   1      31.955  22.213  22.875  1.00  0.00     0.005 A 
ATOM     10  C   UNL A   1      33.140  20.665  24.282  1.00  0.00     0.138 A 
ATOM     11  C   UNL A   1      32.334  20.911  23.173  1.00  0.00     0.040 A 
ATOM     12  F   UNL A   1      33.405  19.382  24.576  1.00  0.00    -0.206 F 
BRANCH   7  13
ATOM     13  N   UNL A   1      33.378  24.082  25.734  1.00  0.00    -0.370 N 
ATOM     14  C   UNL A   1      32.220  24.467  26.533  1.00  0.00     0.144 C 
BRANCH  13  15
ATOM     15  C   UNL A   1      34.372  25.107  25.423  1.00  0.00     0.152 C 
BRANCH  15  16
ATOM     16  C   UNL A   1      33.850  26.508  25.243  1.00  0.00    -0.017 A 
ATOM     17  C   UNL A   1      33.279  26.988  24.078  1.00  0.00     0.071 A 
ATOM     18  C   UNL A   1      33.872  27.532  26.254  1.00  0.00     0.033 A 
ATOM     19  S   UNL A   1      32.773  28.616  24.207  1.00  0.00    -0.136 S 
ATOM     20  C   UNL A   1      33.324  28.707  25.803  1.00  0.00     0.070 A 
ATOM     21  Br  UNL A   1      33.183  30.258  26.843  1.00  0.00    -0.039 Br
ENDBRANCH  15  16
ENDBRANCH  13  15
ENDBRANCH   7  13
ENDBRANCH   3   6
ENDBRANCH   1   2
BRANCH   1  22
ATOM     22  C   UNL A   1      37.756  19.714  24.992  1.00  0.00     0.042 C 
BRANCH  22  23
ATOM     23  C   UNL A   1      38.972  20.218  25.754  1.00  0.00     0.118 C 
BRANCH  23  24
ATOM     24  N   UNL A   1      40.082  19.279  25.800  1.00  0.00    -0.352 N 
ATOM     25  C   UNL A   1      41.413  19.429  26.103  1.00  0.00     0.251 C 
ATOM     26  H   UNL A   1      39.830  18.356  25.569  1.00  0.00     0.163 HD
ATOM     27  O   UNL A   1      42.160  18.461  25.986  1.00  0.00    -0.269 OA
BRANCH  25  28
ATOM     28  C   UNL A   1      41.986  20.730  26.524  1.00  0.00     0.039 A 
ATOM     29  C   UNL A   1      42.350  21.643  25.526  1.00  0.00     0.014 A 
ATOM     30  C   UNL A   1      42.222  21.052  27.861  1.00  0.00     0.014 A 
ATOM     31  C   UNL A   1      42.864  22.896  25.870  1.00  0.00     0.010 A 
ATOM     32  C   UNL A   1      42.648  22.336  28.208  1.00  0.00     0.010 A 
ATOM     33  C   UNL A   1      42.973  23.274  27.217  1.00  0.00    -0.014 A 
BRANCH  33  34
ATOM     34  C   UNL A   1      43.415  24.642  27.604  1.00  0.00     0.031 A 
ATOM     35  C   UNL A   1      42.406  25.703  27.950  1.00  0.00     0.074 A 
ATOM     36  C   UNL A   1      44.728  24.947  27.588  1.00  0.00     0.049 A 
ATOM     37  N   UNL A   1      42.598  26.967  28.234  1.00  0.00    -0.248 NA
ATOM     38  C   UNL A   1      40.991  25.298  27.957  1.00  0.00     0.031 C 
ATOM     39  C   UNL A   1      45.805  24.020  27.236  1.00  0.00     0.029 A 
ATOM     40  N   UNL A   1      45.383  26.122  27.868  1.00  0.00    -0.354 N 
ATOM     41  C   UNL A   1      41.335  27.506  28.437  1.00  0.00     0.074 A 
ATOM     42  C   UNL A   1      40.379  26.449  28.193  1.00  0.00     0.031 C 
ATOM     43  C   UNL A   1      46.984  24.650  27.352  1.00  0.00     0.029 A 
ATOM     44  C   UNL A   1      46.748  26.038  27.737  1.00  0.00     0.049 A 
ATOM     45  H   UNL A   1      44.918  26.947  28.138  1.00  0.00     0.167 HD
ATOM     46  C   UNL A   1      41.005  28.763  28.821  1.00  0.00     0.037 A 
ATOM     47  C   UNL A   1      47.704  26.973  27.900  1.00  0.00     0.037 A 
ATOM     48  C   UNL A   1      41.961  29.805  29.093  1.00  0.00     0.049 A 
ATOM     49  C   UNL A   1      47.310  28.368  28.305  1.00  0.00     0.074 A 
ATOM     50  C   UNL A   1      41.722  31.094  29.539  1.00  0.00     0.029 A 
ATOM     51  N   UNL A   1      43.334  29.679  28.947  1.00  0.00    -0.354 N 
ATOM     52  N   UNL A   1      46.115  28.851  28.543  1.00  0.00    -0.248 NA
ATOM     53  C   UNL A   1      48.395  29.347  28.465  1.00  0.00     0.031 C 
ATOM     54  C   UNL A   1      42.946  31.765  29.610  1.00  0.00     0.029 A 
ATOM     55  C   UNL A   1      43.953  30.877  29.268  1.00  0.00     0.049 A 
ATOM     56  H   UNL A   1      43.799  28.862  28.656  1.00  0.00     0.167 HD
ATOM     57  C   UNL A   1      46.304  30.178  28.904  1.00  0.00     0.074 A 
ATOM     58  C   UNL A   1      47.730  30.423  28.867  1.00  0.00     0.031 C 
ATOM     59  C   UNL A   1      45.375  31.108  29.237  1.00  0.00     0.037 A 
BRANCH  46  60
ATOM     60  C   UNL A   1      39.548  29.089  28.987  1.00  0.00     0.064 A 
ATOM     61  C   UNL A   1      38.933  28.986  30.245  1.00  0.00     0.173 A 
ATOM     62  C   UNL A   1      38.742  29.422  27.888  1.00  0.00     0.173 A 
ATOM     63  F   UNL A   1      39.656  28.662  31.327  1.00  0.00    -0.203 F 
ATOM     64  C   UNL A   1      37.564  29.189  30.391  1.00  0.00     0.198 A 
ATOM     65  C   UNL A   1      37.378  29.656  28.045  1.00  0.00     0.198 A 
ATOM     66  F   UNL A   1      39.281  29.542  26.666  1.00  0.00    -0.203 F 
ATOM     67  F   UNL A   1      36.992  29.046  31.596  1.00  0.00    -0.200 F 
ATOM     68  C   UNL A   1      36.788  29.527  29.293  1.00  0.00     0.200 A 
ATOM     69  F   UNL A   1      36.634  30.007  26.986  1.00  0.00    -0.200 F 
ATOM     70  F   UNL A   1      35.471  29.731  29.438  1.00  0.00    -0.200 F 
ENDBRANCH  46  60
BRANCH  47  71
ATOM     71  C   UNL A   1      49.132  26.605  27.708  1.00  0.00     0.064 A 
ATOM     72  C   UNL A   1      49.690  26.472  26.428  1.00  0.00     0.173 A 
ATOM     73  C   UNL A   1      49.960  26.345  28.809  1.00  0.00     0.173 A 
ATOM     74  F   UNL A   1      48.939  26.706  25.341  1.00  0.00    -0.203 F 
ATOM     75  C   UNL A   1      51.012  26.071  26.255  1.00  0.00     0.198 A 
ATOM     76  C   UNL A   1      51.292  25.971  28.636  1.00  0.00     0.198 A 
ATOM     77  F   UNL A   1      49.480  26.478  30.054  1.00  0.00    -0.203 F 
ATOM     78  F   UNL A   1      51.507  25.915  25.020  1.00  0.00    -0.200 F 
ATOM     79  C   UNL A   1      51.814  25.825  27.360  1.00  0.00     0.200 A 
ATOM     80  F   UNL A   1      52.071  25.760  29.706  1.00  0.00    -0.200 F 
ATOM     81  F   UNL A   1      53.090  25.451  27.194  1.00  0.00    -0.200 F 
ENDBRANCH  47  71
BRANCH  59  82
ATOM     82  C   UNL A   1      45.859  32.478  29.616  1.00  0.00     0.064 A 
ATOM     83  C   UNL A   1      46.130  32.787  30.958  1.00  0.00     0.173 A 
ATOM     84  C   UNL A   1      45.964  33.507  28.670  1.00  0.00     0.173 A 
ATOM     85  F   UNL A   1      46.035  31.840  31.903  1.00  0.00    -0.203 F 
ATOM     86  C   UNL A   1      46.466  34.083  31.341  1.00  0.00     0.198 A 
ATOM     87  C   UNL A   1      46.332  34.795  29.052  1.00  0.00     0.198 A 
ATOM     88  F   UNL A   1      45.728  33.259  27.373  1.00  0.00    -0.203 F 
ATOM     89  F   UNL A   1      46.677  34.364  32.635  1.00  0.00    -0.200 F 
ATOM     90  C   UNL A   1      46.569  35.084  30.388  1.00  0.00     0.200 A 
ATOM     91  F   UNL A   1      46.454  35.757  28.128  1.00  0.00    -0.200 F 
ATOM     92  F   UNL A   1      46.899  36.329  30.757  1.00  0.00    -0.200 F 
ENDBRANCH  59  82
ENDBRANCH  33  34
ENDBRANCH  25  28
ENDBRANCH  23  24
ENDBRANCH  22  23
ENDBRANCH   1  22
TORSDOF 13
ENDMDL
MODEL 3
REMARK VINA RESULT:     -11.8      3.313      8.342
REMARK SMILES CN(Cc1csc(Br)c1)c1cccc(F)c1C(=O)NCCCNC(=O)c1ccc(-c2c3nc(c(-c4c(F)c(F)c(F)c(F)c4F)c4ccc([nH]4)c(-c4c(F)c(F)c(F)c(F)c4F)c4nc(c(-c5c(F)c(F)c(F)c(F)c5F)c5ccc2[nH]5)C=C4)C=C3)cc1
REMARK SMILES IDX 20 1 19 2 17 3 18 4 16 6 10 7 11 8 12 9 14 10 13 11 15 12
REMARK SMILES IDX 2 13 1 14 3 15 4 16 5 17 9 18 6 19 7 20 8 21 21 22 22 23
REMARK SMILES IDX 23 24 24 25 25 27 26 28 27 29 88 30 28 31 87 32 29 33 30 34
REMARK SMILES IDX 31 35 81 36 32 37 86 38 80 39 82 40 33 41 85 42 79 43 78 44
REMARK SMILES IDX 34 46 66 47 46 48 65 49 47 50 50 51 64 52 83 53 48 54 49 55
REMARK SMILES IDX 63 57 84 58 51 59 35 60 36 61 44 62 37 63 38 64 42 65 45 66
REMARK SMILES IDX 39 67 40 68 43 69 41 70 67 71 68 72 76 73 69 74 70 75 74 76
REMARK SMILES IDX 77 77 71 78 72 79 75 80 73 81 52 82 53 83 61 84 54 85 55 86
REMARK SMILES IDX 59 87 62 88 56 89 57 90 60 91 58 92
REMARK H PARENT 19 5 23 26 82 45 50 56
REMARK Flexibility Score: inf
ROOT
ATOM      1  C   UNL A   1      33.754  28.698  24.918  1.00  0.00     0.118 C 
ENDROOT
BRANCH   1   2
ATOM      2  N   UNL A   1      33.970  27.966  23.678  1.00  0.00    -0.352 N 
ATOM      3  C   UNL A   1      33.089  27.421  22.761  1.00  0.00     0.256 C 
ATOM      4  O   UNL A   1      33.537  27.105  21.659  1.00  0.00    -0.269 OA
ATOM      5  H   UNL A   1      34.919  27.834  23.450  1.00  0.00     0.163 HD
BRANCH   3   6
ATOM      6  C   UNL A   1      31.660  27.180  23.089  1.00  0.00     0.098 A 
ATOM      7  C   UNL A   1      31.241  26.013  23.774  1.00  0.00     0.053 A 
ATOM      8  C   UNL A   1      29.877  25.899  24.121  1.00  0.00     0.027 A 
ATOM      9  C   UNL A   1      28.942  26.870  23.758  1.00  0.00     0.005 A 
ATOM     10  C   UNL A   1      30.691  28.088  22.647  1.00  0.00     0.138 A 
ATOM     11  C   UNL A   1      29.349  27.956  22.997  1.00  0.00     0.040 A 
ATOM     12  F   UNL A   1      31.017  29.109  21.837  1.00  0.00    -0.206 F 
BRANCH   7  13
ATOM     13  N   UNL A   1      32.079  24.926  24.031  1.00  0.00    -0.370 N 
ATOM     14  C   UNL A   1      32.056  23.873  23.023  1.00  0.00     0.144 C 
BRANCH  13  15
ATOM     15  C   UNL A   1      32.399  24.556  25.408  1.00  0.00     0.152 C 
BRANCH  15  16
ATOM     16  C   UNL A   1      33.664  23.763  25.607  1.00  0.00    -0.017 A 
ATOM     17  C   UNL A   1      33.710  22.393  25.793  1.00  0.00     0.071 A 
ATOM     18  C   UNL A   1      34.991  24.320  25.629  1.00  0.00     0.033 A 
ATOM     19  S   UNL A   1      35.303  21.800  25.972  1.00  0.00    -0.136 S 
ATOM     20  C   UNL A   1      35.947  23.356  25.825  1.00  0.00     0.070 A 
ATOM     21  Br  UNL A   1      37.784  23.711  25.911  1.00  0.00    -0.039 Br
ENDBRANCH  15  16
ENDBRANCH  13  15
ENDBRANCH   7  13
ENDBRANCH   3   6
ENDBRANCH   1   2
BRANCH   1  22
ATOM     22  C   UNL A   1      33.983  27.906  26.200  1.00  0.00     0.042 C 
BRANCH  22  23
ATOM     23  C   UNL A   1      33.351  28.463  27.467  1.00  0.00     0.118 C 
BRANCH  23  24
ATOM     24  N   UNL A   1      33.462  29.906  27.610  1.00  0.00    -0.352 N 
ATOM     25  C   UNL A   1      34.486  30.722  28.023  1.00  0.00     0.251 C 
ATOM     26  H   UNL A   1      32.643  30.393  27.362  1.00  0.00     0.163 HD
ATOM     27  O   UNL A   1      34.278  31.928  28.122  1.00  0.00    -0.269 OA
BRANCH  25  28
ATOM     28  C   UNL A   1      35.819  30.191  28.394  1.00  0.00     0.039 A 
ATOM     29  C   UNL A   1      36.840  30.246  27.436  1.00  0.00     0.014 A 
ATOM     30  C   UNL A   1      36.078  29.597  29.630  1.00  0.00     0.014 A 
ATOM     31  C   UNL A   1      38.123  29.789  27.745  1.00  0.00     0.010 A 
ATOM     32  C   UNL A   1      37.380  29.227  29.971  1.00  0.00     0.010 A 
ATOM     33  C   UNL A   1      38.420  29.319  29.033  1.00  0.00    -0.014 A 
BRANCH  33  34
ATOM     34  C   UNL A   1      39.804  28.931  29.416  1.00  0.00     0.031 A 
ATOM     35  C   UNL A   1      40.640  29.832  30.283  1.00  0.00     0.074 A 
ATOM     36  C   UNL A   1      40.332  27.787  28.935  1.00  0.00     0.049 A 
ATOM     37  N   UNL A   1      41.889  29.698  30.654  1.00  0.00    -0.248 NA
ATOM     38  C   UNL A   1      39.998  31.060  30.780  1.00  0.00     0.031 C 
ATOM     39  C   UNL A   1      39.640  26.842  28.058  1.00  0.00     0.029 A 
ATOM     40  N   UNL A   1      41.574  27.225  29.110  1.00  0.00    -0.354 N 
ATOM     41  C   UNL A   1      42.182  30.824  31.412  1.00  0.00     0.074 A 
ATOM     42  C   UNL A   1      41.001  31.658  31.405  1.00  0.00     0.031 C 
ATOM     43  C   UNL A   1      40.452  25.806  27.797  1.00  0.00     0.029 A 
ATOM     44  C   UNL A   1      41.739  26.033  28.446  1.00  0.00     0.049 A 
ATOM     45  H   UNL A   1      42.279  27.637  29.659  1.00  0.00     0.167 HD
ATOM     46  C   UNL A   1      43.325  31.121  32.076  1.00  0.00     0.037 A 
ATOM     47  C   UNL A   1      42.808  25.218  28.361  1.00  0.00     0.037 A 
ATOM     48  C   UNL A   1      44.489  30.274  32.106  1.00  0.00     0.049 A 
ATOM     49  C   UNL A   1      44.073  25.581  29.090  1.00  0.00     0.074 A 
ATOM     50  C   UNL A   1      45.674  30.467  32.796  1.00  0.00     0.029 A 
ATOM     51  N   UNL A   1      44.616  29.077  31.419  1.00  0.00    -0.354 N 
ATOM     52  N   UNL A   1      44.320  26.624  29.844  1.00  0.00    -0.248 NA
ATOM     53  C   UNL A   1      45.207  24.655  28.958  1.00  0.00     0.031 C 
ATOM     54  C   UNL A   1      46.537  29.414  32.484  1.00  0.00     0.029 A 
ATOM     55  C   UNL A   1      45.870  28.533  31.648  1.00  0.00     0.049 A 
ATOM     56  H   UNL A   1      43.920  28.673  30.851  1.00  0.00     0.167 HD
ATOM     57  C   UNL A   1      45.623  26.469  30.296  1.00  0.00     0.074 A 
ATOM     58  C   UNL A   1      46.112  25.224  29.743  1.00  0.00     0.031 C 
ATOM     59  C   UNL A   1      46.346  27.288  31.099  1.00  0.00     0.037 A 
BRANCH  46  60
ATOM     60  C   UNL A   1      43.379  32.411  32.844  1.00  0.00     0.064 A 
ATOM     61  C   UNL A   1      42.922  32.472  34.170  1.00  0.00     0.173 A 
ATOM     62  C   UNL A   1      43.803  33.605  32.242  1.00  0.00     0.173 A 
ATOM     63  F   UNL A   1      42.496  31.361  34.790  1.00  0.00    -0.203 F 
ATOM     64  C   UNL A   1      42.874  33.682  34.857  1.00  0.00     0.198 A 
ATOM     65  C   UNL A   1      43.784  34.808  32.944  1.00  0.00     0.198 A 
ATOM     66  F   UNL A   1      44.258  33.602  30.980  1.00  0.00    -0.203 F 
ATOM     67  F   UNL A   1      42.396  33.720  36.109  1.00  0.00    -0.200 F 
ATOM     68  C   UNL A   1      43.308  34.848  34.246  1.00  0.00     0.200 A 
ATOM     69  F   UNL A   1      44.227  35.930  32.359  1.00  0.00    -0.200 F 
ATOM     70  F   UNL A   1      43.270  36.010  34.911  1.00  0.00    -0.200 F 
ENDBRANCH  46  60
BRANCH  47  71
ATOM     71  C   UNL A   1      42.710  23.959  27.574  1.00  0.00     0.064 A 
ATOM     72  C   UNL A   1      42.349  22.744  28.176  1.00  0.00     0.173 A 
ATOM     73  C   UNL A   1      43.011  23.943  26.205  1.00  0.00     0.173 A 
ATOM     74  F   UNL A   1      42.056  22.704  29.484  1.00  0.00    -0.203 F 
ATOM     75  C   UNL A   1      42.316  21.560  27.445  1.00  0.00     0.198 A 
ATOM     76  C   UNL A   1      42.949  22.762  25.468  1.00  0.00     0.198 A 
ATOM     77  F   UNL A   1      43.340  25.082  25.579  1.00  0.00    -0.203 F 
ATOM     78  F   UNL A   1      42.006  20.407  28.054  1.00  0.00    -0.200 F 
ATOM     79  C   UNL A   1      42.612  21.570  26.090  1.00  0.00     0.200 A 
ATOM     80  F   UNL A   1      43.210  22.781  24.153  1.00  0.00    -0.200 F 
ATOM     81  F   UNL A   1      42.568  20.431  25.383  1.00  0.00    -0.200 F 
ENDBRANCH  47  71
BRANCH  59  82
ATOM     82  C   UNL A   1      47.741  26.865  31.459  1.00  0.00     0.064 A 
ATOM     83  C   UNL A   1      48.824  27.234  30.646  1.00  0.00     0.173 A 
ATOM     84  C   UNL A   1      47.994  26.022  32.549  1.00  0.00     0.173 A 
ATOM     85  F   UNL A   1      48.634  28.032  29.586  1.00  0.00    -0.203 F 
ATOM     86  C   UNL A   1      50.107  26.754  30.901  1.00  0.00     0.198 A 
ATOM     87  C   UNL A   1      49.283  25.569  32.819  1.00  0.00     0.198 A 
ATOM     88  F   UNL A   1      46.994  25.651  33.363  1.00  0.00    -0.203 F 
ATOM     89  F   UNL A   1      51.118  27.084  30.085  1.00  0.00    -0.200 F 
ATOM     90  C   UNL A   1      50.335  25.925  31.988  1.00  0.00     0.200 A 
ATOM     91  F   UNL A   1      49.507  24.787  33.884  1.00  0.00    -0.200 F 
ATOM     92  F   UNL A   1      51.570  25.468  32.235  1.00  0.00    -0.200 F 
ENDBRANCH  59  82
ENDBRANCH  33  34
ENDBRANCH  25  28
ENDBRANCH  23  24
ENDBRANCH  22  23
ENDBRANCH   1  22
TORSDOF 13
ENDMDL
