MODEL 1
REMARK VINA RESULT:     -11.2      0.000      0.000
REMARK SMILES CC[C@@H]1CCC[C@](CCCCCO)(C(=O)NCCCNC(=O)c2ccc(-c3c4nc(c(-c5c(F)c(F)c(F)c(F)c5F)c5ccc([nH]5)c(-c5c(F)c(F)c(F)c(F)c5F)c5nc(c(-c6c(F)c(F)c(F)c(F)c6F)c6ccc3[nH]6)C=C5)C=C4)cc2)C1
REMARK SMILES IDX 14 1 15 2 16 3 7 5 3 6 4 7 86 8 5 9 6 10 2 11 1 12 8 13 9 14
REMARK SMILES IDX 10 15 11 16 12 17 13 18 17 20 18 21 19 22 20 23 21 24 22 26
REMARK SMILES IDX 23 27 24 28 85 29 25 30 84 31 26 32 27 33 28 34 78 35 29 36
REMARK SMILES IDX 83 37 77 38 79 39 30 40 82 41 76 42 75 43 31 45 63 46 43 47
REMARK SMILES IDX 62 48 44 49 47 50 61 51 80 52 45 53 46 54 60 56 81 57 48 58
REMARK SMILES IDX 32 59 33 60 41 61 34 62 35 63 39 64 42 65 36 66 37 67 40 68
REMARK SMILES IDX 38 69 64 70 65 71 73 72 66 73 67 74 71 75 74 76 68 77 69 78
REMARK SMILES IDX 72 79 70 80 49 81 50 82 58 83 51 84 52 85 56 86 59 87 53 88
REMARK SMILES IDX 54 89 57 90 55 91
REMARK H PARENT 16 4 13 19 20 25 79 44 47 55
REMARK Flexibility Score: inf
ROOT
ATOM      1  C   UNL A   1      36.902  23.080  25.639  1.00  0.00     0.226 C 
ATOM      2  O   UNL A   1      37.527  24.037  26.100  1.00  0.00    -0.274 OA
ATOM      3  N   UNL A   1      37.638  22.014  25.203  1.00  0.00    -0.356 N 
ATOM      4  H   UNL A   1      38.612  22.144  25.271  1.00  0.00     0.163 HD
ENDROOT
BRANCH   1   5
ATOM      5  C   UNL A   1      35.364  23.079  25.537  1.00  0.00     0.049 C 
ATOM      6  C   UNL A   1      33.414  24.783  25.557  1.00  0.00    -0.010 C 
ATOM      7  C   UNL A   1      32.704  23.980  26.658  1.00  0.00     0.003 C 
ATOM      8  C   UNL A   1      34.924  24.565  25.630  1.00  0.00     0.020 C 
ATOM      9  C   UNL A   1      33.192  22.535  26.779  1.00  0.00     0.001 C 
ATOM     10  C   UNL A   1      34.721  22.408  26.780  1.00  0.00     0.017 C 
BRANCH   6  11
ATOM     11  C   UNL A   1      33.115  26.293  25.666  1.00  0.00     0.000 C 
ATOM     12  C   UNL A   1      33.532  27.060  24.423  1.00  0.00     0.004 C 
ENDBRANCH   6  11
BRANCH   5  13
ATOM     13  C   UNL A   1      34.923  22.328  24.238  1.00  0.00     0.017 C 
BRANCH  13  14
ATOM     14  C   UNL A   1      34.767  23.187  22.968  1.00  0.00     0.001 C 
BRANCH  14  15
ATOM     15  C   UNL A   1      33.410  23.098  22.262  1.00  0.00     0.002 C 
BRANCH  15  16
ATOM     16  C   UNL A   1      32.307  22.337  23.011  1.00  0.00     0.028 C 
BRANCH  16  17
ATOM     17  C   UNL A   1      32.051  20.919  22.513  1.00  0.00     0.156 C 
BRANCH  17  18
ATOM     18  O   UNL A   1      31.403  20.936  21.250  1.00  0.00    -0.396 OA
ATOM     19  H   UNL A   1      31.713  20.188  20.717  1.00  0.00     0.210 HD
ENDBRANCH  17  18
ENDBRANCH  16  17
ENDBRANCH  15  16
ENDBRANCH  14  15
ENDBRANCH  13  14
ENDBRANCH   5  13
ENDBRANCH   1   5
BRANCH   3  20
ATOM     20  C   UNL A   1      37.250  20.718  24.657  1.00  0.00     0.117 C 
BRANCH  20  21
ATOM     21  C   UNL A   1      38.184  19.596  25.067  1.00  0.00     0.042 C 
BRANCH  21  22
ATOM     22  C   UNL A   1      39.363  20.092  25.876  1.00  0.00     0.118 C 
BRANCH  22  23
ATOM     23  N   UNL A   1      40.396  19.070  26.021  1.00  0.00    -0.352 N 
ATOM     24  C   UNL A   1      41.760  19.187  26.123  1.00  0.00     0.251 C 
ATOM     25  H   UNL A   1      40.059  18.146  26.050  1.00  0.00     0.163 HD
ATOM     26  O   UNL A   1      42.473  18.196  25.967  1.00  0.00    -0.269 OA
BRANCH  24  27
ATOM     27  C   UNL A   1      42.373  20.503  26.388  1.00  0.00     0.039 A 
ATOM     28  C   UNL A   1      42.865  21.268  25.328  1.00  0.00     0.014 A 
ATOM     29  C   UNL A   1      42.462  20.987  27.692  1.00  0.00     0.014 A 
ATOM     30  C   UNL A   1      43.363  22.550  25.576  1.00  0.00     0.010 A 
ATOM     31  C   UNL A   1      42.807  22.310  27.916  1.00  0.00     0.010 A 
ATOM     32  C   UNL A   1      43.291  23.100  26.866  1.00  0.00    -0.014 A 
BRANCH  32  33
ATOM     33  C   UNL A   1      43.753  24.479  27.164  1.00  0.00     0.031 A 
ATOM     34  C   UNL A   1      42.774  25.494  27.696  1.00  0.00     0.074 A 
ATOM     35  C   UNL A   1      45.019  24.839  26.882  1.00  0.00     0.049 A 
ATOM     36  N   UNL A   1      42.943  26.773  27.919  1.00  0.00    -0.248 NA
ATOM     37  C   UNL A   1      41.406  25.019  27.974  1.00  0.00     0.031 C 
ATOM     38  C   UNL A   1      46.042  23.964  26.304  1.00  0.00     0.029 A 
ATOM     39  N   UNL A   1      45.663  26.042  27.033  1.00  0.00    -0.354 N 
ATOM     40  C   UNL A   1      41.706  27.250  28.332  1.00  0.00     0.074 A 
ATOM     41  C   UNL A   1      40.776  26.147  28.258  1.00  0.00     0.031 C 
ATOM     42  C   UNL A   1      47.192  24.648  26.184  1.00  0.00     0.029 A 
ATOM     43  C   UNL A   1      46.976  26.020  26.630  1.00  0.00     0.049 A 
ATOM     44  H   UNL A   1      45.225  26.844  27.398  1.00  0.00     0.167 HD
ATOM     45  C   UNL A   1      41.381  28.488  28.771  1.00  0.00     0.037 A 
ATOM     46  C   UNL A   1      47.898  27.001  26.614  1.00  0.00     0.037 A 
ATOM     47  C   UNL A   1      42.322  29.567  28.888  1.00  0.00     0.049 A 
ATOM     48  C   UNL A   1      47.511  28.369  27.115  1.00  0.00     0.074 A 
ATOM     49  C   UNL A   1      42.117  30.840  29.389  1.00  0.00     0.029 A 
ATOM     50  N   UNL A   1      43.652  29.498  28.499  1.00  0.00    -0.354 N 
ATOM     51  N   UNL A   1      46.357  28.786  27.577  1.00  0.00    -0.248 NA
ATOM     52  C   UNL A   1      48.558  29.399  27.098  1.00  0.00     0.031 C 
ATOM     53  C   UNL A   1      43.308  31.559  29.253  1.00  0.00     0.029 A 
ATOM     54  C   UNL A   1      44.273  30.714  28.727  1.00  0.00     0.049 A 
ATOM     55  H   UNL A   1      44.089  28.702  28.118  1.00  0.00     0.167 HD
ATOM     56  C   UNL A   1      46.549  30.114  27.937  1.00  0.00     0.074 A 
ATOM     57  C   UNL A   1      47.935  30.426  27.656  1.00  0.00     0.031 C 
ATOM     58  C   UNL A   1      45.658  30.997  28.453  1.00  0.00     0.037 A 
BRANCH  45  59
ATOM     59  C   UNL A   1      39.954  28.737  29.172  1.00  0.00     0.064 A 
ATOM     60  C   UNL A   1      39.002  29.213  28.257  1.00  0.00     0.173 A 
ATOM     61  C   UNL A   1      39.523  28.455  30.476  1.00  0.00     0.173 A 
ATOM     62  F   UNL A   1      39.363  29.512  26.999  1.00  0.00    -0.203 F 
ATOM     63  C   UNL A   1      37.681  29.426  28.640  1.00  0.00     0.198 A 
ATOM     64  C   UNL A   1      38.192  28.635  30.847  1.00  0.00     0.198 A 
ATOM     65  F   UNL A   1      40.390  27.996  31.392  1.00  0.00    -0.203 F 
ATOM     66  F   UNL A   1      36.803  29.931  27.763  1.00  0.00    -0.200 F 
ATOM     67  C   UNL A   1      37.274  29.127  29.931  1.00  0.00     0.200 A 
ATOM     68  F   UNL A   1      37.799  28.332  32.092  1.00  0.00    -0.200 F 
ATOM     69  F   UNL A   1      36.000  29.319  30.296  1.00  0.00    -0.200 F 
ENDBRANCH  45  59
BRANCH  46  70
ATOM     70  C   UNL A   1      49.278  26.729  26.132  1.00  0.00     0.064 A 
ATOM     71  C   UNL A   1      49.641  26.987  24.802  1.00  0.00     0.173 A 
ATOM     72  C   UNL A   1      50.255  26.184  26.978  1.00  0.00     0.173 A 
ATOM     73  F   UNL A   1      48.738  27.490  23.947  1.00  0.00    -0.203 F 
ATOM     74  C   UNL A   1      50.916  26.679  24.328  1.00  0.00     0.198 A 
ATOM     75  C   UNL A   1      51.541  25.910  26.512  1.00  0.00     0.198 A 
ATOM     76  F   UNL A   1      49.966  25.927  28.261  1.00  0.00    -0.203 F 
ATOM     77  F   UNL A   1      51.215  26.880  23.038  1.00  0.00    -0.200 F 
ATOM     78  C   UNL A   1      51.865  26.145  25.185  1.00  0.00     0.200 A 
ATOM     79  F   UNL A   1      52.461  25.412  27.349  1.00  0.00    -0.200 F 
ATOM     80  F   UNL A   1      53.091  25.849  24.731  1.00  0.00    -0.200 F 
ENDBRANCH  46  70
BRANCH  58  81
ATOM     81  C   UNL A   1      46.165  32.369  28.790  1.00  0.00     0.064 A 
ATOM     82  C   UNL A   1      46.722  32.664  30.043  1.00  0.00     0.173 A 
ATOM     83  C   UNL A   1      46.133  33.391  27.828  1.00  0.00     0.173 A 
ATOM     84  F   UNL A   1      46.763  31.726  31.001  1.00  0.00    -0.203 F 
ATOM     85  C   UNL A   1      47.200  33.940  30.331  1.00  0.00     0.198 A 
ATOM     86  C   UNL A   1      46.646  34.654  28.106  1.00  0.00     0.198 A 
ATOM     87  F   UNL A   1      45.620  33.158  26.611  1.00  0.00    -0.203 F 
ATOM     88  F   UNL A   1      47.678  34.214  31.552  1.00  0.00    -0.200 F 
ATOM     89  C   UNL A   1      47.171  34.930  29.360  1.00  0.00     0.200 A 
ATOM     90  F   UNL A   1      46.634  35.604  27.161  1.00  0.00    -0.200 F 
ATOM     91  F   UNL A   1      47.642  36.154  29.635  1.00  0.00    -0.200 F 
ENDBRANCH  58  81
ENDBRANCH  32  33
ENDBRANCH  24  27
ENDBRANCH  22  23
ENDBRANCH  21  22
ENDBRANCH  20  21
ENDBRANCH   3  20
TORSDOF 17
ENDMDL
MODEL 2
REMARK VINA RESULT:     -11.1      6.010     11.361
REMARK SMILES CC[C@@H]1CCC[C@](CCCCCO)(C(=O)NCCCNC(=O)c2ccc(-c3c4nc(c(-c5c(F)c(F)c(F)c(F)c5F)c5ccc([nH]5)c(-c5c(F)c(F)c(F)c(F)c5F)c5nc(c(-c6c(F)c(F)c(F)c(F)c6F)c6ccc3[nH]6)C=C5)C=C4)cc2)C1
REMARK SMILES IDX 14 1 15 2 16 3 7 5 3 6 4 7 86 8 5 9 6 10 2 11 1 12 8 13 9 14
REMARK SMILES IDX 10 15 11 16 12 17 13 18 17 20 18 21 19 22 20 23 21 24 22 26
REMARK SMILES IDX 23 27 24 28 85 29 25 30 84 31 26 32 27 33 28 34 78 35 29 36
REMARK SMILES IDX 83 37 77 38 79 39 30 40 82 41 76 42 75 43 31 45 63 46 43 47
REMARK SMILES IDX 62 48 44 49 47 50 61 51 80 52 45 53 46 54 60 56 81 57 48 58
REMARK SMILES IDX 32 59 33 60 41 61 34 62 35 63 39 64 42 65 36 66 37 67 40 68
REMARK SMILES IDX 38 69 64 70 65 71 73 72 66 73 67 74 71 75 74 76 68 77 69 78
REMARK SMILES IDX 72 79 70 80 49 81 50 82 58 83 51 84 52 85 56 86 59 87 53 88
REMARK SMILES IDX 54 89 57 90 55 91
REMARK H PARENT 16 4 13 19 20 25 79 44 47 55
REMARK Flexibility Score: inf
ROOT
ATOM      1  C   UNL A   1      33.542  29.080  26.403  1.00  0.00     0.226 C 
ATOM      2  O   UNL A   1      34.579  28.876  27.038  1.00  0.00    -0.274 OA
ATOM      3  N   UNL A   1      32.844  30.215  26.705  1.00  0.00    -0.356 N 
ATOM      4  H   UNL A   1      33.233  30.741  27.441  1.00  0.00     0.163 HD
ENDROOT
BRANCH   1   5
ATOM      5  C   UNL A   1      33.036  28.098  25.326  1.00  0.00     0.049 C 
ATOM      6  C   UNL A   1      33.589  25.728  24.443  1.00  0.00    -0.010 C 
ATOM      7  C   UNL A   1      33.666  26.265  23.006  1.00  0.00     0.003 C 
ATOM      8  C   UNL A   1      33.927  26.832  25.443  1.00  0.00     0.020 C 
ATOM      9  C   UNL A   1      32.968  27.613  22.813  1.00  0.00     0.001 C 
ATOM     10  C   UNL A   1      33.317  28.639  23.899  1.00  0.00     0.017 C 
BRANCH   6  11
ATOM     11  C   UNL A   1      34.547  24.538  24.662  1.00  0.00     0.000 C 
ATOM     12  C   UNL A   1      34.772  23.731  23.394  1.00  0.00     0.004 C 
ENDBRANCH   6  11
BRANCH   5  13
ATOM     13  C   UNL A   1      31.501  27.859  25.512  1.00  0.00     0.017 C 
BRANCH  13  14
ATOM     14  C   UNL A   1      31.095  26.700  26.443  1.00  0.00     0.001 C 
BRANCH  14  15
ATOM     15  C   UNL A   1      30.124  25.673  25.849  1.00  0.00     0.002 C 
BRANCH  15  16
ATOM     16  C   UNL A   1      30.656  24.240  25.713  1.00  0.00     0.028 C 
BRANCH  16  17
ATOM     17  C   UNL A   1      31.519  23.759  26.874  1.00  0.00     0.156 C 
BRANCH  17  18
ATOM     18  O   UNL A   1      30.855  22.744  27.610  1.00  0.00    -0.396 OA
ATOM     19  H   UNL A   1      31.360  21.918  27.551  1.00  0.00     0.210 HD
ENDBRANCH  17  18
ENDBRANCH  16  17
ENDBRANCH  15  16
ENDBRANCH  14  15
ENDBRANCH  13  14
ENDBRANCH   5  13
ENDBRANCH   1   5
BRANCH   3  20
ATOM     20  C   UNL A   1      31.630  30.794  26.141  1.00  0.00     0.117 C 
BRANCH  20  21
ATOM     21  C   UNL A   1      31.417  32.240  26.544  1.00  0.00     0.042 C 
BRANCH  21  22
ATOM     22  C   UNL A   1      32.602  32.811  27.293  1.00  0.00     0.118 C 
BRANCH  22  23
ATOM     23  N   UNL A   1      32.413  34.220  27.624  1.00  0.00    -0.352 N 
ATOM     24  C   UNL A   1      32.942  34.978  28.639  1.00  0.00     0.251 C 
ATOM     25  H   UNL A   1      31.805  34.707  27.021  1.00  0.00     0.163 HD
ATOM     26  O   UNL A   1      32.451  36.075  28.905  1.00  0.00    -0.269 OA
BRANCH  24  27
ATOM     27  C   UNL A   1      34.080  34.469  29.430  1.00  0.00     0.039 A 
ATOM     28  C   UNL A   1      33.853  33.881  30.676  1.00  0.00     0.014 A 
ATOM     29  C   UNL A   1      35.379  34.568  28.936  1.00  0.00     0.014 A 
ATOM     30  C   UNL A   1      34.923  33.321  31.379  1.00  0.00     0.010 A 
ATOM     31  C   UNL A   1      36.408  33.877  29.555  1.00  0.00     0.010 A 
ATOM     32  C   UNL A   1      36.201  33.270  30.800  1.00  0.00    -0.014 A 
BRANCH  32  33
ATOM     33  C   UNL A   1      37.354  32.632  31.484  1.00  0.00     0.031 A 
ATOM     34  C   UNL A   1      38.077  31.491  30.816  1.00  0.00     0.074 A 
ATOM     35  C   UNL A   1      37.695  33.019  32.728  1.00  0.00     0.049 A 
ATOM     36  N   UNL A   1      39.034  30.728  31.283  1.00  0.00    -0.248 NA
ATOM     37  C   UNL A   1      37.638  31.128  29.456  1.00  0.00     0.031 C 
ATOM     38  C   UNL A   1      37.029  34.067  33.504  1.00  0.00     0.029 A 
ATOM     39  N   UNL A   1      38.684  32.567  33.566  1.00  0.00    -0.354 N 
ATOM     40  C   UNL A   1      39.284  29.789  30.291  1.00  0.00     0.074 A 
ATOM     41  C   UNL A   1      38.334  30.025  29.229  1.00  0.00     0.031 C 
ATOM     42  C   UNL A   1      37.650  34.203  34.687  1.00  0.00     0.029 A 
ATOM     43  C   UNL A   1      38.724  33.220  34.774  1.00  0.00     0.049 A 
ATOM     44  H   UNL A   1      39.306  31.843  33.324  1.00  0.00     0.167 HD
ATOM     45  C   UNL A   1      40.246  28.838  30.250  1.00  0.00     0.037 A 
ATOM     46  C   UNL A   1      39.534  33.038  35.834  1.00  0.00     0.037 A 
ATOM     47  C   UNL A   1      41.219  28.641  31.289  1.00  0.00     0.049 A 
ATOM     48  C   UNL A   1      40.601  31.977  35.760  1.00  0.00     0.074 A 
ATOM     49  C   UNL A   1      42.282  27.755  31.318  1.00  0.00     0.029 A 
ATOM     50  N   UNL A   1      41.248  29.344  32.485  1.00  0.00    -0.354 N 
ATOM     51  N   UNL A   1      40.878  31.147  34.783  1.00  0.00    -0.248 NA
ATOM     52  C   UNL A   1      41.471  31.833  36.934  1.00  0.00     0.031 C 
ATOM     53  C   UNL A   1      42.921  27.885  32.554  1.00  0.00     0.029 A 
ATOM     54  C   UNL A   1      42.297  28.895  33.269  1.00  0.00     0.049 A 
ATOM     55  H   UNL A   1      40.617  30.056  32.737  1.00  0.00     0.167 HD
ATOM     56  C   UNL A   1      41.973  30.409  35.210  1.00  0.00     0.074 A 
ATOM     57  C   UNL A   1      42.321  30.901  36.527  1.00  0.00     0.031 C 
ATOM     58  C   UNL A   1      42.633  29.410  34.571  1.00  0.00     0.037 A 
BRANCH  45  59
ATOM     59  C   UNL A   1      40.303  27.950  29.039  1.00  0.00     0.064 A 
ATOM     60  C   UNL A   1      41.056  28.296  27.906  1.00  0.00     0.173 A 
ATOM     61  C   UNL A   1      39.633  26.719  29.028  1.00  0.00     0.173 A 
ATOM     62  F   UNL A   1      41.706  29.469  27.857  1.00  0.00    -0.203 F 
ATOM     63  C   UNL A   1      41.111  27.456  26.796  1.00  0.00     0.198 A 
ATOM     64  C   UNL A   1      39.718  25.864  27.930  1.00  0.00     0.198 A 
ATOM     65  F   UNL A   1      38.900  26.337  30.085  1.00  0.00    -0.203 F 
ATOM     66  F   UNL A   1      41.792  27.832  25.705  1.00  0.00    -0.200 F 
ATOM     67  C   UNL A   1      40.451  26.237  26.814  1.00  0.00     0.200 A 
ATOM     68  F   UNL A   1      39.091  24.681  27.955  1.00  0.00    -0.200 F 
ATOM     69  F   UNL A   1      40.514  25.424  25.751  1.00  0.00    -0.200 F 
ENDBRANCH  45  59
BRANCH  46  70
ATOM     70  C   UNL A   1      39.387  33.888  37.046  1.00  0.00     0.064 A 
ATOM     71  C   UNL A   1      39.968  35.164  37.107  1.00  0.00     0.173 A 
ATOM     72  C   UNL A   1      38.688  33.439  38.176  1.00  0.00     0.173 A 
ATOM     73  F   UNL A   1      40.663  35.633  36.060  1.00  0.00    -0.203 F 
ATOM     74  C   UNL A   1      39.883  35.941  38.261  1.00  0.00     0.198 A 
ATOM     75  C   UNL A   1      38.574  34.232  39.316  1.00  0.00     0.198 A 
ATOM     76  F   UNL A   1      38.105  32.231  38.169  1.00  0.00    -0.203 F 
ATOM     77  F   UNL A   1      40.499  37.130  38.311  1.00  0.00    -0.200 F 
ATOM     78  C   UNL A   1      39.183  35.476  39.363  1.00  0.00     0.200 A 
ATOM     79  F   UNL A   1      37.880  33.786  40.372  1.00  0.00    -0.200 F 
ATOM     80  F   UNL A   1      39.102  36.223  40.472  1.00  0.00    -0.200 F 
ENDBRANCH  46  70
BRANCH  58  81
ATOM     81  C   UNL A   1      43.824  28.817  35.265  1.00  0.00     0.064 A 
ATOM     82  C   UNL A   1      45.110  29.358  35.119  1.00  0.00     0.173 A 
ATOM     83  C   UNL A   1      43.667  27.718  36.124  1.00  0.00     0.173 A 
ATOM     84  F   UNL A   1      45.315  30.400  34.299  1.00  0.00    -0.203 F 
ATOM     85  C   UNL A   1      46.200  28.802  35.784  1.00  0.00     0.198 A 
ATOM     86  C   UNL A   1      44.751  27.188  36.816  1.00  0.00     0.198 A 
ATOM     87  F   UNL A   1      42.457  27.170  36.307  1.00  0.00    -0.203 F 
ATOM     88  F   UNL A   1      47.427  29.301  35.588  1.00  0.00    -0.200 F 
ATOM     89  C   UNL A   1      46.018  27.724  36.638  1.00  0.00     0.200 A 
ATOM     90  F   UNL A   1      44.571  26.159  37.655  1.00  0.00    -0.200 F 
ATOM     91  F   UNL A   1      47.065  27.197  37.287  1.00  0.00    -0.200 F 
ENDBRANCH  58  81
ENDBRANCH  32  33
ENDBRANCH  24  27
ENDBRANCH  22  23
ENDBRANCH  21  22
ENDBRANCH  20  21
ENDBRANCH   3  20
TORSDOF 17
ENDMDL
MODEL 3
REMARK VINA RESULT:     -11.1      6.025     11.366
REMARK SMILES CC[C@@H]1CCC[C@](CCCCCO)(C(=O)NCCCNC(=O)c2ccc(-c3c4nc(c(-c5c(F)c(F)c(F)c(F)c5F)c5ccc([nH]5)c(-c5c(F)c(F)c(F)c(F)c5F)c5nc(c(-c6c(F)c(F)c(F)c(F)c6F)c6ccc3[nH]6)C=C5)C=C4)cc2)C1
REMARK SMILES IDX 14 1 15 2 16 3 7 5 3 6 4 7 86 8 5 9 6 10 2 11 1 12 8 13 9 14
REMARK SMILES IDX 10 15 11 16 12 17 13 18 17 20 18 21 19 22 20 23 21 24 22 26
REMARK SMILES IDX 23 27 24 28 85 29 25 30 84 31 26 32 27 33 28 34 78 35 29 36
REMARK SMILES IDX 83 37 77 38 79 39 30 40 82 41 76 42 75 43 31 45 63 46 43 47
REMARK SMILES IDX 62 48 44 49 47 50 61 51 80 52 45 53 46 54 60 56 81 57 48 58
REMARK SMILES IDX 32 59 33 60 41 61 34 62 35 63 39 64 42 65 36 66 37 67 40 68
REMARK SMILES IDX 38 69 64 70 65 71 73 72 66 73 67 74 71 75 74 76 68 77 69 78
REMARK SMILES IDX 72 79 70 80 49 81 50 82 58 83 51 84 52 85 56 86 59 87 53 88
REMARK SMILES IDX 54 89 57 90 55 91
REMARK H PARENT 16 4 13 19 20 25 79 44 47 55
REMARK Flexibility Score: inf
ROOT
ATOM      1  C   UNL A   1      33.512  28.984  26.649  1.00  0.00     0.226 C 
ATOM      2  O   UNL A   1      34.465  28.745  27.394  1.00  0.00    -0.274 OA
ATOM      3  N   UNL A   1      32.843  30.157  26.858  1.00  0.00    -0.356 N 
ATOM      4  H   UNL A   1      33.178  30.679  27.623  1.00  0.00     0.163 HD
ENDROOT
BRANCH   1   5
ATOM      5  C   UNL A   1      33.075  28.006  25.540  1.00  0.00     0.049 C 
ATOM      6  C   UNL A   1      33.463  25.537  24.863  1.00  0.00    -0.010 C 
ATOM      7  C   UNL A   1      33.850  25.972  23.442  1.00  0.00     0.003 C 
ATOM      8  C   UNL A   1      33.764  26.653  25.862  1.00  0.00     0.020 C 
ATOM      9  C   UNL A   1      33.373  27.379  23.076  1.00  0.00     0.001 C 
ATOM     10  C   UNL A   1      33.661  28.421  24.164  1.00  0.00     0.017 C 
BRANCH   6  11
ATOM     11  C   UNL A   1      34.210  24.257  25.294  1.00  0.00     0.000 C 
ATOM     12  C   UNL A   1      35.572  24.128  24.634  1.00  0.00     0.004 C 
ENDBRANCH   6  11
BRANCH   5  13
ATOM     13  C   UNL A   1      31.513  27.963  25.462  1.00  0.00     0.017 C 
BRANCH  13  14
ATOM     14  C   UNL A   1      30.816  26.860  26.284  1.00  0.00     0.001 C 
BRANCH  14  15
ATOM     15  C   UNL A   1      29.945  25.882  25.487  1.00  0.00     0.002 C 
BRANCH  15  16
ATOM     16  C   UNL A   1      29.759  26.202  23.997  1.00  0.00     0.028 C 
BRANCH  16  17
ATOM     17  C   UNL A   1      28.359  26.659  23.606  1.00  0.00     0.156 C 
BRANCH  17  18
ATOM     18  O   UNL A   1      27.389  26.139  24.503  1.00  0.00    -0.396 OA
ATOM     19  H   UNL A   1      27.613  26.402  25.409  1.00  0.00     0.210 HD
ENDBRANCH  17  18
ENDBRANCH  16  17
ENDBRANCH  15  16
ENDBRANCH  14  15
ENDBRANCH  13  14
ENDBRANCH   5  13
ENDBRANCH   1   5
BRANCH   3  20
ATOM     20  C   UNL A   1      31.725  30.781  26.159  1.00  0.00     0.117 C 
BRANCH  20  21
ATOM     21  C   UNL A   1      31.510  32.229  26.554  1.00  0.00     0.042 C 
BRANCH  21  22
ATOM     22  C   UNL A   1      32.686  32.801  27.317  1.00  0.00     0.118 C 
BRANCH  22  23
ATOM     23  N   UNL A   1      32.493  34.211  27.643  1.00  0.00    -0.352 N 
ATOM     24  C   UNL A   1      33.031  34.977  28.648  1.00  0.00     0.251 C 
ATOM     25  H   UNL A   1      31.877  34.691  27.044  1.00  0.00     0.163 HD
ATOM     26  O   UNL A   1      32.536  36.072  28.914  1.00  0.00    -0.269 OA
BRANCH  24  27
ATOM     27  C   UNL A   1      34.179  34.476  29.428  1.00  0.00     0.039 A 
ATOM     28  C   UNL A   1      33.968  33.879  30.672  1.00  0.00     0.014 A 
ATOM     29  C   UNL A   1      35.474  34.595  28.928  1.00  0.00     0.014 A 
ATOM     30  C   UNL A   1      35.049  33.328  31.365  1.00  0.00     0.010 A 
ATOM     31  C   UNL A   1      36.515  33.914  29.536  1.00  0.00     0.010 A 
ATOM     32  C   UNL A   1      36.324  33.297  30.778  1.00  0.00    -0.014 A 
BRANCH  32  33
ATOM     33  C   UNL A   1      37.488  32.669  31.451  1.00  0.00     0.031 A 
ATOM     34  C   UNL A   1      38.213  31.531  30.779  1.00  0.00     0.074 A 
ATOM     35  C   UNL A   1      37.840  33.061  32.690  1.00  0.00     0.049 A 
ATOM     36  N   UNL A   1      39.180  30.776  31.237  1.00  0.00    -0.248 NA
ATOM     37  C   UNL A   1      37.762  31.160  29.425  1.00  0.00     0.031 C 
ATOM     38  C   UNL A   1      37.175  34.107  33.470  1.00  0.00     0.029 A 
ATOM     39  N   UNL A   1      38.842  32.619  33.518  1.00  0.00    -0.354 N 
ATOM     40  C   UNL A   1      39.426  29.836  30.245  1.00  0.00     0.074 A 
ATOM     41  C   UNL A   1      38.462  30.062  29.193  1.00  0.00     0.031 C 
ATOM     42  C   UNL A   1      37.808  34.251  34.646  1.00  0.00     0.029 A 
ATOM     43  C   UNL A   1      38.891  33.276  34.724  1.00  0.00     0.049 A 
ATOM     44  H   UNL A   1      39.466  31.900  33.271  1.00  0.00     0.167 HD
ATOM     45  C   UNL A   1      40.394  28.892  30.196  1.00  0.00     0.037 A 
ATOM     46  C   UNL A   1      39.714  33.104  35.776  1.00  0.00     0.037 A 
ATOM     47  C   UNL A   1      41.380  28.705  31.225  1.00  0.00     0.049 A 
ATOM     48  C   UNL A   1      40.787  32.049  35.693  1.00  0.00     0.074 A 
ATOM     49  C   UNL A   1      42.450  27.827  31.245  1.00  0.00     0.029 A 
ATOM     50  N   UNL A   1      41.417  29.411  32.418  1.00  0.00    -0.354 N 
ATOM     51  N   UNL A   1      41.060  31.219  34.715  1.00  0.00    -0.248 NA
ATOM     52  C   UNL A   1      41.672  31.915  36.857  1.00  0.00     0.031 C 
ATOM     53  C   UNL A   1      43.102  27.965  32.474  1.00  0.00     0.029 A 
ATOM     54  C   UNL A   1      42.478  28.973  33.192  1.00  0.00     0.049 A 
ATOM     55  H   UNL A   1      40.784  30.120  32.675  1.00  0.00     0.167 HD
ATOM     56  C   UNL A   1      42.165  30.490  35.132  1.00  0.00     0.074 A 
ATOM     57  C   UNL A   1      42.523  30.988  36.443  1.00  0.00     0.031 C 
ATOM     58  C   UNL A   1      42.825  29.495  34.489  1.00  0.00     0.037 A 
BRANCH  45  59
ATOM     59  C   UNL A   1      40.445  28.001  28.987  1.00  0.00     0.064 A 
ATOM     60  C   UNL A   1      39.748  26.784  28.938  1.00  0.00     0.173 A 
ATOM     61  C   UNL A   1      41.163  28.390  27.848  1.00  0.00     0.173 A 
ATOM     62  F   UNL A   1      39.055  26.357  30.005  1.00  0.00    -0.203 F 
ATOM     63  C   UNL A   1      39.793  25.976  27.805  1.00  0.00     0.198 A 
ATOM     64  C   UNL A   1      41.178  27.596  26.702  1.00  0.00     0.198 A 
ATOM     65  F   UNL A   1      41.846  29.545  27.839  1.00  0.00    -0.203 F 
ATOM     66  F   UNL A   1      39.163  24.793  27.801  1.00  0.00    -0.200 F 
ATOM     67  C   UNL A   1      40.498  26.387  26.685  1.00  0.00     0.200 A 
ATOM     68  F   UNL A   1      41.849  28.003  25.616  1.00  0.00    -0.200 F 
ATOM     69  F   UNL A   1      40.531  25.616  25.590  1.00  0.00    -0.200 F 
ENDBRANCH  45  59
BRANCH  46  70
ATOM     70  C   UNL A   1      39.574  33.956  36.987  1.00  0.00     0.064 A 
ATOM     71  C   UNL A   1      38.856  33.508  38.105  1.00  0.00     0.173 A 
ATOM     72  C   UNL A   1      40.133  35.241  37.046  1.00  0.00     0.173 A 
ATOM     73  F   UNL A   1      38.286  32.294  38.092  1.00  0.00    -0.203 F 
ATOM     74  C   UNL A   1      38.672  34.325  39.220  1.00  0.00     0.198 A 
ATOM     75  C   UNL A   1      39.979  36.043  38.175  1.00  0.00     0.198 A 
ATOM     76  F   UNL A   1      40.838  35.716  36.009  1.00  0.00    -0.203 F 
ATOM     77  F   UNL A   1      37.930  33.893  40.249  1.00  0.00    -0.200 F 
ATOM     78  C   UNL A   1      39.238  35.590  39.256  1.00  0.00     0.200 A 
ATOM     79  F   UNL A   1      40.543  37.258  38.213  1.00  0.00    -0.200 F 
ATOM     80  F   UNL A   1      39.062  36.375  40.327  1.00  0.00    -0.200 F 
ENDBRANCH  46  70
BRANCH  58  81
ATOM     81  C   UNL A   1      44.028  28.912  35.172  1.00  0.00     0.064 A 
ATOM     82  C   UNL A   1      45.316  29.426  34.965  1.00  0.00     0.173 A 
ATOM     83  C   UNL A   1      43.881  27.852  36.079  1.00  0.00     0.173 A 
ATOM     84  F   UNL A   1      45.511  30.431  34.097  1.00  0.00    -0.203 F 
ATOM     85  C   UNL A   1      46.417  28.881  35.620  1.00  0.00     0.198 A 
ATOM     86  C   UNL A   1      44.978  27.333  36.760  1.00  0.00     0.198 A 
ATOM     87  F   UNL A   1      42.669  27.330  36.320  1.00  0.00    -0.203 F 
ATOM     88  F   UNL A   1      47.645  29.353  35.368  1.00  0.00    -0.200 F 
ATOM     89  C   UNL A   1      46.247  27.843  36.523  1.00  0.00     0.200 A 
ATOM     90  F   UNL A   1      44.808  26.343  37.646  1.00  0.00    -0.200 F 
ATOM     91  F   UNL A   1      47.305  27.326  37.161  1.00  0.00    -0.200 F 
ENDBRANCH  58  81
ENDBRANCH  32  33
ENDBRANCH  24  27
ENDBRANCH  22  23
ENDBRANCH  21  22
ENDBRANCH  20  21
ENDBRANCH   3  20
TORSDOF 17
ENDMDL
