MODEL 1
REMARK VINA RESULT:     -11.9      0.000      0.000
REMARK SMILES CC[NH2+][C@]1(C(=O)NCCCNC(=O)c2ccc(-c3c4nc(c(-c5c(F)c(F)c(F)c(F)c5F)c5ccc([nH]5)c(-c5c(F)c(F)c(F)c(F)c5F)c5nc(c(-c6c(F)c(F)c(F)c(F)c6F)c6ccc3[nH]6)C=C5)C=C4)cc2)CCC[C@@H]1CCSc1ccc(C)cc1
REMARK SMILES IDX 8 1 7 2 5 3 6 4 4 6 77 7 80 8 78 9 79 10 3 11 2 14 1 15
REMARK SMILES IDX 81 16 82 17 83 18 84 19 85 20 90 21 86 22 89 23 87 24 88 25
REMARK SMILES IDX 9 26 10 27 11 28 12 29 13 31 14 32 15 33 76 34 16 35 75 36
REMARK SMILES IDX 17 37 18 38 19 39 69 40 20 41 74 42 68 43 70 44 21 45 73 46
REMARK SMILES IDX 67 47 66 48 22 50 54 51 34 52 53 53 35 54 38 55 52 56 71 57
REMARK SMILES IDX 36 58 37 59 51 61 72 62 39 63 23 64 24 65 32 66 25 67 26 68
REMARK SMILES IDX 30 69 33 70 27 71 28 72 31 73 29 74 55 75 56 76 64 77 57 78
REMARK SMILES IDX 58 79 62 80 65 81 59 82 60 83 63 84 61 85 40 86 41 87 49 88
REMARK SMILES IDX 42 89 43 90 47 91 50 92 44 93 45 94 48 95 46 96
REMARK H PARENT 7 5 3 12 3 13 11 30 70 49 38 60
REMARK Flexibility Score: inf
ROOT
ATOM      1  C   UNL A   1      31.830  30.646  26.300  1.00  0.00     0.118 C 
ENDROOT
BRANCH   1   2
ATOM      2  N   UNL A   1      31.153  30.240  25.087  1.00  0.00    -0.351 N 
ATOM      3  C   UNL A   1      31.151  29.120  24.332  1.00  0.00     0.281 C 
ATOM      4  O   UNL A   1      30.321  29.160  23.411  1.00  0.00    -0.268 OA
ATOM      5  H   UNL A   1      30.559  30.939  24.731  1.00  0.00     0.163 HD
BRANCH   3   6
ATOM      6  C   UNL A   1      32.175  27.932  24.441  1.00  0.00     0.178 C 
ATOM      7  C   UNL A   1      33.642  28.313  24.691  1.00  0.00     0.079 C 
ATOM      8  C   UNL A   1      31.881  27.185  25.780  1.00  0.00     0.061 C 
ATOM      9  C   UNL A   1      34.300  27.146  25.415  1.00  0.00     0.008 C 
ATOM     10  C   UNL A   1      33.166  26.407  26.117  1.00  0.00     0.011 C 
BRANCH   6  11
ATOM     11  N   UNL A   1      31.911  27.117  23.236  1.00  0.00    -0.334 N 
ATOM     12  H   UNL A   1      31.726  26.169  23.566  1.00  0.00     0.347 HD
ATOM     13  H   UNL A   1      31.156  27.632  22.784  1.00  0.00     0.347 HD
BRANCH  11  14
ATOM     14  C   UNL A   1      32.886  27.000  22.178  1.00  0.00     0.257 C 
ATOM     15  C   UNL A   1      33.325  25.541  22.105  1.00  0.00     0.071 C 
ENDBRANCH  11  14
ENDBRANCH   6  11
BRANCH   8  16
ATOM     16  C   UNL A   1      30.613  26.313  25.844  1.00  0.00     0.022 C 
BRANCH  16  17
ATOM     17  C   UNL A   1      30.892  24.811  26.014  1.00  0.00     0.075 C 
BRANCH  17  18
ATOM     18  S   UNL A   1      30.825  23.807  24.469  1.00  0.00    -0.126 SA
BRANCH  18  19
ATOM     19  C   UNL A   1      32.315  22.831  24.543  1.00  0.00     0.007 A 
ATOM     20  C   UNL A   1      33.535  23.363  24.962  1.00  0.00     0.015 A 
ATOM     21  C   UNL A   1      32.266  21.485  24.161  1.00  0.00     0.015 A 
ATOM     22  C   UNL A   1      34.654  22.539  25.118  1.00  0.00     0.004 A 
ATOM     23  C   UNL A   1      33.393  20.664  24.293  1.00  0.00     0.004 A 
ATOM     24  C   UNL A   1      34.582  21.175  24.823  1.00  0.00    -0.051 A 
ATOM     25  C   UNL A   1      35.779  20.298  25.036  1.00  0.00     0.044 C 
ENDBRANCH  18  19
ENDBRANCH  17  18
ENDBRANCH  16  17
ENDBRANCH   8  16
ENDBRANCH   3   6
ENDBRANCH   1   2
BRANCH   1  26
ATOM     26  C   UNL A   1      31.561  32.100  26.651  1.00  0.00     0.042 C 
BRANCH  26  27
ATOM     27  C   UNL A   1      32.680  32.786  27.417  1.00  0.00     0.118 C 
BRANCH  27  28
ATOM     28  N   UNL A   1      32.414  34.190  27.686  1.00  0.00    -0.352 N 
ATOM     29  C   UNL A   1      32.964  35.038  28.622  1.00  0.00     0.251 C 
ATOM     30  H   UNL A   1      31.733  34.601  27.107  1.00  0.00     0.163 HD
ATOM     31  O   UNL A   1      32.482  36.143  28.814  1.00  0.00    -0.269 OA
BRANCH  29  32
ATOM     32  C   UNL A   1      34.122  34.580  29.418  1.00  0.00     0.039 A 
ATOM     33  C   UNL A   1      33.915  34.064  30.698  1.00  0.00     0.014 A 
ATOM     34  C   UNL A   1      35.406  34.625  28.878  1.00  0.00     0.014 A 
ATOM     35  C   UNL A   1      34.990  33.509  31.397  1.00  0.00     0.010 A 
ATOM     36  C   UNL A   1      36.440  33.954  29.511  1.00  0.00     0.010 A 
ATOM     37  C   UNL A   1      36.251  33.406  30.787  1.00  0.00    -0.014 A 
BRANCH  37  38
ATOM     38  C   UNL A   1      37.406  32.770  31.469  1.00  0.00     0.031 A 
ATOM     39  C   UNL A   1      38.116  31.621  30.803  1.00  0.00     0.074 A 
ATOM     40  C   UNL A   1      37.754  33.158  32.712  1.00  0.00     0.049 A 
ATOM     41  N   UNL A   1      39.061  30.846  31.270  1.00  0.00    -0.248 NA
ATOM     42  C   UNL A   1      37.670  31.265  29.446  1.00  0.00     0.031 C 
ATOM     43  C   UNL A   1      37.102  34.215  33.486  1.00  0.00     0.029 A 
ATOM     44  N   UNL A   1      38.739  32.695  33.548  1.00  0.00    -0.354 N 
ATOM     45  C   UNL A   1      39.295  29.901  30.279  1.00  0.00     0.074 A 
ATOM     46  C   UNL A   1      38.345  30.151  29.220  1.00  0.00     0.031 C 
ATOM     47  C   UNL A   1      37.722  34.342  34.670  1.00  0.00     0.029 A 
ATOM     48  C   UNL A   1      38.786  33.347  34.757  1.00  0.00     0.049 A 
ATOM     49  H   UNL A   1      39.353  31.965  33.306  1.00  0.00     0.167 HD
ATOM     50  C   UNL A   1      40.239  28.933  30.240  1.00  0.00     0.037 A 
ATOM     51  C   UNL A   1      39.597  33.156  35.816  1.00  0.00     0.037 A 
ATOM     52  C   UNL A   1      41.210  28.721  31.279  1.00  0.00     0.049 A 
ATOM     53  C   UNL A   1      40.653  32.086  35.741  1.00  0.00     0.074 A 
ATOM     54  C   UNL A   1      42.257  27.816  31.312  1.00  0.00     0.029 A 
ATOM     55  N   UNL A   1      41.255  29.430  32.470  1.00  0.00    -0.354 N 
ATOM     56  N   UNL A   1      40.913  31.245  34.769  1.00  0.00    -0.248 NA
ATOM     57  C   UNL A   1      41.535  31.944  36.907  1.00  0.00     0.031 C 
ATOM     58  C   UNL A   1      42.905  27.946  32.544  1.00  0.00     0.029 A 
ATOM     59  C   UNL A   1      42.300  28.972  33.253  1.00  0.00     0.049 A 
ATOM     60  H   UNL A   1      40.635  30.153  32.722  1.00  0.00     0.167 HD
ATOM     61  C   UNL A   1      42.006  30.500  35.189  1.00  0.00     0.074 A 
ATOM     62  C   UNL A   1      42.369  30.998  36.500  1.00  0.00     0.031 C 
ATOM     63  C   UNL A   1      42.653  29.495  34.550  1.00  0.00     0.037 A 
BRANCH  50  64
ATOM     64  C   UNL A   1      40.273  28.042  29.031  1.00  0.00     0.064 A 
ATOM     65  C   UNL A   1      39.572  26.825  28.990  1.00  0.00     0.173 A 
ATOM     66  C   UNL A   1      40.997  28.417  27.889  1.00  0.00     0.173 A 
ATOM     67  F   UNL A   1      38.874  26.411  30.059  1.00  0.00    -0.203 F 
ATOM     68  C   UNL A   1      39.627  26.002  27.869  1.00  0.00     0.198 A 
ATOM     69  C   UNL A   1      41.019  27.608  26.756  1.00  0.00     0.198 A 
ATOM     70  F   UNL A   1      41.682  29.571  27.871  1.00  0.00    -0.203 F 
ATOM     71  F   UNL A   1      39.000  24.817  27.878  1.00  0.00    -0.200 F 
ATOM     72  C   UNL A   1      40.343  26.398  26.750  1.00  0.00     0.200 A 
ATOM     73  F   UNL A   1      41.701  27.999  25.670  1.00  0.00    -0.200 F 
ATOM     74  F   UNL A   1      40.390  25.608  25.669  1.00  0.00    -0.200 F 
ENDBRANCH  50  64
BRANCH  51  75
ATOM     75  C   UNL A   1      39.466  34.018  37.020  1.00  0.00     0.064 A 
ATOM     76  C   UNL A   1      40.069  35.284  37.067  1.00  0.00     0.173 A 
ATOM     77  C   UNL A   1      38.747  33.600  38.149  1.00  0.00     0.173 A 
ATOM     78  F   UNL A   1      40.782  35.724  36.019  1.00  0.00    -0.203 F 
ATOM     79  C   UNL A   1      39.979  36.086  38.203  1.00  0.00     0.198 A 
ATOM     80  C   UNL A   1      38.632  34.415  39.273  1.00  0.00     0.198 A 
ATOM     81  F   UNL A   1      38.144  32.402  38.155  1.00  0.00    -0.203 F 
ATOM     82  F   UNL A   1      40.607  37.269  38.237  1.00  0.00    -0.200 F 
ATOM     83  C   UNL A   1      39.255  35.653  39.303  1.00  0.00     0.200 A 
ATOM     84  F   UNL A   1      37.917  34.000  40.329  1.00  0.00    -0.200 F 
ATOM     85  F   UNL A   1      39.166  36.425  40.395  1.00  0.00    -0.200 F 
ENDBRANCH  51  75
BRANCH  63  86
ATOM     86  C   UNL A   1      43.849  28.900  35.234  1.00  0.00     0.064 A 
ATOM     87  C   UNL A   1      43.732  27.826  36.127  1.00  0.00     0.173 A 
ATOM     88  C   UNL A   1      45.136  29.385  34.952  1.00  0.00     0.173 A 
ATOM     89  F   UNL A   1      42.523  27.336  36.439  1.00  0.00    -0.203 F 
ATOM     90  C   UNL A   1      44.857  27.276  36.736  1.00  0.00     0.198 A 
ATOM     91  C   UNL A   1      46.261  28.810  35.535  1.00  0.00     0.198 A 
ATOM     92  F   UNL A   1      45.303  30.405  34.098  1.00  0.00    -0.203 F 
ATOM     93  F   UNL A   1      44.718  26.284  37.625  1.00  0.00    -0.200 F 
ATOM     94  C   UNL A   1      46.121  27.763  36.432  1.00  0.00     0.200 A 
ATOM     95  F   UNL A   1      47.482  29.272  35.229  1.00  0.00    -0.200 F 
ATOM     96  F   UNL A   1      47.203  27.226  37.011  1.00  0.00    -0.200 F 
ENDBRANCH  63  86
ENDBRANCH  37  38
ENDBRANCH  29  32
ENDBRANCH  27  28
ENDBRANCH  26  27
ENDBRANCH   1  26
TORSDOF 16
ENDMDL
MODEL 2
REMARK VINA RESULT:     -11.9      0.574      1.739
REMARK SMILES CC[NH2+][C@]1(C(=O)NCCCNC(=O)c2ccc(-c3c4nc(c(-c5c(F)c(F)c(F)c(F)c5F)c5ccc([nH]5)c(-c5c(F)c(F)c(F)c(F)c5F)c5nc(c(-c6c(F)c(F)c(F)c(F)c6F)c6ccc3[nH]6)C=C5)C=C4)cc2)CCC[C@@H]1CCSc1ccc(C)cc1
REMARK SMILES IDX 8 1 7 2 5 3 6 4 4 6 77 7 80 8 78 9 79 10 3 11 2 14 1 15
REMARK SMILES IDX 81 16 82 17 83 18 84 19 85 20 90 21 86 22 89 23 87 24 88 25
REMARK SMILES IDX 9 26 10 27 11 28 12 29 13 31 14 32 15 33 76 34 16 35 75 36
REMARK SMILES IDX 17 37 18 38 19 39 69 40 20 41 74 42 68 43 70 44 21 45 73 46
REMARK SMILES IDX 67 47 66 48 22 50 54 51 34 52 53 53 35 54 38 55 52 56 71 57
REMARK SMILES IDX 36 58 37 59 51 61 72 62 39 63 23 64 24 65 32 66 25 67 26 68
REMARK SMILES IDX 30 69 33 70 27 71 28 72 31 73 29 74 55 75 56 76 64 77 57 78
REMARK SMILES IDX 58 79 62 80 65 81 59 82 60 83 63 84 61 85 40 86 41 87 49 88
REMARK SMILES IDX 42 89 43 90 47 91 50 92 44 93 45 94 48 95 46 96
REMARK H PARENT 7 5 3 12 3 13 11 30 70 49 38 60
REMARK Flexibility Score: inf
ROOT
ATOM      1  C   UNL A   1      31.766  30.633  26.365  1.00  0.00     0.118 C 
ENDROOT
BRANCH   1   2
ATOM      2  N   UNL A   1      31.246  30.237  25.073  1.00  0.00    -0.351 N 
ATOM      3  C   UNL A   1      31.294  29.105  24.338  1.00  0.00     0.281 C 
ATOM      4  O   UNL A   1      30.604  29.168  23.310  1.00  0.00    -0.268 OA
ATOM      5  H   UNL A   1      30.744  30.958  24.629  1.00  0.00     0.163 HD
BRANCH   3   6
ATOM      6  C   UNL A   1      32.230  27.871  24.605  1.00  0.00     0.178 C 
ATOM      7  C   UNL A   1      33.547  28.158  25.345  1.00  0.00     0.079 C 
ATOM      8  C   UNL A   1      31.531  26.979  25.679  1.00  0.00     0.061 C 
ATOM      9  C   UNL A   1      33.944  26.885  26.080  1.00  0.00     0.008 C 
ATOM     10  C   UNL A   1      32.646  26.113  26.293  1.00  0.00     0.011 C 
BRANCH   6  11
ATOM     11  N   UNL A   1      32.355  27.222  23.283  1.00  0.00    -0.334 N 
ATOM     12  H   UNL A   1      31.982  26.279  23.390  1.00  0.00     0.347 HD
ATOM     13  H   UNL A   1      31.865  27.874  22.671  1.00  0.00     0.347 HD
BRANCH  11  14
ATOM     14  C   UNL A   1      33.636  27.083  22.630  1.00  0.00     0.257 C 
ATOM     15  C   UNL A   1      34.009  28.438  22.039  1.00  0.00     0.071 C 
ENDBRANCH  11  14
ENDBRANCH   6  11
BRANCH   8  16
ATOM     16  C   UNL A   1      30.306  26.159  25.233  1.00  0.00     0.022 C 
BRANCH  16  17
ATOM     17  C   UNL A   1      30.484  24.639  25.372  1.00  0.00     0.075 C 
BRANCH  17  18
ATOM     18  S   UNL A   1      30.921  23.742  23.821  1.00  0.00    -0.126 SA
BRANCH  18  19
ATOM     19  C   UNL A   1      32.663  23.409  24.011  1.00  0.00     0.007 A 
ATOM     20  C   UNL A   1      33.579  23.618  22.980  1.00  0.00     0.015 A 
ATOM     21  C   UNL A   1      33.130  22.913  25.234  1.00  0.00     0.015 A 
ATOM     22  C   UNL A   1      34.950  23.457  23.203  1.00  0.00     0.004 A 
ATOM     23  C   UNL A   1      34.501  22.726  25.451  1.00  0.00     0.004 A 
ATOM     24  C   UNL A   1      35.425  23.048  24.452  1.00  0.00    -0.051 A 
ATOM     25  C   UNL A   1      36.901  22.920  24.687  1.00  0.00     0.044 C 
ENDBRANCH  18  19
ENDBRANCH  17  18
ENDBRANCH  16  17
ENDBRANCH   8  16
ENDBRANCH   3   6
ENDBRANCH   1   2
BRANCH   1  26
ATOM     26  C   UNL A   1      31.570  32.115  26.636  1.00  0.00     0.042 C 
BRANCH  26  27
ATOM     27  C   UNL A   1      32.674  32.762  27.456  1.00  0.00     0.118 C 
BRANCH  27  28
ATOM     28  N   UNL A   1      32.461  34.183  27.685  1.00  0.00    -0.352 N 
ATOM     29  C   UNL A   1      33.037  35.034  28.601  1.00  0.00     0.251 C 
ATOM     30  H   UNL A   1      31.799  34.603  27.090  1.00  0.00     0.163 HD
ATOM     31  O   UNL A   1      32.597  36.161  28.759  1.00  0.00    -0.269 OA
BRANCH  29  32
ATOM     32  C   UNL A   1      34.172  34.554  29.416  1.00  0.00     0.039 A 
ATOM     33  C   UNL A   1      33.923  33.855  30.598  1.00  0.00     0.014 A 
ATOM     34  C   UNL A   1      35.482  34.762  28.987  1.00  0.00     0.014 A 
ATOM     35  C   UNL A   1      34.990  33.287  31.299  1.00  0.00     0.010 A 
ATOM     36  C   UNL A   1      36.522  34.085  29.604  1.00  0.00     0.010 A 
ATOM     37  C   UNL A   1      36.292  33.356  30.779  1.00  0.00    -0.014 A 
BRANCH  37  38
ATOM     38  C   UNL A   1      37.446  32.715  31.458  1.00  0.00     0.031 A 
ATOM     39  C   UNL A   1      38.147  31.560  30.793  1.00  0.00     0.074 A 
ATOM     40  C   UNL A   1      37.802  33.105  32.698  1.00  0.00     0.049 A 
ATOM     41  N   UNL A   1      39.090  30.781  31.258  1.00  0.00    -0.248 NA
ATOM     42  C   UNL A   1      37.694  31.203  29.438  1.00  0.00     0.031 C 
ATOM     43  C   UNL A   1      37.159  34.168  33.472  1.00  0.00     0.029 A 
ATOM     44  N   UNL A   1      38.788  32.639  33.532  1.00  0.00    -0.354 N 
ATOM     45  C   UNL A   1      39.313  29.832  30.269  1.00  0.00     0.074 A 
ATOM     46  C   UNL A   1      38.361  30.084  29.212  1.00  0.00     0.031 C 
ATOM     47  C   UNL A   1      37.785  34.294  34.652  1.00  0.00     0.029 A 
ATOM     48  C   UNL A   1      38.844  33.294  34.738  1.00  0.00     0.049 A 
ATOM     49  H   UNL A   1      39.396  31.904  33.289  1.00  0.00     0.167 HD
ATOM     50  C   UNL A   1      40.252  28.858  30.229  1.00  0.00     0.037 A 
ATOM     51  C   UNL A   1      39.658  33.102  35.795  1.00  0.00     0.037 A 
ATOM     52  C   UNL A   1      41.226  28.643  31.264  1.00  0.00     0.049 A 
ATOM     53  C   UNL A   1      40.707  32.025  35.718  1.00  0.00     0.074 A 
ATOM     54  C   UNL A   1      42.267  27.732  31.296  1.00  0.00     0.029 A 
ATOM     55  N   UNL A   1      41.280  29.356  32.453  1.00  0.00    -0.354 N 
ATOM     56  N   UNL A   1      40.958  31.179  34.748  1.00  0.00    -0.248 NA
ATOM     57  C   UNL A   1      41.593  31.881  36.881  1.00  0.00     0.031 C 
ATOM     58  C   UNL A   1      42.922  27.862  32.524  1.00  0.00     0.029 A 
ATOM     59  C   UNL A   1      42.326  28.894  33.233  1.00  0.00     0.049 A 
ATOM     60  H   UNL A   1      40.665  30.083  32.705  1.00  0.00     0.167 HD
ATOM     61  C   UNL A   1      42.049  30.429  35.166  1.00  0.00     0.074 A 
ATOM     62  C   UNL A   1      42.420  30.929  36.474  1.00  0.00     0.031 C 
ATOM     63  C   UNL A   1      42.687  29.418  34.527  1.00  0.00     0.037 A 
BRANCH  50  64
ATOM     64  C   UNL A   1      40.275  27.964  29.022  1.00  0.00     0.064 A 
ATOM     65  C   UNL A   1      39.601  26.731  29.002  1.00  0.00     0.173 A 
ATOM     66  C   UNL A   1      40.963  28.349  27.862  1.00  0.00     0.173 A 
ATOM     67  F   UNL A   1      38.938  26.307  30.089  1.00  0.00    -0.203 F 
ATOM     68  C   UNL A   1      39.646  25.905  27.883  1.00  0.00     0.198 A 
ATOM     69  C   UNL A   1      40.975  27.537  26.731  1.00  0.00     0.198 A 
ATOM     70  F   UNL A   1      41.622  29.518  27.823  1.00  0.00    -0.203 F 
ATOM     71  F   UNL A   1      39.045  24.707  27.912  1.00  0.00    -0.200 F 
ATOM     72  C   UNL A   1      40.326  26.312  26.746  1.00  0.00     0.200 A 
ATOM     73  F   UNL A   1      41.622  27.938  25.627  1.00  0.00    -0.200 F 
ATOM     74  F   UNL A   1      40.363  25.519  25.666  1.00  0.00    -0.200 F 
ENDBRANCH  50  64
BRANCH  51  75
ATOM     75  C   UNL A   1      39.537  33.968  36.997  1.00  0.00     0.064 A 
ATOM     76  C   UNL A   1      38.786  33.555  38.108  1.00  0.00     0.173 A 
ATOM     77  C   UNL A   1      40.158  35.223  37.063  1.00  0.00     0.173 A 
ATOM     78  F   UNL A   1      38.159  32.370  38.087  1.00  0.00    -0.203 F 
ATOM     79  C   UNL A   1      38.641  34.374  39.225  1.00  0.00     0.198 A 
ATOM     80  C   UNL A   1      40.037  36.028  38.194  1.00  0.00     0.198 A 
ATOM     81  F   UNL A   1      40.894  35.663  36.033  1.00  0.00    -0.203 F 
ATOM     82  F   UNL A   1      37.877  33.974  40.252  1.00  0.00    -0.200 F 
ATOM     83  C   UNL A   1      39.272  35.607  39.271  1.00  0.00     0.200 A 
ATOM     84  F   UNL A   1      40.663  37.213  38.240  1.00  0.00    -0.200 F 
ATOM     85  F   UNL A   1      39.134  36.393  40.347  1.00  0.00    -0.200 F 
ENDBRANCH  51  75
BRANCH  63  86
ATOM     86  C   UNL A   1      43.882  28.818  35.208  1.00  0.00     0.064 A 
ATOM     87  C   UNL A   1      45.174  29.332  35.024  1.00  0.00     0.173 A 
ATOM     88  C   UNL A   1      43.722  27.742  36.094  1.00  0.00     0.173 A 
ATOM     89  F   UNL A   1      45.381  30.351  34.177  1.00  0.00    -0.203 F 
ATOM     90  C   UNL A   1      46.266  28.772  35.681  1.00  0.00     0.198 A 
ATOM     91  C   UNL A   1      44.810  27.207  36.776  1.00  0.00     0.198 A 
ATOM     92  F   UNL A   1      42.506  27.220  36.312  1.00  0.00    -0.203 F 
ATOM     93  F   UNL A   1      47.498  29.246  35.452  1.00  0.00    -0.200 F 
ATOM     94  C   UNL A   1      46.082  27.716  36.563  1.00  0.00     0.200 A 
ATOM     95  F   UNL A   1      44.628  26.198  37.640  1.00  0.00    -0.200 F 
ATOM     96  F   UNL A   1      47.133  27.186  37.203  1.00  0.00    -0.200 F 
ENDBRANCH  63  86
ENDBRANCH  37  38
ENDBRANCH  29  32
ENDBRANCH  27  28
ENDBRANCH  26  27
ENDBRANCH   1  26
TORSDOF 16
ENDMDL
MODEL 3
REMARK VINA RESULT:     -11.8      5.940     11.316
REMARK SMILES CC[NH2+][C@]1(C(=O)NCCCNC(=O)c2ccc(-c3c4nc(c(-c5c(F)c(F)c(F)c(F)c5F)c5ccc([nH]5)c(-c5c(F)c(F)c(F)c(F)c5F)c5nc(c(-c6c(F)c(F)c(F)c(F)c6F)c6ccc3[nH]6)C=C5)C=C4)cc2)CCC[C@@H]1CCSc1ccc(C)cc1
REMARK SMILES IDX 8 1 7 2 5 3 6 4 4 6 77 7 80 8 78 9 79 10 3 11 2 14 1 15
REMARK SMILES IDX 81 16 82 17 83 18 84 19 85 20 90 21 86 22 89 23 87 24 88 25
REMARK SMILES IDX 9 26 10 27 11 28 12 29 13 31 14 32 15 33 76 34 16 35 75 36
REMARK SMILES IDX 17 37 18 38 19 39 69 40 20 41 74 42 68 43 70 44 21 45 73 46
REMARK SMILES IDX 67 47 66 48 22 50 54 51 34 52 53 53 35 54 38 55 52 56 71 57
REMARK SMILES IDX 36 58 37 59 51 61 72 62 39 63 23 64 24 65 32 66 25 67 26 68
REMARK SMILES IDX 30 69 33 70 27 71 28 72 31 73 29 74 55 75 56 76 64 77 57 78
REMARK SMILES IDX 58 79 62 80 65 81 59 82 60 83 63 84 61 85 40 86 41 87 49 88
REMARK SMILES IDX 42 89 43 90 47 91 50 92 44 93 45 94 48 95 46 96
REMARK H PARENT 7 5 3 12 3 13 11 30 70 49 38 60
REMARK Flexibility Score: inf
ROOT
ATOM      1  C   UNL A   1      36.757  20.627  25.140  1.00  0.00     0.118 C 
ENDROOT
BRANCH   1   2
ATOM      2  N   UNL A   1      36.927  22.031  25.448  1.00  0.00    -0.351 N 
ATOM      3  C   UNL A   1      36.088  23.037  25.778  1.00  0.00     0.281 C 
ATOM      4  O   UNL A   1      36.684  24.085  26.069  1.00  0.00    -0.268 OA
ATOM      5  H   UNL A   1      37.867  22.318  25.406  1.00  0.00     0.163 HD
BRANCH   3   6
ATOM      6  C   UNL A   1      34.521  23.009  25.662  1.00  0.00     0.178 C 
ATOM      7  C   UNL A   1      33.757  22.422  26.860  1.00  0.00     0.079 C 
ATOM      8  C   UNL A   1      34.020  24.485  25.747  1.00  0.00     0.061 C 
ATOM      9  C   UNL A   1      32.379  23.070  26.883  1.00  0.00     0.008 C 
ATOM     10  C   UNL A   1      32.539  24.402  26.158  1.00  0.00     0.011 C 
BRANCH   6  11
ATOM     11  N   UNL A   1      34.268  22.370  24.353  1.00  0.00    -0.334 N 
ATOM     12  H   UNL A   1      33.986  23.117  23.719  1.00  0.00     0.347 HD
ATOM     13  H   UNL A   1      35.146  21.883  24.174  1.00  0.00     0.347 HD
BRANCH  11  14
ATOM     14  C   UNL A   1      33.291  21.317  24.205  1.00  0.00     0.257 C 
ATOM     15  C   UNL A   1      32.265  21.772  23.172  1.00  0.00     0.071 C 
ENDBRANCH  11  14
ENDBRANCH   6  11
BRANCH   8  16
ATOM     16  C   UNL A   1      34.256  25.387  24.521  1.00  0.00     0.022 C 
BRANCH  16  17
ATOM     17  C   UNL A   1      33.052  25.483  23.571  1.00  0.00     0.075 C 
BRANCH  17  18
ATOM     18  S   UNL A   1      33.001  26.982  22.497  1.00  0.00    -0.126 SA
BRANCH  18  19
ATOM     19  C   UNL A   1      31.362  27.631  22.767  1.00  0.00     0.007 A 
ATOM     20  C   UNL A   1      31.007  28.931  22.409  1.00  0.00     0.015 A 
ATOM     21  C   UNL A   1      30.397  26.813  23.366  1.00  0.00     0.015 A 
ATOM     22  C   UNL A   1      29.684  29.366  22.528  1.00  0.00     0.004 A 
ATOM     23  C   UNL A   1      29.076  27.255  23.511  1.00  0.00     0.004 A 
ATOM     24  C   UNL A   1      28.699  28.518  23.043  1.00  0.00    -0.051 A 
ATOM     25  C   UNL A   1      27.276  28.985  23.126  1.00  0.00     0.044 C 
ENDBRANCH  18  19
ENDBRANCH  17  18
ENDBRANCH  16  17
ENDBRANCH   8  16
ENDBRANCH   3   6
ENDBRANCH   1   2
BRANCH   1  26
ATOM     26  C   UNL A   1      38.074  19.945  24.815  1.00  0.00     0.042 C 
BRANCH  26  27
ATOM     27  C   UNL A   1      39.217  20.288  25.756  1.00  0.00     0.118 C 
BRANCH  27  28
ATOM     28  N   UNL A   1      40.163  19.197  25.934  1.00  0.00    -0.352 N 
ATOM     29  C   UNL A   1      41.526  19.222  26.126  1.00  0.00     0.251 C 
ATOM     30  H   UNL A   1      39.765  18.298  25.913  1.00  0.00     0.163 HD
ATOM     31  O   UNL A   1      42.176  18.190  26.076  1.00  0.00    -0.269 OA
BRANCH  29  32
ATOM     32  C   UNL A   1      42.198  20.518  26.358  1.00  0.00     0.039 A 
ATOM     33  C   UNL A   1      42.544  21.317  25.267  1.00  0.00     0.014 A 
ATOM     34  C   UNL A   1      42.448  20.957  27.657  1.00  0.00     0.014 A 
ATOM     35  C   UNL A   1      43.057  22.597  25.490  1.00  0.00     0.010 A 
ATOM     36  C   UNL A   1      42.825  22.272  27.876  1.00  0.00     0.010 A 
ATOM     37  C   UNL A   1      43.154  23.102  26.797  1.00  0.00    -0.014 A 
BRANCH  37  38
ATOM     38  C   UNL A   1      43.636  24.478  27.076  1.00  0.00     0.031 A 
ATOM     39  C   UNL A   1      42.667  25.512  27.585  1.00  0.00     0.074 A 
ATOM     40  C   UNL A   1      44.907  24.820  26.788  1.00  0.00     0.049 A 
ATOM     41  N   UNL A   1      42.844  26.794  27.776  1.00  0.00    -0.248 NA
ATOM     42  C   UNL A   1      41.298  25.050  27.874  1.00  0.00     0.031 C 
ATOM     43  C   UNL A   1      45.923  23.925  26.231  1.00  0.00     0.029 A 
ATOM     44  N   UNL A   1      45.559  26.021  26.913  1.00  0.00    -0.354 N 
ATOM     45  C   UNL A   1      41.608  27.288  28.173  1.00  0.00     0.074 A 
ATOM     46  C   UNL A   1      40.673  26.188  28.125  1.00  0.00     0.031 C 
ATOM     47  C   UNL A   1      47.076  24.598  26.092  1.00  0.00     0.029 A 
ATOM     48  C   UNL A   1      46.871  25.982  26.507  1.00  0.00     0.049 A 
ATOM     49  H   UNL A   1      45.127  26.835  27.260  1.00  0.00     0.167 HD
ATOM     50  C   UNL A   1      41.288  28.540  28.576  1.00  0.00     0.037 A 
ATOM     51  C   UNL A   1      47.800  26.957  26.471  1.00  0.00     0.037 A 
ATOM     52  C   UNL A   1      42.235  29.618  28.666  1.00  0.00     0.049 A 
ATOM     53  C   UNL A   1      47.425  28.336  26.943  1.00  0.00     0.074 A 
ATOM     54  C   UNL A   1      42.036  30.906  29.128  1.00  0.00     0.029 A 
ATOM     55  N   UNL A   1      43.567  29.528  28.287  1.00  0.00    -0.354 N 
ATOM     56  N   UNL A   1      46.272  28.776  27.386  1.00  0.00    -0.248 NA
ATOM     57  C   UNL A   1      48.484  29.355  26.919  1.00  0.00     0.031 C 
ATOM     58  C   UNL A   1      43.236  31.610  28.985  1.00  0.00     0.029 A 
ATOM     59  C   UNL A   1      44.197  30.743  28.489  1.00  0.00     0.049 A 
ATOM     60  H   UNL A   1      43.999  28.719  27.928  1.00  0.00     0.167 HD
ATOM     61  C   UNL A   1      46.473  30.107  27.725  1.00  0.00     0.074 A 
ATOM     62  C   UNL A   1      47.865  30.400  27.448  1.00  0.00     0.031 C 
ATOM     63  C   UNL A   1      45.589  31.007  28.221  1.00  0.00     0.037 A 
BRANCH  50  64
ATOM     64  C   UNL A   1      39.860  28.802  28.962  1.00  0.00     0.064 A 
ATOM     65  C   UNL A   1      38.913  29.252  28.026  1.00  0.00     0.173 A 
ATOM     66  C   UNL A   1      39.424  28.583  30.277  1.00  0.00     0.173 A 
ATOM     67  F   UNL A   1      39.278  29.491  26.757  1.00  0.00    -0.203 F 
ATOM     68  C   UNL A   1      37.597  29.508  28.402  1.00  0.00     0.198 A 
ATOM     69  C   UNL A   1      38.098  28.805  30.640  1.00  0.00     0.198 A 
ATOM     70  F   UNL A   1      40.285  28.150  31.211  1.00  0.00    -0.203 F 
ATOM     71  F   UNL A   1      36.729  29.995  27.505  1.00  0.00    -0.200 F 
ATOM     72  C   UNL A   1      37.189  29.276  29.706  1.00  0.00     0.200 A 
ATOM     73  F   UNL A   1      37.702  28.567  31.899  1.00  0.00    -0.200 F 
ATOM     74  F   UNL A   1      35.921  29.517  30.066  1.00  0.00    -0.200 F 
ENDBRANCH  50  64
BRANCH  51  75
ATOM     75  C   UNL A   1      49.179  26.657  26.004  1.00  0.00     0.064 A 
ATOM     76  C   UNL A   1      49.570  26.939  24.687  1.00  0.00     0.173 A 
ATOM     77  C   UNL A   1      50.132  26.079  26.855  1.00  0.00     0.173 A 
ATOM     78  F   UNL A   1      48.690  27.476  23.829  1.00  0.00    -0.203 F 
ATOM     79  C   UNL A   1      50.850  26.632  24.232  1.00  0.00     0.198 A 
ATOM     80  C   UNL A   1      51.422  25.801  26.408  1.00  0.00     0.198 A 
ATOM     81  F   UNL A   1      49.814  25.797  28.126  1.00  0.00    -0.203 F 
ATOM     82  F   UNL A   1      51.180  26.866  22.954  1.00  0.00    -0.200 F 
ATOM     83  C   UNL A   1      51.778  26.068  25.095  1.00  0.00     0.200 A 
ATOM     84  F   UNL A   1      52.322  25.271  27.250  1.00  0.00    -0.200 F 
ATOM     85  F   UNL A   1      53.011  25.775  24.658  1.00  0.00    -0.200 F 
ENDBRANCH  51  75
BRANCH  63  86
ATOM     86  C   UNL A   1      46.109  32.377  28.545  1.00  0.00     0.064 A 
ATOM     87  C   UNL A   1      46.615  32.697  29.813  1.00  0.00     0.173 A 
ATOM     88  C   UNL A   1      46.142  33.371  27.553  1.00  0.00     0.173 A 
ATOM     89  F   UNL A   1      46.592  31.786  30.797  1.00  0.00    -0.203 F 
ATOM     90  C   UNL A   1      47.110  33.969  30.085  1.00  0.00     0.198 A 
ATOM     91  C   UNL A   1      46.670  34.630  27.819  1.00  0.00     0.198 A 
ATOM     92  F   UNL A   1      45.679  33.113  26.321  1.00  0.00    -0.203 F 
ATOM     93  F   UNL A   1      47.542  34.268  31.317  1.00  0.00    -0.200 F 
ATOM     94  C   UNL A   1      47.145  34.931  29.085  1.00  0.00     0.200 A 
ATOM     95  F   UNL A   1      46.717  35.553  26.848  1.00  0.00    -0.200 F 
ATOM     96  F   UNL A   1      47.632  36.152  29.347  1.00  0.00    -0.200 F 
ENDBRANCH  63  86
ENDBRANCH  37  38
ENDBRANCH  29  32
ENDBRANCH  27  28
ENDBRANCH  26  27
ENDBRANCH   1  26
TORSDOF 16
ENDMDL
