MODEL 1
REMARK VINA RESULT:     -13.4      0.000      0.000
REMARK SMILES O=C(NCCCNC(=O)[C@@H](c1c[nH]c2ccc(Cl)cc12)[NH+]1CC[NH+](CCNc2cc(=O)oc3ccccc23)CC1)c1ccc(-c2c3nc(c(-c4c(F)c(F)c(F)c(F)c4F)c4ccc([nH]4)c(-c4c(F)c(F)c(F)c(F)c4F)c4nc(c(-c5c(F)c(F)c(F)c(F)c5F)c5ccc2[nH]5)C=C4)C=C3)cc1
REMARK SMILES IDX 7 1 8 2 9 3 6 5 5 6 4 7 3 8 1 9 2 10 41 12 42 13 103 14
REMARK SMILES IDX 43 15 102 16 44 17 45 18 46 19 96 20 47 21 101 22 95 23
REMARK SMILES IDX 97 24 48 25 100 26 94 27 93 28 49 30 81 31 61 32 80 33 62 34
REMARK SMILES IDX 65 35 79 36 98 37 63 38 64 39 78 41 99 42 66 43 50 44 51 45
REMARK SMILES IDX 59 46 52 47 53 48 57 49 60 50 54 51 55 52 58 53 56 54 82 55
REMARK SMILES IDX 83 56 91 57 84 58 85 59 89 60 92 61 86 62 87 63 90 64 88 65
REMARK SMILES IDX 67 66 68 67 76 68 69 69 70 70 74 71 77 72 71 73 72 74 75 75
REMARK SMILES IDX 73 76 10 77 11 78 12 79 20 80 13 81 14 82 19 83 15 85 17 86
REMARK SMILES IDX 16 87 18 88 21 89 22 90 40 91 23 93 39 94 24 95 25 97 26 98
REMARK SMILES IDX 27 99 28 101 29 102 38 103 30 104 33 105 37 106 31 107
REMARK SMILES IDX 32 108 34 109 36 110 35 111
REMARK H PARENT 7 4 3 11 97 29 65 40 13 84 21 92 24 96 27 100
REMARK Flexibility Score: inf
ROOT
ATOM      1  N   UNL A   1      37.229  23.010  24.725  1.00  0.00    -0.351 N 
ATOM      2  C   UNL A   1      36.088  23.565  25.249  1.00  0.00     0.283 C 
ATOM      3  O   UNL A   1      36.257  24.447  26.102  1.00  0.00    -0.268 OA
ATOM      4  H   UNL A   1      38.035  23.576  24.720  1.00  0.00     0.163 HD
ENDROOT
BRANCH   1   5
ATOM      5  C   UNL A   1      37.367  21.685  24.183  1.00  0.00     0.118 C 
BRANCH   5   6
ATOM      6  C   UNL A   1      37.711  20.591  25.152  1.00  0.00     0.042 C 
BRANCH   6   7
ATOM      7  C   UNL A   1      39.082  20.837  25.754  1.00  0.00     0.118 C 
BRANCH   7   8
ATOM      8  N   UNL A   1      39.926  19.630  25.824  1.00  0.00    -0.352 N 
ATOM      9  O   UNL A   1      41.827  18.412  25.959  1.00  0.00    -0.269 OA
ATOM     10  C   UNL A   1      41.279  19.490  26.064  1.00  0.00     0.251 C 
ATOM     11  H   UNL A   1      39.446  18.783  25.675  1.00  0.00     0.163 HD
BRANCH  10  12
ATOM     12  C   UNL A   1      42.046  20.701  26.409  1.00  0.00     0.039 A 
ATOM     13  C   UNL A   1      42.320  20.950  27.747  1.00  0.00     0.014 A 
ATOM     14  C   UNL A   1      42.367  21.641  25.428  1.00  0.00     0.014 A 
ATOM     15  C   UNL A   1      42.596  22.243  28.133  1.00  0.00     0.010 A 
ATOM     16  C   UNL A   1      42.854  22.893  25.817  1.00  0.00     0.010 A 
ATOM     17  C   UNL A   1      42.912  23.225  27.178  1.00  0.00    -0.014 A 
BRANCH  17  18
ATOM     18  C   UNL A   1      43.346  24.551  27.685  1.00  0.00     0.031 A 
ATOM     19  C   UNL A   1      44.784  24.981  27.655  1.00  0.00     0.074 A 
ATOM     20  C   UNL A   1      42.379  25.414  28.060  1.00  0.00     0.049 A 
ATOM     21  N   UNL A   1      45.301  26.129  28.015  1.00  0.00    -0.248 NA
ATOM     22  C   UNL A   1      45.780  24.006  27.180  1.00  0.00     0.031 C 
ATOM     23  C   UNL A   1      40.948  25.089  28.129  1.00  0.00     0.029 A 
ATOM     24  N   UNL A   1      42.425  26.744  28.378  1.00  0.00    -0.354 N 
ATOM     25  C   UNL A   1      46.675  26.001  27.854  1.00  0.00     0.074 A 
ATOM     26  C   UNL A   1      46.918  24.662  27.366  1.00  0.00     0.031 C 
ATOM     27  C   UNL A   1      40.249  26.210  28.334  1.00  0.00     0.029 A 
ATOM     28  C   UNL A   1      41.182  27.305  28.549  1.00  0.00     0.049 A 
ATOM     29  H   UNL A   1      43.265  27.248  28.475  1.00  0.00     0.167 HD
ATOM     30  C   UNL A   1      47.635  26.924  28.100  1.00  0.00     0.037 A 
ATOM     31  C   UNL A   1      40.827  28.559  28.874  1.00  0.00     0.037 A 
ATOM     32  C   UNL A   1      47.367  28.267  28.553  1.00  0.00     0.049 A 
ATOM     33  C   UNL A   1      41.915  29.558  29.119  1.00  0.00     0.074 A 
ATOM     34  C   UNL A   1      48.266  29.279  28.841  1.00  0.00     0.029 A 
ATOM     35  N   UNL A   1      46.098  28.787  28.771  1.00  0.00    -0.354 N 
ATOM     36  N   UNL A   1      43.212  29.407  29.005  1.00  0.00    -0.248 NA
ATOM     37  C   UNL A   1      41.495  30.890  29.564  1.00  0.00     0.031 C 
ATOM     38  C   UNL A   1      47.544  30.401  29.262  1.00  0.00     0.029 A 
ATOM     39  C   UNL A   1      46.192  30.103  29.197  1.00  0.00     0.049 A 
ATOM     40  H   UNL A   1      45.256  28.293  28.642  1.00  0.00     0.167 HD
ATOM     41  C   UNL A   1      43.767  30.618  29.381  1.00  0.00     0.074 A 
ATOM     42  C   UNL A   1      42.661  31.509  29.676  1.00  0.00     0.031 C 
ATOM     43  C   UNL A   1      45.073  30.958  29.497  1.00  0.00     0.037 A 
BRANCH  30  44
ATOM     44  C   UNL A   1      49.070  26.518  27.914  1.00  0.00     0.064 A 
ATOM     45  C   UNL A   1      49.672  26.484  26.648  1.00  0.00     0.173 A 
ATOM     46  C   UNL A   1      49.873  26.230  29.029  1.00  0.00     0.173 A 
ATOM     47  F   UNL A   1      48.945  26.734  25.548  1.00  0.00    -0.203 F 
ATOM     48  C   UNL A   1      51.021  26.168  26.505  1.00  0.00     0.198 A 
ATOM     49  C   UNL A   1      51.228  25.938  28.884  1.00  0.00     0.198 A 
ATOM     50  F   UNL A   1      49.348  26.251  30.263  1.00  0.00    -0.203 F 
ATOM     51  F   UNL A   1      51.568  26.113  25.282  1.00  0.00    -0.200 F 
ATOM     52  C   UNL A   1      51.800  25.907  27.622  1.00  0.00     0.200 A 
ATOM     53  F   UNL A   1      51.979  25.694  29.967  1.00  0.00    -0.200 F 
ATOM     54  F   UNL A   1      53.101  25.617  27.482  1.00  0.00    -0.200 F 
ENDBRANCH  30  44
BRANCH  31  55
ATOM     55  C   UNL A   1      39.392  28.903  29.038  1.00  0.00     0.064 A 
ATOM     56  C   UNL A   1      38.753  28.791  30.280  1.00  0.00     0.173 A 
ATOM     57  C   UNL A   1      38.634  29.380  27.956  1.00  0.00     0.173 A 
ATOM     58  F   UNL A   1      39.428  28.326  31.341  1.00  0.00    -0.203 F 
ATOM     59  C   UNL A   1      37.410  29.132  30.431  1.00  0.00     0.198 A 
ATOM     60  C   UNL A   1      37.304  29.758  28.117  1.00  0.00     0.198 A 
ATOM     61  F   UNL A   1      39.198  29.513  26.747  1.00  0.00    -0.203 F 
ATOM     62  F   UNL A   1      36.812  28.978  31.619  1.00  0.00    -0.200 F 
ATOM     63  C   UNL A   1      36.691  29.626  29.351  1.00  0.00     0.200 A 
ATOM     64  F   UNL A   1      36.624  30.260  27.077  1.00  0.00    -0.200 F 
ATOM     65  F   UNL A   1      35.405  29.970  29.502  1.00  0.00    -0.200 F 
ENDBRANCH  31  55
BRANCH  43  66
ATOM     66  C   UNL A   1      45.355  32.353  29.964  1.00  0.00     0.064 A 
ATOM     67  C   UNL A   1      45.515  32.645  31.327  1.00  0.00     0.173 A 
ATOM     68  C   UNL A   1      45.450  33.406  29.045  1.00  0.00     0.173 A 
ATOM     69  F   UNL A   1      45.410  31.671  32.243  1.00  0.00    -0.203 F 
ATOM     70  C   UNL A   1      45.724  33.951  31.755  1.00  0.00     0.198 A 
ATOM     71  C   UNL A   1      45.688  34.707  29.475  1.00  0.00     0.198 A 
ATOM     72  F   UNL A   1      45.306  33.173  27.731  1.00  0.00    -0.203 F 
ATOM     73  F   UNL A   1      45.812  34.218  33.065  1.00  0.00    -0.200 F 
ATOM     74  C   UNL A   1      45.814  34.981  30.830  1.00  0.00     0.200 A 
ATOM     75  F   UNL A   1      45.782  35.700  28.580  1.00  0.00    -0.200 F 
ATOM     76  F   UNL A   1      46.007  36.240  31.244  1.00  0.00    -0.200 F 
ENDBRANCH  43  66
ENDBRANCH  17  18
ENDBRANCH  10  12
ENDBRANCH   7   8
ENDBRANCH   6   7
ENDBRANCH   5   6
ENDBRANCH   1   5
BRANCH   2  77
ATOM     77  C   UNL A   1      34.657  23.159  24.799  1.00  0.00     0.308 C 
BRANCH  77  78
ATOM     78  C   UNL A   1      34.092  21.980  25.612  1.00  0.00     0.044 A 
ATOM     79  C   UNL A   1      34.049  21.753  26.981  1.00  0.00     0.094 A 
ATOM     80  C   UNL A   1      33.512  20.784  25.023  1.00  0.00     0.011 A 
ATOM     81  N   UNL A   1      33.585  20.489  27.226  1.00  0.00    -0.361 N 
ATOM     82  C   UNL A   1      33.247  19.876  26.051  1.00  0.00     0.046 A 
ATOM     83  C   UNL A   1      33.205  20.387  23.703  1.00  0.00     0.031 A 
ATOM     84  H   UNL A   1      33.507  20.080  28.118  1.00  0.00     0.166 HD
ATOM     85  C   UNL A   1      32.725  18.595  25.838  1.00  0.00     0.028 A 
ATOM     86  C   UNL A   1      32.646  19.122  23.478  1.00  0.00     0.041 A 
ATOM     87  C   UNL A   1      32.420  18.234  24.525  1.00  0.00     0.022 A 
ATOM     88  Cl  UNL A   1      32.223  18.657  21.874  1.00  0.00    -0.084 Cl
ENDBRANCH  77  78
BRANCH  77  89
ATOM     89  N   UNL A   1      33.711  24.256  24.470  1.00  0.00    -0.312 N 
ATOM     90  C   UNL A   1      33.067  24.319  23.171  1.00  0.00     0.325 C 
ATOM     91  C   UNL A   1      32.726  24.606  25.523  1.00  0.00     0.325 C 
ATOM     92  H   UNL A   1      34.440  24.966  24.412  1.00  0.00     0.349 HD
ATOM     93  C   UNL A   1      31.756  23.520  23.111  1.00  0.00     0.324 C 
ATOM     94  C   UNL A   1      31.201  24.272  25.302  1.00  0.00     0.324 C 
ATOM     95  N   UNL A   1      30.704  24.060  23.935  1.00  0.00    -0.324 N 
ATOM     96  H   UNL A   1      29.967  23.365  24.054  1.00  0.00     0.348 HD
BRANCH  95  97
ATOM     97  C   UNL A   1      29.846  25.059  23.300  1.00  0.00     0.283 C 
BRANCH  97  98
ATOM     98  C   UNL A   1      29.321  26.287  24.091  1.00  0.00     0.174 C 
BRANCH  98  99
ATOM     99  N   UNL A   1      29.969  27.551  23.710  1.00  0.00    -0.379 N 
ATOM    100  H   UNL A   1      29.371  28.280  23.424  1.00  0.00     0.160 HD
BRANCH  99 101
ATOM    101  C   UNL A   1      31.328  27.829  23.708  1.00  0.00     0.053 A 
ATOM    102  C   UNL A   1      32.090  27.845  22.606  1.00  0.00     0.120 A 
ATOM    103  C   UNL A   1      32.012  28.098  24.994  1.00  0.00     0.041 A 
ATOM    104  C   UNL A   1      33.550  27.998  22.619  1.00  0.00     0.338 A 
ATOM    105  C   UNL A   1      33.410  28.094  25.026  1.00  0.00     0.140 A 
ATOM    106  C   UNL A   1      31.350  28.395  26.195  1.00  0.00     0.014 A 
ATOM    107  O   UNL A   1      34.180  28.084  21.571  1.00  0.00    -0.246 OA
ATOM    108  O   UNL A   1      34.172  27.962  23.853  1.00  0.00    -0.423 OA
ATOM    109  C   UNL A   1      34.136  28.280  26.205  1.00  0.00     0.048 A 
ATOM    110  C   UNL A   1      32.065  28.620  27.381  1.00  0.00     0.001 A 
ATOM    111  C   UNL A   1      33.457  28.540  27.391  1.00  0.00     0.004 A 
ENDBRANCH  99 101
ENDBRANCH  98  99
ENDBRANCH  97  98
ENDBRANCH  95  97
ENDBRANCH  77  89
ENDBRANCH   2  77
TORSDOF 16
ENDMDL
MODEL 2
REMARK VINA RESULT:     -12.2      1.884      2.667
REMARK SMILES O=C(NCCCNC(=O)[C@@H](c1c[nH]c2ccc(Cl)cc12)[NH+]1CC[NH+](CCNc2cc(=O)oc3ccccc23)CC1)c1ccc(-c2c3nc(c(-c4c(F)c(F)c(F)c(F)c4F)c4ccc([nH]4)c(-c4c(F)c(F)c(F)c(F)c4F)c4nc(c(-c5c(F)c(F)c(F)c(F)c5F)c5ccc2[nH]5)C=C4)C=C3)cc1
REMARK SMILES IDX 7 1 8 2 9 3 6 5 5 6 4 7 3 8 1 9 2 10 41 12 42 13 103 14
REMARK SMILES IDX 43 15 102 16 44 17 45 18 46 19 96 20 47 21 101 22 95 23
REMARK SMILES IDX 97 24 48 25 100 26 94 27 93 28 49 30 81 31 61 32 80 33 62 34
REMARK SMILES IDX 65 35 79 36 98 37 63 38 64 39 78 41 99 42 66 43 50 44 51 45
REMARK SMILES IDX 59 46 52 47 53 48 57 49 60 50 54 51 55 52 58 53 56 54 82 55
REMARK SMILES IDX 83 56 91 57 84 58 85 59 89 60 92 61 86 62 87 63 90 64 88 65
REMARK SMILES IDX 67 66 68 67 76 68 69 69 70 70 74 71 77 72 71 73 72 74 75 75
REMARK SMILES IDX 73 76 10 77 11 78 12 79 20 80 13 81 14 82 19 83 15 85 17 86
REMARK SMILES IDX 16 87 18 88 21 89 22 90 40 91 23 93 39 94 24 95 25 97 26 98
REMARK SMILES IDX 27 99 28 101 29 102 38 103 30 104 33 105 37 106 31 107
REMARK SMILES IDX 32 108 34 109 36 110 35 111
REMARK H PARENT 7 4 3 11 97 29 65 40 13 84 21 92 24 96 27 100
REMARK Flexibility Score: inf
ROOT
ATOM      1  N   UNL A   1      35.702  21.725  26.201  1.00  0.00    -0.351 N 
ATOM      2  C   UNL A   1      34.492  21.239  25.772  1.00  0.00     0.283 C 
ATOM      3  O   UNL A   1      33.753  20.773  26.649  1.00  0.00    -0.268 OA
ATOM      4  H   UNL A   1      35.743  22.053  27.129  1.00  0.00     0.163 HD
ENDROOT
BRANCH   1   5
ATOM      5  C   UNL A   1      36.915  21.804  25.434  1.00  0.00     0.118 C 
BRANCH   5   6
ATOM      6  C   UNL A   1      37.740  20.552  25.343  1.00  0.00     0.042 C 
BRANCH   6   7
ATOM      7  C   UNL A   1      39.119  20.791  25.928  1.00  0.00     0.118 C 
BRANCH   7   8
ATOM      8  N   UNL A   1      39.974  19.590  25.943  1.00  0.00    -0.352 N 
ATOM      9  O   UNL A   1      41.889  18.385  25.927  1.00  0.00    -0.269 OA
ATOM     10  C   UNL A   1      41.345  19.462  26.062  1.00  0.00     0.251 C 
ATOM     11  H   UNL A   1      39.489  18.738  25.853  1.00  0.00     0.163 HD
BRANCH  10  12
ATOM     12  C   UNL A   1      42.131  20.683  26.315  1.00  0.00     0.039 A 
ATOM     13  C   UNL A   1      42.440  21.009  27.629  1.00  0.00     0.014 A 
ATOM     14  C   UNL A   1      42.437  21.559  25.272  1.00  0.00     0.014 A 
ATOM     15  C   UNL A   1      42.738  22.319  27.930  1.00  0.00     0.010 A 
ATOM     16  C   UNL A   1      42.944  22.827  25.573  1.00  0.00     0.010 A 
ATOM     17  C   UNL A   1      43.039  23.239  26.909  1.00  0.00    -0.014 A 
BRANCH  17  18
ATOM     18  C   UNL A   1      43.497  24.589  27.326  1.00  0.00     0.031 A 
ATOM     19  C   UNL A   1      44.879  25.088  27.015  1.00  0.00     0.074 A 
ATOM     20  C   UNL A   1      42.581  25.405  27.885  1.00  0.00     0.049 A 
ATOM     21  N   UNL A   1      45.398  26.263  27.269  1.00  0.00    -0.248 NA
ATOM     22  C   UNL A   1      45.809  24.161  26.351  1.00  0.00     0.031 C 
ATOM     23  C   UNL A   1      41.209  25.011  28.233  1.00  0.00     0.029 A 
ATOM     24  N   UNL A   1      42.622  26.738  28.191  1.00  0.00    -0.354 N 
ATOM     25  C   UNL A   1      46.718  26.202  26.842  1.00  0.00     0.074 A 
ATOM     26  C   UNL A   1      46.928  24.873  26.312  1.00  0.00     0.031 C 
ATOM     27  C   UNL A   1      40.509  26.097  28.574  1.00  0.00     0.029 A 
ATOM     28  C   UNL A   1      41.411  27.238  28.604  1.00  0.00     0.049 A 
ATOM     29  H   UNL A   1      43.439  27.284  28.123  1.00  0.00     0.167 HD
ATOM     30  C   UNL A   1      47.661  27.173  26.897  1.00  0.00     0.037 A 
ATOM     31  C   UNL A   1      41.065  28.476  28.997  1.00  0.00     0.037 A 
ATOM     32  C   UNL A   1      47.420  28.504  27.397  1.00  0.00     0.049 A 
ATOM     33  C   UNL A   1      42.128  29.529  29.026  1.00  0.00     0.074 A 
ATOM     34  C   UNL A   1      48.307  29.562  27.506  1.00  0.00     0.029 A 
ATOM     35  N   UNL A   1      46.195  28.963  27.862  1.00  0.00    -0.354 N 
ATOM     36  N   UNL A   1      43.383  29.442  28.659  1.00  0.00    -0.248 NA
ATOM     37  C   UNL A   1      41.738  30.842  29.548  1.00  0.00     0.031 C 
ATOM     38  C   UNL A   1      47.626  30.649  28.064  1.00  0.00     0.029 A 
ATOM     39  C   UNL A   1      46.305  30.284  28.265  1.00  0.00     0.049 A 
ATOM     40  H   UNL A   1      45.369  28.427  27.899  1.00  0.00     0.167 HD
ATOM     41  C   UNL A   1      43.940  30.681  28.923  1.00  0.00     0.074 A 
ATOM     42  C   UNL A   1      42.871  31.518  29.431  1.00  0.00     0.031 C 
ATOM     43  C   UNL A   1      45.225  31.086  28.781  1.00  0.00     0.037 A 
BRANCH  30  44
ATOM     44  C   UNL A   1      49.050  26.838  26.432  1.00  0.00     0.064 A 
ATOM     45  C   UNL A   1      50.007  26.286  27.296  1.00  0.00     0.173 A 
ATOM     46  C   UNL A   1      49.403  27.004  25.084  1.00  0.00     0.173 A 
ATOM     47  F   UNL A   1      49.727  26.122  28.597  1.00  0.00    -0.203 F 
ATOM     48  C   UNL A   1      51.269  25.921  26.828  1.00  0.00     0.198 A 
ATOM     49  C   UNL A   1      50.656  26.617  24.614  1.00  0.00     0.198 A 
ATOM     50  F   UNL A   1      48.525  27.526  24.215  1.00  0.00    -0.203 F 
ATOM     51  F   UNL A   1      52.178  25.422  27.678  1.00  0.00    -0.200 F 
ATOM     52  C   UNL A   1      51.588  26.076  25.487  1.00  0.00     0.200 A 
ATOM     53  F   UNL A   1      50.959  26.760  23.317  1.00  0.00    -0.200 F 
ATOM     54  F   UNL A   1      52.797  25.712  25.037  1.00  0.00    -0.200 F 
ENDBRANCH  30  44
BRANCH  31  55
ATOM     55  C   UNL A   1      39.674  28.750  29.440  1.00  0.00     0.064 A 
ATOM     56  C   UNL A   1      39.268  28.503  30.758  1.00  0.00     0.173 A 
ATOM     57  C   UNL A   1      38.726  29.292  28.556  1.00  0.00     0.173 A 
ATOM     58  F   UNL A   1      40.130  27.970  31.636  1.00  0.00    -0.203 F 
ATOM     59  C   UNL A   1      37.965  28.779  31.172  1.00  0.00     0.198 A 
ATOM     60  C   UNL A   1      37.438  29.605  28.982  1.00  0.00     0.198 A 
ATOM     61  F   UNL A   1      39.065  29.554  27.286  1.00  0.00    -0.203 F 
ATOM     62  F   UNL A   1      37.590  28.496  32.426  1.00  0.00    -0.200 F 
ATOM     63  C   UNL A   1      37.056  29.339  30.286  1.00  0.00     0.200 A 
ATOM     64  F   UNL A   1      36.574  30.172  28.129  1.00  0.00    -0.200 F 
ATOM     65  F   UNL A   1      35.810  29.620  30.691  1.00  0.00    -0.200 F 
ENDBRANCH  31  55
BRANCH  43  66
ATOM     66  C   UNL A   1      45.523  32.496  29.187  1.00  0.00     0.064 A 
ATOM     67  C   UNL A   1      45.935  32.805  30.492  1.00  0.00     0.173 A 
ATOM     68  C   UNL A   1      45.382  33.546  28.270  1.00  0.00     0.173 A 
ATOM     69  F   UNL A   1      46.062  31.833  31.408  1.00  0.00    -0.203 F 
ATOM     70  C   UNL A   1      46.159  34.123  30.875  1.00  0.00     0.198 A 
ATOM     71  C   UNL A   1      45.635  34.860  28.650  1.00  0.00     0.198 A 
ATOM     72  F   UNL A   1      44.993  33.298  27.010  1.00  0.00    -0.203 F 
ATOM     73  F   UNL A   1      46.490  34.403  32.142  1.00  0.00    -0.200 F 
ATOM     74  C   UNL A   1      46.012  35.149  29.953  1.00  0.00     0.200 A 
ATOM     75  F   UNL A   1      45.500  35.850  27.756  1.00  0.00    -0.200 F 
ATOM     76  F   UNL A   1      46.220  36.419  30.325  1.00  0.00    -0.200 F 
ENDBRANCH  43  66
ENDBRANCH  17  18
ENDBRANCH  10  12
ENDBRANCH   7   8
ENDBRANCH   6   7
ENDBRANCH   5   6
ENDBRANCH   1   5
BRANCH   2  77
ATOM     77  C   UNL A   1      34.032  21.284  24.287  1.00  0.00     0.308 C 
BRANCH  77  78
ATOM     78  C   UNL A   1      33.364  19.973  23.834  1.00  0.00     0.044 A 
ATOM     79  C   UNL A   1      32.217  19.744  23.086  1.00  0.00     0.094 A 
ATOM     80  C   UNL A   1      33.838  18.647  24.194  1.00  0.00     0.011 A 
ATOM     81  N   UNL A   1      31.935  18.406  23.069  1.00  0.00    -0.361 N 
ATOM     82  C   UNL A   1      32.909  17.712  23.734  1.00  0.00     0.046 A 
ATOM     83  C   UNL A   1      34.968  18.160  24.887  1.00  0.00     0.031 A 
ATOM     84  H   UNL A   1      31.147  18.001  22.640  1.00  0.00     0.166 HD
ATOM     85  C   UNL A   1      33.024  16.333  23.948  1.00  0.00     0.028 A 
ATOM     86  C   UNL A   1      35.117  16.780  25.076  1.00  0.00     0.041 A 
ATOM     87  C   UNL A   1      34.156  15.880  24.625  1.00  0.00     0.022 A 
ATOM     88  Cl  UNL A   1      36.521  16.183  25.876  1.00  0.00    -0.084 Cl
ENDBRANCH  77  78
BRANCH  77  89
ATOM     89  N   UNL A   1      33.419  22.547  23.804  1.00  0.00    -0.312 N 
ATOM     90  C   UNL A   1      31.984  22.659  23.626  1.00  0.00     0.325 C 
ATOM     91  C   UNL A   1      33.937  23.798  24.412  1.00  0.00     0.325 C 
ATOM     92  H   UNL A   1      33.772  22.440  22.853  1.00  0.00     0.349 HD
ATOM     93  C   UNL A   1      31.253  23.096  24.905  1.00  0.00     0.324 C 
ATOM     94  C   UNL A   1      33.012  24.630  25.381  1.00  0.00     0.324 C 
ATOM     95  N   UNL A   1      31.556  24.444  25.319  1.00  0.00    -0.324 N 
ATOM     96  H   UNL A   1      31.255  24.584  26.283  1.00  0.00     0.348 HD
BRANCH  95  97
ATOM     97  C   UNL A   1      30.702  25.490  24.758  1.00  0.00     0.283 C 
BRANCH  97  98
ATOM     98  C   UNL A   1      31.188  26.378  23.581  1.00  0.00     0.174 C 
BRANCH  98  99
ATOM     99  N   UNL A   1      30.307  27.523  23.307  1.00  0.00    -0.379 N 
ATOM    100  H   UNL A   1      29.544  27.354  22.710  1.00  0.00     0.160 HD
BRANCH  99 101
ATOM    101  C   UNL A   1      30.435  28.815  23.797  1.00  0.00     0.053 A 
ATOM    102  C   UNL A   1      31.255  29.161  24.799  1.00  0.00     0.120 A 
ATOM    103  C   UNL A   1      29.603  29.893  23.216  1.00  0.00     0.041 A 
ATOM    104  C   UNL A   1      31.286  30.495  25.411  1.00  0.00     0.338 A 
ATOM    105  C   UNL A   1      29.520  31.116  23.889  1.00  0.00     0.140 A 
ATOM    106  C   UNL A   1      28.906  29.787  22.002  1.00  0.00     0.014 A 
ATOM    107  O   UNL A   1      32.115  30.770  26.271  1.00  0.00    -0.246 OA
ATOM    108  O   UNL A   1      30.298  31.382  25.028  1.00  0.00    -0.423 OA
ATOM    109  C   UNL A   1      28.714  32.167  23.444  1.00  0.00     0.048 A 
ATOM    110  C   UNL A   1      28.120  30.847  21.522  1.00  0.00     0.001 A 
ATOM    111  C   UNL A   1      28.005  32.027  22.255  1.00  0.00     0.004 A 
ENDBRANCH  99 101
ENDBRANCH  98  99
ENDBRANCH  97  98
ENDBRANCH  95  97
ENDBRANCH  77  89
ENDBRANCH   2  77
TORSDOF 16
ENDMDL
MODEL 3
REMARK VINA RESULT:     -12.1      3.579      5.494
REMARK SMILES O=C(NCCCNC(=O)[C@@H](c1c[nH]c2ccc(Cl)cc12)[NH+]1CC[NH+](CCNc2cc(=O)oc3ccccc23)CC1)c1ccc(-c2c3nc(c(-c4c(F)c(F)c(F)c(F)c4F)c4ccc([nH]4)c(-c4c(F)c(F)c(F)c(F)c4F)c4nc(c(-c5c(F)c(F)c(F)c(F)c5F)c5ccc2[nH]5)C=C4)C=C3)cc1
REMARK SMILES IDX 7 1 8 2 9 3 6 5 5 6 4 7 3 8 1 9 2 10 41 12 42 13 103 14
REMARK SMILES IDX 43 15 102 16 44 17 45 18 46 19 96 20 47 21 101 22 95 23
REMARK SMILES IDX 97 24 48 25 100 26 94 27 93 28 49 30 81 31 61 32 80 33 62 34
REMARK SMILES IDX 65 35 79 36 98 37 63 38 64 39 78 41 99 42 66 43 50 44 51 45
REMARK SMILES IDX 59 46 52 47 53 48 57 49 60 50 54 51 55 52 58 53 56 54 82 55
REMARK SMILES IDX 83 56 91 57 84 58 85 59 89 60 92 61 86 62 87 63 90 64 88 65
REMARK SMILES IDX 67 66 68 67 76 68 69 69 70 70 74 71 77 72 71 73 72 74 75 75
REMARK SMILES IDX 73 76 10 77 11 78 12 79 20 80 13 81 14 82 19 83 15 85 17 86
REMARK SMILES IDX 16 87 18 88 21 89 22 90 40 91 23 93 39 94 24 95 25 97 26 98
REMARK SMILES IDX 27 99 28 101 29 102 38 103 30 104 33 105 37 106 31 107
REMARK SMILES IDX 32 108 34 109 36 110 35 111
REMARK H PARENT 7 4 3 11 97 29 65 40 13 84 21 92 24 96 27 100
REMARK Flexibility Score: inf
ROOT
ATOM      1  N   UNL A   1      33.954  24.319  23.287  1.00  0.00    -0.351 N 
ATOM      2  C   UNL A   1      33.457  25.485  22.759  1.00  0.00     0.283 C 
ATOM      3  O   UNL A   1      33.487  25.578  21.525  1.00  0.00    -0.268 OA
ATOM      4  H   UNL A   1      33.906  23.519  22.715  1.00  0.00     0.163 HD
ENDROOT
BRANCH   1   5
ATOM      5  C   UNL A   1      34.537  24.148  24.590  1.00  0.00     0.118 C 
BRANCH   5   6
ATOM      6  C   UNL A   1      36.030  23.993  24.647  1.00  0.00     0.042 C 
BRANCH   6   7
ATOM      7  C   UNL A   1      36.440  23.351  25.959  1.00  0.00     0.118 C 
BRANCH   7   8
ATOM      8  N   UNL A   1      37.335  22.191  25.799  1.00  0.00    -0.352 N 
ATOM      9  O   UNL A   1      39.285  21.044  25.751  1.00  0.00    -0.269 OA
ATOM     10  C   UNL A   1      38.683  22.050  26.068  1.00  0.00     0.251 C 
ATOM     11  H   UNL A   1      36.902  21.383  25.441  1.00  0.00     0.163 HD
BRANCH  10  12
ATOM     12  C   UNL A   1      39.379  23.179  26.713  1.00  0.00     0.039 A 
ATOM     13  C   UNL A   1      39.089  24.466  26.282  1.00  0.00     0.014 A 
ATOM     14  C   UNL A   1      40.402  22.948  27.635  1.00  0.00     0.014 A 
ATOM     15  C   UNL A   1      40.016  25.460  26.506  1.00  0.00     0.010 A 
ATOM     16  C   UNL A   1      41.217  24.013  28.029  1.00  0.00     0.010 A 
ATOM     17  C   UNL A   1      41.069  25.266  27.417  1.00  0.00    -0.014 A 
BRANCH  17  18
ATOM     18  C   UNL A   1      41.934  26.436  27.715  1.00  0.00     0.031 A 
ATOM     19  C   UNL A   1      43.224  26.676  26.986  1.00  0.00     0.074 A 
ATOM     20  C   UNL A   1      41.453  27.352  28.581  1.00  0.00     0.049 A 
ATOM     21  N   UNL A   1      44.053  27.683  27.104  1.00  0.00    -0.248 NA
ATOM     22  C   UNL A   1      43.659  25.662  26.012  1.00  0.00     0.031 C 
ATOM     23  C   UNL A   1      40.208  27.208  29.347  1.00  0.00     0.029 A 
ATOM     24  N   UNL A   1      41.894  28.604  28.913  1.00  0.00    -0.354 N 
ATOM     25  C   UNL A   1      45.121  27.404  26.261  1.00  0.00     0.074 A 
ATOM     26  C   UNL A   1      44.842  26.131  25.635  1.00  0.00     0.031 C 
ATOM     27  C   UNL A   1      39.919  28.367  29.946  1.00  0.00     0.029 A 
ATOM     28  C   UNL A   1      41.023  29.289  29.725  1.00  0.00     0.049 A 
ATOM     29  H   UNL A   1      42.751  28.976  28.601  1.00  0.00     0.167 HD
ATOM     30  C   UNL A   1      46.231  28.150  26.042  1.00  0.00     0.037 A 
ATOM     31  C   UNL A   1      41.112  30.517  30.262  1.00  0.00     0.037 A 
ATOM     32  C   UNL A   1      46.472  29.435  26.650  1.00  0.00     0.049 A 
ATOM     33  C   UNL A   1      42.343  31.321  29.983  1.00  0.00     0.074 A 
ATOM     34  C   UNL A   1      47.566  30.269  26.504  1.00  0.00     0.029 A 
ATOM     35  N   UNL A   1      45.594  30.076  27.514  1.00  0.00    -0.354 N 
ATOM     36  N   UNL A   1      43.365  31.023  29.217  1.00  0.00    -0.248 NA
ATOM     37  C   UNL A   1      42.451  32.617  30.660  1.00  0.00     0.031 C 
ATOM     38  C   UNL A   1      47.365  31.401  27.302  1.00  0.00     0.029 A 
ATOM     39  C   UNL A   1      46.127  31.292  27.913  1.00  0.00     0.049 A 
ATOM     40  H   UNL A   1      44.722  29.720  27.800  1.00  0.00     0.167 HD
ATOM     41  C   UNL A   1      44.246  32.083  29.334  1.00  0.00     0.074 A 
ATOM     42  C   UNL A   1      43.613  33.056  30.203  1.00  0.00     0.031 C 
ATOM     43  C   UNL A   1      45.479  32.231  28.792  1.00  0.00     0.037 A 
BRANCH  30  44
ATOM     44  C   UNL A   1      47.287  27.594  25.129  1.00  0.00     0.064 A 
ATOM     45  C   UNL A   1      47.308  27.885  23.757  1.00  0.00     0.173 A 
ATOM     46  C   UNL A   1      48.334  26.818  25.650  1.00  0.00     0.173 A 
ATOM     47  F   UNL A   1      46.321  28.608  23.206  1.00  0.00    -0.203 F 
ATOM     48  C   UNL A   1      48.333  27.412  22.940  1.00  0.00     0.198 A 
ATOM     49  C   UNL A   1      49.371  26.368  24.835  1.00  0.00     0.198 A 
ATOM     50  F   UNL A   1      48.364  26.512  26.955  1.00  0.00    -0.203 F 
ATOM     51  F   UNL A   1      48.317  27.679  21.626  1.00  0.00    -0.200 F 
ATOM     52  C   UNL A   1      49.369  26.665  23.481  1.00  0.00     0.200 A 
ATOM     53  F   UNL A   1      50.374  25.652  25.362  1.00  0.00    -0.200 F 
ATOM     54  F   UNL A   1      50.361  26.223  22.696  1.00  0.00    -0.200 F 
ENDBRANCH  30  44
BRANCH  31  55
ATOM     55  C   UNL A   1      40.033  31.016  31.153  1.00  0.00     0.064 A 
ATOM     56  C   UNL A   1      39.129  31.997  30.722  1.00  0.00     0.173 A 
ATOM     57  C   UNL A   1      39.866  30.500  32.448  1.00  0.00     0.173 A 
ATOM     58  F   UNL A   1      39.255  32.534  29.499  1.00  0.00    -0.203 F 
ATOM     59  C   UNL A   1      38.107  32.448  31.556  1.00  0.00     0.198 A 
ATOM     60  C   UNL A   1      38.820  30.922  33.265  1.00  0.00     0.198 A 
ATOM     61  F   UNL A   1      40.698  29.555  32.907  1.00  0.00    -0.203 F 
ATOM     62  F   UNL A   1      37.282  33.415  31.135  1.00  0.00    -0.200 F 
ATOM     63  C   UNL A   1      37.948  31.903  32.822  1.00  0.00     0.200 A 
ATOM     64  F   UNL A   1      38.656  30.372  34.475  1.00  0.00    -0.200 F 
ATOM     65  F   UNL A   1      36.955  32.325  33.615  1.00  0.00    -0.200 F 
ENDBRANCH  31  55
BRANCH  43  66
ATOM     66  C   UNL A   1      46.205  33.495  29.136  1.00  0.00     0.064 A 
ATOM     67  C   UNL A   1      47.095  33.549  30.220  1.00  0.00     0.173 A 
ATOM     68  C   UNL A   1      46.000  34.662  28.388  1.00  0.00     0.173 A 
ATOM     69  F   UNL A   1      47.305  32.462  30.976  1.00  0.00    -0.203 F 
ATOM     70  C   UNL A   1      47.726  34.740  30.564  1.00  0.00     0.198 A 
ATOM     71  C   UNL A   1      46.654  35.843  28.719  1.00  0.00     0.198 A 
ATOM     72  F   UNL A   1      45.160  34.656  27.341  1.00  0.00    -0.203 F 
ATOM     73  F   UNL A   1      48.523  34.786  31.640  1.00  0.00    -0.200 F 
ATOM     74  C   UNL A   1      47.508  35.885  29.811  1.00  0.00     0.200 A 
ATOM     75  F   UNL A   1      46.449  36.947  27.987  1.00  0.00    -0.200 F 
ATOM     76  F   UNL A   1      48.109  37.034  30.150  1.00  0.00    -0.200 F 
ENDBRANCH  43  66
ENDBRANCH  17  18
ENDBRANCH  10  12
ENDBRANCH   7   8
ENDBRANCH   6   7
ENDBRANCH   5   6
ENDBRANCH   1   5
BRANCH   2  77
ATOM     77  C   UNL A   1      32.857  26.627  23.628  1.00  0.00     0.308 C 
BRANCH  77  78
ATOM     78  C   UNL A   1      31.358  26.426  23.916  1.00  0.00     0.044 A 
ATOM     79  C   UNL A   1      30.673  25.361  24.485  1.00  0.00     0.094 A 
ATOM     80  C   UNL A   1      30.322  27.381  23.559  1.00  0.00     0.011 A 
ATOM     81  N   UNL A   1      29.325  25.578  24.395  1.00  0.00    -0.361 N 
ATOM     82  C   UNL A   1      29.082  26.803  23.838  1.00  0.00     0.046 A 
ATOM     83  C   UNL A   1      30.329  28.680  23.006  1.00  0.00     0.031 A 
ATOM     84  H   UNL A   1      28.632  24.944  24.689  1.00  0.00     0.166 HD
ATOM     85  C   UNL A   1      27.858  27.428  23.573  1.00  0.00     0.028 A 
ATOM     86  C   UNL A   1      29.113  29.334  22.770  1.00  0.00     0.041 A 
ATOM     87  C   UNL A   1      27.895  28.715  23.037  1.00  0.00     0.022 A 
ATOM     88  Cl  UNL A   1      29.123  30.939  22.144  1.00  0.00    -0.084 Cl
ENDBRANCH  77  78
BRANCH  77  89
ATOM     89  N   UNL A   1      33.690  27.139  24.746  1.00  0.00    -0.312 N 
ATOM     90  C   UNL A   1      34.314  28.447  24.673  1.00  0.00     0.325 C 
ATOM     91  C   UNL A   1      33.147  26.931  26.111  1.00  0.00     0.325 C 
ATOM     92  H   UNL A   1      34.459  26.494  24.566  1.00  0.00     0.349 HD
ATOM     93  C   UNL A   1      33.402  29.577  25.176  1.00  0.00     0.324 C 
ATOM     94  C   UNL A   1      32.644  28.172  26.945  1.00  0.00     0.324 C 
ATOM     95  N   UNL A   1      33.122  29.516  26.589  1.00  0.00    -0.324 N 
ATOM     96  H   UNL A   1      32.329  30.118  26.809  1.00  0.00     0.348 HD
BRANCH  95  97
ATOM     97  C   UNL A   1      34.068  30.216  27.456  1.00  0.00     0.283 C 
BRANCH  97  98
ATOM     98  C   UNL A   1      33.755  31.632  28.010  1.00  0.00     0.174 C 
BRANCH  98  99
ATOM     99  N   UNL A   1      34.673  32.062  29.075  1.00  0.00    -0.379 N 
ATOM    100  H   UNL A   1      35.564  31.644  29.079  1.00  0.00     0.160 HD
BRANCH  99 101
ATOM    101  C   UNL A   1      34.421  32.991  30.074  1.00  0.00     0.053 A 
ATOM    102  C   UNL A   1      34.403  32.702  31.382  1.00  0.00     0.120 A 
ATOM    103  C   UNL A   1      34.118  34.392  29.698  1.00  0.00     0.041 A 
ATOM    104  C   UNL A   1      33.997  33.649  32.427  1.00  0.00     0.338 A 
ATOM    105  C   UNL A   1      33.589  35.249  30.667  1.00  0.00     0.140 A 
ATOM    106  C   UNL A   1      34.359  34.939  28.428  1.00  0.00     0.014 A 
ATOM    107  O   UNL A   1      34.079  33.347  33.612  1.00  0.00    -0.246 OA
ATOM    108  O   UNL A   1      33.455  34.849  32.007  1.00  0.00    -0.423 OA
ATOM    109  C   UNL A   1      33.221  36.567  30.386  1.00  0.00     0.048 A 
ATOM    110  C   UNL A   1      34.028  36.272  28.139  1.00  0.00     0.001 A 
ATOM    111  C   UNL A   1      33.438  37.079  29.111  1.00  0.00     0.004 A 
ENDBRANCH  99 101
ENDBRANCH  98  99
ENDBRANCH  97  98
ENDBRANCH  95  97
ENDBRANCH  77  89
ENDBRANCH   2  77
TORSDOF 16
ENDMDL
