MODEL 1
REMARK VINA RESULT:     -11.9      0.000      0.000
REMARK SMILES O=C(CCCc1csc2ccccc12)NCCCNC(=O)c1ccc(-c2c3nc(c(-c4c(F)c(F)c(F)c(F)c4F)c4ccc([nH]4)c(-c4c(F)c(F)c(F)c(F)c4F)c4nc(c(-c5c(F)c(F)c(F)c(F)c5F)c5ccc2[nH]5)C=C4)C=C3)cc1
REMARK SMILES IDX 16 1 15 2 1 3 2 4 3 6 4 7 5 8 6 9 7 10 14 11 8 12 9 13 13 14
REMARK SMILES IDX 10 15 12 16 11 17 17 18 18 19 19 20 20 21 21 23 22 24 23 25
REMARK SMILES IDX 84 26 24 27 83 28 25 29 26 30 27 31 77 32 28 33 82 34 76 35
REMARK SMILES IDX 78 36 29 37 81 38 75 39 74 40 30 42 62 43 42 44 61 45 43 46
REMARK SMILES IDX 46 47 60 48 79 49 44 50 45 51 59 53 80 54 47 55 31 56 32 57
REMARK SMILES IDX 40 58 33 59 34 60 38 61 41 62 35 63 36 64 39 65 37 66 63 67
REMARK SMILES IDX 64 68 72 69 65 70 66 71 70 72 73 73 67 74 68 75 71 76 69 77
REMARK SMILES IDX 48 78 49 79 57 80 50 81 51 82 55 83 58 84 52 85 53 86 56 87
REMARK SMILES IDX 54 88
REMARK H PARENT 15 5 19 22 78 41 46 52
REMARK Flexibility Score: inf
ROOT
ATOM      1  C   UNL A   1      31.901  30.270  26.918  1.00  0.00     0.117 C 
ENDROOT
BRANCH   1   2
ATOM      2  N   UNL A   1      32.499  29.629  25.767  1.00  0.00    -0.356 N 
ATOM      3  O   UNL A   1      34.359  28.851  26.866  1.00  0.00    -0.275 OA
ATOM      4  C   UNL A   1      33.678  28.928  25.849  1.00  0.00     0.220 C 
ATOM      5  H   UNL A   1      32.046  29.698  24.895  1.00  0.00     0.163 HD
BRANCH   4   6
ATOM      6  C   UNL A   1      34.054  28.214  24.571  1.00  0.00     0.100 C 
BRANCH   6   7
ATOM      7  C   UNL A   1      33.466  28.907  23.340  1.00  0.00     0.015 C 
BRANCH   7   8
ATOM      8  C   UNL A   1      32.647  28.026  22.384  1.00  0.00     0.037 C 
BRANCH   8   9
ATOM      9  C   UNL A   1      31.222  27.756  22.801  1.00  0.00    -0.029 A 
ATOM     10  C   UNL A   1      30.830  26.590  23.433  1.00  0.00     0.069 A 
ATOM     11  C   UNL A   1      30.086  28.633  22.575  1.00  0.00    -0.004 A 
ATOM     12  S   UNL A   1      29.188  26.589  23.879  1.00  0.00    -0.144 S 
ATOM     13  C   UNL A   1      28.918  28.125  23.155  1.00  0.00     0.035 A 
ATOM     14  C   UNL A   1      29.988  29.876  21.899  1.00  0.00     0.010 A 
ATOM     15  C   UNL A   1      27.699  28.831  23.112  1.00  0.00     0.019 A 
ATOM     16  C   UNL A   1      28.781  30.580  21.852  1.00  0.00     0.001 A 
ATOM     17  C   UNL A   1      27.649  30.064  22.460  1.00  0.00     0.001 A 
ENDBRANCH   8   9
ENDBRANCH   7   8
ENDBRANCH   6   7
ENDBRANCH   4   6
ENDBRANCH   1   2
BRANCH   1  18
ATOM     18  C   UNL A   1      31.724  31.772  26.730  1.00  0.00     0.042 C 
BRANCH  18  19
ATOM     19  C   UNL A   1      32.865  32.627  27.270  1.00  0.00     0.118 C 
BRANCH  19  20
ATOM     20  N   UNL A   1      32.472  33.993  27.586  1.00  0.00    -0.352 N 
ATOM     21  C   UNL A   1      32.999  34.856  28.518  1.00  0.00     0.251 C 
ATOM     22  H   UNL A   1      31.722  34.350  27.058  1.00  0.00     0.163 HD
ATOM     23  O   UNL A   1      32.464  35.939  28.731  1.00  0.00    -0.269 OA
BRANCH  21  24
ATOM     24  C   UNL A   1      34.191  34.459  29.297  1.00  0.00     0.039 A 
ATOM     25  C   UNL A   1      34.009  33.870  30.551  1.00  0.00     0.014 A 
ATOM     26  C   UNL A   1      35.477  34.637  28.781  1.00  0.00     0.014 A 
ATOM     27  C   UNL A   1      35.112  33.372  31.248  1.00  0.00     0.010 A 
ATOM     28  C   UNL A   1      36.570  34.087  29.449  1.00  0.00     0.010 A 
ATOM     29  C   UNL A   1      36.395  33.433  30.679  1.00  0.00    -0.014 A 
BRANCH  29  30
ATOM     30  C   UNL A   1      37.558  32.777  31.328  1.00  0.00     0.031 A 
ATOM     31  C   UNL A   1      38.248  31.621  30.662  1.00  0.00     0.074 A 
ATOM     32  C   UNL A   1      37.937  33.167  32.561  1.00  0.00     0.049 A 
ATOM     33  N   UNL A   1      39.207  30.856  31.119  1.00  0.00    -0.248 NA
ATOM     34  C   UNL A   1      37.783  31.264  29.314  1.00  0.00     0.031 C 
ATOM     35  C   UNL A   1      37.321  34.249  33.331  1.00  0.00     0.029 A 
ATOM     36  N   UNL A   1      38.918  32.687  33.391  1.00  0.00    -0.354 N 
ATOM     37  C   UNL A   1      39.450  29.920  30.123  1.00  0.00     0.074 A 
ATOM     38  C   UNL A   1      38.511  30.187  29.055  1.00  0.00     0.031 C 
ATOM     39  C   UNL A   1      37.944  34.357  34.515  1.00  0.00     0.029 A 
ATOM     40  C   UNL A   1      38.975  33.327  34.605  1.00  0.00     0.049 A 
ATOM     41  H   UNL A   1      39.525  31.952  33.141  1.00  0.00     0.167 HD
ATOM     42  C   UNL A   1      40.384  28.940  30.096  1.00  0.00     0.037 A 
ATOM     43  C   UNL A   1      39.757  33.101  35.678  1.00  0.00     0.037 A 
ATOM     44  C   UNL A   1      41.333  28.689  31.151  1.00  0.00     0.049 A 
ATOM     45  C   UNL A   1      40.772  31.992  35.629  1.00  0.00     0.074 A 
ATOM     46  C   UNL A   1      42.360  27.763  31.184  1.00  0.00     0.029 A 
ATOM     47  N   UNL A   1      41.364  29.365  32.361  1.00  0.00    -0.354 N 
ATOM     48  N   UNL A   1      41.037  31.155  34.656  1.00  0.00    -0.248 NA
ATOM     49  C   UNL A   1      41.596  31.794  36.830  1.00  0.00     0.031 C 
ATOM     50  C   UNL A   1      42.985  27.847  32.433  1.00  0.00     0.029 A 
ATOM     51  C   UNL A   1      42.377  28.857  33.160  1.00  0.00     0.049 A 
ATOM     52  H   UNL A   1      40.758  30.097  32.615  1.00  0.00     0.167 HD
ATOM     53  C   UNL A   1      42.068  30.349  35.115  1.00  0.00     0.074 A 
ATOM     54  C   UNL A   1      42.394  30.806  36.450  1.00  0.00     0.031 C 
ATOM     55  C   UNL A   1      42.690  29.322  34.487  1.00  0.00     0.037 A 
BRANCH  42  56
ATOM     56  C   UNL A   1      40.430  28.059  28.882  1.00  0.00     0.064 A 
ATOM     57  C   UNL A   1      41.208  28.392  27.763  1.00  0.00     0.173 A 
ATOM     58  C   UNL A   1      39.722  26.849  28.854  1.00  0.00     0.173 A 
ATOM     59  F   UNL A   1      41.895  29.544  27.737  1.00  0.00    -0.203 F 
ATOM     60  C   UNL A   1      41.254  27.558  26.650  1.00  0.00     0.198 A 
ATOM     61  C   UNL A   1      39.793  26.004  27.749  1.00  0.00     0.198 A 
ATOM     62  F   UNL A   1      38.968  26.480  29.900  1.00  0.00    -0.203 F 
ATOM     63  F   UNL A   1      41.970  27.918  25.574  1.00  0.00    -0.200 F 
ATOM     64  C   UNL A   1      40.553  26.362  26.646  1.00  0.00     0.200 A 
ATOM     65  F   UNL A   1      39.124  24.842  27.753  1.00  0.00    -0.200 F 
ATOM     66  F   UNL A   1      40.605  25.556  25.576  1.00  0.00    -0.200 F 
ENDBRANCH  42  56
BRANCH  43  67
ATOM     67  C   UNL A   1      39.619  33.949  36.889  1.00  0.00     0.064 A 
ATOM     68  C   UNL A   1      40.314  35.160  37.001  1.00  0.00     0.173 A 
ATOM     69  C   UNL A   1      38.796  33.566  37.958  1.00  0.00     0.173 A 
ATOM     70  F   UNL A   1      41.131  35.556  36.014  1.00  0.00    -0.203 F 
ATOM     71  C   UNL A   1      40.207  35.949  38.145  1.00  0.00     0.198 A 
ATOM     72  C   UNL A   1      38.668  34.368  39.091  1.00  0.00     0.198 A 
ATOM     73  F   UNL A   1      38.108  32.417  37.899  1.00  0.00    -0.203 F 
ATOM     74  F   UNL A   1      40.916  37.080  38.244  1.00  0.00    -0.200 F 
ATOM     75  C   UNL A   1      39.379  35.556  39.185  1.00  0.00     0.200 A 
ATOM     76  F   UNL A   1      37.858  33.991  40.089  1.00  0.00    -0.200 F 
ATOM     77  F   UNL A   1      39.273  36.316  40.283  1.00  0.00    -0.200 F 
ENDBRANCH  43  67
BRANCH  55  78
ATOM     78  C   UNL A   1      43.800  28.634  35.227  1.00  0.00     0.064 A 
ATOM     79  C   UNL A   1      43.552  27.546  36.076  1.00  0.00     0.173 A 
ATOM     80  C   UNL A   1      45.131  29.043  35.053  1.00  0.00     0.173 A 
ATOM     81  F   UNL A   1      42.294  27.129  36.288  1.00  0.00    -0.203 F 
ATOM     82  C   UNL A   1      44.594  26.906  36.740  1.00  0.00     0.198 A 
ATOM     83  C   UNL A   1      46.173  28.382  35.698  1.00  0.00     0.198 A 
ATOM     84  F   UNL A   1      45.422  30.076  34.248  1.00  0.00    -0.203 F 
ATOM     85  F   UNL A   1      44.329  25.895  37.581  1.00  0.00    -0.200 F 
ATOM     86  C   UNL A   1      45.903  27.319  36.545  1.00  0.00     0.200 A 
ATOM     87  F   UNL A   1      47.439  28.776  35.498  1.00  0.00    -0.200 F 
ATOM     88  F   UNL A   1      46.905  26.696  37.179  1.00  0.00    -0.200 F 
ENDBRANCH  55  78
ENDBRANCH  29  30
ENDBRANCH  21  24
ENDBRANCH  19  20
ENDBRANCH  18  19
ENDBRANCH   1  18
TORSDOF 13
ENDMDL
MODEL 2
REMARK VINA RESULT:     -11.9      0.252      1.661
REMARK SMILES O=C(CCCc1csc2ccccc12)NCCCNC(=O)c1ccc(-c2c3nc(c(-c4c(F)c(F)c(F)c(F)c4F)c4ccc([nH]4)c(-c4c(F)c(F)c(F)c(F)c4F)c4nc(c(-c5c(F)c(F)c(F)c(F)c5F)c5ccc2[nH]5)C=C4)C=C3)cc1
REMARK SMILES IDX 16 1 15 2 1 3 2 4 3 6 4 7 5 8 6 9 7 10 14 11 8 12 9 13 13 14
REMARK SMILES IDX 10 15 12 16 11 17 17 18 18 19 19 20 20 21 21 23 22 24 23 25
REMARK SMILES IDX 84 26 24 27 83 28 25 29 26 30 27 31 77 32 28 33 82 34 76 35
REMARK SMILES IDX 78 36 29 37 81 38 75 39 74 40 30 42 62 43 42 44 61 45 43 46
REMARK SMILES IDX 46 47 60 48 79 49 44 50 45 51 59 53 80 54 47 55 31 56 32 57
REMARK SMILES IDX 40 58 33 59 34 60 38 61 41 62 35 63 36 64 39 65 37 66 63 67
REMARK SMILES IDX 64 68 72 69 65 70 66 71 70 72 73 73 67 74 68 75 71 76 69 77
REMARK SMILES IDX 48 78 49 79 57 80 50 81 51 82 55 83 58 84 52 85 53 86 56 87
REMARK SMILES IDX 54 88
REMARK H PARENT 15 5 19 22 78 41 46 52
REMARK Flexibility Score: inf
ROOT
ATOM      1  C   UNL A   1      31.912  30.260  26.764  1.00  0.00     0.117 C 
ENDROOT
BRANCH   1   2
ATOM      2  N   UNL A   1      32.524  29.747  25.557  1.00  0.00    -0.356 N 
ATOM      3  O   UNL A   1      34.317  28.760  26.599  1.00  0.00    -0.275 OA
ATOM      4  C   UNL A   1      33.673  28.994  25.582  1.00  0.00     0.220 C 
ATOM      5  H   UNL A   1      32.102  29.945  24.690  1.00  0.00     0.163 HD
BRANCH   4   6
ATOM      6  C   UNL A   1      34.065  28.434  24.234  1.00  0.00     0.100 C 
BRANCH   6   7
ATOM      7  C   UNL A   1      33.202  27.231  23.846  1.00  0.00     0.015 C 
BRANCH   7   8
ATOM      8  C   UNL A   1      32.267  27.418  22.641  1.00  0.00     0.037 C 
BRANCH   8   9
ATOM      9  C   UNL A   1      30.790  27.416  22.950  1.00  0.00    -0.029 A 
ATOM     10  C   UNL A   1      30.146  26.346  23.543  1.00  0.00     0.069 A 
ATOM     11  C   UNL A   1      29.854  28.484  22.647  1.00  0.00    -0.004 A 
ATOM     12  S   UNL A   1      28.504  26.648  23.867  1.00  0.00    -0.144 S 
ATOM     13  C   UNL A   1      28.573  28.203  23.136  1.00  0.00     0.035 A 
ATOM     14  C   UNL A   1      30.035  29.720  21.975  1.00  0.00     0.010 A 
ATOM     15  C   UNL A   1      27.510  29.119  23.008  1.00  0.00     0.019 A 
ATOM     16  C   UNL A   1      28.984  30.633  21.843  1.00  0.00     0.001 A 
ATOM     17  C   UNL A   1      27.735  30.337  22.363  1.00  0.00     0.001 A 
ENDBRANCH   8   9
ENDBRANCH   7   8
ENDBRANCH   6   7
ENDBRANCH   4   6
ENDBRANCH   1   2
BRANCH   1  18
ATOM     18  C   UNL A   1      31.684  31.765  26.714  1.00  0.00     0.042 C 
BRANCH  18  19
ATOM     19  C   UNL A   1      32.819  32.609  27.284  1.00  0.00     0.118 C 
BRANCH  19  20
ATOM     20  N   UNL A   1      32.433  33.978  27.591  1.00  0.00    -0.352 N 
ATOM     21  C   UNL A   1      32.970  34.847  28.512  1.00  0.00     0.251 C 
ATOM     22  H   UNL A   1      31.680  34.333  27.066  1.00  0.00     0.163 HD
ATOM     23  O   UNL A   1      32.439  35.934  28.720  1.00  0.00    -0.269 OA
BRANCH  21  24
ATOM     24  C   UNL A   1      34.165  34.453  29.286  1.00  0.00     0.039 A 
ATOM     25  C   UNL A   1      33.990  33.856  30.537  1.00  0.00     0.014 A 
ATOM     26  C   UNL A   1      35.450  34.640  28.767  1.00  0.00     0.014 A 
ATOM     27  C   UNL A   1      35.098  33.362  31.229  1.00  0.00     0.010 A 
ATOM     28  C   UNL A   1      36.547  34.092  29.428  1.00  0.00     0.010 A 
ATOM     29  C   UNL A   1      36.379  33.432  30.656  1.00  0.00    -0.014 A 
BRANCH  29  30
ATOM     30  C   UNL A   1      37.547  32.779  31.298  1.00  0.00     0.031 A 
ATOM     31  C   UNL A   1      38.233  31.622  30.631  1.00  0.00     0.074 A 
ATOM     32  C   UNL A   1      37.935  33.174  32.527  1.00  0.00     0.049 A 
ATOM     33  N   UNL A   1      39.197  30.859  31.083  1.00  0.00    -0.248 NA
ATOM     34  C   UNL A   1      37.759  31.260  29.288  1.00  0.00     0.031 C 
ATOM     35  C   UNL A   1      37.324  34.257  33.298  1.00  0.00     0.029 A 
ATOM     36  N   UNL A   1      38.923  32.697  33.352  1.00  0.00    -0.354 N 
ATOM     37  C   UNL A   1      39.434  29.920  30.088  1.00  0.00     0.074 A 
ATOM     38  C   UNL A   1      38.486  30.183  29.026  1.00  0.00     0.031 C 
ATOM     39  C   UNL A   1      37.955  34.369  34.477  1.00  0.00     0.029 A 
ATOM     40  C   UNL A   1      38.988  33.341  34.563  1.00  0.00     0.049 A 
ATOM     41  H   UNL A   1      39.529  31.962  33.100  1.00  0.00     0.167 HD
ATOM     42  C   UNL A   1      40.368  28.941  30.058  1.00  0.00     0.037 A 
ATOM     43  C   UNL A   1      39.778  33.119  35.631  1.00  0.00     0.037 A 
ATOM     44  C   UNL A   1      41.325  28.694  31.106  1.00  0.00     0.049 A 
ATOM     45  C   UNL A   1      40.793  32.010  35.578  1.00  0.00     0.074 A 
ATOM     46  C   UNL A   1      42.353  27.769  31.135  1.00  0.00     0.029 A 
ATOM     47  N   UNL A   1      41.365  29.374  32.314  1.00  0.00    -0.354 N 
ATOM     48  N   UNL A   1      41.052  31.170  34.606  1.00  0.00    -0.248 NA
ATOM     49  C   UNL A   1      41.627  31.817  36.774  1.00  0.00     0.031 C 
ATOM     50  C   UNL A   1      42.988  27.857  32.378  1.00  0.00     0.029 A 
ATOM     51  C   UNL A   1      42.384  28.870  33.107  1.00  0.00     0.049 A 
ATOM     52  H   UNL A   1      40.759  30.107  32.571  1.00  0.00     0.167 HD
ATOM     53  C   UNL A   1      42.088  30.367  35.060  1.00  0.00     0.074 A 
ATOM     54  C   UNL A   1      42.423  30.828  36.391  1.00  0.00     0.031 C 
ATOM     55  C   UNL A   1      42.706  29.339  34.430  1.00  0.00     0.037 A 
BRANCH  42  56
ATOM     56  C   UNL A   1      40.406  28.057  28.846  1.00  0.00     0.064 A 
ATOM     57  C   UNL A   1      41.158  28.398  27.711  1.00  0.00     0.173 A 
ATOM     58  C   UNL A   1      39.717  26.834  28.835  1.00  0.00     0.173 A 
ATOM     59  F   UNL A   1      41.825  29.561  27.669  1.00  0.00    -0.203 F 
ATOM     60  C   UNL A   1      41.197  27.560  26.600  1.00  0.00     0.198 A 
ATOM     61  C   UNL A   1      39.782  25.986  27.732  1.00  0.00     0.198 A 
ATOM     62  F   UNL A   1      38.989  26.458  29.896  1.00  0.00    -0.203 F 
ATOM     63  F   UNL A   1      41.887  27.928  25.511  1.00  0.00    -0.200 F 
ATOM     64  C   UNL A   1      40.516  26.353  26.614  1.00  0.00     0.200 A 
ATOM     65  F   UNL A   1      39.133  24.814  27.752  1.00  0.00    -0.200 F 
ATOM     66  F   UNL A   1      40.561  25.544  25.546  1.00  0.00    -0.200 F 
ENDBRANCH  42  56
BRANCH  43  67
ATOM     67  C   UNL A   1      39.648  33.970  36.841  1.00  0.00     0.064 A 
ATOM     68  C   UNL A   1      38.847  33.568  37.918  1.00  0.00     0.173 A 
ATOM     69  C   UNL A   1      40.312  35.200  36.944  1.00  0.00     0.173 A 
ATOM     70  F   UNL A   1      38.173  32.410  37.856  1.00  0.00    -0.203 F 
ATOM     71  C   UNL A   1      38.702  34.373  39.047  1.00  0.00     0.198 A 
ATOM     72  C   UNL A   1      40.188  35.992  38.083  1.00  0.00     0.198 A 
ATOM     73  F   UNL A   1      41.093  35.629  35.941  1.00  0.00    -0.203 F 
ATOM     74  F   UNL A   1      37.896  33.984  40.044  1.00  0.00    -0.200 F 
ATOM     75  C   UNL A   1      39.377  35.580  39.131  1.00  0.00     0.200 A 
ATOM     76  F   UNL A   1      40.852  37.153  38.166  1.00  0.00    -0.200 F 
ATOM     77  F   UNL A   1      39.241  36.352  40.217  1.00  0.00    -0.200 F 
ENDBRANCH  43  67
BRANCH  55  78
ATOM     78  C   UNL A   1      43.822  28.655  35.164  1.00  0.00     0.064 A 
ATOM     79  C   UNL A   1      45.149  29.095  35.057  1.00  0.00     0.173 A 
ATOM     80  C   UNL A   1      43.555  27.571  36.014  1.00  0.00     0.173 A 
ATOM     81  F   UNL A   1      45.458  30.115  34.243  1.00  0.00    -0.203 F 
ATOM     82  C   UNL A   1      46.171  28.462  35.759  1.00  0.00     0.198 A 
ATOM     83  C   UNL A   1      44.576  26.959  36.736  1.00  0.00     0.198 A 
ATOM     84  F   UNL A   1      42.301  27.115  36.155  1.00  0.00    -0.203 F 
ATOM     85  F   UNL A   1      47.439  28.872  35.608  1.00  0.00    -0.200 F 
ATOM     86  C   UNL A   1      45.883  27.400  36.603  1.00  0.00     0.200 A 
ATOM     87  F   UNL A   1      44.293  25.940  37.561  1.00  0.00    -0.200 F 
ATOM     88  F   UNL A   1      46.867  26.797  37.284  1.00  0.00    -0.200 F 
ENDBRANCH  55  78
ENDBRANCH  29  30
ENDBRANCH  21  24
ENDBRANCH  19  20
ENDBRANCH  18  19
ENDBRANCH   1  18
TORSDOF 13
ENDMDL
MODEL 3
REMARK VINA RESULT:     -11.8      4.545     10.338
REMARK SMILES O=C(CCCc1csc2ccccc12)NCCCNC(=O)c1ccc(-c2c3nc(c(-c4c(F)c(F)c(F)c(F)c4F)c4ccc([nH]4)c(-c4c(F)c(F)c(F)c(F)c4F)c4nc(c(-c5c(F)c(F)c(F)c(F)c5F)c5ccc2[nH]5)C=C4)C=C3)cc1
REMARK SMILES IDX 16 1 15 2 1 3 2 4 3 6 4 7 5 8 6 9 7 10 14 11 8 12 9 13 13 14
REMARK SMILES IDX 10 15 12 16 11 17 17 18 18 19 19 20 20 21 21 23 22 24 23 25
REMARK SMILES IDX 84 26 24 27 83 28 25 29 26 30 27 31 77 32 28 33 82 34 76 35
REMARK SMILES IDX 78 36 29 37 81 38 75 39 74 40 30 42 62 43 42 44 61 45 43 46
REMARK SMILES IDX 46 47 60 48 79 49 44 50 45 51 59 53 80 54 47 55 31 56 32 57
REMARK SMILES IDX 40 58 33 59 34 60 38 61 41 62 35 63 36 64 39 65 37 66 63 67
REMARK SMILES IDX 64 68 72 69 65 70 66 71 70 72 73 73 67 74 68 75 71 76 69 77
REMARK SMILES IDX 48 78 49 79 57 80 50 81 51 82 55 83 58 84 52 85 53 86 56 87
REMARK SMILES IDX 54 88
REMARK H PARENT 15 5 19 22 78 41 46 52
REMARK Flexibility Score: inf
ROOT
ATOM      1  C   UNL A   1      33.592  34.733  28.964  1.00  0.00     0.117 C 
ENDROOT
BRANCH   1   2
ATOM      2  N   UNL A   1      34.246  34.679  30.254  1.00  0.00    -0.356 N 
ATOM      3  O   UNL A   1      32.417  35.335  31.477  1.00  0.00    -0.275 OA
ATOM      4  C   UNL A   1      33.580  34.951  31.425  1.00  0.00     0.220 C 
ATOM      5  H   UNL A   1      35.200  34.440  30.294  1.00  0.00     0.163 HD
BRANCH   4   6
ATOM      6  C   UNL A   1      34.401  34.697  32.668  1.00  0.00     0.100 C 
BRANCH   6   7
ATOM      7  C   UNL A   1      34.406  33.216  33.052  1.00  0.00     0.015 C 
BRANCH   7   8
ATOM      8  C   UNL A   1      35.682  32.426  32.722  1.00  0.00     0.037 C 
BRANCH   8   9
ATOM      9  C   UNL A   1      36.959  33.229  32.687  1.00  0.00    -0.029 A 
ATOM     10  C   UNL A   1      37.567  33.728  33.824  1.00  0.00     0.069 A 
ATOM     11  C   UNL A   1      37.692  33.614  31.493  1.00  0.00    -0.004 A 
ATOM     12  S   UNL A   1      39.043  34.510  33.506  1.00  0.00    -0.144 S 
ATOM     13  C   UNL A   1      38.877  34.287  31.809  1.00  0.00     0.035 A 
ATOM     14  C   UNL A   1      37.408  33.408  30.118  1.00  0.00     0.010 A 
ATOM     15  C   UNL A   1      39.780  34.711  30.813  1.00  0.00     0.019 A 
ATOM     16  C   UNL A   1      38.300  33.828  29.126  1.00  0.00     0.001 A 
ATOM     17  C   UNL A   1      39.478  34.466  29.472  1.00  0.00     0.001 A 
ENDBRANCH   8   9
ENDBRANCH   7   8
ENDBRANCH   6   7
ENDBRANCH   4   6
ENDBRANCH   1   2
BRANCH   1  18
ATOM     18  C   UNL A   1      33.975  33.568  28.061  1.00  0.00     0.042 C 
BRANCH  18  19
ATOM     19  C   UNL A   1      34.492  32.331  28.788  1.00  0.00     0.118 C 
BRANCH  19  20
ATOM     20  N   UNL A   1      33.996  31.079  28.237  1.00  0.00    -0.352 N 
ATOM     21  C   UNL A   1      34.672  29.905  27.998  1.00  0.00     0.251 C 
ATOM     22  H   UNL A   1      33.040  31.070  28.001  1.00  0.00     0.163 HD
ATOM     23  O   UNL A   1      34.117  28.979  27.416  1.00  0.00    -0.269 OA
BRANCH  21  24
ATOM     24  C   UNL A   1      36.086  29.776  28.406  1.00  0.00     0.039 A 
ATOM     25  C   UNL A   1      36.376  29.328  29.697  1.00  0.00     0.014 A 
ATOM     26  C   UNL A   1      37.120  30.064  27.511  1.00  0.00     0.014 A 
ATOM     27  C   UNL A   1      37.701  29.078  30.063  1.00  0.00     0.010 A 
ATOM     28  C   UNL A   1      38.435  29.757  27.855  1.00  0.00     0.010 A 
ATOM     29  C   UNL A   1      38.735  29.244  29.127  1.00  0.00    -0.014 A 
BRANCH  29  30
ATOM     30  C   UNL A   1      40.129  28.840  29.440  1.00  0.00     0.031 A 
ATOM     31  C   UNL A   1      41.041  29.770  30.188  1.00  0.00     0.074 A 
ATOM     32  C   UNL A   1      40.601  27.669  28.970  1.00  0.00     0.049 A 
ATOM     33  N   UNL A   1      42.315  29.639  30.460  1.00  0.00    -0.248 NA
ATOM     34  C   UNL A   1      40.446  31.023  30.677  1.00  0.00     0.031 C 
ATOM     35  C   UNL A   1      39.830  26.697  28.195  1.00  0.00     0.029 A 
ATOM     36  N   UNL A   1      41.850  27.105  29.059  1.00  0.00    -0.354 N 
ATOM     37  C   UNL A   1      42.678  30.796  31.136  1.00  0.00     0.074 A 
ATOM     38  C   UNL A   1      41.500  31.635  31.199  1.00  0.00     0.031 C 
ATOM     39  C   UNL A   1      40.616  25.654  27.888  1.00  0.00     0.029 A 
ATOM     40  C   UNL A   1      41.958  25.900  28.408  1.00  0.00     0.049 A 
ATOM     41  H   UNL A   1      42.598  27.524  29.544  1.00  0.00     0.167 HD
ATOM     42  C   UNL A   1      43.879  31.118  31.672  1.00  0.00     0.037 A 
ATOM     43  C   UNL A   1      43.021  25.092  28.235  1.00  0.00     0.037 A 
ATOM     44  C   UNL A   1      45.044  30.273  31.628  1.00  0.00     0.049 A 
ATOM     45  C   UNL A   1      44.349  25.485  28.822  1.00  0.00     0.074 A 
ATOM     46  C   UNL A   1      46.286  30.484  32.201  1.00  0.00     0.029 A 
ATOM     47  N   UNL A   1      45.112  29.055  30.967  1.00  0.00    -0.354 N 
ATOM     48  N   UNL A   1      44.664  26.551  29.516  1.00  0.00    -0.248 NA
ATOM     49  C   UNL A   1      45.471  24.561  28.599  1.00  0.00     0.031 C 
ATOM     50  C   UNL A   1      47.119  29.417  31.849  1.00  0.00     0.029 A 
ATOM     51  C   UNL A   1      46.383  28.517  31.095  1.00  0.00     0.049 A 
ATOM     52  H   UNL A   1      44.367  28.635  30.479  1.00  0.00     0.167 HD
ATOM     53  C   UNL A   1      46.008  26.417  29.832  1.00  0.00     0.074 A 
ATOM     54  C   UNL A   1      46.448  25.159  29.267  1.00  0.00     0.031 C 
ATOM     55  C   UNL A   1      46.807  27.263  30.528  1.00  0.00     0.037 A 
BRANCH  42  56
ATOM     56  C   UNL A   1      43.998  32.447  32.357  1.00  0.00     0.064 A 
ATOM     57  C   UNL A   1      43.730  32.594  33.727  1.00  0.00     0.173 A 
ATOM     58  C   UNL A   1      44.426  33.579  31.647  1.00  0.00     0.173 A 
ATOM     59  F   UNL A   1      43.308  31.545  34.447  1.00  0.00    -0.203 F 
ATOM     60  C   UNL A   1      43.860  33.830  34.353  1.00  0.00     0.198 A 
ATOM     61  C   UNL A   1      44.581  34.808  32.283  1.00  0.00     0.198 A 
ATOM     62  F   UNL A   1      44.701  33.492  30.337  1.00  0.00    -0.203 F 
ATOM     63  F   UNL A   1      43.556  33.955  35.653  1.00  0.00    -0.200 F 
ATOM     64  C   UNL A   1      44.292  34.934  33.634  1.00  0.00     0.200 A 
ATOM     65  F   UNL A   1      45.012  35.871  31.589  1.00  0.00    -0.200 F 
ATOM     66  F   UNL A   1      44.425  36.122  34.241  1.00  0.00    -0.200 F 
ENDBRANCH  42  56
BRANCH  43  67
ATOM     67  C   UNL A   1      42.872  23.823  27.478  1.00  0.00     0.064 A 
ATOM     68  C   UNL A   1      43.185  23.760  26.113  1.00  0.00     0.173 A 
ATOM     69  C   UNL A   1      42.411  22.653  28.097  1.00  0.00     0.173 A 
ATOM     70  F   UNL A   1      43.607  24.861  25.472  1.00  0.00    -0.203 F 
ATOM     71  C   UNL A   1      43.026  22.579  25.391  1.00  0.00     0.198 A 
ATOM     72  C   UNL A   1      42.278  21.465  27.381  1.00  0.00     0.198 A 
ATOM     73  F   UNL A   1      42.101  22.659  29.401  1.00  0.00    -0.203 F 
ATOM     74  F   UNL A   1      43.291  22.559  24.079  1.00  0.00    -0.200 F 
ATOM     75  C   UNL A   1      42.579  21.431  26.027  1.00  0.00     0.200 A 
ATOM     76  F   UNL A   1      41.857  20.354  28.001  1.00  0.00    -0.200 F 
ATOM     77  F   UNL A   1      42.430  20.294  25.334  1.00  0.00    -0.200 F 
ENDBRANCH  43  67
BRANCH  55  78
ATOM     78  C   UNL A   1      48.233  26.846  30.736  1.00  0.00     0.064 A 
ATOM     79  C   UNL A   1      48.608  26.017  31.803  1.00  0.00     0.173 A 
ATOM     80  C   UNL A   1      49.230  27.249  29.834  1.00  0.00     0.173 A 
ATOM     81  F   UNL A   1      47.694  25.621  32.702  1.00  0.00    -0.203 F 
ATOM     82  C   UNL A   1      49.932  25.624  31.972  1.00  0.00     0.198 A 
ATOM     83  C   UNL A   1      50.548  26.829  29.991  1.00  0.00     0.198 A 
ATOM     84  F   UNL A   1      48.923  28.038  28.793  1.00  0.00    -0.203 F 
ATOM     85  F   UNL A   1      50.275  24.866  33.024  1.00  0.00    -0.200 F 
ATOM     86  C   UNL A   1      50.899  26.023  31.062  1.00  0.00     0.200 A 
ATOM     87  F   UNL A   1      51.480  27.207  29.103  1.00  0.00    -0.200 F 
ATOM     88  F   UNL A   1      52.172  25.636  31.221  1.00  0.00    -0.200 F 
ENDBRANCH  55  78
ENDBRANCH  29  30
ENDBRANCH  21  24
ENDBRANCH  19  20
ENDBRANCH  18  19
ENDBRANCH   1  18
TORSDOF 13
ENDMDL
