MODEL 1
REMARK VINA RESULT:     -13.0      0.000      0.000
REMARK SMILES O=C(NCCCNC(=O)c1[nH]ncc1C[N@H+]1CCC[C@@H](C(=O)c2ccc(Oc3ccccc3)cc2)C1)c1ccc(-c2c3nc(c(-c4c(F)c(F)c(F)c(F)c4F)c4ccc([nH]4)c(-c4c(F)c(F)c(F)c(F)c4F)c4nc(c(-c5c(F)c(F)c(F)c(F)c5F)c5ccc2[nH]5)C=C4)C=C3)cc1
REMARK SMILES IDX 7 1 8 2 9 3 6 5 5 6 4 7 3 8 1 9 2 10 37 12 38 13 99 14 39 15
REMARK SMILES IDX 98 16 40 17 41 18 42 19 92 20 43 21 97 22 91 23 93 24 44 25
REMARK SMILES IDX 96 26 90 27 89 28 45 30 77 31 57 32 76 33 58 34 61 35 75 36
REMARK SMILES IDX 94 37 59 38 60 39 74 41 95 42 62 43 46 44 47 45 55 46 48 47
REMARK SMILES IDX 49 48 53 49 56 50 50 51 51 52 54 53 52 54 78 55 79 56 87 57
REMARK SMILES IDX 80 58 81 59 85 60 88 61 82 62 83 63 86 64 84 65 63 66 64 67
REMARK SMILES IDX 72 68 65 69 66 70 70 71 73 72 67 73 68 74 71 75 69 76 10 77
REMARK SMILES IDX 11 78 14 79 12 80 13 82 15 83 16 84 17 85 36 86 18 88 20 89
REMARK SMILES IDX 19 90 21 91 22 92 23 93 24 94 35 95 25 96 34 97 26 98 27 99
REMARK SMILES IDX 28 100 29 101 33 102 30 103 32 104 31 105
REMARK H PARENT 7 4 3 11 93 29 61 40 11 81 16 87
REMARK Flexibility Score: inf
ROOT
ATOM      1  N   UNL A   1      32.669  30.195  26.605  1.00  0.00    -0.351 N 
ATOM      2  C   UNL A   1      33.406  29.203  26.016  1.00  0.00     0.269 C 
ATOM      3  O   UNL A   1      34.263  28.632  26.694  1.00  0.00    -0.268 OA
ATOM      4  H   UNL A   1      33.037  30.548  27.448  1.00  0.00     0.163 HD
ENDROOT
BRANCH   1   5
ATOM      5  C   UNL A   1      31.421  30.805  26.168  1.00  0.00     0.118 C 
BRANCH   5   6
ATOM      6  C   UNL A   1      31.345  32.283  26.501  1.00  0.00     0.042 C 
BRANCH   6   7
ATOM      7  C   UNL A   1      32.611  32.821  27.145  1.00  0.00     0.118 C 
BRANCH   7   8
ATOM      8  N   UNL A   1      32.451  34.179  27.650  1.00  0.00    -0.352 N 
ATOM      9  O   UNL A   1      32.634  35.907  29.078  1.00  0.00    -0.269 OA
ATOM     10  C   UNL A   1      33.067  34.825  28.694  1.00  0.00     0.251 C 
ATOM     11  H   UNL A   1      31.793  34.723  27.163  1.00  0.00     0.163 HD
BRANCH  10  12
ATOM     12  C   UNL A   1      34.235  34.220  29.371  1.00  0.00     0.039 A 
ATOM     13  C   UNL A   1      35.534  34.560  28.996  1.00  0.00     0.014 A 
ATOM     14  C   UNL A   1      34.027  33.324  30.425  1.00  0.00     0.014 A 
ATOM     15  C   UNL A   1      36.613  33.879  29.540  1.00  0.00     0.010 A 
ATOM     16  C   UNL A   1      35.122  32.726  31.056  1.00  0.00     0.010 A 
ATOM     17  C   UNL A   1      36.424  32.974  30.596  1.00  0.00    -0.014 A 
BRANCH  17  18
ATOM     18  C   UNL A   1      37.614  32.369  31.241  1.00  0.00     0.031 A 
ATOM     19  C   UNL A   1      38.016  32.739  32.639  1.00  0.00     0.074 A 
ATOM     20  C   UNL A   1      38.303  31.433  30.559  1.00  0.00     0.049 A 
ATOM     21  N   UNL A   1      39.012  32.281  33.357  1.00  0.00    -0.248 NA
ATOM     22  C   UNL A   1      37.204  33.756  33.323  1.00  0.00     0.031 C 
ATOM     23  C   UNL A   1      38.005  31.002  29.191  1.00  0.00     0.029 A 
ATOM     24  N   UNL A   1      39.372  30.656  30.925  1.00  0.00    -0.354 N 
ATOM     25  C   UNL A   1      38.960  32.968  34.562  1.00  0.00     0.074 A 
ATOM     26  C   UNL A   1      37.847  33.888  34.476  1.00  0.00     0.031 C 
ATOM     27  C   UNL A   1      38.824  29.994  28.858  1.00  0.00     0.029 A 
ATOM     28  C   UNL A   1      39.750  29.759  29.958  1.00  0.00     0.049 A 
ATOM     29  H   UNL A   1      39.823  30.734  31.796  1.00  0.00     0.167 HD
ATOM     30  C   UNL A   1      39.767  32.832  35.642  1.00  0.00     0.037 A 
ATOM     31  C   UNL A   1      40.744  28.853  29.949  1.00  0.00     0.037 A 
ATOM     32  C   UNL A   1      40.860  31.898  35.728  1.00  0.00     0.049 A 
ATOM     33  C   UNL A   1      41.631  28.739  31.155  1.00  0.00     0.074 A 
ATOM     34  C   UNL A   1      41.721  31.670  36.787  1.00  0.00     0.029 A 
ATOM     35  N   UNL A   1      41.240  31.032  34.711  1.00  0.00    -0.354 N 
ATOM     36  N   UNL A   1      41.565  29.388  32.290  1.00  0.00    -0.248 NA
ATOM     37  C   UNL A   1      42.735  27.774  31.072  1.00  0.00     0.031 C 
ATOM     38  C   UNL A   1      42.645  30.693  36.399  1.00  0.00     0.029 A 
ATOM     39  C   UNL A   1      42.334  30.283  35.113  1.00  0.00     0.049 A 
ATOM     40  H   UNL A   1      40.798  30.962  33.834  1.00  0.00     0.167 HD
ATOM     41  C   UNL A   1      42.612  28.909  33.062  1.00  0.00     0.074 A 
ATOM     42  C   UNL A   1      43.283  27.896  32.273  1.00  0.00     0.031 C 
ATOM     43  C   UNL A   1      42.989  29.281  34.310  1.00  0.00     0.037 A 
BRANCH  30  44
ATOM     44  C   UNL A   1      39.510  33.728  36.819  1.00  0.00     0.064 A 
ATOM     45  C   UNL A   1      38.733  33.307  37.909  1.00  0.00     0.173 A 
ATOM     46  C   UNL A   1      40.091  35.003  36.880  1.00  0.00     0.173 A 
ATOM     47  F   UNL A   1      38.145  32.102  37.893  1.00  0.00    -0.203 F 
ATOM     48  C   UNL A   1      38.533  34.139  39.008  1.00  0.00     0.198 A 
ATOM     49  C   UNL A   1      39.908  35.822  37.991  1.00  0.00     0.198 A 
ATOM     50  F   UNL A   1      40.847  35.452  35.866  1.00  0.00    -0.203 F 
ATOM     51  F   UNL A   1      37.757  33.731  40.022  1.00  0.00    -0.200 F 
ATOM     52  C   UNL A   1      39.126  35.393  39.052  1.00  0.00     0.200 A 
ATOM     53  F   UNL A   1      40.490  37.030  38.036  1.00  0.00    -0.200 F 
ATOM     54  F   UNL A   1      38.938  36.188  40.114  1.00  0.00    -0.200 F 
ENDBRANCH  30  44
BRANCH  31  55
ATOM     55  C   UNL A   1      40.945  27.993  28.756  1.00  0.00     0.064 A 
ATOM     56  C   UNL A   1      40.284  26.764  28.636  1.00  0.00     0.173 A 
ATOM     57  C   UNL A   1      41.776  28.398  27.701  1.00  0.00     0.173 A 
ATOM     58  F   UNL A   1      39.493  26.328  29.627  1.00  0.00    -0.203 F 
ATOM     59  C   UNL A   1      40.452  25.969  27.504  1.00  0.00     0.198 A 
ATOM     60  C   UNL A   1      41.920  27.614  26.559  1.00  0.00     0.198 A 
ATOM     61  F   UNL A   1      42.424  29.570  27.769  1.00  0.00    -0.203 F 
ATOM     62  F   UNL A   1      39.833  24.783  27.425  1.00  0.00    -0.200 F 
ATOM     63  C   UNL A   1      41.263  26.397  26.464  1.00  0.00     0.200 A 
ATOM     64  F   UNL A   1      42.690  28.042  25.549  1.00  0.00    -0.200 F 
ATOM     65  F   UNL A   1      41.413  25.638  25.371  1.00  0.00    -0.200 F 
ENDBRANCH  31  55
BRANCH  43  66
ATOM     66  C   UNL A   1      44.172  28.575  34.897  1.00  0.00     0.064 A 
ATOM     67  C   UNL A   1      45.470  29.087  34.762  1.00  0.00     0.173 A 
ATOM     68  C   UNL A   1      44.003  27.385  35.620  1.00  0.00     0.173 A 
ATOM     69  F   UNL A   1      45.682  30.212  34.063  1.00  0.00    -0.203 F 
ATOM     70  C   UNL A   1      46.561  28.420  35.312  1.00  0.00     0.198 A 
ATOM     71  C   UNL A   1      45.092  26.735  36.190  1.00  0.00     0.198 A 
ATOM     72  F   UNL A   1      42.779  26.858  35.778  1.00  0.00    -0.203 F 
ATOM     73  F   UNL A   1      47.798  28.903  35.134  1.00  0.00    -0.200 F 
ATOM     74  C   UNL A   1      46.371  27.249  36.030  1.00  0.00     0.200 A 
ATOM     75  F   UNL A   1      44.907  25.606  36.890  1.00  0.00    -0.200 F 
ATOM     76  F   UNL A   1      47.422  26.609  36.559  1.00  0.00    -0.200 F 
ENDBRANCH  43  66
ENDBRANCH  17  18
ENDBRANCH  10  12
ENDBRANCH   7   8
ENDBRANCH   6   7
ENDBRANCH   5   6
ENDBRANCH   1   5
BRANCH   2  77
ATOM     77  C   UNL A   1      33.114  28.823  24.668  1.00  0.00     0.131 A 
ATOM     78  N   UNL A   1      33.600  29.533  23.604  1.00  0.00    -0.272 N 
ATOM     79  C   UNL A   1      32.323  27.820  24.119  1.00  0.00     0.057 A 
ATOM     80  N   UNL A   1      33.378  28.945  22.420  1.00  0.00    -0.183 NA
ATOM     81  H   UNL A   1      34.069  30.394  23.699  1.00  0.00     0.190 HD
ATOM     82  C   UNL A   1      32.602  27.907  22.732  1.00  0.00     0.145 A 
BRANCH  79  83
ATOM     83  C   UNL A   1      31.467  26.820  24.834  1.00  0.00     0.303 C 
BRANCH  83  84
ATOM     84  N   UNL A   1      32.183  25.702  25.446  1.00  0.00    -0.330 N 
ATOM     85  C   UNL A   1      31.310  24.703  26.066  1.00  0.00     0.262 C 
ATOM     86  C   UNL A   1      33.186  25.105  24.572  1.00  0.00     0.274 C 
ATOM     87  H   UNL A   1      32.699  26.126  26.219  1.00  0.00     0.348 HD
ATOM     88  C   UNL A   1      32.146  23.707  26.875  1.00  0.00     0.062 C 
ATOM     89  C   UNL A   1      34.093  24.131  25.333  1.00  0.00     0.116 C 
ATOM     90  C   UNL A   1      33.236  23.061  26.021  1.00  0.00     0.023 C 
BRANCH  89  91
ATOM     91  C   UNL A   1      35.078  23.525  24.334  1.00  0.00     0.171 C 
ATOM     92  O   UNL A   1      34.939  23.592  23.117  1.00  0.00    -0.294 OA
BRANCH  91  93
ATOM     93  C   UNL A   1      36.308  22.891  24.879  1.00  0.00     0.018 A 
ATOM     94  C   UNL A   1      36.564  21.554  24.565  1.00  0.00     0.015 A 
ATOM     95  C   UNL A   1      37.232  23.628  25.626  1.00  0.00     0.015 A 
ATOM     96  C   UNL A   1      37.752  20.958  24.994  1.00  0.00     0.048 A 
ATOM     97  C   UNL A   1      38.422  23.026  26.050  1.00  0.00     0.048 A 
ATOM     98  C   UNL A   1      38.679  21.685  25.748  1.00  0.00     0.127 A 
BRANCH  98  99
ATOM     99  O   UNL A   1      39.826  21.000  26.088  1.00  0.00    -0.457 OA
BRANCH  99 100
ATOM    100  C   UNL A   1      40.878  21.697  26.629  1.00  0.00     0.127 A 
ATOM    101  C   UNL A   1      41.856  22.168  25.751  1.00  0.00     0.047 A 
ATOM    102  C   UNL A   1      41.028  21.866  28.007  1.00  0.00     0.047 A 
ATOM    103  C   UNL A   1      42.961  22.859  26.249  1.00  0.00     0.004 A 
ATOM    104  C   UNL A   1      42.130  22.565  28.502  1.00  0.00     0.004 A 
ATOM    105  C   UNL A   1      43.092  23.064  27.623  1.00  0.00     0.000 A 
ENDBRANCH  99 100
ENDBRANCH  98  99
ENDBRANCH  91  93
ENDBRANCH  89  91
ENDBRANCH  83  84
ENDBRANCH  79  83
ENDBRANCH   2  77
TORSDOF 16
ENDMDL
MODEL 2
REMARK VINA RESULT:     -12.9      0.272      6.975
REMARK SMILES O=C(NCCCNC(=O)c1[nH]ncc1C[N@H+]1CCC[C@@H](C(=O)c2ccc(Oc3ccccc3)cc2)C1)c1ccc(-c2c3nc(c(-c4c(F)c(F)c(F)c(F)c4F)c4ccc([nH]4)c(-c4c(F)c(F)c(F)c(F)c4F)c4nc(c(-c5c(F)c(F)c(F)c(F)c5F)c5ccc2[nH]5)C=C4)C=C3)cc1
REMARK SMILES IDX 7 1 8 2 9 3 6 5 5 6 4 7 3 8 1 9 2 10 37 12 38 13 99 14 39 15
REMARK SMILES IDX 98 16 40 17 41 18 42 19 92 20 43 21 97 22 91 23 93 24 44 25
REMARK SMILES IDX 96 26 90 27 89 28 45 30 77 31 57 32 76 33 58 34 61 35 75 36
REMARK SMILES IDX 94 37 59 38 60 39 74 41 95 42 62 43 46 44 47 45 55 46 48 47
REMARK SMILES IDX 49 48 53 49 56 50 50 51 51 52 54 53 52 54 78 55 79 56 87 57
REMARK SMILES IDX 80 58 81 59 85 60 88 61 82 62 83 63 86 64 84 65 63 66 64 67
REMARK SMILES IDX 72 68 65 69 66 70 70 71 73 72 67 73 68 74 71 75 69 76 10 77
REMARK SMILES IDX 11 78 14 79 12 80 13 82 15 83 16 84 17 85 36 86 18 88 20 89
REMARK SMILES IDX 19 90 21 91 22 92 23 93 24 94 35 95 25 96 34 97 26 98 27 99
REMARK SMILES IDX 28 100 29 101 33 102 30 103 32 104 31 105
REMARK H PARENT 7 4 3 11 93 29 61 40 11 81 16 87
REMARK Flexibility Score: inf
ROOT
ATOM      1  N   UNL A   1      32.739  30.222  26.576  1.00  0.00    -0.351 N 
ATOM      2  C   UNL A   1      33.461  29.222  25.982  1.00  0.00     0.269 C 
ATOM      3  O   UNL A   1      34.332  28.658  26.646  1.00  0.00    -0.268 OA
ATOM      4  H   UNL A   1      33.126  30.583  27.407  1.00  0.00     0.163 HD
ENDROOT
BRANCH   1   5
ATOM      5  C   UNL A   1      31.482  30.828  26.160  1.00  0.00     0.118 C 
BRANCH   5   6
ATOM      6  C   UNL A   1      31.368  32.282  26.579  1.00  0.00     0.042 C 
BRANCH   6   7
ATOM      7  C   UNL A   1      32.688  32.883  27.033  1.00  0.00     0.118 C 
BRANCH   7   8
ATOM      8  N   UNL A   1      32.528  34.203  27.628  1.00  0.00    -0.352 N 
ATOM      9  O   UNL A   1      32.695  35.825  29.178  1.00  0.00    -0.269 OA
ATOM     10  C   UNL A   1      33.128  34.770  28.727  1.00  0.00     0.251 C 
ATOM     11  H   UNL A   1      31.882  34.786  27.169  1.00  0.00     0.163 HD
BRANCH  10  12
ATOM     12  C   UNL A   1      34.279  34.108  29.380  1.00  0.00     0.039 A 
ATOM     13  C   UNL A   1      34.082  33.114  30.337  1.00  0.00     0.014 A 
ATOM     14  C   UNL A   1      35.578  34.462  29.001  1.00  0.00     0.014 A 
ATOM     15  C   UNL A   1      35.164  32.607  31.042  1.00  0.00     0.010 A 
ATOM     16  C   UNL A   1      36.674  33.862  29.629  1.00  0.00     0.010 A 
ATOM     17  C   UNL A   1      36.475  32.953  30.678  1.00  0.00    -0.014 A 
BRANCH  17  18
ATOM     18  C   UNL A   1      37.607  32.286  31.366  1.00  0.00     0.031 A 
ATOM     19  C   UNL A   1      38.436  31.244  30.672  1.00  0.00     0.074 A 
ATOM     20  C   UNL A   1      37.912  32.675  32.618  1.00  0.00     0.049 A 
ATOM     21  N   UNL A   1      39.476  30.587  31.122  1.00  0.00    -0.248 NA
ATOM     22  C   UNL A   1      38.050  30.885  29.299  1.00  0.00     0.031 C 
ATOM     23  C   UNL A   1      37.170  33.675  33.391  1.00  0.00     0.029 A 
ATOM     24  N   UNL A   1      38.936  32.307  33.453  1.00  0.00    -0.354 N 
ATOM     25  C   UNL A   1      39.852  29.724  30.101  1.00  0.00     0.074 A 
ATOM     26  C   UNL A   1      38.920  29.925  29.013  1.00  0.00     0.031 C 
ATOM     27  C   UNL A   1      37.799  33.889  34.555  1.00  0.00     0.029 A 
ATOM     28  C   UNL A   1      38.943  32.991  34.643  1.00  0.00     0.049 A 
ATOM     29  H   UNL A   1      39.600  31.618  33.221  1.00  0.00     0.167 HD
ATOM     30  C   UNL A   1      40.889  28.851  30.078  1.00  0.00     0.037 A 
ATOM     31  C   UNL A   1      39.772  32.898  35.698  1.00  0.00     0.037 A 
ATOM     32  C   UNL A   1      41.825  28.673  31.157  1.00  0.00     0.049 A 
ATOM     33  C   UNL A   1      40.901  31.910  35.647  1.00  0.00     0.074 A 
ATOM     34  C   UNL A   1      42.922  27.830  31.220  1.00  0.00     0.029 A 
ATOM     35  N   UNL A   1      41.777  29.355  32.366  1.00  0.00    -0.354 N 
ATOM     36  N   UNL A   1      41.250  31.107  34.673  1.00  0.00    -0.248 NA
ATOM     37  C   UNL A   1      41.742  31.808  36.846  1.00  0.00     0.031 C 
ATOM     38  C   UNL A   1      43.515  27.975  32.479  1.00  0.00     0.029 A 
ATOM     39  C   UNL A   1      42.813  28.938  33.186  1.00  0.00     0.049 A 
ATOM     40  H   UNL A   1      41.106  30.034  32.604  1.00  0.00     0.167 HD
ATOM     41  C   UNL A   1      42.354  30.407  35.135  1.00  0.00     0.074 A 
ATOM     42  C   UNL A   1      42.631  30.900  36.469  1.00  0.00     0.031 C 
ATOM     43  C   UNL A   1      43.069  29.439  34.512  1.00  0.00     0.037 A 
BRANCH  30  44
ATOM     44  C   UNL A   1      41.058  28.006  28.849  1.00  0.00     0.064 A 
ATOM     45  C   UNL A   1      40.379  26.788  28.693  1.00  0.00     0.173 A 
ATOM     46  C   UNL A   1      41.871  28.444  27.794  1.00  0.00     0.173 A 
ATOM     47  F   UNL A   1      39.600  26.319  29.679  1.00  0.00    -0.203 F 
ATOM     48  C   UNL A   1      40.522  26.033  27.532  1.00  0.00     0.198 A 
ATOM     49  C   UNL A   1      41.993  27.698  26.624  1.00  0.00     0.198 A 
ATOM     50  F   UNL A   1      42.539  29.604  27.890  1.00  0.00    -0.203 F 
ATOM     51  F   UNL A   1      39.892  24.855  27.419  1.00  0.00    -0.200 F 
ATOM     52  C   UNL A   1      41.323  26.491  26.496  1.00  0.00     0.200 A 
ATOM     53  F   UNL A   1      42.760  28.147  25.620  1.00  0.00    -0.200 F 
ATOM     54  F   UNL A   1      41.453  25.766  25.376  1.00  0.00    -0.200 F 
ENDBRANCH  30  44
BRANCH  31  55
ATOM     55  C   UNL A   1      39.555  33.765  36.882  1.00  0.00     0.064 A 
ATOM     56  C   UNL A   1      40.097  35.055  36.939  1.00  0.00     0.173 A 
ATOM     57  C   UNL A   1      38.775  33.332  37.966  1.00  0.00     0.173 A 
ATOM     58  F   UNL A   1      40.863  35.505  35.935  1.00  0.00    -0.203 F 
ATOM     59  C   UNL A   1      39.871  35.879  38.040  1.00  0.00     0.198 A 
ATOM     60  C   UNL A   1      38.528  34.168  39.051  1.00  0.00     0.198 A 
ATOM     61  F   UNL A   1      38.230  32.107  37.953  1.00  0.00    -0.203 F 
ATOM     62  F   UNL A   1      40.426  37.098  38.085  1.00  0.00    -0.200 F 
ATOM     63  C   UNL A   1      39.081  35.438  39.090  1.00  0.00     0.200 A 
ATOM     64  F   UNL A   1      37.748  33.744  40.056  1.00  0.00    -0.200 F 
ATOM     65  F   UNL A   1      38.854  36.236  40.142  1.00  0.00    -0.200 F 
ENDBRANCH  31  55
BRANCH  43  66
ATOM     66  C   UNL A   1      44.227  28.864  35.268  1.00  0.00     0.064 A 
ATOM     67  C   UNL A   1      45.505  29.438  35.197  1.00  0.00     0.173 A 
ATOM     68  C   UNL A   1      44.053  27.739  36.088  1.00  0.00     0.173 A 
ATOM     69  F   UNL A   1      45.722  30.503  34.411  1.00  0.00    -0.203 F 
ATOM     70  C   UNL A   1      46.572  28.893  35.903  1.00  0.00     0.198 A 
ATOM     71  C   UNL A   1      45.117  27.213  36.812  1.00  0.00     0.198 A 
ATOM     72  F   UNL A   1      42.849  27.156  36.190  1.00  0.00    -0.203 F 
ATOM     73  F   UNL A   1      47.794  29.431  35.787  1.00  0.00    -0.200 F 
ATOM     74  C   UNL A   1      46.377  27.785  36.714  1.00  0.00     0.200 A 
ATOM     75  F   UNL A   1      44.926  26.146  37.602  1.00  0.00    -0.200 F 
ATOM     76  F   UNL A   1      47.406  27.263  37.395  1.00  0.00    -0.200 F 
ENDBRANCH  43  66
ENDBRANCH  17  18
ENDBRANCH  10  12
ENDBRANCH   7   8
ENDBRANCH   6   7
ENDBRANCH   5   6
ENDBRANCH   1   5
BRANCH   2  77
ATOM     77  C   UNL A   1      33.140  28.828  24.645  1.00  0.00     0.131 A 
ATOM     78  N   UNL A   1      33.606  29.523  23.563  1.00  0.00    -0.272 N 
ATOM     79  C   UNL A   1      32.333  27.822  24.125  1.00  0.00     0.057 A 
ATOM     80  N   UNL A   1      33.356  28.922  22.390  1.00  0.00    -0.183 NA
ATOM     81  H   UNL A   1      34.080  30.382  23.637  1.00  0.00     0.190 HD
ATOM     82  C   UNL A   1      32.582  27.892  22.731  1.00  0.00     0.145 A 
BRANCH  79  83
ATOM     83  C   UNL A   1      31.487  26.835  24.870  1.00  0.00     0.303 C 
BRANCH  83  84
ATOM     84  N   UNL A   1      32.210  25.717  25.474  1.00  0.00    -0.330 N 
ATOM     85  C   UNL A   1      31.343  24.699  26.070  1.00  0.00     0.262 C 
ATOM     86  C   UNL A   1      33.229  25.143  24.602  1.00  0.00     0.274 C 
ATOM     87  H   UNL A   1      32.712  26.135  26.257  1.00  0.00     0.348 HD
ATOM     88  C   UNL A   1      32.181  23.702  26.875  1.00  0.00     0.062 C 
ATOM     89  C   UNL A   1      34.140  24.170  25.359  1.00  0.00     0.116 C 
ATOM     90  C   UNL A   1      33.288  23.080  26.023  1.00  0.00     0.023 C 
BRANCH  89  91
ATOM     91  C   UNL A   1      35.142  23.590  24.362  1.00  0.00     0.171 C 
ATOM     92  O   UNL A   1      35.030  23.697  23.145  1.00  0.00    -0.294 OA
BRANCH  91  93
ATOM     93  C   UNL A   1      36.355  22.929  24.912  1.00  0.00     0.018 A 
ATOM     94  C   UNL A   1      36.604  21.598  24.566  1.00  0.00     0.015 A 
ATOM     95  C   UNL A   1      37.272  23.635  25.696  1.00  0.00     0.015 A 
ATOM     96  C   UNL A   1      37.778  20.978  25.001  1.00  0.00     0.048 A 
ATOM     97  C   UNL A   1      38.447  23.011  26.126  1.00  0.00     0.048 A 
ATOM     98  C   UNL A   1      38.698  21.676  25.792  1.00  0.00     0.127 A 
BRANCH  98  99
ATOM     99  O   UNL A   1      39.831  20.971  26.134  1.00  0.00    -0.457 OA
BRANCH  99 100
ATOM    100  C   UNL A   1      40.922  21.658  26.606  1.00  0.00     0.127 A 
ATOM    101  C   UNL A   1      41.021  21.837  27.986  1.00  0.00     0.047 A 
ATOM    102  C   UNL A   1      41.863  22.236  25.751  1.00  0.00     0.047 A 
ATOM    103  C   UNL A   1      42.094  22.551  28.519  1.00  0.00     0.004 A 
ATOM    104  C   UNL A   1      42.941  22.943  26.287  1.00  0.00     0.004 A 
ATOM    105  C   UNL A   1      43.058  23.096  27.670  1.00  0.00     0.000 A 
ENDBRANCH  99 100
ENDBRANCH  98  99
ENDBRANCH  91  93
ENDBRANCH  89  91
ENDBRANCH  83  84
ENDBRANCH  79  83
ENDBRANCH   2  77
TORSDOF 16
ENDMDL
MODEL 3
REMARK VINA RESULT:     -12.9      3.700      9.868
REMARK SMILES O=C(NCCCNC(=O)c1[nH]ncc1C[N@H+]1CCC[C@@H](C(=O)c2ccc(Oc3ccccc3)cc2)C1)c1ccc(-c2c3nc(c(-c4c(F)c(F)c(F)c(F)c4F)c4ccc([nH]4)c(-c4c(F)c(F)c(F)c(F)c4F)c4nc(c(-c5c(F)c(F)c(F)c(F)c5F)c5ccc2[nH]5)C=C4)C=C3)cc1
REMARK SMILES IDX 7 1 8 2 9 3 6 5 5 6 4 7 3 8 1 9 2 10 37 12 38 13 99 14 39 15
REMARK SMILES IDX 98 16 40 17 41 18 42 19 92 20 43 21 97 22 91 23 93 24 44 25
REMARK SMILES IDX 96 26 90 27 89 28 45 30 77 31 57 32 76 33 58 34 61 35 75 36
REMARK SMILES IDX 94 37 59 38 60 39 74 41 95 42 62 43 46 44 47 45 55 46 48 47
REMARK SMILES IDX 49 48 53 49 56 50 50 51 51 52 54 53 52 54 78 55 79 56 87 57
REMARK SMILES IDX 80 58 81 59 85 60 88 61 82 62 83 63 86 64 84 65 63 66 64 67
REMARK SMILES IDX 72 68 65 69 66 70 70 71 73 72 67 73 68 74 71 75 69 76 10 77
REMARK SMILES IDX 11 78 14 79 12 80 13 82 15 83 16 84 17 85 36 86 18 88 20 89
REMARK SMILES IDX 19 90 21 91 22 92 23 93 24 94 35 95 25 96 34 97 26 98 27 99
REMARK SMILES IDX 28 100 29 101 33 102 30 103 32 104 31 105
REMARK H PARENT 7 4 3 11 93 29 61 40 11 81 16 87
REMARK Flexibility Score: inf
ROOT
ATOM      1  N   UNL A   1      36.315  34.509  29.234  1.00  0.00    -0.351 N 
ATOM      2  C   UNL A   1      36.649  34.327  30.549  1.00  0.00     0.269 C 
ATOM      3  O   UNL A   1      37.837  34.405  30.866  1.00  0.00    -0.268 OA
ATOM      4  H   UNL A   1      37.065  34.450  28.598  1.00  0.00     0.163 HD
ENDROOT
BRANCH   1   5
ATOM      5  C   UNL A   1      35.014  34.780  28.638  1.00  0.00     0.118 C 
BRANCH   5   6
ATOM      6  C   UNL A   1      34.432  33.569  27.934  1.00  0.00     0.042 C 
BRANCH   6   7
ATOM      7  C   UNL A   1      34.239  32.374  28.852  1.00  0.00     0.118 C 
BRANCH   7   8
ATOM      8  N   UNL A   1      33.740  31.200  28.147  1.00  0.00    -0.352 N 
ATOM      9  O   UNL A   1      33.817  29.304  26.938  1.00  0.00    -0.269 OA
ATOM     10  C   UNL A   1      34.395  30.082  27.691  1.00  0.00     0.251 C 
ATOM     11  H   UNL A   1      32.772  31.209  27.967  1.00  0.00     0.163 HD
BRANCH  10  12
ATOM     12  C   UNL A   1      35.797  29.818  28.084  1.00  0.00     0.039 A 
ATOM     13  C   UNL A   1      36.104  29.344  29.358  1.00  0.00     0.014 A 
ATOM     14  C   UNL A   1      36.818  30.013  27.149  1.00  0.00     0.014 A 
ATOM     15  C   UNL A   1      37.429  29.239  29.757  1.00  0.00     0.010 A 
ATOM     16  C   UNL A   1      38.150  29.791  27.515  1.00  0.00     0.010 A 
ATOM     17  C   UNL A   1      38.468  29.434  28.834  1.00  0.00    -0.014 A 
BRANCH  17  18
ATOM     18  C   UNL A   1      39.864  29.180  29.264  1.00  0.00     0.031 A 
ATOM     19  C   UNL A   1      40.609  27.958  28.813  1.00  0.00     0.074 A 
ATOM     20  C   UNL A   1      40.473  30.104  30.033  1.00  0.00     0.049 A 
ATOM     21  N   UNL A   1      41.842  27.602  29.076  1.00  0.00    -0.248 NA
ATOM     22  C   UNL A   1      39.881  27.005  27.963  1.00  0.00     0.031 C 
ATOM     23  C   UNL A   1      39.841  31.327  30.535  1.00  0.00     0.029 A 
ATOM     24  N   UNL A   1      41.759  30.180  30.502  1.00  0.00    -0.354 N 
ATOM     25  C   UNL A   1      42.029  26.380  28.446  1.00  0.00     0.074 A 
ATOM     26  C   UNL A   1      40.778  26.042  27.802  1.00  0.00     0.031 C 
ATOM     27  C   UNL A   1      40.756  32.062  31.183  1.00  0.00     0.029 A 
ATOM     28  C   UNL A   1      42.016  31.330  31.206  1.00  0.00     0.049 A 
ATOM     29  H   UNL A   1      42.432  29.478  30.349  1.00  0.00     0.167 HD
ATOM     30  C   UNL A   1      43.148  25.617  28.406  1.00  0.00     0.037 A 
ATOM     31  C   UNL A   1      43.140  31.747  31.816  1.00  0.00     0.037 A 
ATOM     32  C   UNL A   1      44.396  25.972  29.032  1.00  0.00     0.049 A 
ATOM     33  C   UNL A   1      44.358  30.872  31.767  1.00  0.00     0.074 A 
ATOM     34  C   UNL A   1      45.593  25.277  29.029  1.00  0.00     0.029 A 
ATOM     35  N   UNL A   1      44.608  27.127  29.773  1.00  0.00    -0.354 N 
ATOM     36  N   UNL A   1      44.523  29.723  31.160  1.00  0.00    -0.248 NA
ATOM     37  C   UNL A   1      45.540  31.346  32.496  1.00  0.00     0.031 C 
ATOM     38  C   UNL A   1      46.517  25.992  29.798  1.00  0.00     0.029 A 
ATOM     39  C   UNL A   1      45.910  27.154  30.245  1.00  0.00     0.049 A 
ATOM     40  H   UNL A   1      43.932  27.824  29.938  1.00  0.00     0.167 HD
ATOM     41  C   UNL A   1      45.827  29.337  31.427  1.00  0.00     0.074 A 
ATOM     42  C   UNL A   1      46.417  30.388  32.231  1.00  0.00     0.031 C 
ATOM     43  C   UNL A   1      46.476  28.209  31.047  1.00  0.00     0.037 A 
BRANCH  30  44
ATOM     44  C   UNL A   1      43.074  24.310  27.672  1.00  0.00     0.064 A 
ATOM     45  C   UNL A   1      42.709  23.121  28.320  1.00  0.00     0.173 A 
ATOM     46  C   UNL A   1      43.321  24.257  26.292  1.00  0.00     0.173 A 
ATOM     47  F   UNL A   1      42.476  23.116  29.641  1.00  0.00    -0.203 F 
ATOM     48  C   UNL A   1      42.612  21.923  27.616  1.00  0.00     0.198 A 
ATOM     49  C   UNL A   1      43.199  23.062  25.587  1.00  0.00     0.198 A 
ATOM     50  F   UNL A   1      43.668  25.368  25.623  1.00  0.00    -0.203 F 
ATOM     51  F   UNL A   1      42.298  20.792  28.262  1.00  0.00    -0.200 F 
ATOM     52  C   UNL A   1      42.851  21.896  26.249  1.00  0.00     0.200 A 
ATOM     53  F   UNL A   1      43.421  23.040  24.264  1.00  0.00    -0.200 F 
ATOM     54  F   UNL A   1      42.749  20.743  25.572  1.00  0.00    -0.200 F 
ENDBRANCH  30  44
BRANCH  31  55
ATOM     55  C   UNL A   1      43.152  33.052  32.523  1.00  0.00     0.064 A 
ATOM     56  C   UNL A   1      43.292  34.252  31.815  1.00  0.00     0.173 A 
ATOM     57  C   UNL A   1      42.992  33.126  33.914  1.00  0.00     0.173 A 
ATOM     58  F   UNL A   1      43.465  34.230  30.485  1.00  0.00    -0.203 F 
ATOM     59  C   UNL A   1      43.277  35.479  32.475  1.00  0.00     0.198 A 
ATOM     60  C   UNL A   1      42.949  34.355  34.568  1.00  0.00     0.198 A 
ATOM     61  F   UNL A   1      42.847  32.003  34.634  1.00  0.00    -0.203 F 
ATOM     62  F   UNL A   1      43.444  36.613  31.779  1.00  0.00    -0.200 F 
ATOM     63  C   UNL A   1      43.098  35.529  33.849  1.00  0.00     0.200 A 
ATOM     64  F   UNL A   1      42.757  34.398  35.894  1.00  0.00    -0.200 F 
ATOM     65  F   UNL A   1      43.071  36.710  34.481  1.00  0.00    -0.200 F 
ENDBRANCH  31  55
BRANCH  43  66
ATOM     66  C   UNL A   1      47.900  28.068  31.487  1.00  0.00     0.064 A 
ATOM     67  C   UNL A   1      48.958  28.554  30.705  1.00  0.00     0.173 A 
ATOM     68  C   UNL A   1      48.210  27.461  32.713  1.00  0.00     0.173 A 
ATOM     69  F   UNL A   1      48.712  29.125  29.517  1.00  0.00    -0.203 F 
ATOM     70  C   UNL A   1      50.278  28.416  31.125  1.00  0.00     0.198 A 
ATOM     71  C   UNL A   1      49.528  27.348  33.141  1.00  0.00     0.198 A 
ATOM     72  F   UNL A   1      47.231  26.983  33.496  1.00  0.00    -0.203 F 
ATOM     73  F   UNL A   1      51.276  28.847  30.342  1.00  0.00    -0.200 F 
ATOM     74  C   UNL A   1      50.561  27.819  32.344  1.00  0.00     0.200 A 
ATOM     75  F   UNL A   1      49.801  26.776  34.323  1.00  0.00    -0.200 F 
ATOM     76  F   UNL A   1      51.832  27.688  32.747  1.00  0.00    -0.200 F 
ENDBRANCH  43  66
ENDBRANCH  17  18
ENDBRANCH  10  12
ENDBRANCH   7   8
ENDBRANCH   6   7
ENDBRANCH   5   6
ENDBRANCH   1   5
BRANCH   2  77
ATOM     77  C   UNL A   1      35.610  34.117  31.510  1.00  0.00     0.131 A 
ATOM     78  N   UNL A   1      34.603  35.026  31.686  1.00  0.00    -0.272 N 
ATOM     79  C   UNL A   1      35.381  33.118  32.450  1.00  0.00     0.057 A 
ATOM     80  N   UNL A   1      33.626  34.595  32.497  1.00  0.00    -0.183 NA
ATOM     81  H   UNL A   1      34.597  35.913  31.259  1.00  0.00     0.190 HD
ATOM     82  C   UNL A   1      34.098  33.439  32.961  1.00  0.00     0.145 A 
BRANCH  79  83
ATOM     83  C   UNL A   1      36.238  31.931  32.767  1.00  0.00     0.303 C 
BRANCH  83  84
ATOM     84  N   UNL A   1      37.525  32.232  33.392  1.00  0.00    -0.330 N 
ATOM     85  C   UNL A   1      37.525  33.453  34.200  1.00  0.00     0.262 C 
ATOM     86  C   UNL A   1      38.112  31.096  34.094  1.00  0.00     0.274 C 
ATOM     87  H   UNL A   1      38.146  32.429  32.606  1.00  0.00     0.348 HD
ATOM     88  C   UNL A   1      38.955  33.809  34.613  1.00  0.00     0.062 C 
ATOM     89  C   UNL A   1      39.566  31.367  34.493  1.00  0.00     0.116 C 
ATOM     90  C   UNL A   1      39.639  32.648  35.335  1.00  0.00     0.023 C 
BRANCH  89  91
ATOM     91  C   UNL A   1      40.081  30.147  35.257  1.00  0.00     0.171 C 
ATOM     92  O   UNL A   1      39.654  29.802  36.354  1.00  0.00    -0.294 OA
BRANCH  91  93
ATOM     93  C   UNL A   1      41.099  29.295  34.587  1.00  0.00     0.018 A 
ATOM     94  C   UNL A   1      42.361  29.175  35.177  1.00  0.00     0.015 A 
ATOM     95  C   UNL A   1      40.789  28.567  33.435  1.00  0.00     0.015 A 
ATOM     96  C   UNL A   1      43.308  28.317  34.614  1.00  0.00     0.048 A 
ATOM     97  C   UNL A   1      41.742  27.707  32.877  1.00  0.00     0.048 A 
ATOM     98  C   UNL A   1      43.009  27.590  33.457  1.00  0.00     0.127 A 
BRANCH  98  99
ATOM     99  O   UNL A   1      44.012  26.755  33.013  1.00  0.00    -0.457 OA
BRANCH  99 100
ATOM    100  C   UNL A   1      43.989  25.434  33.388  1.00  0.00     0.127 A 
ATOM    101  C   UNL A   1      44.560  24.508  32.514  1.00  0.00     0.047 A 
ATOM    102  C   UNL A   1      43.350  25.003  34.552  1.00  0.00     0.047 A 
ATOM    103  C   UNL A   1      44.540  23.150  32.831  1.00  0.00     0.004 A 
ATOM    104  C   UNL A   1      43.340  23.644  34.872  1.00  0.00     0.004 A 
ATOM    105  C   UNL A   1      43.938  22.720  34.014  1.00  0.00     0.000 A 
ENDBRANCH  99 100
ENDBRANCH  98  99
ENDBRANCH  91  93
ENDBRANCH  89  91
ENDBRANCH  83  84
ENDBRANCH  79  83
ENDBRANCH   2  77
TORSDOF 16
ENDMDL
