MODEL 1
REMARK VINA RESULT:     -13.1      0.000      0.000
REMARK SMILES Cc1nn(CC(F)F)c2c1c(C(F)(F)F)cc(=O)n2CC(=O)NCCCNC(=O)c1ccc(-c2c3nc(c(-c4c(F)c(F)c(F)c(F)c4F)c4ccc([nH]4)c(-c4c(F)c(F)c(F)c(F)c4F)c4nc(c(-c5c(F)c(F)c(F)c(F)c5F)c5ccc2[nH]5)C=C4)C=C3)cc1
REMARK SMILES IDX 24 1 23 2 21 3 22 4 20 6 19 7 1 8 2 9 3 10 10 11 4 12 9 13
REMARK SMILES IDX 11 14 16 15 17 16 18 17 5 18 6 19 7 20 8 21 12 22 13 23
REMARK SMILES IDX 14 24 15 25 25 26 26 27 27 28 28 29 29 31 30 32 31 33 92 34
REMARK SMILES IDX 32 35 91 36 33 37 34 38 35 39 85 40 36 41 90 42 84 43 86 44
REMARK SMILES IDX 37 45 89 46 83 47 82 48 38 50 70 51 50 52 69 53 51 54 54 55
REMARK SMILES IDX 68 56 87 57 52 58 53 59 67 61 88 62 55 63 39 64 40 65 48 66
REMARK SMILES IDX 41 67 42 68 46 69 49 70 43 71 44 72 47 73 45 74 71 75 72 76
REMARK SMILES IDX 80 77 73 78 74 79 78 80 81 81 75 82 76 83 79 84 77 85 56 86
REMARK SMILES IDX 57 87 65 88 58 89 59 90 63 91 66 92 60 93 61 94 64 95 62 96
REMARK H PARENT 23 5 27 30 86 49 54 60
REMARK Flexibility Score: inf
ROOT
ATOM      1  C   UNL A   1      36.889  22.655  25.430  1.00  0.00     0.117 C 
ENDROOT
BRANCH   1   2
ATOM      2  N   UNL A   1      35.906  22.227  26.401  1.00  0.00    -0.354 N 
ATOM      3  C   UNL A   1      34.576  22.001  26.245  1.00  0.00     0.240 C 
ATOM      4  O   UNL A   1      34.019  21.338  27.126  1.00  0.00    -0.273 OA
ATOM      5  H   UNL A   1      36.252  22.079  27.311  1.00  0.00     0.163 HD
BRANCH   3   6
ATOM      6  C   UNL A   1      33.809  22.434  24.993  1.00  0.00     0.227 C 
BRANCH   6   7
ATOM      7  N   UNL A   1      33.668  23.875  24.763  1.00  0.00    -0.283 N 
ATOM      8  C   UNL A   1      31.534  28.097  26.515  1.00  0.00     0.069 C 
ATOM      9  C   UNL A   1      31.965  26.707  26.215  1.00  0.00     0.069 A 
ATOM     10  N   UNL A   1      31.440  25.737  26.970  1.00  0.00    -0.175 NA
ATOM     11  C   UNL A   1      32.854  26.160  25.261  1.00  0.00     0.053 A 
ATOM     12  N   UNL A   1      31.981  24.586  26.518  1.00  0.00    -0.243 N 
ATOM     13  C   UNL A   1      32.881  24.789  25.493  1.00  0.00     0.142 A 
ATOM     14  C   UNL A   1      33.656  26.690  24.205  1.00  0.00     0.074 A 
ATOM     15  C   UNL A   1      34.353  25.852  23.423  1.00  0.00     0.085 A 
ATOM     16  C   UNL A   1      34.355  24.382  23.645  1.00  0.00     0.253 A 
ATOM     17  O   UNL A   1      35.000  23.702  22.859  1.00  0.00    -0.269 OA
BRANCH  12  18
ATOM     18  C   UNL A   1      31.524  23.390  27.180  1.00  0.00     0.219 C 
BRANCH  18  19
ATOM     19  C   UNL A   1      30.169  22.931  26.704  1.00  0.00     0.363 C 
ATOM     20  F   UNL A   1      30.268  21.837  25.909  1.00  0.00    -0.208 F 
ATOM     21  F   UNL A   1      29.428  22.547  27.778  1.00  0.00    -0.208 F 
ENDBRANCH  18  19
ENDBRANCH  12  18
BRANCH  14  22
ATOM     22  C   UNL A   1      33.714  28.168  24.000  1.00  0.00     0.417 C 
ATOM     23  F   UNL A   1      32.505  28.696  23.684  1.00  0.00    -0.166 F 
ATOM     24  F   UNL A   1      34.173  28.819  25.100  1.00  0.00    -0.166 F 
ATOM     25  F   UNL A   1      34.554  28.514  22.987  1.00  0.00    -0.166 F 
ENDBRANCH  14  22
ENDBRANCH   6   7
ENDBRANCH   3   6
ENDBRANCH   1   2
BRANCH   1  26
ATOM     26  C   UNL A   1      38.170  21.827  25.486  1.00  0.00     0.042 C 
BRANCH  26  27
ATOM     27  C   UNL A   1      39.209  22.364  26.474  1.00  0.00     0.118 C 
BRANCH  27  28
ATOM     28  N   UNL A   1      40.579  22.283  26.003  1.00  0.00    -0.352 N 
ATOM     29  C   UNL A   1      41.704  23.046  26.133  1.00  0.00     0.251 C 
ATOM     30  H   UNL A   1      40.736  21.480  25.455  1.00  0.00     0.163 HD
ATOM     31  O   UNL A   1      42.736  22.563  25.659  1.00  0.00    -0.269 OA
BRANCH  29  32
ATOM     32  C   UNL A   1      41.762  24.411  26.718  1.00  0.00     0.039 A 
ATOM     33  C   UNL A   1      42.369  24.754  27.924  1.00  0.00     0.014 A 
ATOM     34  C   UNL A   1      41.069  25.410  26.004  1.00  0.00     0.014 A 
ATOM     35  C   UNL A   1      42.174  26.021  28.465  1.00  0.00     0.010 A 
ATOM     36  C   UNL A   1      40.892  26.683  26.528  1.00  0.00     0.010 A 
ATOM     37  C   UNL A   1      41.392  26.967  27.791  1.00  0.00    -0.014 A 
BRANCH  37  38
ATOM     38  C   UNL A   1      41.212  28.275  28.413  1.00  0.00     0.031 A 
ATOM     39  C   UNL A   1      42.298  29.252  28.112  1.00  0.00     0.074 A 
ATOM     40  C   UNL A   1      40.129  28.618  29.142  1.00  0.00     0.049 A 
ATOM     41  N   UNL A   1      43.121  29.809  28.941  1.00  0.00    -0.248 NA
ATOM     42  C   UNL A   1      42.581  29.546  26.698  1.00  0.00     0.031 C 
ATOM     43  C   UNL A   1      38.876  27.879  29.318  1.00  0.00     0.029 A 
ATOM     44  N   UNL A   1      39.899  29.768  29.839  1.00  0.00    -0.354 N 
ATOM     45  C   UNL A   1      43.926  30.652  28.177  1.00  0.00     0.074 A 
ATOM     46  C   UNL A   1      43.639  30.353  26.798  1.00  0.00     0.031 C 
ATOM     47  C   UNL A   1      37.949  28.690  29.882  1.00  0.00     0.029 A 
ATOM     48  C   UNL A   1      38.580  29.948  30.239  1.00  0.00     0.049 A 
ATOM     49  H   UNL A   1      40.610  30.417  30.042  1.00  0.00     0.167 HD
ATOM     50  C   UNL A   1      44.622  31.675  28.744  1.00  0.00     0.037 A 
ATOM     51  C   UNL A   1      38.045  31.072  30.781  1.00  0.00     0.037 A 
ATOM     52  C   UNL A   1      44.806  31.464  30.155  1.00  0.00     0.049 A 
ATOM     53  C   UNL A   1      39.165  31.872  31.333  1.00  0.00     0.074 A 
ATOM     54  C   UNL A   1      45.461  30.517  30.918  1.00  0.00     0.029 A 
ATOM     55  N   UNL A   1      43.974  32.123  31.024  1.00  0.00    -0.354 N 
ATOM     56  N   UNL A   1      39.877  31.513  32.363  1.00  0.00    -0.248 NA
ATOM     57  C   UNL A   1      39.774  32.863  30.461  1.00  0.00     0.031 C 
ATOM     58  C   UNL A   1      44.634  30.330  32.065  1.00  0.00     0.029 A 
ATOM     59  C   UNL A   1      43.559  31.214  31.960  1.00  0.00     0.049 A 
ATOM     60  H   UNL A   1      43.721  33.074  30.981  1.00  0.00     0.167 HD
ATOM     61  C   UNL A   1      41.171  31.890  32.041  1.00  0.00     0.074 A 
ATOM     62  C   UNL A   1      41.034  32.787  30.896  1.00  0.00     0.031 C 
ATOM     63  C   UNL A   1      42.244  31.222  32.552  1.00  0.00     0.037 A 
BRANCH  50  64
ATOM     64  C   UNL A   1      44.815  33.025  28.097  1.00  0.00     0.064 A 
ATOM     65  C   UNL A   1      46.104  33.413  27.678  1.00  0.00     0.173 A 
ATOM     66  C   UNL A   1      43.860  34.063  28.157  1.00  0.00     0.173 A 
ATOM     67  F   UNL A   1      47.099  32.516  27.604  1.00  0.00    -0.203 F 
ATOM     68  C   UNL A   1      46.427  34.749  27.419  1.00  0.00     0.198 A 
ATOM     69  C   UNL A   1      44.172  35.386  27.849  1.00  0.00     0.198 A 
ATOM     70  F   UNL A   1      42.621  33.866  28.623  1.00  0.00    -0.203 F 
ATOM     71  F   UNL A   1      47.695  35.087  27.149  1.00  0.00    -0.200 F 
ATOM     72  C   UNL A   1      45.463  35.734  27.512  1.00  0.00     0.200 A 
ATOM     73  F   UNL A   1      43.227  36.329  27.965  1.00  0.00    -0.200 F 
ATOM     74  F   UNL A   1      45.783  37.022  27.328  1.00  0.00    -0.200 F 
ENDBRANCH  50  64
BRANCH  51  75
ATOM     75  C   UNL A   1      36.709  31.675  30.535  1.00  0.00     0.064 A 
ATOM     76  C   UNL A   1      35.851  31.991  31.605  1.00  0.00     0.173 A 
ATOM     77  C   UNL A   1      36.383  32.241  29.288  1.00  0.00     0.173 A 
ATOM     78  F   UNL A   1      36.111  31.529  32.837  1.00  0.00    -0.203 F 
ATOM     79  C   UNL A   1      34.761  32.853  31.444  1.00  0.00     0.198 A 
ATOM     80  C   UNL A   1      35.292  33.097  29.129  1.00  0.00     0.198 A 
ATOM     81  F   UNL A   1      37.176  32.060  28.223  1.00  0.00    -0.203 F 
ATOM     82  F   UNL A   1      34.011  33.188  32.504  1.00  0.00    -0.200 F 
ATOM     83  C   UNL A   1      34.490  33.417  30.209  1.00  0.00     0.200 A 
ATOM     84  F   UNL A   1      35.064  33.668  27.936  1.00  0.00    -0.200 F 
ATOM     85  F   UNL A   1      33.491  34.299  30.069  1.00  0.00    -0.200 F 
ENDBRANCH  51  75
BRANCH  63  86
ATOM     86  C   UNL A   1      41.996  30.240  33.663  1.00  0.00     0.064 A 
ATOM     87  C   UNL A   1      41.633  28.897  33.458  1.00  0.00     0.173 A 
ATOM     88  C   UNL A   1      42.295  30.635  34.973  1.00  0.00     0.173 A 
ATOM     89  F   UNL A   1      41.423  28.418  32.225  1.00  0.00    -0.203 F 
ATOM     90  C   UNL A   1      41.545  28.002  34.524  1.00  0.00     0.198 A 
ATOM     91  C   UNL A   1      42.241  29.730  36.030  1.00  0.00     0.198 A 
ATOM     92  F   UNL A   1      42.697  31.891  35.220  1.00  0.00    -0.203 F 
ATOM     93  F   UNL A   1      41.196  26.725  34.304  1.00  0.00    -0.200 F 
ATOM     94  C   UNL A   1      41.860  28.417  35.807  1.00  0.00     0.200 A 
ATOM     95  F   UNL A   1      42.596  30.124  37.261  1.00  0.00    -0.200 F 
ATOM     96  F   UNL A   1      41.827  27.545  36.825  1.00  0.00    -0.200 F 
ENDBRANCH  63  86
ENDBRANCH  37  38
ENDBRANCH  29  32
ENDBRANCH  27  28
ENDBRANCH  26  27
ENDBRANCH   1  26
TORSDOF 14
ENDMDL
MODEL 2
REMARK VINA RESULT:     -12.9      3.522      8.768
REMARK SMILES Cc1nn(CC(F)F)c2c1c(C(F)(F)F)cc(=O)n2CC(=O)NCCCNC(=O)c1ccc(-c2c3nc(c(-c4c(F)c(F)c(F)c(F)c4F)c4ccc([nH]4)c(-c4c(F)c(F)c(F)c(F)c4F)c4nc(c(-c5c(F)c(F)c(F)c(F)c5F)c5ccc2[nH]5)C=C4)C=C3)cc1
REMARK SMILES IDX 24 1 23 2 21 3 22 4 20 6 19 7 1 8 2 9 3 10 10 11 4 12 9 13
REMARK SMILES IDX 11 14 16 15 17 16 18 17 5 18 6 19 7 20 8 21 12 22 13 23
REMARK SMILES IDX 14 24 15 25 25 26 26 27 27 28 28 29 29 31 30 32 31 33 92 34
REMARK SMILES IDX 32 35 91 36 33 37 34 38 35 39 85 40 36 41 90 42 84 43 86 44
REMARK SMILES IDX 37 45 89 46 83 47 82 48 38 50 70 51 50 52 69 53 51 54 54 55
REMARK SMILES IDX 68 56 87 57 52 58 53 59 67 61 88 62 55 63 39 64 40 65 48 66
REMARK SMILES IDX 41 67 42 68 46 69 49 70 43 71 44 72 47 73 45 74 71 75 72 76
REMARK SMILES IDX 80 77 73 78 74 79 78 80 81 81 75 82 76 83 79 84 77 85 56 86
REMARK SMILES IDX 57 87 65 88 58 89 59 90 63 91 66 92 60 93 61 94 64 95 62 96
REMARK H PARENT 23 5 27 30 86 49 54 60
REMARK Flexibility Score: inf
ROOT
ATOM      1  C   UNL A   1      32.048  28.864  26.561  1.00  0.00     0.117 C 
ENDROOT
BRANCH   1   2
ATOM      2  N   UNL A   1      32.411  29.048  25.173  1.00  0.00    -0.354 N 
ATOM      3  C   UNL A   1      31.970  28.392  24.068  1.00  0.00     0.240 C 
ATOM      4  O   UNL A   1      32.178  28.938  22.980  1.00  0.00    -0.273 OA
ATOM      5  H   UNL A   1      33.077  29.753  25.004  1.00  0.00     0.163 HD
BRANCH   3   6
ATOM      6  C   UNL A   1      31.155  27.100  24.149  1.00  0.00     0.227 C 
BRANCH   6   7
ATOM      7  N   UNL A   1      31.798  25.943  24.778  1.00  0.00    -0.283 N 
ATOM      8  C   UNL A   1      35.581  22.634  24.327  1.00  0.00     0.069 C 
ATOM      9  C   UNL A   1      34.548  23.689  24.153  1.00  0.00     0.069 A 
ATOM     10  N   UNL A   1      34.575  24.374  23.006  1.00  0.00    -0.175 NA
ATOM     11  C   UNL A   1      33.495  24.150  24.977  1.00  0.00     0.053 A 
ATOM     12  N   UNL A   1      33.562  25.264  23.087  1.00  0.00    -0.243 N 
ATOM     13  C   UNL A   1      32.888  25.194  24.287  1.00  0.00     0.142 A 
ATOM     14  C   UNL A   1      32.981  23.788  26.259  1.00  0.00     0.074 A 
ATOM     15  C   UNL A   1      31.890  24.409  26.731  1.00  0.00     0.085 A 
ATOM     16  C   UNL A   1      31.216  25.501  25.980  1.00  0.00     0.253 A 
ATOM     17  O   UNL A   1      30.211  25.983  26.483  1.00  0.00    -0.269 OA
BRANCH  12  18
ATOM     18  C   UNL A   1      33.384  26.100  21.925  1.00  0.00     0.219 C 
BRANCH  18  19
ATOM     19  C   UNL A   1      32.355  25.564  20.962  1.00  0.00     0.363 C 
ATOM     20  F   UNL A   1      31.239  26.332  20.952  1.00  0.00    -0.208 F 
ATOM     21  F   UNL A   1      32.858  25.620  19.700  1.00  0.00    -0.208 F 
ENDBRANCH  18  19
ENDBRANCH  12  18
BRANCH  14  22
ATOM     22  C   UNL A   1      33.677  22.734  27.056  1.00  0.00     0.417 C 
ATOM     23  F   UNL A   1      33.664  21.525  26.441  1.00  0.00    -0.166 F 
ATOM     24  F   UNL A   1      34.972  23.054  27.308  1.00  0.00    -0.166 F 
ATOM     25  F   UNL A   1      33.098  22.544  28.273  1.00  0.00    -0.166 F 
ENDBRANCH  14  22
ENDBRANCH   6   7
ENDBRANCH   3   6
ENDBRANCH   1   2
BRANCH   1  26
ATOM     26  C   UNL A   1      33.239  29.005  27.505  1.00  0.00     0.042 C 
BRANCH  26  27
ATOM     27  C   UNL A   1      34.121  30.221  27.208  1.00  0.00     0.118 C 
BRANCH  27  28
ATOM     28  N   UNL A   1      34.142  31.216  28.263  1.00  0.00    -0.352 N 
ATOM     29  C   UNL A   1      35.062  31.666  29.165  1.00  0.00     0.251 C 
ATOM     30  H   UNL A   1      33.278  31.682  28.349  1.00  0.00     0.163 HD
ATOM     31  O   UNL A   1      34.717  32.637  29.844  1.00  0.00    -0.269 OA
BRANCH  29  32
ATOM     32  C   UNL A   1      36.383  31.044  29.438  1.00  0.00     0.039 A 
ATOM     33  C   UNL A   1      37.625  31.626  29.190  1.00  0.00     0.014 A 
ATOM     34  C   UNL A   1      36.345  29.718  29.918  1.00  0.00     0.014 A 
ATOM     35  C   UNL A   1      38.784  30.863  29.291  1.00  0.00     0.010 A 
ATOM     36  C   UNL A   1      37.502  28.960  30.043  1.00  0.00     0.010 A 
ATOM     37  C   UNL A   1      38.716  29.517  29.666  1.00  0.00    -0.014 A 
BRANCH  37  38
ATOM     38  C   UNL A   1      39.964  28.763  29.742  1.00  0.00     0.031 A 
ATOM     39  C   UNL A   1      40.527  28.645  31.117  1.00  0.00     0.074 A 
ATOM     40  C   UNL A   1      40.538  28.154  28.683  1.00  0.00     0.049 A 
ATOM     41  N   UNL A   1      41.654  29.102  31.559  1.00  0.00    -0.248 NA
ATOM     42  C   UNL A   1      39.670  28.057  32.160  1.00  0.00     0.031 C 
ATOM     43  C   UNL A   1      39.995  27.956  27.337  1.00  0.00     0.029 A 
ATOM     44  N   UNL A   1      41.738  27.506  28.620  1.00  0.00    -0.354 N 
ATOM     45  C   UNL A   1      41.728  28.719  32.896  1.00  0.00     0.074 A 
ATOM     46  C   UNL A   1      40.433  28.197  33.245  1.00  0.00     0.031 C 
ATOM     47  C   UNL A   1      40.758  27.060  26.669  1.00  0.00     0.029 A 
ATOM     48  C   UNL A   1      41.918  26.732  27.479  1.00  0.00     0.049 A 
ATOM     49  H   UNL A   1      42.421  27.583  29.324  1.00  0.00     0.167 HD
ATOM     50  C   UNL A   1      42.917  28.675  33.558  1.00  0.00     0.037 A 
ATOM     51  C   UNL A   1      42.927  25.854  27.248  1.00  0.00     0.037 A 
ATOM     52  C   UNL A   1      43.907  29.494  32.910  1.00  0.00     0.049 A 
ATOM     53  C   UNL A   1      44.045  26.218  28.153  1.00  0.00     0.074 A 
ATOM     54  C   UNL A   1      44.032  30.845  32.651  1.00  0.00     0.029 A 
ATOM     55  N   UNL A   1      44.828  28.879  32.101  1.00  0.00    -0.354 N 
ATOM     56  N   UNL A   1      44.745  27.310  28.041  1.00  0.00    -0.248 NA
ATOM     57  C   UNL A   1      44.091  25.570  29.454  1.00  0.00     0.031 C 
ATOM     58  C   UNL A   1      44.650  30.920  31.369  1.00  0.00     0.029 A 
ATOM     59  C   UNL A   1      44.917  29.616  30.951  1.00  0.00     0.049 A 
ATOM     60  H   UNL A   1      45.333  28.059  32.309  1.00  0.00     0.167 HD
ATOM     61  C   UNL A   1      44.962  27.720  29.347  1.00  0.00     0.074 A 
ATOM     62  C   UNL A   1      44.606  26.569  30.174  1.00  0.00     0.031 C 
ATOM     63  C   UNL A   1      45.140  29.038  29.648  1.00  0.00     0.037 A 
BRANCH  50  64
ATOM     64  C   UNL A   1      43.282  27.617  34.570  1.00  0.00     0.064 A 
ATOM     65  C   UNL A   1      43.556  27.997  35.900  1.00  0.00     0.173 A 
ATOM     66  C   UNL A   1      43.673  26.306  34.223  1.00  0.00     0.173 A 
ATOM     67  F   UNL A   1      43.248  29.228  36.338  1.00  0.00    -0.203 F 
ATOM     68  C   UNL A   1      44.242  27.158  36.784  1.00  0.00     0.198 A 
ATOM     69  C   UNL A   1      44.311  25.452  35.122  1.00  0.00     0.198 A 
ATOM     70  F   UNL A   1      43.560  25.835  32.975  1.00  0.00    -0.203 F 
ATOM     71  F   UNL A   1      44.594  27.611  37.995  1.00  0.00    -0.200 F 
ATOM     72  C   UNL A   1      44.625  25.889  36.391  1.00  0.00     0.200 A 
ATOM     73  F   UNL A   1      44.692  24.234  34.714  1.00  0.00    -0.200 F 
ATOM     74  F   UNL A   1      45.338  25.107  37.212  1.00  0.00    -0.200 F 
ENDBRANCH  50  64
BRANCH  51  75
ATOM     75  C   UNL A   1      42.866  24.525  26.587  1.00  0.00     0.064 A 
ATOM     76  C   UNL A   1      43.545  24.287  25.378  1.00  0.00     0.173 A 
ATOM     77  C   UNL A   1      42.414  23.385  27.281  1.00  0.00     0.173 A 
ATOM     78  F   UNL A   1      44.047  25.313  24.674  1.00  0.00    -0.203 F 
ATOM     79  C   UNL A   1      43.792  22.991  24.914  1.00  0.00     0.198 A 
ATOM     80  C   UNL A   1      42.657  22.092  26.814  1.00  0.00     0.198 A 
ATOM     81  F   UNL A   1      41.820  23.500  28.477  1.00  0.00    -0.203 F 
ATOM     82  F   UNL A   1      44.506  22.804  23.795  1.00  0.00    -0.200 F 
ATOM     83  C   UNL A   1      43.360  21.894  25.639  1.00  0.00     0.200 A 
ATOM     84  F   UNL A   1      42.267  21.038  27.546  1.00  0.00    -0.200 F 
ATOM     85  F   UNL A   1      43.658  20.651  25.236  1.00  0.00    -0.200 F 
ENDBRANCH  51  75
BRANCH  63  86
ATOM     86  C   UNL A   1      45.348  29.996  28.509  1.00  0.00     0.064 A 
ATOM     87  C   UNL A   1      44.302  30.614  27.800  1.00  0.00     0.173 A 
ATOM     88  C   UNL A   1      46.653  30.424  28.235  1.00  0.00     0.173 A 
ATOM     89  F   UNL A   1      43.022  30.328  28.069  1.00  0.00    -0.203 F 
ATOM     90  C   UNL A   1      44.559  31.593  26.841  1.00  0.00     0.198 A 
ATOM     91  C   UNL A   1      46.904  31.428  27.303  1.00  0.00     0.198 A 
ATOM     92  F   UNL A   1      47.686  29.907  28.918  1.00  0.00    -0.203 F 
ATOM     93  F   UNL A   1      43.544  32.168  26.177  1.00  0.00    -0.200 F 
ATOM     94  C   UNL A   1      45.859  32.006  26.601  1.00  0.00     0.200 A 
ATOM     95  F   UNL A   1      48.158  31.860  27.113  1.00  0.00    -0.200 F 
ATOM     96  F   UNL A   1      46.103  32.985  25.718  1.00  0.00    -0.200 F 
ENDBRANCH  63  86
ENDBRANCH  37  38
ENDBRANCH  29  32
ENDBRANCH  27  28
ENDBRANCH  26  27
ENDBRANCH   1  26
TORSDOF 14
ENDMDL
MODEL 3
REMARK VINA RESULT:     -12.9      3.481      8.919
REMARK SMILES Cc1nn(CC(F)F)c2c1c(C(F)(F)F)cc(=O)n2CC(=O)NCCCNC(=O)c1ccc(-c2c3nc(c(-c4c(F)c(F)c(F)c(F)c4F)c4ccc([nH]4)c(-c4c(F)c(F)c(F)c(F)c4F)c4nc(c(-c5c(F)c(F)c(F)c(F)c5F)c5ccc2[nH]5)C=C4)C=C3)cc1
REMARK SMILES IDX 24 1 23 2 21 3 22 4 20 6 19 7 1 8 2 9 3 10 10 11 4 12 9 13
REMARK SMILES IDX 11 14 16 15 17 16 18 17 5 18 6 19 7 20 8 21 12 22 13 23
REMARK SMILES IDX 14 24 15 25 25 26 26 27 27 28 28 29 29 31 30 32 31 33 92 34
REMARK SMILES IDX 32 35 91 36 33 37 34 38 35 39 85 40 36 41 90 42 84 43 86 44
REMARK SMILES IDX 37 45 89 46 83 47 82 48 38 50 70 51 50 52 69 53 51 54 54 55
REMARK SMILES IDX 68 56 87 57 52 58 53 59 67 61 88 62 55 63 39 64 40 65 48 66
REMARK SMILES IDX 41 67 42 68 46 69 49 70 43 71 44 72 47 73 45 74 71 75 72 76
REMARK SMILES IDX 80 77 73 78 74 79 78 80 81 81 75 82 76 83 79 84 77 85 56 86
REMARK SMILES IDX 57 87 65 88 58 89 59 90 63 91 66 92 60 93 61 94 64 95 62 96
REMARK H PARENT 23 5 27 30 86 49 54 60
REMARK Flexibility Score: inf
ROOT
ATOM      1  C   UNL A   1      31.627  29.630  25.136  1.00  0.00     0.117 C 
ENDROOT
BRANCH   1   2
ATOM      2  N   UNL A   1      30.571  30.118  24.277  1.00  0.00    -0.354 N 
ATOM      3  C   UNL A   1      29.959  29.513  23.225  1.00  0.00     0.240 C 
ATOM      4  O   UNL A   1      28.881  29.992  22.861  1.00  0.00    -0.273 OA
ATOM      5  H   UNL A   1      30.247  31.024  24.485  1.00  0.00     0.163 HD
BRANCH   3   6
ATOM      6  C   UNL A   1      30.502  28.235  22.583  1.00  0.00     0.227 C 
BRANCH   6   7
ATOM      7  N   UNL A   1      30.658  27.065  23.452  1.00  0.00    -0.283 N 
ATOM      8  C   UNL A   1      34.013  23.813  25.354  1.00  0.00     0.069 C 
ATOM      9  C   UNL A   1      33.275  24.862  24.603  1.00  0.00     0.069 A 
ATOM     10  N   UNL A   1      33.980  25.584  23.726  1.00  0.00    -0.175 NA
ATOM     11  C   UNL A   1      31.926  25.285  24.616  1.00  0.00     0.053 A 
ATOM     12  N   UNL A   1      33.106  26.459  23.186  1.00  0.00    -0.243 N 
ATOM     13  C   UNL A   1      31.840  26.344  23.719  1.00  0.00     0.142 A 
ATOM     14  C   UNL A   1      30.744  24.876  25.306  1.00  0.00     0.074 A 
ATOM     15  C   UNL A   1      29.576  25.470  25.021  1.00  0.00     0.085 A 
ATOM     16  C   UNL A   1      29.474  26.579  24.035  1.00  0.00     0.253 A 
ATOM     17  O   UNL A   1      28.358  27.034  23.825  1.00  0.00    -0.269 OA
BRANCH  12  18
ATOM     18  C   UNL A   1      33.654  27.331  22.176  1.00  0.00     0.219 C 
BRANCH  18  19
ATOM     19  C   UNL A   1      34.285  28.575  22.746  1.00  0.00     0.363 C 
ATOM     20  F   UNL A   1      33.500  29.663  22.552  1.00  0.00    -0.208 F 
ATOM     21  F   UNL A   1      34.403  28.435  24.094  1.00  0.00    -0.208 F 
ENDBRANCH  18  19
ENDBRANCH  12  18
BRANCH  14  22
ATOM     22  C   UNL A   1      30.834  23.805  26.342  1.00  0.00     0.417 C 
ATOM     23  F   UNL A   1      29.669  23.636  27.016  1.00  0.00    -0.166 F 
ATOM     24  F   UNL A   1      31.178  22.605  25.809  1.00  0.00    -0.166 F 
ATOM     25  F   UNL A   1      31.778  24.077  27.284  1.00  0.00    -0.166 F 
ENDBRANCH  14  22
ENDBRANCH   6   7
ENDBRANCH   3   6
ENDBRANCH   1   2
BRANCH   1  26
ATOM     26  C   UNL A   1      31.961  30.597  26.268  1.00  0.00     0.042 C 
BRANCH  26  27
ATOM     27  C   UNL A   1      33.332  30.354  26.903  1.00  0.00     0.118 C 
BRANCH  27  28
ATOM     28  N   UNL A   1      33.713  31.338  27.898  1.00  0.00    -0.352 N 
ATOM     29  C   UNL A   1      34.864  31.675  28.550  1.00  0.00     0.251 C 
ATOM     30  H   UNL A   1      32.953  31.902  28.171  1.00  0.00     0.163 HD
ATOM     31  O   UNL A   1      34.801  32.679  29.265  1.00  0.00    -0.269 OA
BRANCH  29  32
ATOM     32  C   UNL A   1      36.132  30.901  28.524  1.00  0.00     0.039 A 
ATOM     33  C   UNL A   1      36.257  29.553  28.195  1.00  0.00     0.014 A 
ATOM     34  C   UNL A   1      37.281  31.600  28.947  1.00  0.00     0.014 A 
ATOM     35  C   UNL A   1      37.462  28.893  28.412  1.00  0.00     0.010 A 
ATOM     36  C   UNL A   1      38.493  30.951  29.142  1.00  0.00     0.010 A 
ATOM     37  C   UNL A   1      38.563  29.581  28.934  1.00  0.00    -0.014 A 
BRANCH  37  38
ATOM     38  C   UNL A   1      39.798  28.832  29.153  1.00  0.00     0.031 A 
ATOM     39  C   UNL A   1      40.172  28.673  30.587  1.00  0.00     0.074 A 
ATOM     40  C   UNL A   1      40.515  28.261  28.162  1.00  0.00     0.049 A 
ATOM     41  N   UNL A   1      41.225  29.121  31.190  1.00  0.00    -0.248 NA
ATOM     42  C   UNL A   1      39.189  28.046  31.486  1.00  0.00     0.031 C 
ATOM     43  C   UNL A   1      40.160  28.105  26.750  1.00  0.00     0.029 A 
ATOM     44  N   UNL A   1      41.719  27.623  28.241  1.00  0.00    -0.354 N 
ATOM     45  C   UNL A   1      41.123  28.696  32.513  1.00  0.00     0.074 A 
ATOM     46  C   UNL A   1      39.798  28.155  32.668  1.00  0.00     0.031 C 
ATOM     47  C   UNL A   1      41.015  27.234  26.163  1.00  0.00     0.029 A 
ATOM     48  C   UNL A   1      42.058  26.888  27.111  1.00  0.00     0.049 A 
ATOM     49  H   UNL A   1      42.300  27.680  29.033  1.00  0.00     0.167 HD
ATOM     50  C   UNL A   1      42.213  28.637  33.327  1.00  0.00     0.037 A 
ATOM     51  C   UNL A   1      43.098  26.023  26.991  1.00  0.00     0.037 A 
ATOM     52  C   UNL A   1      43.272  29.483  32.844  1.00  0.00     0.049 A 
ATOM     53  C   UNL A   1      44.080  26.364  28.048  1.00  0.00     0.074 A 
ATOM     54  C   UNL A   1      43.417  30.842  32.647  1.00  0.00     0.029 A 
ATOM     55  N   UNL A   1      44.300  28.900  32.147  1.00  0.00    -0.354 N 
ATOM     56  N   UNL A   1      44.779  27.463  28.066  1.00  0.00    -0.248 NA
ATOM     57  C   UNL A   1      43.958  25.674  29.323  1.00  0.00     0.031 C 
ATOM     58  C   UNL A   1      44.201  30.963  31.462  1.00  0.00     0.029 A 
ATOM     59  C   UNL A   1      44.535  29.674  31.043  1.00  0.00     0.049 A 
ATOM     60  H   UNL A   1      44.780  28.076  32.396  1.00  0.00     0.167 HD
ATOM     61  C   UNL A   1      44.814  27.832  29.402  1.00  0.00     0.074 A 
ATOM     62  C   UNL A   1      44.362  26.652  30.136  1.00  0.00     0.031 C 
ATOM     63  C   UNL A   1      44.937  29.140  29.764  1.00  0.00     0.037 A 
BRANCH  50  64
ATOM     64  C   UNL A   1      42.449  27.549  34.345  1.00  0.00     0.064 A 
ATOM     65  C   UNL A   1      43.024  26.329  33.934  1.00  0.00     0.173 A 
ATOM     66  C   UNL A   1      41.855  27.536  35.626  1.00  0.00     0.173 A 
ATOM     67  F   UNL A   1      43.600  26.216  32.727  1.00  0.00    -0.203 F 
ATOM     68  C   UNL A   1      42.937  25.170  34.711  1.00  0.00     0.198 A 
ATOM     69  C   UNL A   1      41.814  26.392  36.421  1.00  0.00     0.198 A 
ATOM     70  F   UNL A   1      41.191  28.591  36.114  1.00  0.00    -0.203 F 
ATOM     71  F   UNL A   1      43.385  24.005  34.223  1.00  0.00    -0.200 F 
ATOM     72  C   UNL A   1      42.325  25.201  35.950  1.00  0.00     0.200 A 
ATOM     73  F   UNL A   1      41.198  26.439  37.610  1.00  0.00    -0.200 F 
ATOM     74  F   UNL A   1      42.182  24.080  36.669  1.00  0.00    -0.200 F 
ENDBRANCH  50  64
BRANCH  51  75
ATOM     75  C   UNL A   1      43.140  24.716  26.286  1.00  0.00     0.064 A 
ATOM     76  C   UNL A   1      44.057  24.485  25.244  1.00  0.00     0.173 A 
ATOM     77  C   UNL A   1      42.511  23.576  26.824  1.00  0.00     0.173 A 
ATOM     78  F   UNL A   1      44.733  25.509  24.702  1.00  0.00    -0.203 F 
ATOM     79  C   UNL A   1      44.357  23.193  24.800  1.00  0.00     0.198 A 
ATOM     80  C   UNL A   1      42.808  22.288  26.376  1.00  0.00     0.198 A 
ATOM     81  F   UNL A   1      41.675  23.682  27.867  1.00  0.00    -0.203 F 
ATOM     82  F   UNL A   1      45.292  23.009  23.856  1.00  0.00    -0.200 F 
ATOM     83  C   UNL A   1      43.743  22.094  25.376  1.00  0.00     0.200 A 
ATOM     84  F   UNL A   1      42.235  21.230  26.969  1.00  0.00    -0.200 F 
ATOM     85  F   UNL A   1      44.082  20.852  25.003  1.00  0.00    -0.200 F 
ENDBRANCH  51  75
BRANCH  63  86
ATOM     86  C   UNL A   1      45.286  30.136  28.695  1.00  0.00     0.064 A 
ATOM     87  C   UNL A   1      44.342  30.745  27.849  1.00  0.00     0.173 A 
ATOM     88  C   UNL A   1      46.603  30.608  28.635  1.00  0.00     0.173 A 
ATOM     89  F   UNL A   1      43.045  30.417  27.911  1.00  0.00    -0.203 F 
ATOM     90  C   UNL A   1      44.711  31.758  26.964  1.00  0.00     0.198 A 
ATOM     91  C   UNL A   1      46.962  31.644  27.777  1.00  0.00     0.198 A 
ATOM     92  F   UNL A   1      47.536  30.100  29.456  1.00  0.00    -0.203 F 
ATOM     93  F   UNL A   1      43.792  32.324  26.167  1.00  0.00    -0.200 F 
ATOM     94  C   UNL A   1      46.019  32.214  26.937  1.00  0.00     0.200 A 
ATOM     95  F   UNL A   1      48.216  32.115  27.792  1.00  0.00    -0.200 F 
ATOM     96  F   UNL A   1      46.364  33.223  26.126  1.00  0.00    -0.200 F 
ENDBRANCH  63  86
ENDBRANCH  37  38
ENDBRANCH  29  32
ENDBRANCH  27  28
ENDBRANCH  26  27
ENDBRANCH   1  26
TORSDOF 14
ENDMDL
