MODEL 1
REMARK VINA RESULT:     -14.4      0.000      0.000
REMARK SMILES CC1(C)[C@H](O)CC[C@@]2(C)[C@@H]1CC[C@@]1(C)Oc3oc(C(=O)NCCCNC(=O)c4ccc(-c5c6nc(c(-c7c(F)c(F)c(F)c(F)c7F)c7ccc([nH]7)c(-c7c(F)c(F)c(F)c(F)c7F)c7nc(c(-c8c(F)c(F)c(F)c(F)c8F)c8ccc5[nH]8)C=C7)C=C6)cc4)cc(=O)c3C[C@@H]21
REMARK SMILES IDX 23 1 22 2 21 3 19 4 20 5 18 7 1 8 2 9 4 10 10 11 3 12 6 13
REMARK SMILES IDX 8 14 11 15 7 16 96 17 9 18 12 19 13 20 95 21 15 22 14 23
REMARK SMILES IDX 94 24 16 25 92 26 17 27 91 28 93 29 5 30 24 32 25 33 26 34
REMARK SMILES IDX 27 36 28 37 29 38 90 39 30 40 89 41 31 42 32 43 33 44 83 45
REMARK SMILES IDX 34 46 88 47 82 48 84 49 35 50 87 51 81 52 80 53 36 55 68 56
REMARK SMILES IDX 48 57 67 58 49 59 52 60 66 61 85 62 50 63 51 64 65 66 86 67
REMARK SMILES IDX 53 68 37 69 38 70 46 71 39 72 40 73 44 74 47 75 41 76 42 77
REMARK SMILES IDX 45 78 43 79 69 80 70 81 78 82 71 83 72 84 76 85 79 86 73 87
REMARK SMILES IDX 74 88 77 89 75 90 54 91 55 92 63 93 56 94 57 95 61 96 64 97
REMARK SMILES IDX 58 98 59 99 62 100 60 101
REMARK H PARENT 21 6 5 31 25 35 84 54 52 65
REMARK Flexibility Score: inf
ROOT
ATOM      1  C   UNL A   1      31.176  32.056  26.872  1.00  0.00     0.042 C 
ENDROOT
BRANCH   1   2
ATOM      2  C   UNL A   1      30.993  31.432  25.492  1.00  0.00     0.118 C 
BRANCH   2   3
ATOM      3  N   UNL A   1      29.784  31.886  24.777  1.00  0.00    -0.349 N 
ATOM      4  C   UNL A   1      29.048  31.338  23.735  1.00  0.00     0.287 C 
ATOM      5  O   UNL A   1      28.106  31.975  23.275  1.00  0.00    -0.266 OA
ATOM      6  H   UNL A   1      29.430  32.745  25.103  1.00  0.00     0.163 HD
BRANCH   4   7
ATOM      7  C   UNL A   1      29.396  29.981  23.208  1.00  0.00     0.199 A 
ATOM      8  C   UNL A   1      34.354  21.424  24.676  1.00  0.00     0.014 C 
ATOM      9  C   UNL A   1      33.032  21.980  24.091  1.00  0.00    -0.006 C 
ATOM     10  C   UNL A   1      32.089  22.096  25.412  1.00  0.00     0.120 C 
ATOM     11  C   UNL A   1      33.282  23.530  23.305  1.00  0.00     0.004 C 
ATOM     12  C   UNL A   1      32.441  20.874  23.184  1.00  0.00     0.014 C 
ATOM     13  C   UNL A   1      30.769  22.726  25.108  1.00  0.00     0.033 C 
ATOM     14  C   UNL A   1      32.345  24.513  24.047  1.00  0.00    -0.022 C 
ATOM     15  C   UNL A   1      33.134  23.806  21.750  1.00  0.00     0.009 C 
ATOM     16  C   UNL A   1      30.990  23.659  23.982  1.00  0.00     0.010 C 
ATOM     17  C   UNL A   1      32.066  25.954  23.518  1.00  0.00     0.044 C 
ATOM     18  C   UNL A   1      33.151  24.838  25.348  1.00  0.00     0.012 C 
ATOM     19  C   UNL A   1      32.704  25.298  21.247  1.00  0.00     0.049 C 
ATOM     20  C   UNL A   1      32.793  26.465  22.292  1.00  0.00     0.113 C 
ATOM     21  C   UNL A   1      30.568  26.088  23.294  1.00  0.00     0.055 C 
ATOM     22  O   UNL A   1      32.239  27.834  21.943  1.00  0.00    -0.458 OA
ATOM     23  C   UNL A   1      34.291  26.763  22.503  1.00  0.00     0.057 C 
ATOM     24  C   UNL A   1      30.141  27.417  22.963  1.00  0.00     0.081 A 
ATOM     25  C   UNL A   1      31.002  28.297  22.485  1.00  0.00     0.292 A 
ATOM     26  C   UNL A   1      28.758  27.718  23.333  1.00  0.00     0.192 A 
ATOM     27  O   UNL A   1      30.664  29.674  22.625  1.00  0.00    -0.420 OA
ATOM     28  C   UNL A   1      28.386  29.112  23.295  1.00  0.00     0.105 A 
ATOM     29  O   UNL A   1      27.972  26.879  23.746  1.00  0.00    -0.289 OA
BRANCH  10  30
ATOM     30  O   UNL A   1      31.826  20.881  26.106  1.00  0.00    -0.393 OA
ATOM     31  H   UNL A   1      31.486  21.082  26.991  1.00  0.00     0.210 HD
ENDBRANCH  10  30
ENDBRANCH   4   7
ENDBRANCH   2   3
ENDBRANCH   1   2
BRANCH   1  32
ATOM     32  C   UNL A   1      32.474  32.828  27.065  1.00  0.00     0.118 C 
BRANCH  32  33
ATOM     33  N   UNL A   1      32.279  34.197  27.528  1.00  0.00    -0.352 N 
ATOM     34  C   UNL A   1      32.962  34.904  28.494  1.00  0.00     0.251 C 
ATOM     35  H   UNL A   1      31.552  34.690  27.084  1.00  0.00     0.163 HD
ATOM     36  O   UNL A   1      32.587  36.025  28.821  1.00  0.00    -0.269 OA
BRANCH  34  37
ATOM     37  C   UNL A   1      34.133  34.300  29.168  1.00  0.00     0.039 A 
ATOM     38  C   UNL A   1      33.923  33.462  30.267  1.00  0.00     0.014 A 
ATOM     39  C   UNL A   1      35.430  34.554  28.716  1.00  0.00     0.014 A 
ATOM     40  C   UNL A   1      35.010  32.816  30.862  1.00  0.00     0.010 A 
ATOM     41  C   UNL A   1      36.502  33.853  29.259  1.00  0.00     0.010 A 
ATOM     42  C   UNL A   1      36.302  32.981  30.341  1.00  0.00    -0.014 A 
BRANCH  42  43
ATOM     43  C   UNL A   1      37.468  32.285  30.939  1.00  0.00     0.031 A 
ATOM     44  C   UNL A   1      37.954  32.687  32.301  1.00  0.00     0.074 A 
ATOM     45  C   UNL A   1      38.114  31.329  30.243  1.00  0.00     0.049 A 
ATOM     46  N   UNL A   1      38.976  32.235  32.982  1.00  0.00    -0.248 NA
ATOM     47  C   UNL A   1      37.201  33.751  32.983  1.00  0.00     0.031 C 
ATOM     48  C   UNL A   1      37.752  30.871  28.902  1.00  0.00     0.029 A 
ATOM     49  N   UNL A   1      39.215  30.575  30.567  1.00  0.00    -0.354 N 
ATOM     50  C   UNL A   1      38.983  32.955  34.169  1.00  0.00     0.074 A 
ATOM     51  C   UNL A   1      37.909  33.919  34.089  1.00  0.00     0.031 C 
ATOM     52  C   UNL A   1      38.601  29.900  28.527  1.00  0.00     0.029 A 
ATOM     53  C   UNL A   1      39.586  29.690  29.585  1.00  0.00     0.049 A 
ATOM     54  H   UNL A   1      39.693  30.663  31.423  1.00  0.00     0.167 HD
ATOM     55  C   UNL A   1      39.792  32.801  35.243  1.00  0.00     0.037 A 
ATOM     56  C   UNL A   1      40.606  28.810  29.545  1.00  0.00     0.037 A 
ATOM     57  C   UNL A   1      40.856  31.836  35.322  1.00  0.00     0.049 A 
ATOM     58  C   UNL A   1      41.529  28.699  30.730  1.00  0.00     0.074 A 
ATOM     59  C   UNL A   1      41.709  31.580  36.380  1.00  0.00     0.029 A 
ATOM     60  N   UNL A   1      41.215  30.972  34.298  1.00  0.00    -0.354 N 
ATOM     61  N   UNL A   1      41.490  29.341  31.872  1.00  0.00    -0.248 NA
ATOM     62  C   UNL A   1      42.635  27.737  30.622  1.00  0.00     0.031 C 
ATOM     63  C   UNL A   1      42.619  30.600  35.978  1.00  0.00     0.029 A 
ATOM     64  C   UNL A   1      42.298  30.201  34.690  1.00  0.00     0.049 A 
ATOM     65  H   UNL A   1      40.768  30.914  33.423  1.00  0.00     0.167 HD
ATOM     66  C   UNL A   1      42.544  28.846  32.627  1.00  0.00     0.074 A 
ATOM     67  C   UNL A   1      43.198  27.837  31.819  1.00  0.00     0.031 C 
ATOM     68  C   UNL A   1      42.936  29.196  33.877  1.00  0.00     0.037 A 
BRANCH  55  69
ATOM     69  C   UNL A   1      39.549  33.688  36.429  1.00  0.00     0.064 A 
ATOM     70  C   UNL A   1      38.750  33.267  37.505  1.00  0.00     0.173 A 
ATOM     71  C   UNL A   1      40.158  34.948  36.518  1.00  0.00     0.173 A 
ATOM     72  F   UNL A   1      38.133  32.076  37.463  1.00  0.00    -0.203 F 
ATOM     73  C   UNL A   1      38.555  34.084  38.614  1.00  0.00     0.198 A 
ATOM     74  C   UNL A   1      39.985  35.748  37.644  1.00  0.00     0.198 A 
ATOM     75  F   UNL A   1      40.933  35.397  35.520  1.00  0.00    -0.203 F 
ATOM     76  F   UNL A   1      37.753  33.679  39.608  1.00  0.00    -0.200 F 
ATOM     77  C   UNL A   1      39.180  35.319  38.688  1.00  0.00     0.200 A 
ATOM     78  F   UNL A   1      40.603  36.935  37.721  1.00  0.00    -0.200 F 
ATOM     79  F   UNL A   1      39.003  36.097  39.764  1.00  0.00    -0.200 F 
ENDBRANCH  55  69
BRANCH  56  80
ATOM     80  C   UNL A   1      40.781  27.937  28.354  1.00  0.00     0.064 A 
ATOM     81  C   UNL A   1      40.184  26.669  28.301  1.00  0.00     0.173 A 
ATOM     82  C   UNL A   1      41.526  28.353  27.242  1.00  0.00     0.173 A 
ATOM     83  F   UNL A   1      39.480  26.218  29.350  1.00  0.00    -0.203 F 
ATOM     84  C   UNL A   1      40.333  25.848  27.186  1.00  0.00     0.198 A 
ATOM     85  C   UNL A   1      41.651  27.543  26.114  1.00  0.00     0.198 A 
ATOM     86  F   UNL A   1      42.115  29.558  27.240  1.00  0.00    -0.203 F 
ATOM     87  F   UNL A   1      39.780  24.628  27.176  1.00  0.00    -0.200 F 
ATOM     88  C   UNL A   1      41.059  26.289  26.090  1.00  0.00     0.200 A 
ATOM     89  F   UNL A   1      42.341  27.979  25.052  1.00  0.00    -0.200 F 
ATOM     90  F   UNL A   1      41.190  25.506  25.011  1.00  0.00    -0.200 F 
ENDBRANCH  56  80
BRANCH  68  91
ATOM     91  C   UNL A   1      44.116  28.480  34.469  1.00  0.00     0.064 A 
ATOM     92  C   UNL A   1      45.409  29.015  34.397  1.00  0.00     0.173 A 
ATOM     93  C   UNL A   1      43.936  27.289  35.190  1.00  0.00     0.173 A 
ATOM     94  F   UNL A   1      45.636  30.145  33.710  1.00  0.00    -0.203 F 
ATOM     95  C   UNL A   1      46.483  28.379  35.017  1.00  0.00     0.198 A 
ATOM     96  C   UNL A   1      45.005  26.673  35.835  1.00  0.00     0.198 A 
ATOM     97  F   UNL A   1      42.718  26.739  35.296  1.00  0.00    -0.203 F 
ATOM     98  F   UNL A   1      47.716  28.892  34.909  1.00  0.00    -0.200 F 
ATOM     99  C   UNL A   1      46.278  27.216  35.744  1.00  0.00     0.200 A 
ATOM    100  F   UNL A   1      44.801  25.561  36.554  1.00  0.00    -0.200 F 
ATOM    101  F   UNL A   1      47.307  26.619  36.360  1.00  0.00    -0.200 F 
ENDBRANCH  68  91
ENDBRANCH  42  43
ENDBRANCH  34  37
ENDBRANCH  32  33
ENDBRANCH   1  32
TORSDOF 11
ENDMDL
MODEL 2
REMARK VINA RESULT:     -14.3      0.301      7.228
REMARK SMILES CC1(C)[C@H](O)CC[C@@]2(C)[C@@H]1CC[C@@]1(C)Oc3oc(C(=O)NCCCNC(=O)c4ccc(-c5c6nc(c(-c7c(F)c(F)c(F)c(F)c7F)c7ccc([nH]7)c(-c7c(F)c(F)c(F)c(F)c7F)c7nc(c(-c8c(F)c(F)c(F)c(F)c8F)c8ccc5[nH]8)C=C7)C=C6)cc4)cc(=O)c3C[C@@H]21
REMARK SMILES IDX 23 1 22 2 21 3 19 4 20 5 18 7 1 8 2 9 4 10 10 11 3 12 6 13
REMARK SMILES IDX 8 14 11 15 7 16 96 17 9 18 12 19 13 20 95 21 15 22 14 23
REMARK SMILES IDX 94 24 16 25 92 26 17 27 91 28 93 29 5 30 24 32 25 33 26 34
REMARK SMILES IDX 27 36 28 37 29 38 90 39 30 40 89 41 31 42 32 43 33 44 83 45
REMARK SMILES IDX 34 46 88 47 82 48 84 49 35 50 87 51 81 52 80 53 36 55 68 56
REMARK SMILES IDX 48 57 67 58 49 59 52 60 66 61 85 62 50 63 51 64 65 66 86 67
REMARK SMILES IDX 53 68 37 69 38 70 46 71 39 72 40 73 44 74 47 75 41 76 42 77
REMARK SMILES IDX 45 78 43 79 69 80 70 81 78 82 71 83 72 84 76 85 79 86 73 87
REMARK SMILES IDX 74 88 77 89 75 90 54 91 55 92 63 93 56 94 57 95 61 96 64 97
REMARK SMILES IDX 58 98 59 99 62 100 60 101
REMARK H PARENT 21 6 5 31 25 35 84 54 52 65
REMARK Flexibility Score: inf
ROOT
ATOM      1  C   UNL A   1      31.020  31.964  26.660  1.00  0.00     0.042 C 
ENDROOT
BRANCH   1   2
ATOM      2  C   UNL A   1      30.871  31.249  25.321  1.00  0.00     0.118 C 
BRANCH   2   3
ATOM      3  N   UNL A   1      29.677  31.649  24.551  1.00  0.00    -0.349 N 
ATOM      4  C   UNL A   1      28.968  31.031  23.529  1.00  0.00     0.287 C 
ATOM      5  O   UNL A   1      28.035  31.632  23.007  1.00  0.00    -0.266 OA
ATOM      6  H   UNL A   1      29.312  32.525  24.812  1.00  0.00     0.163 HD
BRANCH   4   7
ATOM      7  C   UNL A   1      29.334  29.645  23.098  1.00  0.00     0.199 A 
ATOM      8  C   UNL A   1      34.708  21.422  24.959  1.00  0.00     0.014 C 
ATOM      9  C   UNL A   1      33.330  21.879  24.420  1.00  0.00    -0.006 C 
ATOM     10  C   UNL A   1      32.471  22.081  25.787  1.00  0.00     0.120 C 
ATOM     11  C   UNL A   1      33.467  23.361  23.488  1.00  0.00     0.004 C 
ATOM     12  C   UNL A   1      32.725  20.678  23.655  1.00  0.00     0.014 C 
ATOM     13  C   UNL A   1      31.110  22.637  25.521  1.00  0.00     0.033 C 
ATOM     14  C   UNL A   1      32.543  24.375  24.204  1.00  0.00    -0.022 C 
ATOM     15  C   UNL A   1      33.207  23.492  21.928  1.00  0.00     0.009 C 
ATOM     16  C   UNL A   1      31.221  23.473  24.306  1.00  0.00     0.010 C 
ATOM     17  C   UNL A   1      32.174  25.752  23.573  1.00  0.00     0.044 C 
ATOM     18  C   UNL A   1      33.418  24.841  25.414  1.00  0.00     0.012 C 
ATOM     19  C   UNL A   1      32.688  24.918  21.329  1.00  0.00     0.049 C 
ATOM     20  C   UNL A   1      32.799  26.177  22.260  1.00  0.00     0.113 C 
ATOM     21  C   UNL A   1      30.660  25.816  23.441  1.00  0.00     0.055 C 
ATOM     22  O   UNL A   1      32.171  27.490  21.833  1.00  0.00    -0.458 OA
ATOM     23  C   UNL A   1      34.294  26.542  22.343  1.00  0.00     0.057 C 
ATOM     24  C   UNL A   1      30.161  27.096  23.026  1.00  0.00     0.081 A 
ATOM     25  C   UNL A   1      30.954  27.958  22.416  1.00  0.00     0.292 A 
ATOM     26  C   UNL A   1      28.794  27.382  23.462  1.00  0.00     0.192 A 
ATOM     27  O   UNL A   1      30.572  29.330  22.460  1.00  0.00    -0.420 OA
ATOM     28  C   UNL A   1      28.366  28.754  23.330  1.00  0.00     0.105 A 
ATOM     29  O   UNL A   1      28.070  26.558  23.999  1.00  0.00    -0.289 OA
BRANCH  10  30
ATOM     30  O   UNL A   1      32.301  20.924  26.600  1.00  0.00    -0.393 OA
ATOM     31  H   UNL A   1      31.999  21.191  27.482  1.00  0.00     0.210 HD
ENDBRANCH  10  30
ENDBRANCH   4   7
ENDBRANCH   2   3
ENDBRANCH   1   2
BRANCH   1  32
ATOM     32  C   UNL A   1      32.365  32.641  26.885  1.00  0.00     0.118 C 
BRANCH  32  33
ATOM     33  N   UNL A   1      32.259  33.999  27.403  1.00  0.00    -0.352 N 
ATOM     34  C   UNL A   1      33.021  34.638  28.357  1.00  0.00     0.251 C 
ATOM     35  H   UNL A   1      31.536  34.541  27.013  1.00  0.00     0.163 HD
ATOM     36  O   UNL A   1      32.717  35.763  28.740  1.00  0.00    -0.269 OA
BRANCH  34  37
ATOM     37  C   UNL A   1      34.192  33.956  28.951  1.00  0.00     0.039 A 
ATOM     38  C   UNL A   1      35.469  34.473  28.712  1.00  0.00     0.014 A 
ATOM     39  C   UNL A   1      34.033  32.819  29.746  1.00  0.00     0.014 A 
ATOM     40  C   UNL A   1      36.578  33.894  29.334  1.00  0.00     0.010 A 
ATOM     41  C   UNL A   1      35.126  32.289  30.425  1.00  0.00     0.010 A 
ATOM     42  C   UNL A   1      36.410  32.820  30.221  1.00  0.00    -0.014 A 
BRANCH  42  43
ATOM     43  C   UNL A   1      37.568  32.205  30.914  1.00  0.00     0.031 A 
ATOM     44  C   UNL A   1      38.344  31.112  30.239  1.00  0.00     0.074 A 
ATOM     45  C   UNL A   1      37.894  32.595  32.162  1.00  0.00     0.049 A 
ATOM     46  N   UNL A   1      39.359  30.418  30.686  1.00  0.00    -0.248 NA
ATOM     47  C   UNL A   1      37.910  30.736  28.884  1.00  0.00     0.031 C 
ATOM     48  C   UNL A   1      37.200  33.628  32.931  1.00  0.00     0.029 A 
ATOM     49  N   UNL A   1      38.889  32.164  33.004  1.00  0.00    -0.354 N 
ATOM     50  C   UNL A   1      39.685  29.532  29.669  1.00  0.00     0.074 A 
ATOM     51  C   UNL A   1      38.720  29.725  28.609  1.00  0.00     0.031 C 
ATOM     52  C   UNL A   1      37.804  33.766  34.123  1.00  0.00     0.029 A 
ATOM     53  C   UNL A   1      38.905  32.811  34.216  1.00  0.00     0.049 A 
ATOM     54  H   UNL A   1      39.530  31.457  32.762  1.00  0.00     0.167 HD
ATOM     55  C   UNL A   1      40.718  28.659  29.610  1.00  0.00     0.037 A 
ATOM     56  C   UNL A   1      39.717  32.649  35.279  1.00  0.00     0.037 A 
ATOM     57  C   UNL A   1      41.680  28.474  30.663  1.00  0.00     0.049 A 
ATOM     58  C   UNL A   1      40.823  31.628  35.212  1.00  0.00     0.074 A 
ATOM     59  C   UNL A   1      42.782  27.638  30.685  1.00  0.00     0.029 A 
ATOM     60  N   UNL A   1      41.650  29.131  31.885  1.00  0.00    -0.354 N 
ATOM     61  N   UNL A   1      41.161  30.838  34.222  1.00  0.00    -0.248 NA
ATOM     62  C   UNL A   1      41.664  31.481  36.409  1.00  0.00     0.031 C 
ATOM     63  C   UNL A   1      43.388  27.748  31.939  1.00  0.00     0.029 A 
ATOM     64  C   UNL A   1      42.699  28.697  32.678  1.00  0.00     0.049 A 
ATOM     65  H   UNL A   1      40.983  29.806  32.148  1.00  0.00     0.167 HD
ATOM     66  C   UNL A   1      42.265  30.121  34.663  1.00  0.00     0.074 A 
ATOM     67  C   UNL A   1      42.550  30.580  36.006  1.00  0.00     0.031 C 
ATOM     68  C   UNL A   1      42.976  29.166  34.013  1.00  0.00     0.037 A 
BRANCH  55  69
ATOM     69  C   UNL A   1      40.870  27.846  28.358  1.00  0.00     0.064 A 
ATOM     70  C   UNL A   1      41.644  28.304  27.279  1.00  0.00     0.173 A 
ATOM     71  C   UNL A   1      40.283  26.577  28.252  1.00  0.00     0.173 A 
ATOM     72  F   UNL A   1      42.217  29.517  27.325  1.00  0.00    -0.203 F 
ATOM     73  C   UNL A   1      41.805  27.530  26.134  1.00  0.00     0.198 A 
ATOM     74  C   UNL A   1      40.473  25.793  27.117  1.00  0.00     0.198 A 
ATOM     75  F   UNL A   1      39.536  26.090  29.254  1.00  0.00    -0.203 F 
ATOM     76  F   UNL A   1      42.512  28.007  25.100  1.00  0.00    -0.200 F 
ATOM     77  C   UNL A   1      41.228  26.271  26.057  1.00  0.00     0.200 A 
ATOM     78  F   UNL A   1      39.927  24.571  27.050  1.00  0.00    -0.200 F 
ATOM     79  F   UNL A   1      41.398  25.521  24.960  1.00  0.00    -0.200 F 
ENDBRANCH  55  69
BRANCH  56  80
ATOM     80  C   UNL A   1      39.536  33.502  36.483  1.00  0.00     0.064 A 
ATOM     81  C   UNL A   1      40.184  34.741  36.586  1.00  0.00     0.173 A 
ATOM     82  C   UNL A   1      38.702  33.113  37.541  1.00  0.00     0.173 A 
ATOM     83  F   UNL A   1      41.009  35.147  35.610  1.00  0.00    -0.203 F 
ATOM     84  C   UNL A   1      40.012  35.553  37.705  1.00  0.00     0.198 A 
ATOM     85  C   UNL A   1      38.508  33.939  38.647  1.00  0.00     0.198 A 
ATOM     86  F   UNL A   1      38.056  31.939  37.491  1.00  0.00    -0.203 F 
ATOM     87  F   UNL A   1      40.670  36.718  37.793  1.00  0.00    -0.200 F 
ATOM     88  C   UNL A   1      39.167  35.156  38.730  1.00  0.00     0.200 A 
ATOM     89  F   UNL A   1      37.680  33.557  39.628  1.00  0.00    -0.200 F 
ATOM     90  F   UNL A   1      38.991  35.944  39.800  1.00  0.00    -0.200 F 
ENDBRANCH  56  80
BRANCH  68  91
ATOM     91  C   UNL A   1      44.148  28.557  34.729  1.00  0.00     0.064 A 
ATOM     92  C   UNL A   1      44.023  27.366  35.456  1.00  0.00     0.173 A 
ATOM     93  C   UNL A   1      45.426  29.125  34.610  1.00  0.00     0.173 A 
ATOM     94  F   UNL A   1      42.821  26.790  35.608  1.00  0.00    -0.203 F 
ATOM     95  C   UNL A   1      45.134  26.770  36.050  1.00  0.00     0.198 A 
ATOM     96  C   UNL A   1      46.538  28.510  35.177  1.00  0.00     0.198 A 
ATOM     97  F   UNL A   1      45.601  30.260  33.918  1.00  0.00    -0.203 F 
ATOM     98  F   UNL A   1      44.986  25.648  36.768  1.00  0.00    -0.200 F 
ATOM     99  C   UNL A   1      46.391  27.336  35.900  1.00  0.00     0.200 A 
ATOM    100  F   UNL A   1      47.756  29.047  35.014  1.00  0.00    -0.200 F 
ATOM    101  F   UNL A   1      47.462  26.749  36.452  1.00  0.00    -0.200 F 
ENDBRANCH  68  91
ENDBRANCH  42  43
ENDBRANCH  34  37
ENDBRANCH  32  33
ENDBRANCH   1  32
TORSDOF 11
ENDMDL
MODEL 3
REMARK VINA RESULT:     -14.3      6.377     11.986
REMARK SMILES CC1(C)[C@H](O)CC[C@@]2(C)[C@@H]1CC[C@@]1(C)Oc3oc(C(=O)NCCCNC(=O)c4ccc(-c5c6nc(c(-c7c(F)c(F)c(F)c(F)c7F)c7ccc([nH]7)c(-c7c(F)c(F)c(F)c(F)c7F)c7nc(c(-c8c(F)c(F)c(F)c(F)c8F)c8ccc5[nH]8)C=C7)C=C6)cc4)cc(=O)c3C[C@@H]21
REMARK SMILES IDX 23 1 22 2 21 3 19 4 20 5 18 7 1 8 2 9 4 10 10 11 3 12 6 13
REMARK SMILES IDX 8 14 11 15 7 16 96 17 9 18 12 19 13 20 95 21 15 22 14 23
REMARK SMILES IDX 94 24 16 25 92 26 17 27 91 28 93 29 5 30 24 32 25 33 26 34
REMARK SMILES IDX 27 36 28 37 29 38 90 39 30 40 89 41 31 42 32 43 33 44 83 45
REMARK SMILES IDX 34 46 88 47 82 48 84 49 35 50 87 51 81 52 80 53 36 55 68 56
REMARK SMILES IDX 48 57 67 58 49 59 52 60 66 61 85 62 50 63 51 64 65 66 86 67
REMARK SMILES IDX 53 68 37 69 38 70 46 71 39 72 40 73 44 74 47 75 41 76 42 77
REMARK SMILES IDX 45 78 43 79 69 80 70 81 78 82 71 83 72 84 76 85 79 86 73 87
REMARK SMILES IDX 74 88 77 89 75 90 54 91 55 92 63 93 56 94 57 95 61 96 64 97
REMARK SMILES IDX 58 98 59 99 62 100 60 101
REMARK H PARENT 21 6 5 31 25 35 84 54 52 65
REMARK Flexibility Score: inf
ROOT
ATOM      1  C   UNL A   1      41.974  19.418  25.855  1.00  0.00     0.042 C 
ENDROOT
BRANCH   1   2
ATOM      2  C   UNL A   1      41.131  19.493  27.124  1.00  0.00     0.118 C 
BRANCH   2   3
ATOM      3  N   UNL A   1      41.489  20.607  28.025  1.00  0.00    -0.349 N 
ATOM      4  C   UNL A   1      41.129  21.947  28.049  1.00  0.00     0.287 C 
ATOM      5  O   UNL A   1      41.641  22.684  28.885  1.00  0.00    -0.266 OA
ATOM      6  H   UNL A   1      42.104  20.348  28.749  1.00  0.00     0.163 HD
BRANCH   4   7
ATOM      7  C   UNL A   1      40.114  22.465  27.079  1.00  0.00     0.199 A 
ATOM      8  C   UNL A   1      30.444  24.059  25.099  1.00  0.00     0.014 C 
ATOM      9  C   UNL A   1      31.847  24.686  24.900  1.00  0.00    -0.006 C 
ATOM     10  C   UNL A   1      32.076  25.478  26.303  1.00  0.00     0.120 C 
ATOM     11  C   UNL A   1      33.064  23.452  24.618  1.00  0.00     0.004 C 
ATOM     12  C   UNL A   1      31.712  25.742  23.776  1.00  0.00     0.014 C 
ATOM     13  C   UNL A   1      33.438  26.085  26.390  1.00  0.00     0.033 C 
ATOM     14  C   UNL A   1      34.102  23.644  25.750  1.00  0.00    -0.022 C 
ATOM     15  C   UNL A   1      33.863  23.242  23.264  1.00  0.00     0.009 C 
ATOM     16  C   UNL A   1      34.342  25.223  25.597  1.00  0.00     0.010 C 
ATOM     17  C   UNL A   1      35.480  22.916  25.745  1.00  0.00     0.044 C 
ATOM     18  C   UNL A   1      33.414  22.945  26.968  1.00  0.00     0.012 C 
ATOM     19  C   UNL A   1      35.362  22.601  23.319  1.00  0.00     0.049 C 
ATOM     20  C   UNL A   1      35.804  21.912  24.658  1.00  0.00     0.113 C 
ATOM     21  C   UNL A   1      36.570  23.977  25.775  1.00  0.00     0.055 C 
ATOM     22  O   UNL A   1      37.241  21.459  24.837  1.00  0.00    -0.458 OA
ATOM     23  C   UNL A   1      35.029  20.582  24.753  1.00  0.00     0.057 C 
ATOM     24  C   UNL A   1      37.895  23.451  25.940  1.00  0.00     0.081 A 
ATOM     25  C   UNL A   1      38.155  22.188  25.655  1.00  0.00     0.292 A 
ATOM     26  C   UNL A   1      38.839  24.378  26.565  1.00  0.00     0.192 A 
ATOM     27  O   UNL A   1      39.306  21.612  26.267  1.00  0.00    -0.420 OA
ATOM     28  C   UNL A   1      40.081  23.799  27.020  1.00  0.00     0.105 A 
ATOM     29  O   UNL A   1      38.585  25.551  26.792  1.00  0.00    -0.289 OA
BRANCH  10  30
ATOM     30  O   UNL A   1      31.138  26.506  26.605  1.00  0.00    -0.393 OA
ATOM     31  H   UNL A   1      30.264  26.254  26.268  1.00  0.00     0.210 HD
ENDBRANCH  10  30
ENDBRANCH   4   7
ENDBRANCH   2   3
ENDBRANCH   1   2
BRANCH   1  32
ATOM     32  C   UNL A   1      43.400  18.922  26.054  1.00  0.00     0.118 C 
BRANCH  32  33
ATOM     33  N   UNL A   1      44.106  18.650  24.809  1.00  0.00    -0.352 N 
ATOM     34  C   UNL A   1      44.872  19.491  24.031  1.00  0.00     0.251 C 
ATOM     35  H   UNL A   1      44.023  17.729  24.472  1.00  0.00     0.163 HD
ATOM     36  O   UNL A   1      45.310  19.107  22.951  1.00  0.00    -0.269 OA
BRANCH  34  37
ATOM     37  C   UNL A   1      45.144  20.875  24.479  1.00  0.00     0.039 A 
ATOM     38  C   UNL A   1      44.845  21.935  23.619  1.00  0.00     0.014 A 
ATOM     39  C   UNL A   1      45.685  21.127  25.741  1.00  0.00     0.014 A 
ATOM     40  C   UNL A   1      45.015  23.251  24.056  1.00  0.00     0.010 A 
ATOM     41  C   UNL A   1      45.783  22.435  26.205  1.00  0.00     0.010 A 
ATOM     42  C   UNL A   1      45.453  23.509  25.364  1.00  0.00    -0.014 A 
BRANCH  42  43
ATOM     43  C   UNL A   1      45.616  24.898  25.861  1.00  0.00     0.031 A 
ATOM     44  C   UNL A   1      46.965  25.553  25.807  1.00  0.00     0.074 A 
ATOM     45  C   UNL A   1      44.567  25.550  26.400  1.00  0.00     0.049 A 
ATOM     46  N   UNL A   1      47.328  26.738  26.226  1.00  0.00    -0.248 NA
ATOM     47  C   UNL A   1      48.059  24.762  25.218  1.00  0.00     0.031 C 
ATOM     48  C   UNL A   1      43.214  25.009  26.532  1.00  0.00     0.029 A 
ATOM     49  N   UNL A   1      44.478  26.808  26.943  1.00  0.00    -0.354 N 
ATOM     50  C   UNL A   1      48.684  26.835  25.946  1.00  0.00     0.074 A 
ATOM     51  C   UNL A   1      49.096  25.567  25.387  1.00  0.00     0.031 C 
ATOM     52  C   UNL A   1      42.425  25.938  27.097  1.00  0.00     0.029 A 
ATOM     53  C   UNL A   1      43.222  27.124  27.398  1.00  0.00     0.049 A 
ATOM     54  H   UNL A   1      45.244  27.424  27.001  1.00  0.00     0.167 HD
ATOM     55  C   UNL A   1      49.504  27.899  26.110  1.00  0.00     0.037 A 
ATOM     56  C   UNL A   1      42.766  28.246  27.991  1.00  0.00     0.037 A 
ATOM     57  C   UNL A   1      49.090  29.162  26.660  1.00  0.00     0.049 A 
ATOM     58  C   UNL A   1      43.714  29.395  28.216  1.00  0.00     0.074 A 
ATOM     59  C   UNL A   1      49.838  30.312  26.836  1.00  0.00     0.029 A 
ATOM     60  N   UNL A   1      47.814  29.438  27.130  1.00  0.00    -0.354 N 
ATOM     61  N   UNL A   1      44.979  29.500  27.893  1.00  0.00    -0.248 NA
ATOM     62  C   UNL A   1      43.167  30.585  28.885  1.00  0.00     0.031 C 
ATOM     63  C   UNL A   1      49.032  31.266  27.461  1.00  0.00     0.029 A 
ATOM     64  C   UNL A   1      47.763  30.731  27.623  1.00  0.00     0.049 A 
ATOM     65  H   UNL A   1      47.057  28.808  27.116  1.00  0.00     0.167 HD
ATOM     66  C   UNL A   1      45.374  30.770  28.292  1.00  0.00     0.074 A 
ATOM     67  C   UNL A   1      44.209  31.406  28.870  1.00  0.00     0.031 C 
ATOM     68  C   UNL A   1      46.594  31.355  28.190  1.00  0.00     0.037 A 
BRANCH  55  69
ATOM     69  C   UNL A   1      50.933  27.750  25.674  1.00  0.00     0.064 A 
ATOM     70  C   UNL A   1      51.944  27.409  26.588  1.00  0.00     0.173 A 
ATOM     71  C   UNL A   1      51.290  27.897  24.326  1.00  0.00     0.173 A 
ATOM     72  F   UNL A   1      51.657  27.270  27.892  1.00  0.00    -0.203 F 
ATOM     73  C   UNL A   1      53.261  27.243  26.170  1.00  0.00     0.198 A 
ATOM     74  C   UNL A   1      52.603  27.699  23.908  1.00  0.00     0.198 A 
ATOM     75  F   UNL A   1      50.363  28.220  23.412  1.00  0.00    -0.203 F 
ATOM     76  F   UNL A   1      54.215  26.961  27.068  1.00  0.00    -0.200 F 
ATOM     77  C   UNL A   1      53.588  27.378  24.830  1.00  0.00     0.200 A 
ATOM     78  F   UNL A   1      52.915  27.815  22.610  1.00  0.00    -0.200 F 
ATOM     79  F   UNL A   1      54.853  27.202  24.427  1.00  0.00    -0.200 F 
ENDBRANCH  55  69
BRANCH  56  80
ATOM     80  C   UNL A   1      41.334  28.349  28.376  1.00  0.00     0.064 A 
ATOM     81  C   UNL A   1      40.898  27.906  29.633  1.00  0.00     0.173 A 
ATOM     82  C   UNL A   1      40.379  28.905  27.514  1.00  0.00     0.173 A 
ATOM     83  F   UNL A   1      41.770  27.346  30.484  1.00  0.00    -0.203 F 
ATOM     84  C   UNL A   1      39.560  28.007  30.008  1.00  0.00     0.198 A 
ATOM     85  C   UNL A   1      39.046  29.033  27.901  1.00  0.00     0.198 A 
ATOM     86  F   UNL A   1      40.745  29.347  26.301  1.00  0.00    -0.203 F 
ATOM     87  F   UNL A   1      39.164  27.546  31.202  1.00  0.00    -0.200 F 
ATOM     88  C   UNL A   1      38.637  28.579  29.146  1.00  0.00     0.200 A 
ATOM     89  F   UNL A   1      38.161  29.599  27.070  1.00  0.00    -0.200 F 
ATOM     90  F   UNL A   1      37.353  28.690  29.512  1.00  0.00    -0.200 F 
ENDBRANCH  56  80
BRANCH  68  91
ATOM     91  C   UNL A   1      46.740  32.762  28.696  1.00  0.00     0.064 A 
ATOM     92  C   UNL A   1      47.156  33.030  30.007  1.00  0.00     0.173 A 
ATOM     93  C   UNL A   1      46.547  33.851  27.832  1.00  0.00     0.173 A 
ATOM     94  F   UNL A   1      47.342  32.024  30.876  1.00  0.00    -0.203 F 
ATOM     95  C   UNL A   1      47.362  34.338  30.439  1.00  0.00     0.198 A 
ATOM     96  C   UNL A   1      46.786  35.154  28.257  1.00  0.00     0.198 A 
ATOM     97  F   UNL A   1      46.158  33.649  26.564  1.00  0.00    -0.203 F 
ATOM     98  F   UNL A   1      47.728  34.572  31.708  1.00  0.00    -0.200 F 
ATOM     99  C   UNL A   1      47.189  35.397  29.562  1.00  0.00     0.200 A 
ATOM    100  F   UNL A   1      46.638  36.175  27.402  1.00  0.00    -0.200 F 
ATOM    101  F   UNL A   1      47.411  36.653  29.973  1.00  0.00    -0.200 F 
ENDBRANCH  68  91
ENDBRANCH  42  43
ENDBRANCH  34  37
ENDBRANCH  32  33
ENDBRANCH   1  32
TORSDOF 11
ENDMDL
