MODEL 1
REMARK VINA RESULT:     -13.2      0.000      0.000
REMARK SMILES CCc1ccc2c(CC(=O)NCCCNC(=O)c3ccc(-c4c5nc(c(-c6c(F)c(F)c(F)c(F)c6F)c6ccc([nH]6)c(-c6c(F)c(F)c(F)c(F)c6F)c6nc(c(-c7c(F)c(F)c(F)c(F)c7F)c7ccc4[nH]7)C=C6)C=C5)cc3)c(C(=O)c3cc(C)ccn3)[nH]c2c1
REMARK SMILES IDX 12 1 11 2 9 3 10 4 8 6 7 7 3 8 4 9 93 10 5 11 92 12 6 13
REMARK SMILES IDX 91 14 81 15 2 17 1 18 82 19 83 20 84 21 85 22 90 23 86 24
REMARK SMILES IDX 89 25 87 26 88 27 13 28 14 29 15 30 16 31 17 33 18 34 19 35
REMARK SMILES IDX 80 36 20 37 79 38 21 39 22 40 23 41 73 42 24 43 78 44 72 45
REMARK SMILES IDX 74 46 25 47 77 48 71 49 70 50 26 52 58 53 38 54 57 55 39 56
REMARK SMILES IDX 42 57 56 58 75 59 40 60 41 61 55 63 76 64 43 65 27 66 28 67
REMARK SMILES IDX 36 68 29 69 30 70 34 71 37 72 31 73 32 74 35 75 33 76 59 77
REMARK SMILES IDX 60 78 68 79 61 80 62 81 66 82 69 83 63 84 64 85 67 86 65 87
REMARK SMILES IDX 44 88 45 89 53 90 46 91 47 92 51 93 54 94 48 95 49 96 52 97
REMARK SMILES IDX 50 98
REMARK H PARENT 11 5 91 16 15 32 74 51 42 62
REMARK Flexibility Score: inf
ROOT
ATOM      1  C   UNL A   1      33.965  27.539  24.213  1.00  0.00     0.117 C 
ENDROOT
BRANCH   1   2
ATOM      2  N   UNL A   1      33.630  26.608  25.270  1.00  0.00    -0.356 N 
ATOM      3  C   UNL A   1      33.902  25.274  25.380  1.00  0.00     0.224 C 
ATOM      4  O   UNL A   1      33.693  24.759  26.482  1.00  0.00    -0.275 OA
ATOM      5  H   UNL A   1      33.128  26.995  26.023  1.00  0.00     0.163 HD
BRANCH   3   6
ATOM      6  C   UNL A   1      34.555  24.496  24.244  1.00  0.00     0.138 C 
BRANCH   6   7
ATOM      7  C   UNL A   1      33.659  23.510  23.540  1.00  0.00    -0.002 A 
ATOM      8  C   UNL A   1      32.892  19.364  23.981  1.00  0.00    -0.046 A 
ATOM      9  C   UNL A   1      33.723  19.942  24.945  1.00  0.00     0.004 A 
ATOM     10  C   UNL A   1      32.331  20.180  22.981  1.00  0.00     0.030 A 
ATOM     11  C   UNL A   1      34.041  21.306  24.910  1.00  0.00     0.011 A 
ATOM     12  C   UNL A   1      32.658  21.543  22.964  1.00  0.00     0.046 A 
ATOM     13  C   UNL A   1      33.511  22.125  23.893  1.00  0.00     0.004 A 
ATOM     14  N   UNL A   1      32.260  22.539  22.108  1.00  0.00    -0.352 N 
ATOM     15  C   UNL A   1      32.784  23.760  22.481  1.00  0.00     0.093 A 
ATOM     16  H   UNL A   1      31.675  22.401  21.328  1.00  0.00     0.167 HD
BRANCH   8  17
ATOM     17  C   UNL A   1      32.515  17.897  24.010  1.00  0.00     0.032 C 
ATOM     18  C   UNL A   1      33.499  16.942  23.345  1.00  0.00     0.009 C 
ENDBRANCH   8  17
BRANCH  15  19
ATOM     19  C   UNL A   1      32.464  25.036  21.849  1.00  0.00     0.227 C 
ATOM     20  O   UNL A   1      33.063  25.474  20.867  1.00  0.00    -0.285 OA
BRANCH  19  21
ATOM     21  C   UNL A   1      31.404  25.893  22.441  1.00  0.00     0.113 A 
ATOM     22  C   UNL A   1      31.260  27.209  22.009  1.00  0.00     0.036 A 
ATOM     23  N   UNL A   1      30.620  25.315  23.386  1.00  0.00    -0.253 NA
ATOM     24  C   UNL A   1      30.249  27.985  22.577  1.00  0.00    -0.047 A 
ATOM     25  C   UNL A   1      29.627  26.075  23.888  1.00  0.00     0.112 A 
ATOM     26  C   UNL A   1      30.038  29.412  22.168  1.00  0.00     0.044 C 
ATOM     27  C   UNL A   1      29.409  27.396  23.527  1.00  0.00     0.023 A 
ENDBRANCH  19  21
ENDBRANCH  15  19
ENDBRANCH   6   7
ENDBRANCH   3   6
ENDBRANCH   1   2
BRANCH   1  28
ATOM     28  C   UNL A   1      33.477  28.958  24.490  1.00  0.00     0.042 C 
BRANCH  28  29
ATOM     29  C   UNL A   1      32.896  29.166  25.885  1.00  0.00     0.118 C 
BRANCH  29  30
ATOM     30  N   UNL A   1      32.619  30.565  26.182  1.00  0.00    -0.352 N 
ATOM     31  C   UNL A   1      33.231  31.438  27.044  1.00  0.00     0.251 C 
ATOM     32  H   UNL A   1      31.865  30.949  25.677  1.00  0.00     0.163 HD
ATOM     33  O   UNL A   1      32.720  32.536  27.252  1.00  0.00    -0.269 OA
BRANCH  31  34
ATOM     34  C   UNL A   1      34.485  31.079  27.745  1.00  0.00     0.039 A 
ATOM     35  C   UNL A   1      35.478  32.057  27.877  1.00  0.00     0.014 A 
ATOM     36  C   UNL A   1      34.720  29.785  28.216  1.00  0.00     0.014 A 
ATOM     37  C   UNL A   1      36.675  31.757  28.531  1.00  0.00     0.010 A 
ATOM     38  C   UNL A   1      35.888  29.503  28.925  1.00  0.00     0.010 A 
ATOM     39  C   UNL A   1      36.877  30.484  29.087  1.00  0.00    -0.014 A 
BRANCH  39  40
ATOM     40  C   UNL A   1      38.113  30.166  29.847  1.00  0.00     0.031 A 
ATOM     41  C   UNL A   1      39.125  29.210  29.285  1.00  0.00     0.074 A 
ATOM     42  C   UNL A   1      38.283  30.679  31.079  1.00  0.00     0.049 A 
ATOM     43  N   UNL A   1      40.220  28.745  29.835  1.00  0.00    -0.248 NA
ATOM     44  C   UNL A   1      38.857  28.681  27.940  1.00  0.00     0.031 C 
ATOM     45  C   UNL A   1      37.347  31.573  31.757  1.00  0.00     0.029 A 
ATOM     46  N   UNL A   1      39.296  30.503  31.988  1.00  0.00    -0.354 N 
ATOM     47  C   UNL A   1      40.757  27.855  28.915  1.00  0.00     0.074 A 
ATOM     48  C   UNL A   1      39.847  27.813  27.789  1.00  0.00     0.031 C 
ATOM     49  C   UNL A   1      37.828  31.872  32.974  1.00  0.00     0.029 A 
ATOM     50  C   UNL A   1      39.092  31.169  33.172  1.00  0.00     0.049 A 
ATOM     51  H   UNL A   1      40.093  29.953  31.809  1.00  0.00     0.167 HD
ATOM     52  C   UNL A   1      41.912  27.151  28.993  1.00  0.00     0.037 A 
ATOM     53  C   UNL A   1      39.833  31.200  34.295  1.00  0.00     0.037 A 
ATOM     54  C   UNL A   1      42.830  27.218  30.100  1.00  0.00     0.049 A 
ATOM     55  C   UNL A   1      41.126  30.436  34.349  1.00  0.00     0.074 A 
ATOM     56  C   UNL A   1      44.065  26.608  30.235  1.00  0.00     0.029 A 
ATOM     57  N   UNL A   1      42.610  27.937  31.266  1.00  0.00    -0.354 N 
ATOM     58  N   UNL A   1      41.662  29.656  33.443  1.00  0.00    -0.248 NA
ATOM     59  C   UNL A   1      41.922  30.565  35.577  1.00  0.00     0.031 C 
ATOM     60  C   UNL A   1      44.575  26.927  31.500  1.00  0.00     0.029 A 
ATOM     61  C   UNL A   1      43.676  27.768  32.136  1.00  0.00     0.049 A 
ATOM     62  H   UNL A   1      41.814  28.486  31.448  1.00  0.00     0.167 HD
ATOM     63  C   UNL A   1      42.861  29.212  33.982  1.00  0.00     0.074 A 
ATOM     64  C   UNL A   1      42.982  29.823  35.290  1.00  0.00     0.031 C 
ATOM     65  C   UNL A   1      43.778  28.375  33.439  1.00  0.00     0.037 A 
BRANCH  52  66
ATOM     66  C   UNL A   1      42.241  26.241  27.847  1.00  0.00     0.064 A 
ATOM     67  C   UNL A   1      43.120  26.632  26.825  1.00  0.00     0.173 A 
ATOM     68  C   UNL A   1      41.676  24.959  27.772  1.00  0.00     0.173 A 
ATOM     69  F   UNL A   1      43.678  27.852  26.845  1.00  0.00    -0.203 F 
ATOM     70  C   UNL A   1      43.392  25.787  25.751  1.00  0.00     0.198 A 
ATOM     71  C   UNL A   1      41.973  24.106  26.712  1.00  0.00     0.198 A 
ATOM     72  F   UNL A   1      40.835  24.533  28.726  1.00  0.00    -0.203 F 
ATOM     73  F   UNL A   1      44.190  26.204  24.759  1.00  0.00    -0.200 F 
ATOM     74  C   UNL A   1      42.822  24.525  25.698  1.00  0.00     0.200 A 
ATOM     75  F   UNL A   1      41.430  22.882  26.666  1.00  0.00    -0.200 F 
ATOM     76  F   UNL A   1      43.083  23.714  24.663  1.00  0.00    -0.200 F 
ENDBRANCH  52  66
BRANCH  53  77
ATOM     77  C   UNL A   1      39.367  32.007  35.449  1.00  0.00     0.064 A 
ATOM     78  C   UNL A   1      39.704  33.362  35.560  1.00  0.00     0.173 A 
ATOM     79  C   UNL A   1      38.542  31.452  36.437  1.00  0.00     0.173 A 
ATOM     80  F   UNL A   1      40.506  33.930  34.648  1.00  0.00    -0.203 F 
ATOM     81  C   UNL A   1      39.235  34.134  36.621  1.00  0.00     0.198 A 
ATOM     82  C   UNL A   1      38.056  32.230  37.486  1.00  0.00     0.198 A 
ATOM     83  F   UNL A   1      38.187  30.161  36.369  1.00  0.00    -0.203 F 
ATOM     84  F   UNL A   1      39.589  35.423  36.718  1.00  0.00    -0.200 F 
ATOM     85  C   UNL A   1      38.404  33.569  37.578  1.00  0.00     0.200 A 
ATOM     86  F   UNL A   1      37.242  31.685  38.400  1.00  0.00    -0.200 F 
ATOM     87  F   UNL A   1      37.941  34.315  38.590  1.00  0.00    -0.200 F 
ENDBRANCH  53  77
BRANCH  65  88
ATOM     88  C   UNL A   1      44.999  28.075  34.256  1.00  0.00     0.064 A 
ATOM     89  C   UNL A   1      46.139  28.889  34.195  1.00  0.00     0.173 A 
ATOM     90  C   UNL A   1      45.016  26.984  35.139  1.00  0.00     0.173 A 
ATOM     91  F   UNL A   1      46.177  29.933  33.352  1.00  0.00    -0.203 F 
ATOM     92  C   UNL A   1      47.259  28.611  34.973  1.00  0.00     0.198 A 
ATOM     93  C   UNL A   1      46.129  26.724  35.934  1.00  0.00     0.198 A 
ATOM     94  F   UNL A   1      43.949  26.178  35.237  1.00  0.00    -0.203 F 
ATOM     95  F   UNL A   1      48.352  29.380  34.869  1.00  0.00    -0.200 F 
ATOM     96  C   UNL A   1      47.251  27.533  35.847  1.00  0.00     0.200 A 
ATOM     97  F   UNL A   1      46.116  25.688  36.784  1.00  0.00    -0.200 F 
ATOM     98  F   UNL A   1      48.328  27.272  36.599  1.00  0.00    -0.200 F 
ENDBRANCH  65  88
ENDBRANCH  39  40
ENDBRANCH  31  34
ENDBRANCH  29  30
ENDBRANCH  28  29
ENDBRANCH   1  28
TORSDOF 14
ENDMDL
MODEL 2
REMARK VINA RESULT:     -13.2      2.038      3.005
REMARK SMILES CCc1ccc2c(CC(=O)NCCCNC(=O)c3ccc(-c4c5nc(c(-c6c(F)c(F)c(F)c(F)c6F)c6ccc([nH]6)c(-c6c(F)c(F)c(F)c(F)c6F)c6nc(c(-c7c(F)c(F)c(F)c(F)c7F)c7ccc4[nH]7)C=C6)C=C5)cc3)c(C(=O)c3cc(C)ccn3)[nH]c2c1
REMARK SMILES IDX 12 1 11 2 9 3 10 4 8 6 7 7 3 8 4 9 93 10 5 11 92 12 6 13
REMARK SMILES IDX 91 14 81 15 2 17 1 18 82 19 83 20 84 21 85 22 90 23 86 24
REMARK SMILES IDX 89 25 87 26 88 27 13 28 14 29 15 30 16 31 17 33 18 34 19 35
REMARK SMILES IDX 80 36 20 37 79 38 21 39 22 40 23 41 73 42 24 43 78 44 72 45
REMARK SMILES IDX 74 46 25 47 77 48 71 49 70 50 26 52 58 53 38 54 57 55 39 56
REMARK SMILES IDX 42 57 56 58 75 59 40 60 41 61 55 63 76 64 43 65 27 66 28 67
REMARK SMILES IDX 36 68 29 69 30 70 34 71 37 72 31 73 32 74 35 75 33 76 59 77
REMARK SMILES IDX 60 78 68 79 61 80 62 81 66 82 69 83 63 84 64 85 67 86 65 87
REMARK SMILES IDX 44 88 45 89 53 90 46 91 47 92 51 93 54 94 48 95 49 96 52 97
REMARK SMILES IDX 50 98
REMARK H PARENT 11 5 91 16 15 32 74 51 42 62
REMARK Flexibility Score: inf
ROOT
ATOM      1  C   UNL A   1      31.550  30.795  26.111  1.00  0.00     0.117 C 
ENDROOT
BRANCH   1   2
ATOM      2  N   UNL A   1      32.668  30.003  26.579  1.00  0.00    -0.356 N 
ATOM      3  C   UNL A   1      32.758  28.659  26.799  1.00  0.00     0.224 C 
ATOM      4  O   UNL A   1      33.889  28.206  26.991  1.00  0.00    -0.275 OA
ATOM      5  H   UNL A   1      33.489  30.512  26.767  1.00  0.00     0.163 HD
BRANCH   3   6
ATOM      6  C   UNL A   1      31.542  27.747  26.680  1.00  0.00     0.138 C 
BRANCH   6   7
ATOM      7  C   UNL A   1      31.604  26.734  25.566  1.00  0.00    -0.002 A 
ATOM      8  C   UNL A   1      32.057  22.521  25.416  1.00  0.00    -0.046 A 
ATOM      9  C   UNL A   1      31.917  23.080  26.691  1.00  0.00     0.004 A 
ATOM     10  C   UNL A   1      31.985  23.359  24.288  1.00  0.00     0.030 A 
ATOM     11  C   UNL A   1      31.751  24.460  26.866  1.00  0.00     0.011 A 
ATOM     12  C   UNL A   1      31.816  24.737  24.484  1.00  0.00     0.046 A 
ATOM     13  C   UNL A   1      31.712  25.312  25.745  1.00  0.00     0.004 A 
ATOM     14  N   UNL A   1      31.724  25.757  23.570  1.00  0.00    -0.352 N 
ATOM     15  C   UNL A   1      31.511  26.970  24.194  1.00  0.00     0.093 A 
ATOM     16  H   UNL A   1      31.799  25.638  22.596  1.00  0.00     0.167 HD
BRANCH   8  17
ATOM     17  C   UNL A   1      32.214  21.031  25.198  1.00  0.00     0.032 C 
ATOM     18  C   UNL A   1      32.528  20.595  23.771  1.00  0.00     0.009 C 
ENDBRANCH   8  17
BRANCH  15  19
ATOM     19  C   UNL A   1      31.256  28.230  23.504  1.00  0.00     0.227 C 
ATOM     20  O   UNL A   1      32.150  28.953  23.063  1.00  0.00    -0.285 OA
BRANCH  19  21
ATOM     21  C   UNL A   1      29.858  28.714  23.370  1.00  0.00     0.113 A 
ATOM     22  C   UNL A   1      29.603  30.083  23.318  1.00  0.00     0.036 A 
ATOM     23  N   UNL A   1      28.895  27.761  23.298  1.00  0.00    -0.253 NA
ATOM     24  C   UNL A   1      28.280  30.505  23.181  1.00  0.00    -0.047 A 
ATOM     25  C   UNL A   1      27.630  28.197  23.127  1.00  0.00     0.112 A 
ATOM     26  C   UNL A   1      27.928  31.961  23.126  1.00  0.00     0.044 C 
ATOM     27  C   UNL A   1      27.278  29.537  23.070  1.00  0.00     0.023 A 
ENDBRANCH  19  21
ENDBRANCH  15  19
ENDBRANCH   6   7
ENDBRANCH   3   6
ENDBRANCH   1   2
BRANCH   1  28
ATOM     28  C   UNL A   1      31.380  32.102  26.878  1.00  0.00     0.042 C 
BRANCH  28  29
ATOM     29  C   UNL A   1      32.668  32.897  27.066  1.00  0.00     0.118 C 
BRANCH  29  30
ATOM     30  N   UNL A   1      32.441  34.222  27.626  1.00  0.00    -0.352 N 
ATOM     31  C   UNL A   1      33.034  34.864  28.682  1.00  0.00     0.251 C 
ATOM     32  H   UNL A   1      31.744  34.746  27.168  1.00  0.00     0.163 HD
ATOM     33  O   UNL A   1      32.566  35.928  29.081  1.00  0.00    -0.269 OA
BRANCH  31  34
ATOM     34  C   UNL A   1      34.217  34.294  29.366  1.00  0.00     0.039 A 
ATOM     35  C   UNL A   1      34.028  33.636  30.588  1.00  0.00     0.014 A 
ATOM     36  C   UNL A   1      35.509  34.449  28.856  1.00  0.00     0.014 A 
ATOM     37  C   UNL A   1      35.119  33.085  31.263  1.00  0.00     0.010 A 
ATOM     38  C   UNL A   1      36.589  33.843  29.497  1.00  0.00     0.010 A 
ATOM     39  C   UNL A   1      36.405  33.158  30.708  1.00  0.00    -0.014 A 
BRANCH  39  40
ATOM     40  C   UNL A   1      37.567  32.518  31.376  1.00  0.00     0.031 A 
ATOM     41  C   UNL A   1      38.272  31.360  30.730  1.00  0.00     0.074 A 
ATOM     42  C   UNL A   1      37.937  32.930  32.602  1.00  0.00     0.049 A 
ATOM     43  N   UNL A   1      39.248  30.620  31.194  1.00  0.00    -0.248 NA
ATOM     44  C   UNL A   1      37.797  30.961  29.397  1.00  0.00     0.031 C 
ATOM     45  C   UNL A   1      37.297  34.005  33.359  1.00  0.00     0.029 A 
ATOM     46  N   UNL A   1      38.929  32.478  33.437  1.00  0.00    -0.354 N 
ATOM     47  C   UNL A   1      39.488  29.657  30.224  1.00  0.00     0.074 A 
ATOM     48  C   UNL A   1      38.528  29.881  29.163  1.00  0.00     0.031 C 
ATOM     49  C   UNL A   1      37.913  34.133  34.545  1.00  0.00     0.029 A 
ATOM     50  C   UNL A   1      38.971  33.133  34.643  1.00  0.00     0.049 A 
ATOM     51  H   UNL A   1      39.550  31.754  33.194  1.00  0.00     0.167 HD
ATOM     52  C   UNL A   1      40.433  28.687  30.210  1.00  0.00     0.037 A 
ATOM     53  C   UNL A   1      39.765  32.941  35.712  1.00  0.00     0.037 A 
ATOM     54  C   UNL A   1      41.406  28.485  31.253  1.00  0.00     0.049 A 
ATOM     55  C   UNL A   1      40.827  31.879  35.664  1.00  0.00     0.074 A 
ATOM     56  C   UNL A   1      42.456  27.584  31.292  1.00  0.00     0.029 A 
ATOM     57  N   UNL A   1      41.445  29.197  32.443  1.00  0.00    -0.354 N 
ATOM     58  N   UNL A   1      41.093  31.022  34.710  1.00  0.00    -0.248 NA
ATOM     59  C   UNL A   1      41.705  31.765  36.837  1.00  0.00     0.031 C 
ATOM     60  C   UNL A   1      43.107  27.724  32.524  1.00  0.00     0.029 A 
ATOM     61  C   UNL A   1      42.487  28.739  33.235  1.00  0.00     0.049 A 
ATOM     62  H   UNL A   1      40.824  29.920  32.689  1.00  0.00     0.167 HD
ATOM     63  C   UNL A   1      42.175  30.276  35.157  1.00  0.00     0.074 A 
ATOM     64  C   UNL A   1      42.526  30.794  36.464  1.00  0.00     0.031 C 
ATOM     65  C   UNL A   1      42.818  29.257  34.538  1.00  0.00     0.037 A 
BRANCH  52  66
ATOM     66  C   UNL A   1      40.452  27.763  29.028  1.00  0.00     0.064 A 
ATOM     67  C   UNL A   1      41.246  28.026  27.901  1.00  0.00     0.173 A 
ATOM     68  C   UNL A   1      39.674  26.595  29.024  1.00  0.00     0.173 A 
ATOM     69  F   UNL A   1      41.999  29.134  27.850  1.00  0.00    -0.203 F 
ATOM     70  C   UNL A   1      41.230  27.175  26.798  1.00  0.00     0.198 A 
ATOM     71  C   UNL A   1      39.683  25.732  27.933  1.00  0.00     0.198 A 
ATOM     72  F   UNL A   1      38.903  26.293  30.080  1.00  0.00    -0.203 F 
ATOM     73  F   UNL A   1      41.952  27.477  25.711  1.00  0.00    -0.200 F 
ATOM     74  C   UNL A   1      40.452  26.027  26.817  1.00  0.00     0.200 A 
ATOM     75  F   UNL A   1      38.939  24.617  27.955  1.00  0.00    -0.200 F 
ATOM     76  F   UNL A   1      40.436  25.211  25.754  1.00  0.00    -0.200 F 
ENDBRANCH  52  66
BRANCH  53  77
ATOM     77  C   UNL A   1      39.588  33.799  36.910  1.00  0.00     0.064 A 
ATOM     78  C   UNL A   1      40.181  35.066  36.980  1.00  0.00     0.173 A 
ATOM     79  C   UNL A   1      38.789  33.387  37.986  1.00  0.00     0.173 A 
ATOM     80  F   UNL A   1      40.968  35.493  35.981  1.00  0.00    -0.203 F 
ATOM     81  C   UNL A   1      39.984  35.891  38.085  1.00  0.00     0.198 A 
ATOM     82  C   UNL A   1      38.575  34.222  39.081  1.00  0.00     0.198 A 
ATOM     83  F   UNL A   1      38.195  32.186  37.961  1.00  0.00    -0.203 F 
ATOM     84  F   UNL A   1      40.579  37.090  38.138  1.00  0.00    -0.200 F 
ATOM     85  C   UNL A   1      39.174  35.471  39.130  1.00  0.00     0.200 A 
ATOM     86  F   UNL A   1      37.781  33.819  40.082  1.00  0.00    -0.200 F 
ATOM     87  F   UNL A   1      38.973  36.271  40.187  1.00  0.00    -0.200 F 
ENDBRANCH  53  77
BRANCH  65  88
ATOM     88  C   UNL A   1      43.975  28.636  35.264  1.00  0.00     0.064 A 
ATOM     89  C   UNL A   1      45.277  29.138  35.131  1.00  0.00     0.173 A 
ATOM     90  C   UNL A   1      43.772  27.552  36.132  1.00  0.00     0.173 A 
ATOM     91  F   UNL A   1      45.523  30.162  34.299  1.00  0.00    -0.203 F 
ATOM     92  C   UNL A   1      46.339  28.565  35.825  1.00  0.00     0.198 A 
ATOM     93  C   UNL A   1      44.832  26.997  36.844  1.00  0.00     0.198 A 
ATOM     94  F   UNL A   1      42.544  27.038  36.297  1.00  0.00    -0.203 F 
ATOM     95  F   UNL A   1      47.582  29.036  35.652  1.00  0.00    -0.200 F 
ATOM     96  C   UNL A   1      46.115  27.500  36.686  1.00  0.00     0.200 A 
ATOM     97  F   UNL A   1      44.613  25.974  37.681  1.00  0.00    -0.200 F 
ATOM     98  F   UNL A   1      47.137  26.954  37.358  1.00  0.00    -0.200 F 
ENDBRANCH  65  88
ENDBRANCH  39  40
ENDBRANCH  31  34
ENDBRANCH  29  30
ENDBRANCH  28  29
ENDBRANCH   1  28
TORSDOF 14
ENDMDL
MODEL 3
REMARK VINA RESULT:     -13.2      2.918      7.459
REMARK SMILES CCc1ccc2c(CC(=O)NCCCNC(=O)c3ccc(-c4c5nc(c(-c6c(F)c(F)c(F)c(F)c6F)c6ccc([nH]6)c(-c6c(F)c(F)c(F)c(F)c6F)c6nc(c(-c7c(F)c(F)c(F)c(F)c7F)c7ccc4[nH]7)C=C6)C=C5)cc3)c(C(=O)c3cc(C)ccn3)[nH]c2c1
REMARK SMILES IDX 12 1 11 2 9 3 10 4 8 6 7 7 3 8 4 9 93 10 5 11 92 12 6 13
REMARK SMILES IDX 91 14 81 15 2 17 1 18 82 19 83 20 84 21 85 22 90 23 86 24
REMARK SMILES IDX 89 25 87 26 88 27 13 28 14 29 15 30 16 31 17 33 18 34 19 35
REMARK SMILES IDX 80 36 20 37 79 38 21 39 22 40 23 41 73 42 24 43 78 44 72 45
REMARK SMILES IDX 74 46 25 47 77 48 71 49 70 50 26 52 58 53 38 54 57 55 39 56
REMARK SMILES IDX 42 57 56 58 75 59 40 60 41 61 55 63 76 64 43 65 27 66 28 67
REMARK SMILES IDX 36 68 29 69 30 70 34 71 37 72 31 73 32 74 35 75 33 76 59 77
REMARK SMILES IDX 60 78 68 79 61 80 62 81 66 82 69 83 63 84 64 85 67 86 65 87
REMARK SMILES IDX 44 88 45 89 53 90 46 91 47 92 51 93 54 94 48 95 49 96 52 97
REMARK SMILES IDX 50 98
REMARK H PARENT 11 5 91 16 15 32 74 51 42 62
REMARK Flexibility Score: inf
ROOT
ATOM      1  C   UNL A   1      33.675  26.578  25.041  1.00  0.00     0.117 C 
ENDROOT
BRANCH   1   2
ATOM      2  N   UNL A   1      34.404  25.552  25.758  1.00  0.00    -0.356 N 
ATOM      3  C   UNL A   1      35.091  24.472  25.281  1.00  0.00     0.224 C 
ATOM      4  O   UNL A   1      35.805  23.873  26.090  1.00  0.00    -0.275 OA
ATOM      5  H   UNL A   1      34.403  25.646  26.737  1.00  0.00     0.163 HD
BRANCH   3   6
ATOM      6  C   UNL A   1      35.082  24.110  23.800  1.00  0.00     0.138 C 
BRANCH   6   7
ATOM      7  C   UNL A   1      33.955  23.210  23.364  1.00  0.00    -0.002 A 
ATOM      8  C   UNL A   1      32.880  19.194  24.194  1.00  0.00    -0.046 A 
ATOM      9  C   UNL A   1      33.960  19.704  24.921  1.00  0.00     0.004 A 
ATOM     10  C   UNL A   1      32.199  20.036  23.296  1.00  0.00     0.030 A 
ATOM     11  C   UNL A   1      34.402  21.022  24.740  1.00  0.00     0.011 A 
ATOM     12  C   UNL A   1      32.653  21.352  23.131  1.00  0.00     0.046 A 
ATOM     13  C   UNL A   1      33.747  21.863  23.819  1.00  0.00     0.004 A 
ATOM     14  N   UNL A   1      32.180  22.359  22.327  1.00  0.00    -0.352 N 
ATOM     15  C   UNL A   1      32.897  23.524  22.509  1.00  0.00     0.093 A 
ATOM     16  H   UNL A   1      31.425  22.263  21.703  1.00  0.00     0.167 HD
BRANCH   8  17
ATOM     17  C   UNL A   1      32.369  17.781  24.386  1.00  0.00     0.032 C 
ATOM     18  C   UNL A   1      33.278  16.668  23.879  1.00  0.00     0.009 C 
ENDBRANCH   8  17
BRANCH  15  19
ATOM     19  C   UNL A   1      32.578  24.806  21.890  1.00  0.00     0.227 C 
ATOM     20  O   UNL A   1      33.169  25.248  20.905  1.00  0.00    -0.285 OA
BRANCH  19  21
ATOM     21  C   UNL A   1      31.531  25.666  22.502  1.00  0.00     0.113 A 
ATOM     22  C   UNL A   1      31.436  27.005  22.133  1.00  0.00     0.036 A 
ATOM     23  N   UNL A   1      30.710  25.067  23.401  1.00  0.00    -0.253 NA
ATOM     24  C   UNL A   1      30.437  27.784  22.718  1.00  0.00    -0.047 A 
ATOM     25  C   UNL A   1      29.729  25.832  23.920  1.00  0.00     0.112 A 
ATOM     26  C   UNL A   1      30.277  29.234  22.376  1.00  0.00     0.044 C 
ATOM     27  C   UNL A   1      29.558  27.175  23.619  1.00  0.00     0.023 A 
ENDBRANCH  19  21
ENDBRANCH  15  19
ENDBRANCH   6   7
ENDBRANCH   3   6
ENDBRANCH   1   2
BRANCH   1  28
ATOM     28  C   UNL A   1      33.994  27.987  25.529  1.00  0.00     0.042 C 
BRANCH  28  29
ATOM     29  C   UNL A   1      33.739  28.216  27.016  1.00  0.00     0.118 C 
BRANCH  29  30
ATOM     30  N   UNL A   1      33.642  29.626  27.366  1.00  0.00    -0.352 N 
ATOM     31  C   UNL A   1      34.526  30.456  28.005  1.00  0.00     0.251 C 
ATOM     32  H   UNL A   1      32.798  30.057  27.097  1.00  0.00     0.163 HD
ATOM     33  O   UNL A   1      34.163  31.581  28.341  1.00  0.00    -0.269 OA
BRANCH  31  34
ATOM     34  C   UNL A   1      35.907  30.018  28.317  1.00  0.00     0.039 A 
ATOM     35  C   UNL A   1      36.875  30.101  27.310  1.00  0.00     0.014 A 
ATOM     36  C   UNL A   1      36.244  29.475  29.559  1.00  0.00     0.014 A 
ATOM     37  C   UNL A   1      38.188  29.697  27.565  1.00  0.00     0.010 A 
ATOM     38  C   UNL A   1      37.567  29.132  29.835  1.00  0.00     0.010 A 
ATOM     39  C   UNL A   1      38.551  29.237  28.840  1.00  0.00    -0.014 A 
BRANCH  39  40
ATOM     40  C   UNL A   1      39.956  28.870  29.152  1.00  0.00     0.031 A 
ATOM     41  C   UNL A   1      40.856  29.840  29.860  1.00  0.00     0.074 A 
ATOM     42  C   UNL A   1      40.443  27.690  28.725  1.00  0.00     0.049 A 
ATOM     43  N   UNL A   1      42.131  29.734  30.144  1.00  0.00    -0.248 NA
ATOM     44  C   UNL A   1      40.252  31.114  30.279  1.00  0.00     0.031 C 
ATOM     45  C   UNL A   1      39.687  26.686  27.978  1.00  0.00     0.029 A 
ATOM     46  N   UNL A   1      41.697  27.146  28.841  1.00  0.00    -0.354 N 
ATOM     47  C   UNL A   1      42.485  30.930  30.752  1.00  0.00     0.074 A 
ATOM     48  C   UNL A   1      41.301  31.765  30.759  1.00  0.00     0.031 C 
ATOM     49  C   UNL A   1      40.490  25.646  27.704  1.00  0.00     0.029 A 
ATOM     50  C   UNL A   1      41.823  25.922  28.231  1.00  0.00     0.049 A 
ATOM     51  H   UNL A   1      42.437  27.590  29.315  1.00  0.00     0.167 HD
ATOM     52  C   UNL A   1      43.681  31.293  31.272  1.00  0.00     0.037 A 
ATOM     53  C   UNL A   1      42.893  25.117  28.101  1.00  0.00     0.037 A 
ATOM     54  C   UNL A   1      44.849  30.450  31.291  1.00  0.00     0.049 A 
ATOM     55  C   UNL A   1      44.204  25.525  28.714  1.00  0.00     0.074 A 
ATOM     56  C   UNL A   1      46.082  30.695  31.870  1.00  0.00     0.029 A 
ATOM     57  N   UNL A   1      44.926  29.197  30.701  1.00  0.00    -0.354 N 
ATOM     58  N   UNL A   1      44.508  26.628  29.351  1.00  0.00    -0.248 NA
ATOM     59  C   UNL A   1      45.316  24.573  28.595  1.00  0.00     0.031 C 
ATOM     60  C   UNL A   1      46.918  29.606  31.595  1.00  0.00     0.029 A 
ATOM     61  C   UNL A   1      46.194  28.665  30.880  1.00  0.00     0.049 A 
ATOM     62  H   UNL A   1      44.189  28.751  30.224  1.00  0.00     0.167 HD
ATOM     63  C   UNL A   1      45.839  26.499  29.724  1.00  0.00     0.074 A 
ATOM     64  C   UNL A   1      46.280  25.202  29.252  1.00  0.00     0.031 C 
ATOM     65  C   UNL A   1      46.622  27.377  30.396  1.00  0.00     0.037 A 
BRANCH  52  66
ATOM     66  C   UNL A   1      43.786  32.670  31.859  1.00  0.00     0.064 A 
ATOM     67  C   UNL A   1      44.180  33.773  31.085  1.00  0.00     0.173 A 
ATOM     68  C   UNL A   1      43.482  32.893  33.210  1.00  0.00     0.173 A 
ATOM     69  F   UNL A   1      44.493  33.610  29.791  1.00  0.00    -0.203 F 
ATOM     70  C   UNL A   1      44.303  35.039  31.651  1.00  0.00     0.198 A 
ATOM     71  C   UNL A   1      43.577  34.165  33.766  1.00  0.00     0.198 A 
ATOM     72  F   UNL A   1      43.093  31.875  33.993  1.00  0.00    -0.203 F 
ATOM     73  F   UNL A   1      44.736  36.065  30.906  1.00  0.00    -0.200 F 
ATOM     74  C   UNL A   1      43.997  35.235  32.989  1.00  0.00     0.200 A 
ATOM     75  F   UNL A   1      43.271  34.357  35.057  1.00  0.00    -0.200 F 
ATOM     76  F   UNL A   1      44.117  36.454  33.533  1.00  0.00    -0.200 F 
ENDBRANCH  52  66
BRANCH  53  77
ATOM     77  C   UNL A   1      42.750  23.832  27.375  1.00  0.00     0.064 A 
ATOM     78  C   UNL A   1      43.126  23.720  26.030  1.00  0.00     0.173 A 
ATOM     79  C   UNL A   1      42.276  22.681  28.021  1.00  0.00     0.173 A 
ATOM     80  F   UNL A   1      43.567  24.799  25.367  1.00  0.00    -0.203 F 
ATOM     81  C   UNL A   1      43.030  22.505  25.356  1.00  0.00     0.198 A 
ATOM     82  C   UNL A   1      42.203  21.461  27.353  1.00  0.00     0.198 A 
ATOM     83  F   UNL A   1      41.912  22.737  29.310  1.00  0.00    -0.203 F 
ATOM     84  F   UNL A   1      43.376  22.429  24.063  1.00  0.00    -0.200 F 
ATOM     85  C   UNL A   1      42.577  21.375  26.021  1.00  0.00     0.200 A 
ATOM     86  F   UNL A   1      41.778  20.369  28.002  1.00  0.00    -0.200 F 
ATOM     87  F   UNL A   1      42.500  20.203  25.376  1.00  0.00    -0.200 F 
ENDBRANCH  53  77
BRANCH  65  88
ATOM     88  C   UNL A   1      48.037  26.962  30.671  1.00  0.00     0.064 A 
ATOM     89  C   UNL A   1      49.089  27.351  29.831  1.00  0.00     0.173 A 
ATOM     90  C   UNL A   1      48.348  26.200  31.808  1.00  0.00     0.173 A 
ATOM     91  F   UNL A   1      48.839  28.065  28.722  1.00  0.00    -0.203 F 
ATOM     92  C   UNL A   1      50.401  26.976  30.108  1.00  0.00     0.198 A 
ATOM     93  C   UNL A   1      49.664  25.848  32.095  1.00  0.00     0.198 A 
ATOM     94  F   UNL A   1      47.376  25.807  32.644  1.00  0.00    -0.203 F 
ATOM     95  F   UNL A   1      51.387  27.326  29.269  1.00  0.00    -0.200 F 
ATOM     96  C   UNL A   1      50.688  26.231  31.242  1.00  0.00     0.200 A 
ATOM     97  F   UNL A   1      49.941  25.136  33.195  1.00  0.00    -0.200 F 
ATOM     98  F   UNL A   1      51.952  25.876  31.510  1.00  0.00    -0.200 F 
ENDBRANCH  65  88
ENDBRANCH  39  40
ENDBRANCH  31  34
ENDBRANCH  29  30
ENDBRANCH  28  29
ENDBRANCH   1  28
TORSDOF 14
ENDMDL
