MODEL 1
REMARK VINA RESULT:     -12.4      0.000      0.000
REMARK SMILES C[C@H](Nc1ncccc1C(=O)NCCCNC(=O)c1ccc(-c2c3nc(c(-c4c(F)c(F)c(F)c(F)c4F)c4ccc([nH]4)c(-c4c(F)c(F)c(F)c(F)c4F)c4nc(c(-c5c(F)c(F)c(F)c(F)c5F)c5ccc2[nH]5)C=C4)C=C3)cc1)c1ccc(Cl)cc1
REMARK SMILES IDX 13 1 12 2 10 3 11 4 9 6 4 7 5 8 6 9 8 10 7 11 3 12 2 14 1 15
REMARK SMILES IDX 82 16 83 17 88 18 84 19 87 20 85 21 86 22 14 23 15 24 16 25
REMARK SMILES IDX 17 26 18 28 19 29 20 30 81 31 21 32 80 33 22 34 23 35 24 36
REMARK SMILES IDX 74 37 25 38 79 39 73 40 75 41 26 42 78 43 72 44 71 45 27 47
REMARK SMILES IDX 59 48 39 49 58 50 40 51 43 52 57 53 76 54 41 55 42 56 56 58
REMARK SMILES IDX 77 59 44 60 28 61 29 62 37 63 30 64 31 65 35 66 38 67 32 68
REMARK SMILES IDX 33 69 36 70 34 71 60 72 61 73 69 74 62 75 63 76 67 77 70 78
REMARK SMILES IDX 64 79 65 80 68 81 66 82 45 83 46 84 54 85 47 86 48 87 52 88
REMARK SMILES IDX 55 89 49 90 50 91 53 92 51 93
REMARK H PARENT 12 5 3 13 16 27 75 46 43 57
REMARK Flexibility Score: inf
ROOT
ATOM      1  C   UNL A   1      33.810  27.214  24.225  1.00  0.00     0.118 C 
ENDROOT
BRANCH   1   2
ATOM      2  N   UNL A   1      33.716  26.828  22.830  1.00  0.00    -0.352 N 
ATOM      3  C   UNL A   1      33.267  25.749  22.110  1.00  0.00     0.255 C 
ATOM      4  O   UNL A   1      33.278  25.955  20.894  1.00  0.00    -0.269 OA
ATOM      5  H   UNL A   1      34.070  27.532  22.239  1.00  0.00     0.163 HD
BRANCH   3   6
ATOM      6  C   UNL A   1      32.772  24.445  22.667  1.00  0.00     0.082 A 
ATOM      7  C   UNL A   1      31.486  24.342  23.233  1.00  0.00     0.139 A 
ATOM      8  N   UNL A   1      31.114  23.271  23.987  1.00  0.00    -0.239 NA
ATOM      9  C   UNL A   1      31.958  22.234  24.121  1.00  0.00     0.113 A 
ATOM     10  C   UNL A   1      33.576  23.300  22.755  1.00  0.00     0.019 A 
ATOM     11  C   UNL A   1      33.177  22.185  23.493  1.00  0.00     0.021 A 
BRANCH   7  12
ATOM     12  N   UNL A   1      30.424  25.190  23.103  1.00  0.00    -0.363 N 
ATOM     13  H   UNL A   1      30.060  25.284  22.193  1.00  0.00     0.162 HD
BRANCH  12  14
ATOM     14  C   UNL A   1      29.758  25.976  24.139  1.00  0.00     0.108 C 
ATOM     15  C   UNL A   1      30.598  26.281  25.386  1.00  0.00     0.036 C 
BRANCH  14  16
ATOM     16  C   UNL A   1      29.321  27.296  23.498  1.00  0.00    -0.026 A 
ATOM     17  C   UNL A   1      30.271  28.149  22.914  1.00  0.00     0.007 A 
ATOM     18  C   UNL A   1      27.970  27.689  23.500  1.00  0.00     0.007 A 
ATOM     19  C   UNL A   1      29.873  29.347  22.315  1.00  0.00     0.021 A 
ATOM     20  C   UNL A   1      27.572  28.883  22.895  1.00  0.00     0.021 A 
ATOM     21  C   UNL A   1      28.526  29.705  22.301  1.00  0.00     0.041 A 
ATOM     22  Cl  UNL A   1      28.037  31.173  21.549  1.00  0.00    -0.084 Cl
ENDBRANCH  14  16
ENDBRANCH  12  14
ENDBRANCH   7  12
ENDBRANCH   3   6
ENDBRANCH   1   2
BRANCH   1  23
ATOM     23  C   UNL A   1      33.529  28.700  24.436  1.00  0.00     0.042 C 
BRANCH  23  24
ATOM     24  C   UNL A   1      32.963  29.021  25.824  1.00  0.00     0.118 C 
BRANCH  24  25
ATOM     25  N   UNL A   1      32.731  30.450  26.009  1.00  0.00    -0.352 N 
ATOM     26  C   UNL A   1      33.260  31.341  26.906  1.00  0.00     0.251 C 
ATOM     27  H   UNL A   1      32.082  30.842  25.382  1.00  0.00     0.163 HD
ATOM     28  O   UNL A   1      32.722  32.434  27.058  1.00  0.00    -0.269 OA
BRANCH  26  29
ATOM     29  C   UNL A   1      34.472  31.012  27.685  1.00  0.00     0.039 A 
ATOM     30  C   UNL A   1      35.462  31.989  27.834  1.00  0.00     0.014 A 
ATOM     31  C   UNL A   1      34.679  29.728  28.194  1.00  0.00     0.014 A 
ATOM     32  C   UNL A   1      36.634  31.695  28.535  1.00  0.00     0.010 A 
ATOM     33  C   UNL A   1      35.817  29.454  28.948  1.00  0.00     0.010 A 
ATOM     34  C   UNL A   1      36.808  30.431  29.121  1.00  0.00    -0.014 A 
BRANCH  34  35
ATOM     35  C   UNL A   1      38.021  30.110  29.914  1.00  0.00     0.031 A 
ATOM     36  C   UNL A   1      39.053  29.164  29.370  1.00  0.00     0.074 A 
ATOM     37  C   UNL A   1      38.152  30.614  31.156  1.00  0.00     0.049 A 
ATOM     38  N   UNL A   1      40.125  28.684  29.949  1.00  0.00    -0.248 NA
ATOM     39  C   UNL A   1      38.838  28.669  28.001  1.00  0.00     0.031 C 
ATOM     40  C   UNL A   1      37.193  31.505  31.811  1.00  0.00     0.029 A 
ATOM     41  N   UNL A   1      39.134  30.432  32.097  1.00  0.00    -0.354 N 
ATOM     42  C   UNL A   1      40.698  27.819  29.025  1.00  0.00     0.074 A 
ATOM     43  C   UNL A   1      39.831  27.804  27.866  1.00  0.00     0.031 C 
ATOM     44  C   UNL A   1      37.640  31.802  33.041  1.00  0.00     0.029 A 
ATOM     45  C   UNL A   1      38.895  31.095  33.275  1.00  0.00     0.049 A 
ATOM     46  H   UNL A   1      39.934  29.880  31.941  1.00  0.00     0.167 HD
ATOM     47  C   UNL A   1      41.853  27.119  29.128  1.00  0.00     0.037 A 
ATOM     48  C   UNL A   1      39.604  31.118  34.420  1.00  0.00     0.037 A 
ATOM     49  C   UNL A   1      42.725  27.158  30.273  1.00  0.00     0.049 A 
ATOM     50  C   UNL A   1      40.888  30.342  34.504  1.00  0.00     0.074 A 
ATOM     51  C   UNL A   1      43.945  26.529  30.453  1.00  0.00     0.029 A 
ATOM     52  N   UNL A   1      42.466  27.870  31.435  1.00  0.00    -0.354 N 
ATOM     53  N   UNL A   1      41.450  29.574  33.604  1.00  0.00    -0.248 NA
ATOM     54  C   UNL A   1      41.640  30.440  35.763  1.00  0.00     0.031 C 
ATOM     55  C   UNL A   1      44.407  26.831  31.738  1.00  0.00     0.029 A 
ATOM     56  C   UNL A   1      43.497  27.683  32.343  1.00  0.00     0.049 A 
ATOM     57  H   UNL A   1      41.669  28.425  31.592  1.00  0.00     0.167 HD
ATOM     58  C   UNL A   1      42.630  29.118  34.174  1.00  0.00     0.074 A 
ATOM     59  C   UNL A   1      42.712  29.707  35.494  1.00  0.00     0.031 C 
ATOM     60  C   UNL A   1      43.563  28.284  33.651  1.00  0.00     0.037 A 
BRANCH  47  61
ATOM     61  C   UNL A   1      42.242  26.250  27.966  1.00  0.00     0.064 A 
ATOM     62  C   UNL A   1      41.707  24.963  27.801  1.00  0.00     0.173 A 
ATOM     63  C   UNL A   1      43.137  26.718  26.993  1.00  0.00     0.173 A 
ATOM     64  F   UNL A   1      40.856  24.464  28.709  1.00  0.00    -0.203 F 
ATOM     65  C   UNL A   1      42.078  24.166  26.721  1.00  0.00     0.198 A 
ATOM     66  C   UNL A   1      43.482  25.928  25.897  1.00  0.00     0.198 A 
ATOM     67  F   UNL A   1      43.673  27.942  27.098  1.00  0.00    -0.203 F 
ATOM     68  F   UNL A   1      41.592  22.921  26.611  1.00  0.00    -0.200 F 
ATOM     69  C   UNL A   1      42.959  24.651  25.767  1.00  0.00     0.200 A 
ATOM     70  F   UNL A   1      44.325  26.405  24.969  1.00  0.00    -0.200 F 
ATOM     71  F   UNL A   1      43.311  23.885  24.725  1.00  0.00    -0.200 F 
ENDBRANCH  47  61
BRANCH  48  72
ATOM     72  C   UNL A   1      39.122  31.930  35.567  1.00  0.00     0.064 A 
ATOM     73  C   UNL A   1      38.303  31.365  36.554  1.00  0.00     0.173 A 
ATOM     74  C   UNL A   1      39.478  33.279  35.707  1.00  0.00     0.173 A 
ATOM     75  F   UNL A   1      37.922  30.082  36.454  1.00  0.00    -0.203 F 
ATOM     76  C   UNL A   1      37.843  32.121  37.629  1.00  0.00     0.198 A 
ATOM     77  C   UNL A   1      39.039  34.029  36.797  1.00  0.00     0.198 A 
ATOM     78  F   UNL A   1      40.266  33.865  34.794  1.00  0.00    -0.203 F 
ATOM     79  F   UNL A   1      37.031  31.567  38.538  1.00  0.00    -0.200 F 
ATOM     80  C   UNL A   1      38.217  33.452  37.753  1.00  0.00     0.200 A 
ATOM     81  F   UNL A   1      39.415  35.309  36.922  1.00  0.00    -0.200 F 
ATOM     82  F   UNL A   1      37.781  34.178  38.792  1.00  0.00    -0.200 F 
ENDBRANCH  48  72
BRANCH  60  83
ATOM     83  C   UNL A   1      44.765  27.984  34.496  1.00  0.00     0.064 A 
ATOM     84  C   UNL A   1      44.798  26.882  35.363  1.00  0.00     0.173 A 
ATOM     85  C   UNL A   1      45.912  28.789  34.410  1.00  0.00     0.173 A 
ATOM     86  F   UNL A   1      43.721  26.093  35.492  1.00  0.00    -0.203 F 
ATOM     87  C   UNL A   1      45.927  26.610  36.129  1.00  0.00     0.198 A 
ATOM     88  C   UNL A   1      47.049  28.497  35.157  1.00  0.00     0.198 A 
ATOM     89  F   UNL A   1      45.931  29.852  33.592  1.00  0.00    -0.203 F 
ATOM     90  F   UNL A   1      45.922  25.576  36.984  1.00  0.00    -0.200 F 
ATOM     91  C   UNL A   1      47.054  27.412  36.020  1.00  0.00     0.200 A 
ATOM     92  F   UNL A   1      48.140  29.267  35.043  1.00  0.00    -0.200 F 
ATOM     93  F   UNL A   1      48.142  27.144  36.755  1.00  0.00    -0.200 F 
ENDBRANCH  60  83
ENDBRANCH  34  35
ENDBRANCH  26  29
ENDBRANCH  24  25
ENDBRANCH  23  24
ENDBRANCH   1  23
TORSDOF 13
ENDMDL
MODEL 2
REMARK VINA RESULT:     -12.4      0.163      1.690
REMARK SMILES C[C@H](Nc1ncccc1C(=O)NCCCNC(=O)c1ccc(-c2c3nc(c(-c4c(F)c(F)c(F)c(F)c4F)c4ccc([nH]4)c(-c4c(F)c(F)c(F)c(F)c4F)c4nc(c(-c5c(F)c(F)c(F)c(F)c5F)c5ccc2[nH]5)C=C4)C=C3)cc1)c1ccc(Cl)cc1
REMARK SMILES IDX 13 1 12 2 10 3 11 4 9 6 4 7 5 8 6 9 8 10 7 11 3 12 2 14 1 15
REMARK SMILES IDX 82 16 83 17 88 18 84 19 87 20 85 21 86 22 14 23 15 24 16 25
REMARK SMILES IDX 17 26 18 28 19 29 20 30 81 31 21 32 80 33 22 34 23 35 24 36
REMARK SMILES IDX 74 37 25 38 79 39 73 40 75 41 26 42 78 43 72 44 71 45 27 47
REMARK SMILES IDX 59 48 39 49 58 50 40 51 43 52 57 53 76 54 41 55 42 56 56 58
REMARK SMILES IDX 77 59 44 60 28 61 29 62 37 63 30 64 31 65 35 66 38 67 32 68
REMARK SMILES IDX 33 69 36 70 34 71 60 72 61 73 69 74 62 75 63 76 67 77 70 78
REMARK SMILES IDX 64 79 65 80 68 81 66 82 45 83 46 84 54 85 47 86 48 87 52 88
REMARK SMILES IDX 55 89 49 90 50 91 53 92 51 93
REMARK H PARENT 12 5 3 13 16 27 75 46 43 57
REMARK Flexibility Score: inf
ROOT
ATOM      1  C   UNL A   1      33.734  27.266  24.201  1.00  0.00     0.118 C 
ENDROOT
BRANCH   1   2
ATOM      2  N   UNL A   1      33.672  26.857  22.811  1.00  0.00    -0.352 N 
ATOM      3  C   UNL A   1      33.240  25.767  22.098  1.00  0.00     0.255 C 
ATOM      4  O   UNL A   1      33.278  25.953  20.879  1.00  0.00    -0.269 OA
ATOM      5  H   UNL A   1      34.039  27.552  22.216  1.00  0.00     0.163 HD
BRANCH   3   6
ATOM      6  C   UNL A   1      32.732  24.471  22.664  1.00  0.00     0.082 A 
ATOM      7  C   UNL A   1      31.441  24.383  23.220  1.00  0.00     0.139 A 
ATOM      8  N   UNL A   1      31.056  23.321  23.982  1.00  0.00    -0.239 NA
ATOM      9  C   UNL A   1      31.892  22.281  24.134  1.00  0.00     0.113 A 
ATOM     10  C   UNL A   1      33.528  23.323  22.771  1.00  0.00     0.019 A 
ATOM     11  C   UNL A   1      33.116  22.219  23.517  1.00  0.00     0.021 A 
BRANCH   7  12
ATOM     12  N   UNL A   1      30.385  25.236  23.073  1.00  0.00    -0.363 N 
ATOM     13  H   UNL A   1      30.063  25.363  22.151  1.00  0.00     0.162 HD
BRANCH  12  14
ATOM     14  C   UNL A   1      29.671  25.983  24.105  1.00  0.00     0.108 C 
ATOM     15  C   UNL A   1      30.455  26.247  25.397  1.00  0.00     0.036 C 
BRANCH  14  16
ATOM     16  C   UNL A   1      29.258  27.325  23.491  1.00  0.00    -0.026 A 
ATOM     17  C   UNL A   1      27.911  27.723  23.501  1.00  0.00     0.007 A 
ATOM     18  C   UNL A   1      30.208  28.170  22.892  1.00  0.00     0.007 A 
ATOM     19  C   UNL A   1      27.533  28.953  22.957  1.00  0.00     0.021 A 
ATOM     20  C   UNL A   1      29.831  29.402  22.353  1.00  0.00     0.021 A 
ATOM     21  C   UNL A   1      28.495  29.790  22.392  1.00  0.00     0.041 A 
ATOM     22  Cl  UNL A   1      28.028  31.311  21.737  1.00  0.00    -0.084 Cl
ENDBRANCH  14  16
ENDBRANCH  12  14
ENDBRANCH   7  12
ENDBRANCH   3   6
ENDBRANCH   1   2
BRANCH   1  23
ATOM     23  C   UNL A   1      33.357  28.732  24.393  1.00  0.00     0.042 C 
BRANCH  23  24
ATOM     24  C   UNL A   1      32.797  29.040  25.785  1.00  0.00     0.118 C 
BRANCH  24  25
ATOM     25  N   UNL A   1      32.566  30.467  25.986  1.00  0.00    -0.352 N 
ATOM     26  C   UNL A   1      33.102  31.350  26.887  1.00  0.00     0.251 C 
ATOM     27  H   UNL A   1      31.912  30.864  25.368  1.00  0.00     0.163 HD
ATOM     28  O   UNL A   1      32.564  32.441  27.053  1.00  0.00    -0.269 OA
BRANCH  26  29
ATOM     29  C   UNL A   1      34.321  31.015  27.652  1.00  0.00     0.039 A 
ATOM     30  C   UNL A   1      35.231  32.036  27.948  1.00  0.00     0.014 A 
ATOM     31  C   UNL A   1      34.616  29.696  28.003  1.00  0.00     0.014 A 
ATOM     32  C   UNL A   1      36.409  31.741  28.640  1.00  0.00     0.010 A 
ATOM     33  C   UNL A   1      35.757  29.413  28.748  1.00  0.00     0.010 A 
ATOM     34  C   UNL A   1      36.668  30.430  29.069  1.00  0.00    -0.014 A 
BRANCH  34  35
ATOM     35  C   UNL A   1      37.886  30.102  29.849  1.00  0.00     0.031 A 
ATOM     36  C   UNL A   1      38.905  29.146  29.296  1.00  0.00     0.074 A 
ATOM     37  C   UNL A   1      38.035  30.607  31.089  1.00  0.00     0.049 A 
ATOM     38  N   UNL A   1      39.979  28.658  29.864  1.00  0.00    -0.248 NA
ATOM     39  C   UNL A   1      38.670  28.649  27.931  1.00  0.00     0.031 C 
ATOM     40  C   UNL A   1      37.092  31.508  31.752  1.00  0.00     0.029 A 
ATOM     41  N   UNL A   1      39.026  30.419  32.019  1.00  0.00    -0.354 N 
ATOM     42  C   UNL A   1      40.535  27.786  28.937  1.00  0.00     0.074 A 
ATOM     43  C   UNL A   1      39.655  27.775  27.788  1.00  0.00     0.031 C 
ATOM     44  C   UNL A   1      37.554  31.804  32.976  1.00  0.00     0.029 A 
ATOM     45  C   UNL A   1      38.806  31.087  33.198  1.00  0.00     0.049 A 
ATOM     46  H   UNL A   1      39.820  29.860  31.855  1.00  0.00     0.167 HD
ATOM     47  C   UNL A   1      41.685  27.077  29.029  1.00  0.00     0.037 A 
ATOM     48  C   UNL A   1      39.528  31.108  34.335  1.00  0.00     0.037 A 
ATOM     49  C   UNL A   1      42.569  27.111  30.164  1.00  0.00     0.049 A 
ATOM     50  C   UNL A   1      40.806  30.321  34.407  1.00  0.00     0.074 A 
ATOM     51  C   UNL A   1      43.786  26.473  30.332  1.00  0.00     0.029 A 
ATOM     52  N   UNL A   1      42.330  27.828  31.327  1.00  0.00    -0.354 N 
ATOM     53  N   UNL A   1      41.352  29.546  33.502  1.00  0.00    -0.248 NA
ATOM     54  C   UNL A   1      41.573  30.416  35.657  1.00  0.00     0.031 C 
ATOM     55  C   UNL A   1      44.265  26.774  31.611  1.00  0.00     0.029 A 
ATOM     56  C   UNL A   1      43.369  27.636  32.223  1.00  0.00     0.049 A 
ATOM     57  H   UNL A   1      41.539  28.390  31.491  1.00  0.00     0.167 HD
ATOM     58  C   UNL A   1      42.535  29.082  34.060  1.00  0.00     0.074 A 
ATOM     59  C   UNL A   1      42.635  29.673  35.378  1.00  0.00     0.031 C 
ATOM     60  C   UNL A   1      43.455  28.239  33.530  1.00  0.00     0.037 A 
BRANCH  47  61
ATOM     61  C   UNL A   1      42.054  26.201  27.865  1.00  0.00     0.064 A 
ATOM     62  C   UNL A   1      43.001  26.609  26.912  1.00  0.00     0.173 A 
ATOM     63  C   UNL A   1      41.479  24.931  27.715  1.00  0.00     0.173 A 
ATOM     64  F   UNL A   1      43.573  27.819  27.003  1.00  0.00    -0.203 F 
ATOM     65  C   UNL A   1      43.334  25.790  25.836  1.00  0.00     0.198 A 
ATOM     66  C   UNL A   1      41.837  24.102  26.654  1.00  0.00     0.198 A 
ATOM     67  F   UNL A   1      40.574  24.489  28.600  1.00  0.00    -0.203 F 
ATOM     68  F   UNL A   1      44.204  26.221  24.911  1.00  0.00    -0.200 F 
ATOM     69  C   UNL A   1      42.757  24.535  25.712  1.00  0.00     0.200 A 
ATOM     70  F   UNL A   1      41.287  22.884  26.543  1.00  0.00    -0.200 F 
ATOM     71  F   UNL A   1      43.082  23.746  24.679  1.00  0.00    -0.200 F 
ENDBRANCH  47  61
BRANCH  48  72
ATOM     72  C   UNL A   1      39.065  31.926  35.485  1.00  0.00     0.064 A 
ATOM     73  C   UNL A   1      38.272  31.364  36.494  1.00  0.00     0.173 A 
ATOM     74  C   UNL A   1      39.414  33.279  35.606  1.00  0.00     0.173 A 
ATOM     75  F   UNL A   1      37.898  30.078  36.414  1.00  0.00    -0.203 F 
ATOM     76  C   UNL A   1      37.830  32.127  37.573  1.00  0.00     0.198 A 
ATOM     77  C   UNL A   1      38.994  34.035  36.698  1.00  0.00     0.198 A 
ATOM     78  F   UNL A   1      40.178  33.862  34.670  1.00  0.00    -0.203 F 
ATOM     79  F   UNL A   1      37.042  31.575  38.504  1.00  0.00    -0.200 F 
ATOM     80  C   UNL A   1      38.197  33.461  37.677  1.00  0.00     0.200 A 
ATOM     81  F   UNL A   1      39.364  35.319  36.803  1.00  0.00    -0.200 F 
ATOM     82  F   UNL A   1      37.778  34.193  38.718  1.00  0.00    -0.200 F 
ENDBRANCH  48  72
BRANCH  60  83
ATOM     83  C   UNL A   1      44.663  27.932  34.362  1.00  0.00     0.064 A 
ATOM     84  C   UNL A   1      45.809  28.739  34.320  1.00  0.00     0.173 A 
ATOM     85  C   UNL A   1      44.661  26.837  35.241  1.00  0.00     0.173 A 
ATOM     86  F   UNL A   1      45.866  29.787  33.484  1.00  0.00    -0.203 F 
ATOM     87  C   UNL A   1      46.917  28.449  35.111  1.00  0.00     0.198 A 
ATOM     88  C   UNL A   1      45.760  26.566  36.050  1.00  0.00     0.198 A 
ATOM     89  F   UNL A   1      43.586  26.038  35.321  1.00  0.00    -0.203 F 
ATOM     90  F   UNL A   1      48.019  29.208  35.023  1.00  0.00    -0.200 F 
ATOM     91  C   UNL A   1      46.889  27.368  35.981  1.00  0.00     0.200 A 
ATOM     92  F   UNL A   1      45.727  25.528  36.898  1.00  0.00    -0.200 F 
ATOM     93  F   UNL A   1      47.955  27.094  36.745  1.00  0.00    -0.200 F 
ENDBRANCH  60  83
ENDBRANCH  34  35
ENDBRANCH  26  29
ENDBRANCH  24  25
ENDBRANCH  23  24
ENDBRANCH   1  23
TORSDOF 13
ENDMDL
MODEL 3
REMARK VINA RESULT:     -12.4      5.326     10.398
REMARK SMILES C[C@H](Nc1ncccc1C(=O)NCCCNC(=O)c1ccc(-c2c3nc(c(-c4c(F)c(F)c(F)c(F)c4F)c4ccc([nH]4)c(-c4c(F)c(F)c(F)c(F)c4F)c4nc(c(-c5c(F)c(F)c(F)c(F)c5F)c5ccc2[nH]5)C=C4)C=C3)cc1)c1ccc(Cl)cc1
REMARK SMILES IDX 13 1 12 2 10 3 11 4 9 6 4 7 5 8 6 9 8 10 7 11 3 12 2 14 1 15
REMARK SMILES IDX 82 16 83 17 88 18 84 19 87 20 85 21 86 22 14 23 15 24 16 25
REMARK SMILES IDX 17 26 18 28 19 29 20 30 81 31 21 32 80 33 22 34 23 35 24 36
REMARK SMILES IDX 74 37 25 38 79 39 73 40 75 41 26 42 78 43 72 44 71 45 27 47
REMARK SMILES IDX 59 48 39 49 58 50 40 51 43 52 57 53 76 54 41 55 42 56 56 58
REMARK SMILES IDX 77 59 44 60 28 61 29 62 37 63 30 64 31 65 35 66 38 67 32 68
REMARK SMILES IDX 33 69 36 70 34 71 60 72 61 73 69 74 62 75 63 76 67 77 70 78
REMARK SMILES IDX 64 79 65 80 68 81 66 82 45 83 46 84 54 85 47 86 48 87 52 88
REMARK SMILES IDX 55 89 49 90 50 91 53 92 51 93
REMARK H PARENT 12 5 3 13 16 27 75 46 43 57
REMARK Flexibility Score: inf
ROOT
ATOM      1  C   UNL A   1      36.928  20.876  24.727  1.00  0.00     0.118 C 
ENDROOT
BRANCH   1   2
ATOM      2  N   UNL A   1      36.059  21.002  25.881  1.00  0.00    -0.352 N 
ATOM      3  C   UNL A   1      35.005  21.791  26.270  1.00  0.00     0.255 C 
ATOM      4  O   UNL A   1      34.493  21.411  27.325  1.00  0.00    -0.269 OA
ATOM      5  H   UNL A   1      36.285  20.340  26.575  1.00  0.00     0.163 HD
BRANCH   3   6
ATOM      6  C   UNL A   1      34.456  22.979  25.531  1.00  0.00     0.082 A 
ATOM      7  C   UNL A   1      34.010  22.859  24.200  1.00  0.00     0.139 A 
ATOM      8  N   UNL A   1      33.773  23.949  23.419  1.00  0.00    -0.239 NA
ATOM      9  C   UNL A   1      33.874  25.178  23.953  1.00  0.00     0.113 A 
ATOM     10  C   UNL A   1      34.452  24.274  26.067  1.00  0.00     0.019 A 
ATOM     11  C   UNL A   1      34.169  25.388  25.277  1.00  0.00     0.021 A 
BRANCH   7  12
ATOM     12  N   UNL A   1      33.693  21.729  23.502  1.00  0.00    -0.363 N 
ATOM     13  H   UNL A   1      34.435  21.307  23.011  1.00  0.00     0.162 HD
BRANCH  12  14
ATOM     14  C   UNL A   1      32.397  21.066  23.389  1.00  0.00     0.108 C 
ATOM     15  C   UNL A   1      31.780  21.044  21.985  1.00  0.00     0.036 C 
BRANCH  14  16
ATOM     16  C   UNL A   1      32.579  19.625  23.875  1.00  0.00    -0.026 A 
ATOM     17  C   UNL A   1      32.726  18.579  22.950  1.00  0.00     0.007 A 
ATOM     18  C   UNL A   1      32.582  19.318  25.248  1.00  0.00     0.007 A 
ATOM     19  C   UNL A   1      32.909  17.265  23.389  1.00  0.00     0.021 A 
ATOM     20  C   UNL A   1      32.770  18.007  25.686  1.00  0.00     0.021 A 
ATOM     21  C   UNL A   1      32.937  16.986  24.755  1.00  0.00     0.041 A 
ATOM     22  Cl  UNL A   1      33.178  15.370  25.294  1.00  0.00    -0.084 Cl
ENDBRANCH  14  16
ENDBRANCH  12  14
ENDBRANCH   7  12
ENDBRANCH   3   6
ENDBRANCH   1   2
BRANCH   1  23
ATOM     23  C   UNL A   1      37.980  19.785  24.909  1.00  0.00     0.042 C 
BRANCH  23  24
ATOM     24  C   UNL A   1      38.965  20.073  26.047  1.00  0.00     0.118 C 
BRANCH  24  25
ATOM     25  N   UNL A   1      40.127  19.191  26.010  1.00  0.00    -0.352 N 
ATOM     26  C   UNL A   1      41.470  19.467  26.004  1.00  0.00     0.251 C 
ATOM     27  H   UNL A   1      39.909  18.232  25.984  1.00  0.00     0.163 HD
ATOM     28  O   UNL A   1      42.265  18.584  25.696  1.00  0.00    -0.269 OA
BRANCH  26  29
ATOM     29  C   UNL A   1      41.976  20.806  26.373  1.00  0.00     0.039 A 
ATOM     30  C   UNL A   1      42.197  21.745  25.360  1.00  0.00     0.014 A 
ATOM     31  C   UNL A   1      42.315  21.112  27.693  1.00  0.00     0.014 A 
ATOM     32  C   UNL A   1      42.708  23.006  25.677  1.00  0.00     0.010 A 
ATOM     33  C   UNL A   1      42.763  22.390  28.017  1.00  0.00     0.010 A 
ATOM     34  C   UNL A   1      42.970  23.347  27.013  1.00  0.00    -0.014 A 
BRANCH  34  35
ATOM     35  C   UNL A   1      43.464  24.697  27.380  1.00  0.00     0.031 A 
ATOM     36  C   UNL A   1      42.524  25.715  27.963  1.00  0.00     0.074 A 
ATOM     37  C   UNL A   1      44.742  25.029  27.117  1.00  0.00     0.049 A 
ATOM     38  N   UNL A   1      42.741  26.973  28.254  1.00  0.00    -0.248 NA
ATOM     39  C   UNL A   1      41.148  25.266  28.228  1.00  0.00     0.031 C 
ATOM     40  C   UNL A   1      45.737  24.142  26.511  1.00  0.00     0.029 A 
ATOM     41  N   UNL A   1      45.419  26.207  27.309  1.00  0.00    -0.354 N 
ATOM     42  C   UNL A   1      41.529  27.468  28.716  1.00  0.00     0.074 A 
ATOM     43  C   UNL A   1      40.568  26.389  28.623  1.00  0.00     0.031 C 
ATOM     44  C   UNL A   1      46.898  24.804  26.391  1.00  0.00     0.029 A 
ATOM     45  C   UNL A   1      46.722  26.168  26.877  1.00  0.00     0.049 A 
ATOM     46  H   UNL A   1      45.009  27.004  27.718  1.00  0.00     0.167 HD
ATOM     47  C   UNL A   1      41.248  28.704  29.194  1.00  0.00     0.037 A 
ATOM     48  C   UNL A   1      47.664  27.130  26.864  1.00  0.00     0.037 A 
ATOM     49  C   UNL A   1      42.213  29.766  29.309  1.00  0.00     0.049 A 
ATOM     50  C   UNL A   1      47.331  28.490  27.410  1.00  0.00     0.074 A 
ATOM     51  C   UNL A   1      42.044  31.036  29.832  1.00  0.00     0.029 A 
ATOM     52  N   UNL A   1      43.534  29.678  28.894  1.00  0.00    -0.354 N 
ATOM     53  N   UNL A   1      46.198  28.930  27.899  1.00  0.00    -0.248 NA
ATOM     54  C   UNL A   1      48.411  29.487  27.410  1.00  0.00     0.031 C 
ATOM     55  C   UNL A   1      43.252  31.729  29.699  1.00  0.00     0.029 A 
ATOM     56  C   UNL A   1      44.187  30.876  29.135  1.00  0.00     0.049 A 
ATOM     57  H   UNL A   1      43.947  28.882  28.488  1.00  0.00     0.167 HD
ATOM     58  C   UNL A   1      46.432  30.242  28.286  1.00  0.00     0.074 A 
ATOM     59  C   UNL A   1      47.821  30.523  27.990  1.00  0.00     0.031 C 
ATOM     60  C   UNL A   1      45.573  31.135  28.837  1.00  0.00     0.037 A 
BRANCH  47  61
ATOM     61  C   UNL A   1      39.837  28.975  29.632  1.00  0.00     0.064 A 
ATOM     62  C   UNL A   1      38.866  29.443  28.733  1.00  0.00     0.173 A 
ATOM     63  C   UNL A   1      39.443  28.737  30.957  1.00  0.00     0.173 A 
ATOM     64  F   UNL A   1      39.195  29.697  27.457  1.00  0.00    -0.203 F 
ATOM     65  C   UNL A   1      37.562  29.693  29.152  1.00  0.00     0.198 A 
ATOM     66  C   UNL A   1      38.129  28.959  31.365  1.00  0.00     0.198 A 
ATOM     67  F   UNL A   1      40.328  28.282  31.856  1.00  0.00    -0.203 F 
ATOM     68  F   UNL A   1      36.665  30.188  28.287  1.00  0.00    -0.200 F 
ATOM     69  C   UNL A   1      37.193  29.444  30.465  1.00  0.00     0.200 A 
ATOM     70  F   UNL A   1      37.771  28.706  32.632  1.00  0.00    -0.200 F 
ATOM     71  F   UNL A   1      35.936  29.680  30.865  1.00  0.00    -0.200 F 
ENDBRANCH  47  61
BRANCH  48  72
ATOM     72  C   UNL A   1      49.019  26.827  26.337  1.00  0.00     0.064 A 
ATOM     73  C   UNL A   1      50.007  26.279  27.166  1.00  0.00     0.173 A 
ATOM     74  C   UNL A   1      49.351  27.069  24.997  1.00  0.00     0.173 A 
ATOM     75  F   UNL A   1      49.741  26.046  28.461  1.00  0.00    -0.203 F 
ATOM     76  C   UNL A   1      51.282  25.998  26.680  1.00  0.00     0.198 A 
ATOM     77  C   UNL A   1      50.619  26.764  24.504  1.00  0.00     0.198 A 
ATOM     78  F   UNL A   1      48.439  27.587  24.161  1.00  0.00    -0.203 F 
ATOM     79  F   UNL A   1      52.218  25.509  27.502  1.00  0.00    -0.200 F 
ATOM     80  C   UNL A   1      51.584  26.235  25.347  1.00  0.00     0.200 A 
ATOM     81  F   UNL A   1      50.903  26.979  23.212  1.00  0.00    -0.200 F 
ATOM     82  F   UNL A   1      52.809  25.958  24.877  1.00  0.00    -0.200 F 
ENDBRANCH  48  72
BRANCH  60  83
ATOM     83  C   UNL A   1      46.119  32.488  29.182  1.00  0.00     0.064 A 
ATOM     84  C   UNL A   1      46.720  32.744  30.423  1.00  0.00     0.173 A 
ATOM     85  C   UNL A   1      46.074  33.532  28.245  1.00  0.00     0.173 A 
ATOM     86  F   UNL A   1      46.772  31.784  31.358  1.00  0.00    -0.203 F 
ATOM     87  C   UNL A   1      47.236  34.002  30.721  1.00  0.00     0.198 A 
ATOM     88  C   UNL A   1      46.616  34.780  28.536  1.00  0.00     0.198 A 
ATOM     89  F   UNL A   1      45.515  33.336  27.041  1.00  0.00    -0.203 F 
ATOM     90  F   UNL A   1      47.767  34.238  31.930  1.00  0.00    -0.200 F 
ATOM     91  C   UNL A   1      47.191  35.016  29.776  1.00  0.00     0.200 A 
ATOM     92  F   UNL A   1      46.581  35.755  27.618  1.00  0.00    -0.200 F 
ATOM     93  F   UNL A   1      47.694  36.224  30.063  1.00  0.00    -0.200 F 
ENDBRANCH  60  83
ENDBRANCH  34  35
ENDBRANCH  26  29
ENDBRANCH  24  25
ENDBRANCH  23  24
ENDBRANCH   1  23
TORSDOF 13
ENDMDL
