MODEL 1
REMARK VINA RESULT:     -11.9      0.000      0.000
REMARK SMILES O=C1NC(=S)S/C1=C\c1ccc(OCc2cn(-c3ccc(C(=O)NCCCNC(=O)c4ccc(-c5c6nc(c(-c7c(F)c(F)c(F)c(F)c7F)c7ccc([nH]7)c(-c7c(F)c(F)c(F)c(F)c7F)c7nc(c(-c8c(F)c(F)c(F)c(F)c8F)c8ccc5[nH]8)C=C7)C=C6)cc4)cc3)nn2)cc1
REMARK SMILES IDX 22 1 23 2 24 3 21 5 18 6 19 7 95 8 20 9 94 10 17 11 15 12
REMARK SMILES IDX 16 13 97 14 96 15 14 16 13 17 12 18 9 19 10 20 99 21 11 22
REMARK SMILES IDX 98 23 8 24 1 25 2 26 3 27 7 28 4 29 6 31 5 32 25 33 26 34
REMARK SMILES IDX 27 35 28 36 29 37 30 39 31 40 32 41 93 42 33 43 92 44 34 45
REMARK SMILES IDX 35 46 36 47 86 48 37 49 91 50 85 51 87 52 38 53 90 54 84 55
REMARK SMILES IDX 83 56 39 58 71 59 51 60 70 61 52 62 55 63 69 64 88 65 53 66
REMARK SMILES IDX 54 67 68 69 89 70 56 71 40 72 41 73 49 74 42 75 43 76 47 77
REMARK SMILES IDX 50 78 44 79 45 80 48 81 46 82 72 83 73 84 81 85 74 86 75 87
REMARK SMILES IDX 79 88 82 89 76 90 77 91 80 92 78 93 57 94 58 95 66 96 59 97
REMARK SMILES IDX 60 98 64 99 67 100 61 101 62 102 65 103 63 104
REMARK H PARENT 24 4 3 30 28 38 87 57 55 68
REMARK Flexibility Score: inf
ROOT
ATOM      1  C   UNL A   1      45.913  24.951  26.219  1.00  0.00     0.251 C 
ATOM      2  O   UNL A   1      47.104  25.157  25.985  1.00  0.00    -0.269 OA
ATOM      3  N   UNL A   1      45.063  24.800  25.148  1.00  0.00    -0.352 N 
ATOM      4  H   UNL A   1      45.492  24.931  24.271  1.00  0.00     0.163 HD
ENDROOT
BRANCH   1   5
ATOM      5  C   UNL A   1      45.456  24.816  27.631  1.00  0.00     0.039 A 
ATOM      6  C   UNL A   1      44.825  24.639  30.352  1.00  0.00     0.066 A 
ATOM      7  C   UNL A   1      45.037  25.893  29.769  1.00  0.00     0.029 A 
ATOM      8  C   UNL A   1      44.845  23.488  29.573  1.00  0.00     0.029 A 
ATOM      9  C   UNL A   1      45.384  25.975  28.417  1.00  0.00     0.016 A 
ATOM     10  C   UNL A   1      45.098  23.598  28.213  1.00  0.00     0.016 A 
BRANCH   6  11
ATOM     11  N   UNL A   1      44.565  24.523  31.727  1.00  0.00    -0.220 N 
ATOM     12  C   UNL A   1      44.008  23.831  33.715  1.00  0.00     0.120 A 
ATOM     13  C   UNL A   1      44.241  23.387  32.434  1.00  0.00     0.144 A 
ATOM     14  N   UNL A   1      44.248  25.182  33.752  1.00  0.00    -0.131 NA
ATOM     15  N   UNL A   1      44.622  25.583  32.551  1.00  0.00    -0.062 NA
BRANCH  12  16
ATOM     16  C   UNL A   1      43.681  23.077  34.962  1.00  0.00     0.289 C 
BRANCH  16  17
ATOM     17  O   UNL A   1      44.578  23.280  36.069  1.00  0.00    -0.487 OA
BRANCH  17  18
ATOM     18  C   UNL A   1      45.558  22.351  36.291  1.00  0.00     0.119 A 
ATOM     19  C   UNL A   1      47.855  20.773  36.632  1.00  0.00    -0.024 A 
ATOM     20  C   UNL A   1      47.700  21.952  37.366  1.00  0.00     0.012 A 
ATOM     21  C   UNL A   1      46.812  20.339  35.814  1.00  0.00     0.012 A 
ATOM     22  C   UNL A   1      46.558  22.740  37.186  1.00  0.00     0.047 A 
ATOM     23  C   UNL A   1      45.655  21.106  35.677  1.00  0.00     0.047 A 
BRANCH  19  24
ATOM     24  C   UNL A   1      49.093  19.994  36.701  1.00  0.00     0.029 C 
ATOM     25  O   UNL A   1      51.481  18.337  36.739  1.00  0.00    -0.268 OA
ATOM     26  C   UNL A   1      51.294  19.195  35.905  1.00  0.00     0.263 C 
ATOM     27  N   UNL A   1      52.148  19.483  34.871  1.00  0.00    -0.307 N 
ATOM     28  C   UNL A   1      50.102  20.086  35.825  1.00  0.00     0.080 C 
ATOM     29  C   UNL A   1      51.801  20.476  34.008  1.00  0.00     0.145 C 
ATOM     30  H   UNL A   1      52.989  18.985  34.758  1.00  0.00     0.171 HD
ATOM     31  S   UNL A   1      50.260  21.154  34.475  1.00  0.00    -0.055 SA
ATOM     32  S   UNL A   1      52.738  20.938  32.723  1.00  0.00    -0.052 S 
ENDBRANCH  19  24
ENDBRANCH  17  18
ENDBRANCH  16  17
ENDBRANCH  12  16
ENDBRANCH   6  11
ENDBRANCH   1   5
BRANCH   3  33
ATOM     33  C   UNL A   1      43.644  24.480  25.076  1.00  0.00     0.118 C 
BRANCH  33  34
ATOM     34  C   UNL A   1      43.406  23.022  24.649  1.00  0.00     0.042 C 
BRANCH  34  35
ATOM     35  C   UNL A   1      42.703  22.230  25.727  1.00  0.00     0.118 C 
BRANCH  35  36
ATOM     36  N   UNL A   1      41.251  22.149  25.511  1.00  0.00    -0.352 N 
ATOM     37  C   UNL A   1      40.213  22.717  26.238  1.00  0.00     0.251 C 
ATOM     38  H   UNL A   1      40.972  21.610  24.735  1.00  0.00     0.163 HD
ATOM     39  O   UNL A   1      39.071  22.295  26.142  1.00  0.00    -0.269 OA
BRANCH  37  40
ATOM     40  C   UNL A   1      40.512  23.856  27.122  1.00  0.00     0.039 A 
ATOM     41  C   UNL A   1      41.449  23.836  28.161  1.00  0.00     0.014 A 
ATOM     42  C   UNL A   1      39.852  25.024  26.828  1.00  0.00     0.014 A 
ATOM     43  C   UNL A   1      41.661  25.018  28.873  1.00  0.00     0.010 A 
ATOM     44  C   UNL A   1      40.520  26.162  27.114  1.00  0.00     0.010 A 
ATOM     45  C   UNL A   1      41.128  26.191  28.344  1.00  0.00    -0.014 A 
BRANCH  45  46
ATOM     46  C   UNL A   1      41.184  27.510  28.940  1.00  0.00     0.031 A 
ATOM     47  C   UNL A   1      42.250  28.370  28.392  1.00  0.00     0.074 A 
ATOM     48  C   UNL A   1      40.146  27.988  29.671  1.00  0.00     0.049 A 
ATOM     49  N   UNL A   1      43.311  28.779  28.999  1.00  0.00    -0.248 NA
ATOM     50  C   UNL A   1      42.233  28.664  26.951  1.00  0.00     0.031 C 
ATOM     51  C   UNL A   1      38.857  27.354  29.989  1.00  0.00     0.029 A 
ATOM     52  N   UNL A   1      39.996  29.230  30.207  1.00  0.00    -0.354 N 
ATOM     53  C   UNL A   1      44.007  29.542  28.069  1.00  0.00     0.074 A 
ATOM     54  C   UNL A   1      43.424  29.243  26.790  1.00  0.00     0.031 C 
ATOM     55  C   UNL A   1      37.993  28.280  30.466  1.00  0.00     0.029 A 
ATOM     56  C   UNL A   1      38.701  29.534  30.625  1.00  0.00     0.049 A 
ATOM     57  H   UNL A   1      40.745  29.864  30.294  1.00  0.00     0.167 HD
ATOM     58  C   UNL A   1      44.844  30.540  28.467  1.00  0.00     0.037 A 
ATOM     59  C   UNL A   1      38.272  30.766  31.003  1.00  0.00     0.037 A 
ATOM     60  C   UNL A   1      45.089  30.457  29.888  1.00  0.00     0.049 A 
ATOM     61  C   UNL A   1      39.493  31.549  31.359  1.00  0.00     0.074 A 
ATOM     62  C   UNL A   1      45.667  29.504  30.705  1.00  0.00     0.029 A 
ATOM     63  N   UNL A   1      44.328  31.251  30.715  1.00  0.00    -0.354 N 
ATOM     64  N   UNL A   1      40.264  31.250  32.372  1.00  0.00    -0.248 NA
ATOM     65  C   UNL A   1      40.134  32.306  30.292  1.00  0.00     0.031 C 
ATOM     66  C   UNL A   1      44.837  29.467  31.865  1.00  0.00     0.029 A 
ATOM     67  C   UNL A   1      43.862  30.458  31.736  1.00  0.00     0.049 A 
ATOM     68  H   UNL A   1      44.149  32.212  30.596  1.00  0.00     0.167 HD
ATOM     69  C   UNL A   1      41.561  31.402  31.894  1.00  0.00     0.074 A 
ATOM     70  C   UNL A   1      41.415  32.108  30.621  1.00  0.00     0.031 C 
ATOM     71  C   UNL A   1      42.597  30.673  32.405  1.00  0.00     0.037 A 
BRANCH  58  72
ATOM     72  C   UNL A   1      45.167  31.779  27.673  1.00  0.00     0.064 A 
ATOM     73  C   UNL A   1      46.445  31.895  27.088  1.00  0.00     0.173 A 
ATOM     74  C   UNL A   1      44.396  32.961  27.680  1.00  0.00     0.173 A 
ATOM     75  F   UNL A   1      47.264  30.835  27.023  1.00  0.00    -0.203 F 
ATOM     76  C   UNL A   1      46.942  33.117  26.634  1.00  0.00     0.198 A 
ATOM     77  C   UNL A   1      44.875  34.168  27.175  1.00  0.00     0.198 A 
ATOM     78  F   UNL A   1      43.198  33.035  28.271  1.00  0.00    -0.203 F 
ATOM     79  F   UNL A   1      48.209  33.201  26.205  1.00  0.00    -0.200 F 
ATOM     80  C   UNL A   1      46.160  34.255  26.685  1.00  0.00     0.200 A 
ATOM     81  F   UNL A   1      44.103  35.262  27.241  1.00  0.00    -0.200 F 
ATOM     82  F   UNL A   1      46.655  35.441  26.307  1.00  0.00    -0.200 F 
ENDBRANCH  58  72
BRANCH  59  83
ATOM     83  C   UNL A   1      36.957  31.392  30.704  1.00  0.00     0.064 A 
ATOM     84  C   UNL A   1      36.058  31.738  31.728  1.00  0.00     0.173 A 
ATOM     85  C   UNL A   1      36.664  31.909  29.425  1.00  0.00     0.173 A 
ATOM     86  F   UNL A   1      36.281  31.330  32.986  1.00  0.00    -0.203 F 
ATOM     87  C   UNL A   1      34.950  32.564  31.489  1.00  0.00     0.198 A 
ATOM     88  C   UNL A   1      35.558  32.728  29.187  1.00  0.00     0.198 A 
ATOM     89  F   UNL A   1      37.498  31.710  28.395  1.00  0.00    -0.203 F 
ATOM     90  F   UNL A   1      34.148  32.918  32.503  1.00  0.00    -0.200 F 
ATOM     91  C   UNL A   1      34.707  33.066  30.221  1.00  0.00     0.200 A 
ATOM     92  F   UNL A   1      35.359  33.236  27.963  1.00  0.00    -0.200 F 
ATOM     93  F   UNL A   1      33.685  33.905  30.005  1.00  0.00    -0.200 F 
ENDBRANCH  59  83
BRANCH  71  94
ATOM     94  C   UNL A   1      42.343  29.838  33.636  1.00  0.00     0.064 A 
ATOM     95  C   UNL A   1      41.930  28.494  33.606  1.00  0.00     0.173 A 
ATOM     96  C   UNL A   1      42.708  30.361  34.883  1.00  0.00     0.173 A 
ATOM     97  F   UNL A   1      41.666  27.880  32.449  1.00  0.00    -0.203 F 
ATOM     98  C   UNL A   1      41.849  27.726  34.768  1.00  0.00     0.198 A 
ATOM     99  C   UNL A   1      42.663  29.583  36.038  1.00  0.00     0.198 A 
ATOM    100  F   UNL A   1      43.171  31.617  34.972  1.00  0.00    -0.203 F 
ATOM    101  F   UNL A   1      41.450  26.447  34.703  1.00  0.00    -0.200 F 
ATOM    102  C   UNL A   1      42.224  28.270  35.982  1.00  0.00     0.200 A 
ATOM    103  F   UNL A   1      43.080  30.098  37.203  1.00  0.00    -0.200 F 
ATOM    104  F   UNL A   1      42.194  27.521  37.094  1.00  0.00    -0.200 F 
ENDBRANCH  71  94
ENDBRANCH  45  46
ENDBRANCH  37  40
ENDBRANCH  35  36
ENDBRANCH  34  35
ENDBRANCH  33  34
ENDBRANCH   3  33
TORSDOF 15
ENDMDL
MODEL 2
REMARK VINA RESULT:     -11.4      1.012      1.737
REMARK SMILES O=C1NC(=S)S/C1=C\c1ccc(OCc2cn(-c3ccc(C(=O)NCCCNC(=O)c4ccc(-c5c6nc(c(-c7c(F)c(F)c(F)c(F)c7F)c7ccc([nH]7)c(-c7c(F)c(F)c(F)c(F)c7F)c7nc(c(-c8c(F)c(F)c(F)c(F)c8F)c8ccc5[nH]8)C=C7)C=C6)cc4)cc3)nn2)cc1
REMARK SMILES IDX 22 1 23 2 24 3 21 5 18 6 19 7 95 8 20 9 94 10 17 11 15 12
REMARK SMILES IDX 16 13 97 14 96 15 14 16 13 17 12 18 9 19 10 20 99 21 11 22
REMARK SMILES IDX 98 23 8 24 1 25 2 26 3 27 7 28 4 29 6 31 5 32 25 33 26 34
REMARK SMILES IDX 27 35 28 36 29 37 30 39 31 40 32 41 93 42 33 43 92 44 34 45
REMARK SMILES IDX 35 46 36 47 86 48 37 49 91 50 85 51 87 52 38 53 90 54 84 55
REMARK SMILES IDX 83 56 39 58 71 59 51 60 70 61 52 62 55 63 69 64 88 65 53 66
REMARK SMILES IDX 54 67 68 69 89 70 56 71 40 72 41 73 49 74 42 75 43 76 47 77
REMARK SMILES IDX 50 78 44 79 45 80 48 81 46 82 72 83 73 84 81 85 74 86 75 87
REMARK SMILES IDX 79 88 82 89 76 90 77 91 80 92 78 93 57 94 58 95 66 96 59 97
REMARK SMILES IDX 60 98 64 99 67 100 61 101 62 102 65 103 63 104
REMARK H PARENT 24 4 3 30 28 38 87 57 55 68
REMARK Flexibility Score: inf
ROOT
ATOM      1  C   UNL A   1      46.738  25.182  25.006  1.00  0.00     0.251 C 
ATOM      2  O   UNL A   1      47.269  26.037  24.299  1.00  0.00    -0.269 OA
ATOM      3  N   UNL A   1      46.354  24.002  24.412  1.00  0.00    -0.352 N 
ATOM      4  H   UNL A   1      46.494  23.978  23.437  1.00  0.00     0.163 HD
ENDROOT
BRANCH   1   5
ATOM      5  C   UNL A   1      46.589  25.429  26.468  1.00  0.00     0.039 A 
ATOM      6  C   UNL A   1      46.285  25.646  29.241  1.00  0.00     0.066 A 
ATOM      7  C   UNL A   1      47.437  25.053  28.715  1.00  0.00     0.029 A 
ATOM      8  C   UNL A   1      45.329  26.201  28.399  1.00  0.00     0.029 A 
ATOM      9  C   UNL A   1      47.570  24.917  27.329  1.00  0.00     0.016 A 
ATOM     10  C   UNL A   1      45.524  26.141  27.026  1.00  0.00     0.016 A 
BRANCH   6  11
ATOM     11  N   UNL A   1      46.085  25.713  30.630  1.00  0.00    -0.220 N 
ATOM     12  C   UNL A   1      45.289  25.589  32.653  1.00  0.00     0.120 A 
ATOM     13  C   UNL A   1      45.061  25.160  31.366  1.00  0.00     0.144 A 
ATOM     14  N   UNL A   1      46.447  26.324  32.663  1.00  0.00    -0.131 NA
ATOM     15  N   UNL A   1      46.941  26.361  31.439  1.00  0.00    -0.062 NA
BRANCH  12  16
ATOM     16  C   UNL A   1      44.568  25.277  33.924  1.00  0.00     0.289 C 
BRANCH  16  17
ATOM     17  O   UNL A   1      44.501  23.884  34.279  1.00  0.00    -0.487 OA
BRANCH  17  18
ATOM     18  C   UNL A   1      45.638  23.271  34.731  1.00  0.00     0.119 A 
ATOM     19  C   UNL A   1      47.702  21.665  35.751  1.00  0.00    -0.024 A 
ATOM     20  C   UNL A   1      46.940  21.221  34.669  1.00  0.00     0.012 A 
ATOM     21  C   UNL A   1      47.496  22.954  36.246  1.00  0.00     0.012 A 
ATOM     22  C   UNL A   1      45.906  22.021  34.168  1.00  0.00     0.047 A 
ATOM     23  C   UNL A   1      46.495  23.764  35.710  1.00  0.00     0.047 A 
BRANCH  19  24
ATOM     24  C   UNL A   1      48.704  20.801  36.379  1.00  0.00     0.029 C 
ATOM     25  O   UNL A   1      50.620  18.958  37.554  1.00  0.00    -0.268 OA
ATOM     26  C   UNL A   1      50.786  19.470  36.469  1.00  0.00     0.263 C 
ATOM     27  N   UNL A   1      51.861  19.240  35.649  1.00  0.00    -0.307 N 
ATOM     28  C   UNL A   1      49.855  20.426  35.806  1.00  0.00     0.080 C 
ATOM     29  C   UNL A   1      51.909  19.887  34.454  1.00  0.00     0.145 C 
ATOM     30  H   UNL A   1      52.579  18.623  35.919  1.00  0.00     0.171 HD
ATOM     31  S   UNL A   1      50.494  20.895  34.270  1.00  0.00    -0.055 SA
ATOM     32  S   UNL A   1      53.149  19.714  33.369  1.00  0.00    -0.052 S 
ENDBRANCH  19  24
ENDBRANCH  17  18
ENDBRANCH  16  17
ENDBRANCH  12  16
ENDBRANCH   6  11
ENDBRANCH   1   5
BRANCH   3  33
ATOM     33  C   UNL A   1      45.779  22.783  24.962  1.00  0.00     0.118 C 
BRANCH  33  34
ATOM     34  C   UNL A   1      44.459  22.408  24.267  1.00  0.00     0.042 C 
BRANCH  34  35
ATOM     35  C   UNL A   1      43.301  23.230  24.784  1.00  0.00     0.118 C 
BRANCH  35  36
ATOM     36  N   UNL A   1      42.263  22.406  25.422  1.00  0.00    -0.352 N 
ATOM     37  C   UNL A   1      41.455  22.689  26.515  1.00  0.00     0.251 C 
ATOM     38  H   UNL A   1      42.121  21.521  25.014  1.00  0.00     0.163 HD
ATOM     39  O   UNL A   1      40.888  21.796  27.127  1.00  0.00    -0.269 OA
BRANCH  37  40
ATOM     40  C   UNL A   1      41.279  24.093  26.918  1.00  0.00     0.039 A 
ATOM     41  C   UNL A   1      40.257  24.933  26.460  1.00  0.00     0.014 A 
ATOM     42  C   UNL A   1      42.160  24.554  27.866  1.00  0.00     0.014 A 
ATOM     43  C   UNL A   1      40.190  26.226  26.984  1.00  0.00     0.010 A 
ATOM     44  C   UNL A   1      41.679  25.497  28.703  1.00  0.00     0.010 A 
ATOM     45  C   UNL A   1      40.971  26.507  28.103  1.00  0.00    -0.014 A 
BRANCH  45  46
ATOM     46  C   UNL A   1      41.091  27.787  28.771  1.00  0.00     0.031 A 
ATOM     47  C   UNL A   1      42.137  28.662  28.207  1.00  0.00     0.074 A 
ATOM     48  C   UNL A   1      40.111  28.237  29.594  1.00  0.00     0.049 A 
ATOM     49  N   UNL A   1      43.242  29.016  28.768  1.00  0.00    -0.248 NA
ATOM     50  C   UNL A   1      42.035  29.041  26.790  1.00  0.00     0.031 C 
ATOM     51  C   UNL A   1      38.832  27.605  29.956  1.00  0.00     0.029 A 
ATOM     52  N   UNL A   1      40.020  29.446  30.210  1.00  0.00    -0.354 N 
ATOM     53  C   UNL A   1      43.893  29.822  27.841  1.00  0.00     0.074 A 
ATOM     54  C   UNL A   1      43.225  29.610  26.587  1.00  0.00     0.031 C 
ATOM     55  C   UNL A   1      38.018  28.516  30.541  1.00  0.00     0.029 A 
ATOM     56  C   UNL A   1      38.761  29.746  30.729  1.00  0.00     0.049 A 
ATOM     57  H   UNL A   1      40.785  30.063  30.286  1.00  0.00     0.167 HD
ATOM     58  C   UNL A   1      44.774  30.780  28.243  1.00  0.00     0.037 A 
ATOM     59  C   UNL A   1      38.380  30.959  31.205  1.00  0.00     0.037 A 
ATOM     60  C   UNL A   1      45.106  30.609  29.637  1.00  0.00     0.049 A 
ATOM     61  C   UNL A   1      39.636  31.700  31.527  1.00  0.00     0.074 A 
ATOM     62  C   UNL A   1      45.715  29.599  30.359  1.00  0.00     0.029 A 
ATOM     63  N   UNL A   1      44.414  31.364  30.557  1.00  0.00    -0.354 N 
ATOM     64  N   UNL A   1      40.464  31.328  32.469  1.00  0.00    -0.248 NA
ATOM     65  C   UNL A   1      40.224  32.510  30.468  1.00  0.00     0.031 C 
ATOM     66  C   UNL A   1      44.960  29.505  31.565  1.00  0.00     0.029 A 
ATOM     67  C   UNL A   1      43.998  30.519  31.558  1.00  0.00     0.049 A 
ATOM     68  H   UNL A   1      44.248  32.333  30.507  1.00  0.00     0.167 HD
ATOM     69  C   UNL A   1      41.731  31.488  31.918  1.00  0.00     0.074 A 
ATOM     70  C   UNL A   1      41.519  32.272  30.701  1.00  0.00     0.031 C 
ATOM     71  C   UNL A   1      42.783  30.713  32.319  1.00  0.00     0.037 A 
BRANCH  58  72
ATOM     72  C   UNL A   1      45.070  32.060  27.504  1.00  0.00     0.064 A 
ATOM     73  C   UNL A   1      46.304  32.184  26.834  1.00  0.00     0.173 A 
ATOM     74  C   UNL A   1      44.333  33.256  27.641  1.00  0.00     0.173 A 
ATOM     75  F   UNL A   1      47.088  31.114  26.643  1.00  0.00    -0.203 F 
ATOM     76  C   UNL A   1      46.799  33.422  26.419  1.00  0.00     0.198 A 
ATOM     77  C   UNL A   1      44.806  34.481  27.176  1.00  0.00     0.198 A 
ATOM     78  F   UNL A   1      43.184  33.319  28.323  1.00  0.00    -0.203 F 
ATOM     79  F   UNL A   1      48.033  33.504  25.903  1.00  0.00    -0.200 F 
ATOM     80  C   UNL A   1      46.053  34.571  26.598  1.00  0.00     0.200 A 
ATOM     81  F   UNL A   1      44.070  35.586  27.367  1.00  0.00    -0.200 F 
ATOM     82  F   UNL A   1      46.550  35.767  26.257  1.00  0.00    -0.200 F 
ENDBRANCH  58  72
BRANCH  59  83
ATOM     83  C   UNL A   1      37.062  31.624  31.029  1.00  0.00     0.064 A 
ATOM     84  C   UNL A   1      36.211  31.870  32.121  1.00  0.00     0.173 A 
ATOM     85  C   UNL A   1      36.722  32.271  29.822  1.00  0.00     0.173 A 
ATOM     86  F   UNL A   1      36.482  31.334  33.320  1.00  0.00    -0.203 F 
ATOM     87  C   UNL A   1      35.105  32.726  32.015  1.00  0.00     0.198 A 
ATOM     88  C   UNL A   1      35.617  33.118  29.717  1.00  0.00     0.198 A 
ATOM     89  F   UNL A   1      37.508  32.171  28.743  1.00  0.00    -0.203 F 
ATOM     90  F   UNL A   1      34.351  32.981  33.094  1.00  0.00    -0.200 F 
ATOM     91  C   UNL A   1      34.815  33.356  30.816  1.00  0.00     0.200 A 
ATOM     92  F   UNL A   1      35.372  33.750  28.561  1.00  0.00    -0.200 F 
ATOM     93  F   UNL A   1      33.795  34.221  30.731  1.00  0.00    -0.200 F 
ENDBRANCH  59  83
BRANCH  71  94
ATOM     94  C   UNL A   1      42.590  29.810  33.512  1.00  0.00     0.064 A 
ATOM     95  C   UNL A   1      42.722  30.228  34.848  1.00  0.00     0.173 A 
ATOM     96  C   UNL A   1      42.074  28.525  33.298  1.00  0.00     0.173 A 
ATOM     97  F   UNL A   1      43.104  31.473  35.145  1.00  0.00    -0.203 F 
ATOM     98  C   UNL A   1      42.392  29.391  35.914  1.00  0.00     0.198 A 
ATOM     99  C   UNL A   1      41.709  27.703  34.362  1.00  0.00     0.198 A 
ATOM    100  F   UNL A   1      41.864  28.088  32.047  1.00  0.00    -0.203 F 
ATOM    101  F   UNL A   1      42.532  29.822  37.177  1.00  0.00    -0.200 F 
ATOM    102  C   UNL A   1      41.878  28.131  35.669  1.00  0.00     0.200 A 
ATOM    103  F   UNL A   1      41.160  26.506  34.118  1.00  0.00    -0.200 F 
ATOM    104  F   UNL A   1      41.514  27.342  36.689  1.00  0.00    -0.200 F 
ENDBRANCH  71  94
ENDBRANCH  45  46
ENDBRANCH  37  40
ENDBRANCH  35  36
ENDBRANCH  34  35
ENDBRANCH  33  34
ENDBRANCH   3  33
TORSDOF 15
ENDMDL
MODEL 3
REMARK VINA RESULT:     -11.4      5.197     11.162
REMARK SMILES O=C1NC(=S)S/C1=C\c1ccc(OCc2cn(-c3ccc(C(=O)NCCCNC(=O)c4ccc(-c5c6nc(c(-c7c(F)c(F)c(F)c(F)c7F)c7ccc([nH]7)c(-c7c(F)c(F)c(F)c(F)c7F)c7nc(c(-c8c(F)c(F)c(F)c(F)c8F)c8ccc5[nH]8)C=C7)C=C6)cc4)cc3)nn2)cc1
REMARK SMILES IDX 22 1 23 2 24 3 21 5 18 6 19 7 95 8 20 9 94 10 17 11 15 12
REMARK SMILES IDX 16 13 97 14 96 15 14 16 13 17 12 18 9 19 10 20 99 21 11 22
REMARK SMILES IDX 98 23 8 24 1 25 2 26 3 27 7 28 4 29 6 31 5 32 25 33 26 34
REMARK SMILES IDX 27 35 28 36 29 37 30 39 31 40 32 41 93 42 33 43 92 44 34 45
REMARK SMILES IDX 35 46 36 47 86 48 37 49 91 50 85 51 87 52 38 53 90 54 84 55
REMARK SMILES IDX 83 56 39 58 71 59 51 60 70 61 52 62 55 63 69 64 88 65 53 66
REMARK SMILES IDX 54 67 68 69 89 70 56 71 40 72 41 73 49 74 42 75 43 76 47 77
REMARK SMILES IDX 50 78 44 79 45 80 48 81 46 82 72 83 73 84 81 85 74 86 75 87
REMARK SMILES IDX 79 88 82 89 76 90 77 91 80 92 78 93 57 94 58 95 66 96 59 97
REMARK SMILES IDX 60 98 64 99 67 100 61 101 62 102 65 103 63 104
REMARK H PARENT 24 4 3 30 28 38 87 57 55 68
REMARK Flexibility Score: inf
ROOT
ATOM      1  C   UNL A   1      43.295  22.797  28.079  1.00  0.00     0.251 C 
ATOM      2  O   UNL A   1      43.351  22.642  29.299  1.00  0.00    -0.269 OA
ATOM      3  N   UNL A   1      44.444  23.173  27.423  1.00  0.00    -0.352 N 
ATOM      4  H   UNL A   1      45.210  23.342  28.019  1.00  0.00     0.163 HD
ENDROOT
BRANCH   1   5
ATOM      5  C   UNL A   1      42.018  22.516  27.363  1.00  0.00     0.039 A 
ATOM      6  C   UNL A   1      39.519  21.947  26.241  1.00  0.00     0.066 A 
ATOM      7  C   UNL A   1      39.690  23.110  27.000  1.00  0.00     0.029 A 
ATOM      8  C   UNL A   1      40.599  21.115  25.972  1.00  0.00     0.029 A 
ATOM      9  C   UNL A   1      40.932  23.373  27.586  1.00  0.00     0.016 A 
ATOM     10  C   UNL A   1      41.847  21.444  26.484  1.00  0.00     0.016 A 
BRANCH   6  11
ATOM     11  N   UNL A   1      38.259  21.613  25.718  1.00  0.00    -0.220 N 
ATOM     12  C   UNL A   1      36.160  21.576  25.138  1.00  0.00     0.120 A 
ATOM     13  C   UNL A   1      37.131  22.400  25.660  1.00  0.00     0.144 A 
ATOM     14  N   UNL A   1      36.734  20.363  24.854  1.00  0.00    -0.131 NA
ATOM     15  N   UNL A   1      38.014  20.409  25.173  1.00  0.00    -0.062 NA
BRANCH  12  16
ATOM     16  C   UNL A   1      34.740  21.858  24.771  1.00  0.00     0.289 C 
BRANCH  16  17
ATOM     17  O   UNL A   1      33.891  22.299  25.845  1.00  0.00    -0.487 OA
BRANCH  17  18
ATOM     18  C   UNL A   1      33.395  23.574  25.802  1.00  0.00     0.119 A 
ATOM     19  C   UNL A   1      32.776  26.311  25.881  1.00  0.00    -0.024 A 
ATOM     20  C   UNL A   1      33.873  25.863  25.141  1.00  0.00     0.012 A 
ATOM     21  C   UNL A   1      31.936  25.377  26.488  1.00  0.00     0.012 A 
ATOM     22  C   UNL A   1      34.183  24.498  25.111  1.00  0.00     0.047 A 
ATOM     23  C   UNL A   1      32.226  24.014  26.414  1.00  0.00     0.047 A 
BRANCH  19  24
ATOM     24  C   UNL A   1      32.500  27.741  26.038  1.00  0.00     0.029 C 
ATOM     25  O   UNL A   1      32.077  30.609  26.247  1.00  0.00    -0.268 OA
ATOM     26  C   UNL A   1      31.554  29.932  25.390  1.00  0.00     0.263 C 
ATOM     27  N   UNL A   1      30.728  30.413  24.407  1.00  0.00    -0.307 N 
ATOM     28  C   UNL A   1      31.717  28.460  25.223  1.00  0.00     0.080 C 
ATOM     29  C   UNL A   1      30.215  29.529  23.509  1.00  0.00     0.145 C 
ATOM     30  H   UNL A   1      30.513  31.371  24.352  1.00  0.00     0.171 HD
ATOM     31  S   UNL A   1      30.788  27.918  23.870  1.00  0.00    -0.055 SA
ATOM     32  S   UNL A   1      29.198  29.964  22.276  1.00  0.00    -0.052 S 
ENDBRANCH  19  24
ENDBRANCH  17  18
ENDBRANCH  16  17
ENDBRANCH  12  16
ENDBRANCH   6  11
ENDBRANCH   1   5
BRANCH   3  33
ATOM     33  C   UNL A   1      44.733  23.365  26.009  1.00  0.00     0.118 C 
BRANCH  33  34
ATOM     34  C   UNL A   1      45.651  24.576  25.772  1.00  0.00     0.042 C 
BRANCH  34  35
ATOM     35  C   UNL A   1      44.865  25.863  25.672  1.00  0.00     0.118 C 
BRANCH  35  36
ATOM     36  N   UNL A   1      43.573  25.684  24.992  1.00  0.00    -0.352 N 
ATOM     37  C   UNL A   1      42.305  26.098  25.376  1.00  0.00     0.251 C 
ATOM     38  H   UNL A   1      43.613  25.198  24.136  1.00  0.00     0.163 HD
ATOM     39  O   UNL A   1      41.303  25.594  24.890  1.00  0.00    -0.269 OA
BRANCH  37  40
ATOM     40  C   UNL A   1      42.185  27.171  26.377  1.00  0.00     0.039 A 
ATOM     41  C   UNL A   1      42.135  28.537  26.079  1.00  0.00     0.014 A 
ATOM     42  C   UNL A   1      42.045  26.756  27.679  1.00  0.00     0.014 A 
ATOM     43  C   UNL A   1      41.959  29.431  27.138  1.00  0.00     0.010 A 
ATOM     44  C   UNL A   1      41.309  27.561  28.474  1.00  0.00     0.010 A 
ATOM     45  C   UNL A   1      41.589  28.900  28.371  1.00  0.00    -0.014 A 
BRANCH  45  46
ATOM     46  C   UNL A   1      41.405  29.635  29.606  1.00  0.00     0.031 A 
ATOM     47  C   UNL A   1      40.128  30.370  29.682  1.00  0.00     0.074 A 
ATOM     48  C   UNL A   1      42.179  29.380  30.690  1.00  0.00     0.049 A 
ATOM     49  N   UNL A   1      39.963  31.649  29.675  1.00  0.00    -0.248 NA
ATOM     50  C   UNL A   1      38.877  29.604  29.568  1.00  0.00     0.031 C 
ATOM     51  C   UNL A   1      43.264  28.398  30.852  1.00  0.00     0.029 A 
ATOM     52  N   UNL A   1      42.071  29.899  31.942  1.00  0.00    -0.354 N 
ATOM     53  C   UNL A   1      38.589  31.851  29.747  1.00  0.00     0.074 A 
ATOM     54  C   UNL A   1      37.982  30.585  29.447  1.00  0.00     0.031 C 
ATOM     55  C   UNL A   1      43.558  28.249  32.165  1.00  0.00     0.029 A 
ATOM     56  C   UNL A   1      42.793  29.219  32.923  1.00  0.00     0.049 A 
ATOM     57  H   UNL A   1      41.526  30.695  32.142  1.00  0.00     0.167 HD
ATOM     58  C   UNL A   1      38.078  32.991  30.289  1.00  0.00     0.037 A 
ATOM     59  C   UNL A   1      42.684  29.429  34.260  1.00  0.00     0.037 A 
ATOM     60  C   UNL A   1      39.117  33.978  30.466  1.00  0.00     0.049 A 
ATOM     61  C   UNL A   1      42.080  30.784  34.428  1.00  0.00     0.074 A 
ATOM     62  C   UNL A   1      39.960  34.645  29.598  1.00  0.00     0.029 A 
ATOM     63  N   UNL A   1      39.702  34.075  31.708  1.00  0.00    -0.354 N 
ATOM     64  N   UNL A   1      42.686  31.886  34.068  1.00  0.00    -0.248 NA
ATOM     65  C   UNL A   1      40.626  30.865  34.486  1.00  0.00     0.031 C 
ATOM     66  C   UNL A   1      41.225  34.662  30.258  1.00  0.00     0.029 A 
ATOM     67  C   UNL A   1      41.063  34.094  31.524  1.00  0.00     0.049 A 
ATOM     68  H   UNL A   1      39.230  34.121  32.571  1.00  0.00     0.167 HD
ATOM     69  C   UNL A   1      41.701  32.654  33.455  1.00  0.00     0.074 A 
ATOM     70  C   UNL A   1      40.440  31.993  33.793  1.00  0.00     0.031 C 
ATOM     71  C   UNL A   1      42.010  33.559  32.478  1.00  0.00     0.037 A 
BRANCH  58  72
ATOM     72  C   UNL A   1      36.741  33.109  30.975  1.00  0.00     0.064 A 
ATOM     73  C   UNL A   1      35.692  33.770  30.303  1.00  0.00     0.173 A 
ATOM     74  C   UNL A   1      36.514  32.851  32.344  1.00  0.00     0.173 A 
ATOM     75  F   UNL A   1      35.795  34.065  29.000  1.00  0.00    -0.203 F 
ATOM     76  C   UNL A   1      34.550  34.216  30.972  1.00  0.00     0.198 A 
ATOM     77  C   UNL A   1      35.349  33.248  32.996  1.00  0.00     0.198 A 
ATOM     78  F   UNL A   1      37.444  32.306  33.136  1.00  0.00    -0.203 F 
ATOM     79  F   UNL A   1      33.642  34.951  30.318  1.00  0.00    -0.200 F 
ATOM     80  C   UNL A   1      34.384  33.962  32.320  1.00  0.00     0.200 A 
ATOM     81  F   UNL A   1      35.211  32.999  34.306  1.00  0.00    -0.200 F 
ATOM     82  F   UNL A   1      33.320  34.442  32.979  1.00  0.00    -0.200 F 
ENDBRANCH  58  72
BRANCH  59  83
ATOM     83  C   UNL A   1      42.705  28.404  35.338  1.00  0.00     0.064 A 
ATOM     84  C   UNL A   1      41.913  27.245  35.266  1.00  0.00     0.173 A 
ATOM     85  C   UNL A   1      43.702  28.410  36.336  1.00  0.00     0.173 A 
ATOM     86  F   UNL A   1      40.971  27.132  34.318  1.00  0.00    -0.203 F 
ATOM     87  C   UNL A   1      42.120  26.156  36.124  1.00  0.00     0.198 A 
ATOM     88  C   UNL A   1      43.904  27.327  37.194  1.00  0.00     0.198 A 
ATOM     89  F   UNL A   1      44.565  29.429  36.440  1.00  0.00    -0.203 F 
ATOM     90  F   UNL A   1      41.381  25.046  35.987  1.00  0.00    -0.200 F 
ATOM     91  C   UNL A   1      43.121  26.195  37.081  1.00  0.00     0.200 A 
ATOM     92  F   UNL A   1      44.901  27.365  38.088  1.00  0.00    -0.200 F 
ATOM     93  F   UNL A   1      43.359  25.131  37.860  1.00  0.00    -0.200 F 
ENDBRANCH  59  83
BRANCH  71  94
ATOM     94  C   UNL A   1      43.466  33.852  32.212  1.00  0.00     0.064 A 
ATOM     95  C   UNL A   1      44.238  33.193  31.238  1.00  0.00     0.173 A 
ATOM     96  C   UNL A   1      44.046  34.963  32.835  1.00  0.00     0.173 A 
ATOM     97  F   UNL A   1      43.727  32.191  30.516  1.00  0.00    -0.203 F 
ATOM     98  C   UNL A   1      45.536  33.600  30.933  1.00  0.00     0.198 A 
ATOM     99  C   UNL A   1      45.330  35.393  32.504  1.00  0.00     0.198 A 
ATOM    100  F   UNL A   1      43.341  35.675  33.728  1.00  0.00    -0.203 F 
ATOM    101  F   UNL A   1      46.245  32.948  30.000  1.00  0.00    -0.200 F 
ATOM    102  C   UNL A   1      46.078  34.706  31.562  1.00  0.00     0.200 A 
ATOM    103  F   UNL A   1      45.829  36.498  33.075  1.00  0.00    -0.200 F 
ATOM    104  F   UNL A   1      47.307  35.131  31.237  1.00  0.00    -0.200 F 
ENDBRANCH  71  94
ENDBRANCH  45  46
ENDBRANCH  37  40
ENDBRANCH  35  36
ENDBRANCH  34  35
ENDBRANCH  33  34
ENDBRANCH   3  33
TORSDOF 15
ENDMDL
