MODEL 1
REMARK VINA RESULT:     -12.5      0.000      0.000
REMARK SMILES CC1(NC(=O)c2csc(/C=C/C(=O)NCCCNC(=O)c3ccc(-c4c5nc(c(-c6c(F)c(F)c(F)c(F)c6F)c6ccc([nH]6)c(-c6c(F)c(F)c(F)c(F)c6F)c6nc(c(-c7c(F)c(F)c(F)c(F)c7F)c7ccc4[nH]7)C=C6)C=C5)cc3)c2)CCCCC1
REMARK SMILES IDX 15 1 14 2 12 3 13 4 11 6 10 7 9 8 6 9 7 10 84 11 8 12 4 13
REMARK SMILES IDX 3 14 5 16 2 17 1 18 85 19 89 20 86 21 88 22 87 23 16 24
REMARK SMILES IDX 17 25 18 26 19 27 20 29 21 30 22 31 83 32 23 33 82 34 24 35
REMARK SMILES IDX 25 36 26 37 76 38 27 39 81 40 75 41 77 42 28 43 80 44 74 45
REMARK SMILES IDX 73 46 29 48 61 49 41 50 60 51 42 52 45 53 59 54 78 55 43 56
REMARK SMILES IDX 44 57 58 59 79 60 46 61 30 62 31 63 39 64 32 65 33 66 37 67
REMARK SMILES IDX 40 68 34 69 35 70 38 71 36 72 62 73 63 74 71 75 64 76 65 77
REMARK SMILES IDX 69 78 72 79 66 80 67 81 70 82 68 83 47 84 48 85 56 86 49 87
REMARK SMILES IDX 50 88 54 89 57 90 51 91 52 92 55 93 53 94
REMARK H PARENT 14 5 3 15 18 28 77 47 45 58
REMARK Flexibility Score: inf
ROOT
ATOM      1  C   UNL A   1      37.080  20.734  24.686  1.00  0.00     0.118 C 
ENDROOT
BRANCH   1   2
ATOM      2  N   UNL A   1      35.822  20.502  25.377  1.00  0.00    -0.352 N 
ATOM      3  C   UNL A   1      34.623  21.141  25.290  1.00  0.00     0.244 C 
ATOM      4  O   UNL A   1      33.658  20.707  25.911  1.00  0.00    -0.270 OA
ATOM      5  H   UNL A   1      35.840  19.754  26.017  1.00  0.00     0.163 HD
BRANCH   3   6
ATOM      6  C   UNL A   1      34.451  22.296  24.385  1.00  0.00     0.072 C 
ATOM      7  C   UNL A   1      33.541  23.254  24.603  1.00  0.00     0.024 C 
BRANCH   7   8
ATOM      8  C   UNL A   1      33.380  24.408  23.781  1.00  0.00     0.028 A 
ATOM      9  C   UNL A   1      33.413  26.685  23.163  1.00  0.00     0.051 A 
ATOM     10  C   UNL A   1      32.726  26.127  22.107  1.00  0.00     0.079 A 
ATOM     11  C   UNL A   1      33.880  25.667  24.057  1.00  0.00     0.033 A 
ATOM     12  S   UNL A   1      32.505  24.440  22.302  1.00  0.00    -0.144 S 
BRANCH   9  13
ATOM     13  C   UNL A   1      33.712  28.090  23.330  1.00  0.00     0.252 C 
ATOM     14  N   UNL A   1      32.923  28.872  24.128  1.00  0.00    -0.347 N 
ATOM     15  H   UNL A   1      33.395  29.687  24.417  1.00  0.00     0.164 HD
ATOM     16  O   UNL A   1      34.743  28.577  22.873  1.00  0.00    -0.269 OA
BRANCH  14  17
ATOM     17  C   UNL A   1      31.544  28.816  24.672  1.00  0.00     0.038 C 
ATOM     18  C   UNL A   1      30.591  29.162  23.513  1.00  0.00     0.034 C 
ATOM     19  C   UNL A   1      31.082  27.490  25.317  1.00  0.00     0.028 C 
ATOM     20  C   UNL A   1      31.426  29.920  25.760  1.00  0.00     0.028 C 
ATOM     21  C   UNL A   1      31.838  27.128  26.591  1.00  0.00     0.002 C 
ATOM     22  C   UNL A   1      32.199  29.575  27.037  1.00  0.00     0.002 C 
ATOM     23  C   UNL A   1      31.754  28.240  27.625  1.00  0.00     0.000 C 
ENDBRANCH  14  17
ENDBRANCH   9  13
ENDBRANCH   7   8
ENDBRANCH   3   6
ENDBRANCH   1   2
BRANCH   1  24
ATOM     24  C   UNL A   1      38.081  19.616  24.973  1.00  0.00     0.042 C 
BRANCH  24  25
ATOM     25  C   UNL A   1      39.177  20.028  25.954  1.00  0.00     0.118 C 
BRANCH  25  26
ATOM     26  N   UNL A   1      40.305  19.105  25.931  1.00  0.00    -0.352 N 
ATOM     27  C   UNL A   1      41.651  19.348  26.020  1.00  0.00     0.251 C 
ATOM     28  H   UNL A   1      40.060  18.156  25.836  1.00  0.00     0.163 HD
ATOM     29  O   UNL A   1      42.446  18.451  25.754  1.00  0.00    -0.269 OA
BRANCH  27  30
ATOM     30  C   UNL A   1      42.157  20.677  26.422  1.00  0.00     0.039 A 
ATOM     31  C   UNL A   1      42.569  21.568  25.427  1.00  0.00     0.014 A 
ATOM     32  C   UNL A   1      42.277  21.031  27.769  1.00  0.00     0.014 A 
ATOM     33  C   UNL A   1      43.047  22.833  25.778  1.00  0.00     0.010 A 
ATOM     34  C   UNL A   1      42.689  22.316  28.116  1.00  0.00     0.010 A 
ATOM     35  C   UNL A   1      43.080  23.229  27.125  1.00  0.00    -0.014 A 
BRANCH  35  36
ATOM     36  C   UNL A   1      43.510  24.597  27.512  1.00  0.00     0.031 A 
ATOM     37  C   UNL A   1      42.491  25.639  27.879  1.00  0.00     0.074 A 
ATOM     38  C   UNL A   1      44.817  24.915  27.468  1.00  0.00     0.049 A 
ATOM     39  N   UNL A   1      42.668  26.903  28.171  1.00  0.00    -0.248 NA
ATOM     40  C   UNL A   1      41.083  25.211  27.893  1.00  0.00     0.031 C 
ATOM     41  C   UNL A   1      45.896  24.002  27.086  1.00  0.00     0.029 A 
ATOM     42  N   UNL A   1      45.462  26.096  27.735  1.00  0.00    -0.354 N 
ATOM     43  C   UNL A   1      41.399  27.423  28.390  1.00  0.00     0.074 A 
ATOM     44  C   UNL A   1      40.457  26.350  28.149  1.00  0.00     0.031 C 
ATOM     45  C   UNL A   1      47.069  24.651  27.161  1.00  0.00     0.029 A 
ATOM     46  C   UNL A   1      46.822  26.033  27.557  1.00  0.00     0.049 A 
ATOM     47  H   UNL A   1      44.994  26.912  28.027  1.00  0.00     0.167 HD
ATOM     48  C   UNL A   1      41.054  28.673  28.778  1.00  0.00     0.037 A 
ATOM     49  C   UNL A   1      47.764  26.987  27.690  1.00  0.00     0.037 A 
ATOM     50  C   UNL A   1      41.997  29.730  29.039  1.00  0.00     0.049 A 
ATOM     51  C   UNL A   1      47.352  28.370  28.112  1.00  0.00     0.074 A 
ATOM     52  C   UNL A   1      41.752  31.013  29.495  1.00  0.00     0.029 A 
ATOM     53  N   UNL A   1      43.370  29.624  28.860  1.00  0.00    -0.354 N 
ATOM     54  N   UNL A   1      46.156  28.831  28.383  1.00  0.00    -0.248 NA
ATOM     55  C   UNL A   1      48.424  29.365  28.253  1.00  0.00     0.031 C 
ATOM     56  C   UNL A   1      42.971  31.700  29.547  1.00  0.00     0.029 A 
ATOM     57  C   UNL A   1      43.981  30.828  29.175  1.00  0.00     0.049 A 
ATOM     58  H   UNL A   1      43.839  28.814  28.556  1.00  0.00     0.167 HD
ATOM     59  C   UNL A   1      46.331  30.159  28.749  1.00  0.00     0.074 A 
ATOM     60  C   UNL A   1      47.754  30.424  28.683  1.00  0.00     0.031 C 
ATOM     61  C   UNL A   1      45.399  31.075  29.107  1.00  0.00     0.037 A 
BRANCH  48  62
ATOM     62  C   UNL A   1      39.592  28.971  28.947  1.00  0.00     0.064 A 
ATOM     63  C   UNL A   1      38.967  28.907  30.203  1.00  0.00     0.173 A 
ATOM     64  C   UNL A   1      38.812  29.365  27.849  1.00  0.00     0.173 A 
ATOM     65  F   UNL A   1      39.664  28.527  31.285  1.00  0.00    -0.203 F 
ATOM     66  C   UNL A   1      37.613  29.196  30.347  1.00  0.00     0.198 A 
ATOM     67  C   UNL A   1      37.465  29.683  28.001  1.00  0.00     0.198 A 
ATOM     68  F   UNL A   1      39.359  29.449  26.626  1.00  0.00    -0.203 F 
ATOM     69  F   UNL A   1      37.028  29.080  31.547  1.00  0.00    -0.200 F 
ATOM     70  C   UNL A   1      36.865  29.591  29.248  1.00  0.00     0.200 A 
ATOM     71  F   UNL A   1      36.746  30.078  26.941  1.00  0.00    -0.200 F 
ATOM     72  F   UNL A   1      35.563  29.877  29.389  1.00  0.00    -0.200 F 
ENDBRANCH  48  62
BRANCH  49  73
ATOM     73  C   UNL A   1      49.192  26.658  27.439  1.00  0.00     0.064 A 
ATOM     74  C   UNL A   1      50.072  26.419  28.503  1.00  0.00     0.173 A 
ATOM     75  C   UNL A   1      49.705  26.577  26.137  1.00  0.00     0.173 A 
ATOM     76  F   UNL A   1      49.632  26.504  29.767  1.00  0.00    -0.203 F 
ATOM     77  C   UNL A   1      51.416  26.131  28.275  1.00  0.00     0.198 A 
ATOM     78  C   UNL A   1      51.043  26.261  25.909  1.00  0.00     0.198 A 
ATOM     79  F   UNL A   1      48.904  26.792  25.083  1.00  0.00    -0.203 F 
ATOM     80  F   UNL A   1      52.245  25.951  29.312  1.00  0.00    -0.200 F 
ATOM     81  C   UNL A   1      51.899  26.046  26.978  1.00  0.00     0.200 A 
ATOM     82  F   UNL A   1      51.502  26.165  24.654  1.00  0.00    -0.200 F 
ATOM     83  F   UNL A   1      53.190  25.764  26.760  1.00  0.00    -0.200 F 
ENDBRANCH  49  73
BRANCH  61  84
ATOM     84  C   UNL A   1      45.890  32.443  29.484  1.00  0.00     0.064 A 
ATOM     85  C   UNL A   1      45.989  33.476  28.540  1.00  0.00     0.173 A 
ATOM     86  C   UNL A   1      46.233  32.732  30.814  1.00  0.00     0.173 A 
ATOM     87  F   UNL A   1      45.688  33.245  27.253  1.00  0.00    -0.203 F 
ATOM     88  C   UNL A   1      46.438  34.741  28.909  1.00  0.00     0.198 A 
ATOM     89  C   UNL A   1      46.651  34.006  31.185  1.00  0.00     0.198 A 
ATOM     90  F   UNL A   1      46.150  31.781  31.756  1.00  0.00    -0.203 F 
ATOM     91  F   UNL A   1      46.571  35.698  27.981  1.00  0.00    -0.200 F 
ATOM     92  C   UNL A   1      46.760  35.007  30.232  1.00  0.00     0.200 A 
ATOM     93  F   UNL A   1      46.949  34.266  32.465  1.00  0.00    -0.200 F 
ATOM     94  F   UNL A   1      47.185  36.228  30.585  1.00  0.00    -0.200 F 
ENDBRANCH  61  84
ENDBRANCH  35  36
ENDBRANCH  27  30
ENDBRANCH  25  26
ENDBRANCH  24  25
ENDBRANCH   1  24
TORSDOF 13
ENDMDL
MODEL 2
REMARK VINA RESULT:     -12.5      0.849      1.478
REMARK SMILES CC1(NC(=O)c2csc(/C=C/C(=O)NCCCNC(=O)c3ccc(-c4c5nc(c(-c6c(F)c(F)c(F)c(F)c6F)c6ccc([nH]6)c(-c6c(F)c(F)c(F)c(F)c6F)c6nc(c(-c7c(F)c(F)c(F)c(F)c7F)c7ccc4[nH]7)C=C6)C=C5)cc3)c2)CCCCC1
REMARK SMILES IDX 15 1 14 2 12 3 13 4 11 6 10 7 9 8 6 9 7 10 84 11 8 12 4 13
REMARK SMILES IDX 3 14 5 16 2 17 1 18 85 19 89 20 86 21 88 22 87 23 16 24
REMARK SMILES IDX 17 25 18 26 19 27 20 29 21 30 22 31 83 32 23 33 82 34 24 35
REMARK SMILES IDX 25 36 26 37 76 38 27 39 81 40 75 41 77 42 28 43 80 44 74 45
REMARK SMILES IDX 73 46 29 48 61 49 41 50 60 51 42 52 45 53 59 54 78 55 43 56
REMARK SMILES IDX 44 57 58 59 79 60 46 61 30 62 31 63 39 64 32 65 33 66 37 67
REMARK SMILES IDX 40 68 34 69 35 70 38 71 36 72 62 73 63 74 71 75 64 76 65 77
REMARK SMILES IDX 69 78 72 79 66 80 67 81 70 82 68 83 47 84 48 85 56 86 49 87
REMARK SMILES IDX 50 88 54 89 57 90 51 91 52 92 55 93 53 94
REMARK H PARENT 14 5 3 15 18 28 77 47 45 58
REMARK Flexibility Score: inf
ROOT
ATOM      1  C   UNL A   1      36.767  20.589  24.687  1.00  0.00     0.118 C 
ENDROOT
BRANCH   1   2
ATOM      2  N   UNL A   1      35.554  20.310  25.440  1.00  0.00    -0.352 N 
ATOM      3  C   UNL A   1      34.286  20.785  25.301  1.00  0.00     0.244 C 
ATOM      4  O   UNL A   1      33.388  20.332  26.005  1.00  0.00    -0.270 OA
ATOM      5  H   UNL A   1      35.670  19.667  26.177  1.00  0.00     0.163 HD
BRANCH   3   6
ATOM      6  C   UNL A   1      33.965  21.773  24.251  1.00  0.00     0.072 C 
ATOM      7  C   UNL A   1      33.913  23.089  24.490  1.00  0.00     0.024 C 
BRANCH   7   8
ATOM      8  C   UNL A   1      33.656  24.075  23.493  1.00  0.00     0.028 A 
ATOM      9  C   UNL A   1      33.417  26.218  22.534  1.00  0.00     0.051 A 
ATOM     10  C   UNL A   1      32.900  25.417  21.540  1.00  0.00     0.079 A 
ATOM     11  C   UNL A   1      33.951  25.422  23.599  1.00  0.00     0.033 A 
ATOM     12  S   UNL A   1      32.903  23.762  21.979  1.00  0.00    -0.144 S 
BRANCH   9  13
ATOM     13  C   UNL A   1      33.502  27.661  22.500  1.00  0.00     0.252 C 
ATOM     14  N   UNL A   1      32.665  28.420  23.271  1.00  0.00    -0.347 N 
ATOM     15  H   UNL A   1      33.023  29.327  23.411  1.00  0.00     0.164 HD
ATOM     16  O   UNL A   1      34.404  28.228  21.887  1.00  0.00    -0.269 OA
BRANCH  14  17
ATOM     17  C   UNL A   1      31.359  28.235  23.951  1.00  0.00     0.038 C 
ATOM     18  C   UNL A   1      30.322  27.932  22.854  1.00  0.00     0.034 C 
ATOM     19  C   UNL A   1      31.267  27.142  25.039  1.00  0.00     0.028 C 
ATOM     20  C   UNL A   1      30.989  29.586  24.626  1.00  0.00     0.028 C 
ATOM     21  C   UNL A   1      32.120  27.424  26.271  1.00  0.00     0.002 C 
ATOM     22  C   UNL A   1      31.855  29.889  25.853  1.00  0.00     0.002 C 
ATOM     23  C   UNL A   1      31.780  28.772  26.889  1.00  0.00     0.000 C 
ENDBRANCH  14  17
ENDBRANCH   9  13
ENDBRANCH   7   8
ENDBRANCH   3   6
ENDBRANCH   1   2
BRANCH   1  24
ATOM     24  C   UNL A   1      37.858  19.567  25.001  1.00  0.00     0.042 C 
BRANCH  24  25
ATOM     25  C   UNL A   1      39.045  20.167  25.751  1.00  0.00     0.118 C 
BRANCH  25  26
ATOM     26  N   UNL A   1      40.115  19.196  25.945  1.00  0.00    -0.352 N 
ATOM     27  C   UNL A   1      41.459  19.384  26.139  1.00  0.00     0.251 C 
ATOM     28  H   UNL A   1      39.826  18.255  25.934  1.00  0.00     0.163 HD
ATOM     29  O   UNL A   1      42.222  18.426  26.057  1.00  0.00    -0.269 OA
BRANCH  27  30
ATOM     30  C   UNL A   1      42.002  20.726  26.437  1.00  0.00     0.039 A 
ATOM     31  C   UNL A   1      42.259  21.597  25.374  1.00  0.00     0.014 A 
ATOM     32  C   UNL A   1      42.306  21.112  27.745  1.00  0.00     0.014 A 
ATOM     33  C   UNL A   1      42.767  22.873  25.627  1.00  0.00     0.010 A 
ATOM     34  C   UNL A   1      42.748  22.408  28.002  1.00  0.00     0.010 A 
ATOM     35  C   UNL A   1      42.985  23.300  26.947  1.00  0.00    -0.014 A 
BRANCH  35  36
ATOM     36  C   UNL A   1      43.450  24.681  27.239  1.00  0.00     0.031 A 
ATOM     37  C   UNL A   1      42.498  25.702  27.794  1.00  0.00     0.074 A 
ATOM     38  C   UNL A   1      44.716  25.028  26.940  1.00  0.00     0.049 A 
ATOM     39  N   UNL A   1      42.699  26.972  28.044  1.00  0.00    -0.248 NA
ATOM     40  C   UNL A   1      41.131  25.243  28.084  1.00  0.00     0.031 C 
ATOM     41  C   UNL A   1      45.721  24.137  26.357  1.00  0.00     0.029 A 
ATOM     42  N   UNL A   1      45.373  26.225  27.074  1.00  0.00    -0.354 N 
ATOM     43  C   UNL A   1      41.485  27.464  28.505  1.00  0.00     0.074 A 
ATOM     44  C   UNL A   1      40.540  26.369  28.454  1.00  0.00     0.031 C 
ATOM     45  C   UNL A   1      46.870  24.812  26.201  1.00  0.00     0.029 A 
ATOM     46  C   UNL A   1      46.673  26.192  26.634  1.00  0.00     0.049 A 
ATOM     47  H   UNL A   1      44.951  27.033  27.449  1.00  0.00     0.167 HD
ATOM     48  C   UNL A   1      41.192  28.709  28.949  1.00  0.00     0.037 A 
ATOM     49  C   UNL A   1      47.600  27.167  26.578  1.00  0.00     0.037 A 
ATOM     50  C   UNL A   1      42.143  29.789  29.018  1.00  0.00     0.049 A 
ATOM     51  C   UNL A   1      47.246  28.544  27.069  1.00  0.00     0.074 A 
ATOM     52  C   UNL A   1      41.961  31.070  29.510  1.00  0.00     0.029 A 
ATOM     53  N   UNL A   1      43.457  29.713  28.576  1.00  0.00    -0.354 N 
ATOM     54  N   UNL A   1      46.115  28.980  27.567  1.00  0.00    -0.248 NA
ATOM     55  C   UNL A   1      48.301  29.564  26.996  1.00  0.00     0.031 C 
ATOM     56  C   UNL A   1      43.151  31.784  29.322  1.00  0.00     0.029 A 
ATOM     57  C   UNL A   1      44.089  30.933  28.762  1.00  0.00     0.049 A 
ATOM     58  H   UNL A   1      43.877  28.912  28.188  1.00  0.00     0.167 HD
ATOM     59  C   UNL A   1      46.327  30.314  27.888  1.00  0.00     0.074 A 
ATOM     60  C   UNL A   1      47.703  30.611  27.546  1.00  0.00     0.031 C 
ATOM     61  C   UNL A   1      45.461  31.211  28.419  1.00  0.00     0.037 A 
BRANCH  48  62
ATOM     62  C   UNL A   1      39.785  28.975  29.399  1.00  0.00     0.064 A 
ATOM     63  C   UNL A   1      39.385  28.770  30.729  1.00  0.00     0.173 A 
ATOM     64  C   UNL A   1      38.832  29.480  28.501  1.00  0.00     0.173 A 
ATOM     65  F   UNL A   1      40.254  28.281  31.627  1.00  0.00    -0.203 F 
ATOM     66  C   UNL A   1      38.079  29.031  31.135  1.00  0.00     0.198 A 
ATOM     67  C   UNL A   1      37.534  29.769  28.917  1.00  0.00     0.198 A 
ATOM     68  F   UNL A   1      39.161  29.701  27.219  1.00  0.00    -0.203 F 
ATOM     69  F   UNL A   1      37.709  28.781  32.399  1.00  0.00    -0.200 F 
ATOM     70  C   UNL A   1      37.157  29.537  30.231  1.00  0.00     0.200 A 
ATOM     71  F   UNL A   1      36.648  30.270  28.046  1.00  0.00    -0.200 F 
ATOM     72  F   UNL A   1      35.902  29.795  30.624  1.00  0.00    -0.200 F 
ENDBRANCH  48  62
BRANCH  49  73
ATOM     73  C   UNL A   1      48.959  26.870  26.054  1.00  0.00     0.064 A 
ATOM     74  C   UNL A   1      49.967  26.389  26.902  1.00  0.00     0.173 A 
ATOM     75  C   UNL A   1      49.279  27.058  24.702  1.00  0.00     0.173 A 
ATOM     76  F   UNL A   1      49.714  26.212  28.207  1.00  0.00    -0.203 F 
ATOM     77  C   UNL A   1      51.248  26.128  26.422  1.00  0.00     0.198 A 
ATOM     78  C   UNL A   1      50.553  26.768  24.217  1.00  0.00     0.198 A 
ATOM     79  F   UNL A   1      48.349  27.510  23.848  1.00  0.00    -0.203 F 
ATOM     80  F   UNL A   1      52.205  25.713  27.264  1.00  0.00    -0.200 F 
ATOM     81  C   UNL A   1      51.538  26.312  25.078  1.00  0.00     0.200 A 
ATOM     82  F   UNL A   1      50.824  26.933  22.915  1.00  0.00    -0.200 F 
ATOM     83  F   UNL A   1      52.769  26.056  24.617  1.00  0.00    -0.200 F 
ENDBRANCH  49  73
BRANCH  61  84
ATOM     84  C   UNL A   1      45.983  32.592  28.690  1.00  0.00     0.064 A 
ATOM     85  C   UNL A   1      46.611  32.918  29.901  1.00  0.00     0.173 A 
ATOM     86  C   UNL A   1      45.884  33.593  27.710  1.00  0.00     0.173 A 
ATOM     87  F   UNL A   1      46.715  32.001  30.875  1.00  0.00    -0.203 F 
ATOM     88  C   UNL A   1      47.097  34.201  30.132  1.00  0.00     0.198 A 
ATOM     89  C   UNL A   1      46.400  34.866  27.933  1.00  0.00     0.198 A 
ATOM     90  F   UNL A   1      45.299  33.331  26.533  1.00  0.00    -0.203 F 
ATOM     91  F   UNL A   1      47.649  34.503  31.315  1.00  0.00    -0.200 F 
ATOM     92  C   UNL A   1      46.999  35.171  29.145  1.00  0.00     0.200 A 
ATOM     93  F   UNL A   1      46.317  35.798  26.974  1.00  0.00    -0.200 F 
ATOM     94  F   UNL A   1      47.475  36.404  29.368  1.00  0.00    -0.200 F 
ENDBRANCH  61  84
ENDBRANCH  35  36
ENDBRANCH  27  30
ENDBRANCH  25  26
ENDBRANCH  24  25
ENDBRANCH   1  24
TORSDOF 13
ENDMDL
MODEL 3
REMARK VINA RESULT:     -12.4      0.778      1.944
REMARK SMILES CC1(NC(=O)c2csc(/C=C/C(=O)NCCCNC(=O)c3ccc(-c4c5nc(c(-c6c(F)c(F)c(F)c(F)c6F)c6ccc([nH]6)c(-c6c(F)c(F)c(F)c(F)c6F)c6nc(c(-c7c(F)c(F)c(F)c(F)c7F)c7ccc4[nH]7)C=C6)C=C5)cc3)c2)CCCCC1
REMARK SMILES IDX 15 1 14 2 12 3 13 4 11 6 10 7 9 8 6 9 7 10 84 11 8 12 4 13
REMARK SMILES IDX 3 14 5 16 2 17 1 18 85 19 89 20 86 21 88 22 87 23 16 24
REMARK SMILES IDX 17 25 18 26 19 27 20 29 21 30 22 31 83 32 23 33 82 34 24 35
REMARK SMILES IDX 25 36 26 37 76 38 27 39 81 40 75 41 77 42 28 43 80 44 74 45
REMARK SMILES IDX 73 46 29 48 61 49 41 50 60 51 42 52 45 53 59 54 78 55 43 56
REMARK SMILES IDX 44 57 58 59 79 60 46 61 30 62 31 63 39 64 32 65 33 66 37 67
REMARK SMILES IDX 40 68 34 69 35 70 38 71 36 72 62 73 63 74 71 75 64 76 65 77
REMARK SMILES IDX 69 78 72 79 66 80 67 81 70 82 68 83 47 84 48 85 56 86 49 87
REMARK SMILES IDX 50 88 54 89 57 90 51 91 52 92 55 93 53 94
REMARK H PARENT 14 5 3 15 18 28 77 47 45 58
REMARK Flexibility Score: inf
ROOT
ATOM      1  C   UNL A   1      36.557  20.452  25.007  1.00  0.00     0.118 C 
ENDROOT
BRANCH   1   2
ATOM      2  N   UNL A   1      35.391  19.583  24.997  1.00  0.00    -0.352 N 
ATOM      3  C   UNL A   1      34.069  19.862  24.835  1.00  0.00     0.244 C 
ATOM      4  O   UNL A   1      33.258  18.944  24.770  1.00  0.00    -0.270 OA
ATOM      5  H   UNL A   1      35.593  18.628  25.131  1.00  0.00     0.163 HD
BRANCH   3   6
ATOM      6  C   UNL A   1      33.613  21.255  24.646  1.00  0.00     0.072 C 
ATOM      7  C   UNL A   1      33.240  21.736  23.453  1.00  0.00     0.024 C 
BRANCH   7   8
ATOM      8  C   UNL A   1      32.747  23.057  23.240  1.00  0.00     0.028 A 
ATOM      9  C   UNL A   1      32.780  25.409  23.054  1.00  0.00     0.051 A 
ATOM     10  C   UNL A   1      31.426  25.155  23.036  1.00  0.00     0.079 A 
ATOM     11  C   UNL A   1      33.525  24.185  23.057  1.00  0.00     0.033 A 
ATOM     12  S   UNL A   1      31.082  23.485  23.201  1.00  0.00    -0.144 S 
BRANCH   9  13
ATOM     13  C   UNL A   1      33.396  26.716  22.994  1.00  0.00     0.252 C 
ATOM     14  N   UNL A   1      33.644  27.415  24.144  1.00  0.00    -0.347 N 
ATOM     15  H   UNL A   1      34.334  28.104  24.008  1.00  0.00     0.164 HD
ATOM     16  O   UNL A   1      33.827  27.165  21.935  1.00  0.00    -0.269 OA
BRANCH  14  17
ATOM     17  C   UNL A   1      33.146  27.407  25.542  1.00  0.00     0.038 C 
ATOM     18  C   UNL A   1      33.309  25.968  26.066  1.00  0.00     0.034 C 
ATOM     19  C   UNL A   1      33.807  28.380  26.543  1.00  0.00     0.028 C 
ATOM     20  C   UNL A   1      31.630  27.752  25.499  1.00  0.00     0.028 C 
ATOM     21  C   UNL A   1      33.558  29.852  26.228  1.00  0.00     0.002 C 
ATOM     22  C   UNL A   1      31.370  29.224  25.162  1.00  0.00     0.002 C 
ATOM     23  C   UNL A   1      32.072  30.161  26.140  1.00  0.00     0.000 C 
ENDBRANCH  14  17
ENDBRANCH   9  13
ENDBRANCH   7   8
ENDBRANCH   3   6
ENDBRANCH   1   2
BRANCH   1  24
ATOM     24  C   UNL A   1      37.846  19.647  24.859  1.00  0.00     0.042 C 
BRANCH  24  25
ATOM     25  C   UNL A   1      38.964  20.125  25.784  1.00  0.00     0.118 C 
BRANCH  25  26
ATOM     26  N   UNL A   1      40.056  19.163  25.864  1.00  0.00    -0.352 N 
ATOM     27  C   UNL A   1      41.398  19.359  26.063  1.00  0.00     0.251 C 
ATOM     28  H   UNL A   1      39.786  18.222  25.756  1.00  0.00     0.163 HD
ATOM     29  O   UNL A   1      42.180  18.433  25.873  1.00  0.00    -0.269 OA
BRANCH  27  30
ATOM     30  C   UNL A   1      41.916  20.675  26.496  1.00  0.00     0.039 A 
ATOM     31  C   UNL A   1      42.325  21.589  25.521  1.00  0.00     0.014 A 
ATOM     32  C   UNL A   1      42.048  20.992  27.850  1.00  0.00     0.014 A 
ATOM     33  C   UNL A   1      42.815  22.841  25.901  1.00  0.00     0.010 A 
ATOM     34  C   UNL A   1      42.471  22.266  28.227  1.00  0.00     0.010 A 
ATOM     35  C   UNL A   1      42.860  23.201  27.258  1.00  0.00    -0.014 A 
BRANCH  35  36
ATOM     36  C   UNL A   1      43.302  24.556  27.677  1.00  0.00     0.031 A 
ATOM     37  C   UNL A   1      42.291  25.615  28.013  1.00  0.00     0.074 A 
ATOM     38  C   UNL A   1      44.617  24.847  27.688  1.00  0.00     0.049 A 
ATOM     39  N   UNL A   1      42.482  26.873  28.327  1.00  0.00    -0.248 NA
ATOM     40  C   UNL A   1      40.876  25.217  27.967  1.00  0.00     0.031 C 
ATOM     41  C   UNL A   1      45.692  23.915  27.340  1.00  0.00     0.029 A 
ATOM     42  N   UNL A   1      45.275  26.012  27.994  1.00  0.00    -0.354 N 
ATOM     43  C   UNL A   1      41.217  27.416  28.500  1.00  0.00     0.074 A 
ATOM     44  C   UNL A   1      40.264  26.366  28.210  1.00  0.00     0.031 C 
ATOM     45  C   UNL A   1      46.873  24.539  27.469  1.00  0.00     0.029 A 
ATOM     46  C   UNL A   1      46.639  25.922  27.870  1.00  0.00     0.049 A 
ATOM     47  H   UNL A   1      44.812  26.835  28.275  1.00  0.00     0.167 HD
ATOM     48  C   UNL A   1      40.881  28.669  28.888  1.00  0.00     0.037 A 
ATOM     49  C   UNL A   1      47.594  26.854  28.051  1.00  0.00     0.037 A 
ATOM     50  C   UNL A   1      41.835  29.703  29.197  1.00  0.00     0.049 A 
ATOM     51  C   UNL A   1      47.194  28.242  28.471  1.00  0.00     0.074 A 
ATOM     52  C   UNL A   1      41.598  30.987  29.657  1.00  0.00     0.029 A 
ATOM     53  N   UNL A   1      43.211  29.571  29.073  1.00  0.00    -0.354 N 
ATOM     54  N   UNL A   1      45.997  28.725  28.699  1.00  0.00    -0.248 NA
ATOM     55  C   UNL A   1      48.280  29.212  28.666  1.00  0.00     0.031 C 
ATOM     56  C   UNL A   1      42.827  31.647  29.766  1.00  0.00     0.029 A 
ATOM     57  C   UNL A   1      43.833  30.759  29.425  1.00  0.00     0.049 A 
ATOM     58  H   UNL A   1      43.676  28.755  28.779  1.00  0.00     0.167 HD
ATOM     59  C   UNL A   1      46.185  30.045  29.086  1.00  0.00     0.074 A 
ATOM     60  C   UNL A   1      47.614  30.281  29.080  1.00  0.00     0.031 C 
ATOM     61  C   UNL A   1      45.258  30.976  29.417  1.00  0.00     0.037 A 
BRANCH  48  62
ATOM     62  C   UNL A   1      39.420  28.996  29.001  1.00  0.00     0.064 A 
ATOM     63  C   UNL A   1      38.750  28.955  30.234  1.00  0.00     0.173 A 
ATOM     64  C   UNL A   1      38.688  29.394  27.872  1.00  0.00     0.173 A 
ATOM     65  F   UNL A   1      39.400  28.573  31.344  1.00  0.00    -0.203 F 
ATOM     66  C   UNL A   1      37.397  29.271  30.326  1.00  0.00     0.198 A 
ATOM     67  C   UNL A   1      37.342  29.739  27.973  1.00  0.00     0.198 A 
ATOM     68  F   UNL A   1      39.280  29.457  26.669  1.00  0.00    -0.203 F 
ATOM     69  F   UNL A   1      36.767  29.178  31.506  1.00  0.00    -0.200 F 
ATOM     70  C   UNL A   1      36.696  29.670  29.198  1.00  0.00     0.200 A 
ATOM     71  F   UNL A   1      36.670  30.137  26.884  1.00  0.00    -0.200 F 
ATOM     72  F   UNL A   1      35.396  29.981  29.289  1.00  0.00    -0.200 F 
ENDBRANCH  48  62
BRANCH  49  73
ATOM     73  C   UNL A   1      49.024  26.499  27.853  1.00  0.00     0.064 A 
ATOM     74  C   UNL A   1      49.574  26.421  26.566  1.00  0.00     0.173 A 
ATOM     75  C   UNL A   1      49.868  26.232  28.941  1.00  0.00     0.173 A 
ATOM     76  F   UNL A   1      48.801  26.649  25.494  1.00  0.00    -0.203 F 
ATOM     77  C   UNL A   1      50.908  26.069  26.373  1.00  0.00     0.198 A 
ATOM     78  C   UNL A   1      51.210  25.908  28.748  1.00  0.00     0.198 A 
ATOM     79  F   UNL A   1      49.393  26.299  30.193  1.00  0.00    -0.203 F 
ATOM     80  F   UNL A   1      51.395  25.956  25.130  1.00  0.00    -0.200 F 
ATOM     81  C   UNL A   1      51.726  25.818  27.465  1.00  0.00     0.200 A 
ATOM     82  F   UNL A   1      52.000  25.682  29.806  1.00  0.00    -0.200 F 
ATOM     83  F   UNL A   1      53.010  25.484  27.278  1.00  0.00    -0.200 F 
ENDBRANCH  49  73
BRANCH  61  84
ATOM     84  C   UNL A   1      45.761  32.330  29.828  1.00  0.00     0.064 A 
ATOM     85  C   UNL A   1      46.101  32.616  31.159  1.00  0.00     0.173 A 
ATOM     86  C   UNL A   1      45.937  33.342  28.872  1.00  0.00     0.173 A 
ATOM     87  F   UNL A   1      45.936  31.687  32.112  1.00  0.00    -0.203 F 
ATOM     88  C   UNL A   1      46.575  33.874  31.521  1.00  0.00     0.198 A 
ATOM     89  C   UNL A   1      46.440  34.589  29.233  1.00  0.00     0.198 A 
ATOM     90  F   UNL A   1      45.632  33.118  27.586  1.00  0.00    -0.203 F 
ATOM     91  F   UNL A   1      46.847  34.140  32.806  1.00  0.00    -0.200 F 
ATOM     92  C   UNL A   1      46.751  34.856  30.557  1.00  0.00     0.200 A 
ATOM     93  F   UNL A   1      46.623  35.532  28.299  1.00  0.00    -0.200 F 
ATOM     94  F   UNL A   1      47.214  36.064  30.908  1.00  0.00    -0.200 F 
ENDBRANCH  61  84
ENDBRANCH  35  36
ENDBRANCH  27  30
ENDBRANCH  25  26
ENDBRANCH  24  25
ENDBRANCH   1  24
TORSDOF 13
ENDMDL
