MODEL 1
REMARK VINA RESULT:     -14.1      0.000      0.000
REMARK SMILES COc1cc(/C=C2\SC(=S)N(CCC(=O)Nc3ccc(C(=O)NCCCNC(=O)c4ccc(-c5c6nc(c(-c7c(F)c(F)c(F)c(F)c7F)c7ccc([nH]7)c(-c7c(F)c(F)c(F)c(F)c7F)c7nc(c(-c8c(F)c(F)c(F)c(F)c8F)c8ccc5[nH]8)C=C7)C=C6)cc4)cc3)C2=O)ccc1O
REMARK SMILES IDX 21 1 22 2 23 3 20 5 17 6 18 7 94 8 19 9 93 10 16 11 14 12
REMARK SMILES IDX 15 13 13 15 12 16 11 17 6 18 7 19 8 20 95 21 9 22 96 23
REMARK SMILES IDX 10 24 5 25 3 26 4 27 99 28 98 29 97 30 2 31 1 32 100 33
REMARK SMILES IDX 24 35 25 36 26 37 27 38 28 39 29 41 30 42 31 43 92 44 32 45
REMARK SMILES IDX 91 46 33 47 34 48 35 49 85 50 36 51 90 52 84 53 86 54 37 55
REMARK SMILES IDX 89 56 83 57 82 58 38 60 70 61 50 62 69 63 51 64 54 65 68 66
REMARK SMILES IDX 87 67 52 68 53 69 67 71 88 72 55 73 39 74 40 75 48 76 41 77
REMARK SMILES IDX 42 78 46 79 49 80 43 81 44 82 47 83 45 84 71 85 72 86 80 87
REMARK SMILES IDX 73 88 74 89 78 90 81 91 75 92 76 93 79 94 77 95 56 96 57 97
REMARK SMILES IDX 65 98 58 99 59 100 63 101 66 102 60 103 61 104 64 105 62 106
REMARK H PARENT 23 4 16 14 100 34 27 40 86 59 54 70
REMARK Flexibility Score: inf
ROOT
ATOM      1  C   UNL A   1      36.704  22.652  24.122  1.00  0.00     0.251 C 
ATOM      2  O   UNL A   1      36.547  22.942  22.937  1.00  0.00    -0.269 OA
ATOM      3  N   UNL A   1      37.984  22.420  24.579  1.00  0.00    -0.352 N 
ATOM      4  H   UNL A   1      38.685  22.537  23.897  1.00  0.00     0.163 HD
ENDROOT
BRANCH   1   5
ATOM      5  C   UNL A   1      35.506  22.508  24.994  1.00  0.00     0.039 A 
ATOM      6  C   UNL A   1      33.048  22.504  26.386  1.00  0.00     0.041 A 
ATOM      7  C   UNL A   1      33.959  23.554  26.550  1.00  0.00     0.027 A 
ATOM      8  C   UNL A   1      33.469  21.384  25.678  1.00  0.00     0.027 A 
ATOM      9  C   UNL A   1      35.177  23.559  25.854  1.00  0.00     0.016 A 
ATOM     10  C   UNL A   1      34.698  21.376  25.007  1.00  0.00     0.016 A 
BRANCH   6  11
ATOM     11  N   UNL A   1      31.767  22.693  26.933  1.00  0.00    -0.326 N 
ATOM     12  C   UNL A   1      30.691  23.468  26.614  1.00  0.00     0.226 C 
ATOM     13  O   UNL A   1      29.692  23.378  27.337  1.00  0.00    -0.275 OA
ATOM     14  H   UNL A   1      31.610  22.137  27.731  1.00  0.00     0.169 HD
BRANCH  12  15
ATOM     15  C   UNL A   1      30.676  24.448  25.465  1.00  0.00     0.122 C 
BRANCH  15  16
ATOM     16  C   UNL A   1      31.002  25.905  25.815  1.00  0.00     0.137 C 
BRANCH  16  17
ATOM     17  N   UNL A   1      30.835  26.908  24.756  1.00  0.00    -0.292 N 
ATOM     18  C   UNL A   1      28.467  28.873  22.914  1.00  0.00     0.029 C 
ATOM     19  C   UNL A   1      29.601  28.225  23.229  1.00  0.00     0.081 C 
ATOM     20  S   UNL A   1      31.222  28.612  22.865  1.00  0.00    -0.054 SA
ATOM     21  C   UNL A   1      29.587  27.065  24.166  1.00  0.00     0.266 C 
ATOM     22  C   UNL A   1      31.858  27.629  24.180  1.00  0.00     0.148 C 
ATOM     23  O   UNL A   1      28.603  26.376  24.369  1.00  0.00    -0.268 OA
ATOM     24  S   UNL A   1      33.477  27.645  24.584  1.00  0.00    -0.052 S 
BRANCH  18  25
ATOM     25  C   UNL A   1      28.259  30.147  22.191  1.00  0.00    -0.020 A 
ATOM     26  C   UNL A   1      28.245  32.613  22.314  1.00  0.00     0.161 A 
ATOM     27  C   UNL A   1      28.413  31.350  22.909  1.00  0.00     0.058 A 
ATOM     28  C   UNL A   1      27.869  32.662  20.975  1.00  0.00     0.157 A 
ATOM     29  C   UNL A   1      27.707  31.485  20.244  1.00  0.00     0.051 A 
ATOM     30  C   UNL A   1      27.884  30.236  20.850  1.00  0.00     0.012 A 
BRANCH  26  31
ATOM     31  O   UNL A   1      28.454  33.652  23.179  1.00  0.00    -0.493 OA
ATOM     32  C   UNL A   1      29.785  33.990  23.549  1.00  0.00     0.278 C 
ENDBRANCH  26  31
BRANCH  28  33
ATOM     33  O   UNL A   1      27.565  33.811  20.304  1.00  0.00    -0.504 OA
ATOM     34  H   UNL A   1      27.748  34.643  20.694  1.00  0.00     0.293 HD
ENDBRANCH  28  33
ENDBRANCH  18  25
ENDBRANCH  16  17
ENDBRANCH  15  16
ENDBRANCH  12  15
ENDBRANCH   6  11
ENDBRANCH   1   5
BRANCH   3  35
ATOM     35  C   UNL A   1      38.481  22.032  25.890  1.00  0.00     0.118 C 
BRANCH  35  36
ATOM     36  C   UNL A   1      39.647  21.056  25.846  1.00  0.00     0.042 C 
BRANCH  36  37
ATOM     37  C   UNL A   1      40.907  21.521  26.552  1.00  0.00     0.118 C 
BRANCH  37  38
ATOM     38  N   UNL A   1      41.944  21.974  25.633  1.00  0.00    -0.352 N 
ATOM     39  C   UNL A   1      42.510  23.213  25.445  1.00  0.00     0.251 C 
ATOM     40  H   UNL A   1      42.301  21.271  25.044  1.00  0.00     0.163 HD
ATOM     41  O   UNL A   1      43.281  23.382  24.503  1.00  0.00    -0.269 OA
BRANCH  39  42
ATOM     42  C   UNL A   1      42.191  24.354  26.337  1.00  0.00     0.039 A 
ATOM     43  C   UNL A   1      41.304  24.154  27.401  1.00  0.00     0.014 A 
ATOM     44  C   UNL A   1      42.728  25.624  26.125  1.00  0.00     0.014 A 
ATOM     45  C   UNL A   1      41.022  25.200  28.287  1.00  0.00     0.010 A 
ATOM     46  C   UNL A   1      42.535  26.631  27.067  1.00  0.00     0.010 A 
ATOM     47  C   UNL A   1      41.671  26.436  28.154  1.00  0.00    -0.014 A 
BRANCH  47  48
ATOM     48  C   UNL A   1      41.453  27.550  29.115  1.00  0.00     0.031 A 
ATOM     49  C   UNL A   1      42.358  27.699  30.310  1.00  0.00     0.074 A 
ATOM     50  C   UNL A   1      40.395  28.371  28.967  1.00  0.00     0.049 A 
ATOM     51  N   UNL A   1      42.259  28.511  31.332  1.00  0.00    -0.248 NA
ATOM     52  C   UNL A   1      43.511  26.787  30.382  1.00  0.00     0.031 C 
ATOM     53  C   UNL A   1      39.422  28.312  27.877  1.00  0.00     0.029 A 
ATOM     54  N   UNL A   1      39.949  29.408  29.751  1.00  0.00    -0.354 N 
ATOM     55  C   UNL A   1      43.316  28.191  32.174  1.00  0.00     0.074 A 
ATOM     56  C   UNL A   1      44.010  27.073  31.575  1.00  0.00     0.031 C 
ATOM     57  C   UNL A   1      38.506  29.277  28.049  1.00  0.00     0.029 A 
ATOM     58  C   UNL A   1      38.795  29.993  29.288  1.00  0.00     0.049 A 
ATOM     59  H   UNL A   1      40.413  29.704  30.567  1.00  0.00     0.167 HD
ATOM     60  C   UNL A   1      43.689  28.789  33.330  1.00  0.00     0.037 A 
ATOM     61  C   UNL A   1      38.044  30.980  29.813  1.00  0.00     0.037 A 
ATOM     62  C   UNL A   1      43.012  29.920  33.909  1.00  0.00     0.049 A 
ATOM     63  C   UNL A   1      38.468  31.617  31.109  1.00  0.00     0.074 A 
ATOM     64  C   UNL A   1      43.346  30.637  35.045  1.00  0.00     0.029 A 
ATOM     65  N   UNL A   1      41.858  30.496  33.396  1.00  0.00    -0.354 N 
ATOM     66  N   UNL A   1      39.505  31.346  31.864  1.00  0.00    -0.248 NA
ATOM     67  C   UNL A   1      37.619  32.700  31.626  1.00  0.00     0.031 C 
ATOM     68  C   UNL A   1      42.363  31.608  35.253  1.00  0.00     0.029 A 
ATOM     69  C   UNL A   1      41.454  31.544  34.208  1.00  0.00     0.049 A 
ATOM     70  H   UNL A   1      41.397  30.205  32.577  1.00  0.00     0.167 HD
ATOM     71  C   UNL A   1      39.455  32.247  32.920  1.00  0.00     0.074 A 
ATOM     72  C   UNL A   1      38.290  33.078  32.705  1.00  0.00     0.031 C 
ATOM     73  C   UNL A   1      40.301  32.376  33.972  1.00  0.00     0.037 A 
BRANCH  60  74
ATOM     74  C   UNL A   1      44.884  28.232  34.052  1.00  0.00     0.064 A 
ATOM     75  C   UNL A   1      46.175  28.744  33.851  1.00  0.00     0.173 A 
ATOM     76  C   UNL A   1      44.731  27.195  34.985  1.00  0.00     0.173 A 
ATOM     77  F   UNL A   1      46.380  29.730  32.963  1.00  0.00    -0.203 F 
ATOM     78  C   UNL A   1      47.270  28.218  34.530  1.00  0.00     0.198 A 
ATOM     79  C   UNL A   1      45.823  26.696  35.690  1.00  0.00     0.198 A 
ATOM     80  F   UNL A   1      43.519  26.672  35.224  1.00  0.00    -0.203 F 
ATOM     81  F   UNL A   1      48.500  28.687  34.279  1.00  0.00    -0.200 F 
ATOM     82  C   UNL A   1      47.093  27.201  35.455  1.00  0.00     0.200 A 
ATOM     83  F   UNL A   1      45.647  25.724  36.596  1.00  0.00    -0.200 F 
ATOM     84  F   UNL A   1      48.147  26.701  36.115  1.00  0.00    -0.200 F 
ENDBRANCH  60  74
BRANCH  61  85
ATOM     85  C   UNL A   1      36.818  31.440  29.105  1.00  0.00     0.064 A 
ATOM     86  C   UNL A   1      36.733  32.738  28.583  1.00  0.00     0.173 A 
ATOM     87  C   UNL A   1      35.706  30.600  28.945  1.00  0.00     0.173 A 
ATOM     88  F   UNL A   1      37.760  33.587  28.727  1.00  0.00    -0.203 F 
ATOM     89  C   UNL A   1      35.574  33.186  27.950  1.00  0.00     0.198 A 
ATOM     90  C   UNL A   1      34.561  31.038  28.282  1.00  0.00     0.198 A 
ATOM     91  F   UNL A   1      35.737  29.346  29.421  1.00  0.00    -0.203 F 
ATOM     92  F   UNL A   1      35.501  34.449  27.508  1.00  0.00    -0.200 F 
ATOM     93  C   UNL A   1      34.492  32.334  27.795  1.00  0.00     0.200 A 
ATOM     94  F   UNL A   1      33.523  30.205  28.120  1.00  0.00    -0.200 F 
ATOM     95  F   UNL A   1      33.379  32.763  27.183  1.00  0.00    -0.200 F 
ENDBRANCH  61  85
BRANCH  73  96
ATOM     96  C   UNL A   1      40.039  33.489  34.945  1.00  0.00     0.064 A 
ATOM     97  C   UNL A   1      39.324  33.283  36.134  1.00  0.00     0.173 A 
ATOM     98  C   UNL A   1      40.568  34.768  34.711  1.00  0.00     0.173 A 
ATOM     99  F   UNL A   1      38.786  32.082  36.398  1.00  0.00    -0.203 F 
ATOM    100  C   UNL A   1      39.132  34.321  37.041  1.00  0.00     0.198 A 
ATOM    101  C   UNL A   1      40.403  35.794  35.637  1.00  0.00     0.198 A 
ATOM    102  F   UNL A   1      41.267  35.018  33.593  1.00  0.00    -0.203 F 
ATOM    103  F   UNL A   1      38.409  34.113  38.151  1.00  0.00    -0.200 F 
ATOM    104  C   UNL A   1      39.680  35.572  36.798  1.00  0.00     0.200 A 
ATOM    105  F   UNL A   1      40.949  36.996  35.407  1.00  0.00    -0.200 F 
ATOM    106  F   UNL A   1      39.507  36.565  37.681  1.00  0.00    -0.200 F 
ENDBRANCH  73  96
ENDBRANCH  47  48
ENDBRANCH  39  42
ENDBRANCH  37  38
ENDBRANCH  36  37
ENDBRANCH  35  36
ENDBRANCH   3  35
TORSDOF 17
ENDMDL
MODEL 2
REMARK VINA RESULT:     -14.0      4.728      9.011
REMARK SMILES COc1cc(/C=C2\SC(=S)N(CCC(=O)Nc3ccc(C(=O)NCCCNC(=O)c4ccc(-c5c6nc(c(-c7c(F)c(F)c(F)c(F)c7F)c7ccc([nH]7)c(-c7c(F)c(F)c(F)c(F)c7F)c7nc(c(-c8c(F)c(F)c(F)c(F)c8F)c8ccc5[nH]8)C=C7)C=C6)cc4)cc3)C2=O)ccc1O
REMARK SMILES IDX 21 1 22 2 23 3 20 5 17 6 18 7 94 8 19 9 93 10 16 11 14 12
REMARK SMILES IDX 15 13 13 15 12 16 11 17 6 18 7 19 8 20 95 21 9 22 96 23
REMARK SMILES IDX 10 24 5 25 3 26 4 27 99 28 98 29 97 30 2 31 1 32 100 33
REMARK SMILES IDX 24 35 25 36 26 37 27 38 28 39 29 41 30 42 31 43 92 44 32 45
REMARK SMILES IDX 91 46 33 47 34 48 35 49 85 50 36 51 90 52 84 53 86 54 37 55
REMARK SMILES IDX 89 56 83 57 82 58 38 60 70 61 50 62 69 63 51 64 54 65 68 66
REMARK SMILES IDX 87 67 52 68 53 69 67 71 88 72 55 73 39 74 40 75 48 76 41 77
REMARK SMILES IDX 42 78 46 79 49 80 43 81 44 82 47 83 45 84 71 85 72 86 80 87
REMARK SMILES IDX 73 88 74 89 78 90 81 91 75 92 76 93 79 94 77 95 56 96 57 97
REMARK SMILES IDX 65 98 58 99 59 100 63 101 66 102 60 103 61 104 64 105 62 106
REMARK H PARENT 23 4 16 14 100 34 27 40 86 59 54 70
REMARK Flexibility Score: inf
ROOT
ATOM      1  C   UNL A   1      36.412  22.594  23.663  1.00  0.00     0.251 C 
ATOM      2  O   UNL A   1      36.658  23.292  22.680  1.00  0.00    -0.269 OA
ATOM      3  N   UNL A   1      37.282  21.573  23.979  1.00  0.00    -0.352 N 
ATOM      4  H   UNL A   1      38.065  21.509  23.384  1.00  0.00     0.163 HD
ENDROOT
BRANCH   1   5
ATOM      5  C   UNL A   1      35.160  22.842  24.429  1.00  0.00     0.039 A 
ATOM      6  C   UNL A   1      32.770  23.681  25.682  1.00  0.00     0.041 A 
ATOM      7  C   UNL A   1      34.012  24.158  26.119  1.00  0.00     0.027 A 
ATOM      8  C   UNL A   1      32.764  22.646  24.753  1.00  0.00     0.027 A 
ATOM      9  C   UNL A   1      35.197  23.746  25.493  1.00  0.00     0.016 A 
ATOM     10  C   UNL A   1      33.951  22.213  24.149  1.00  0.00     0.016 A 
BRANCH   6  11
ATOM     11  N   UNL A   1      31.632  24.318  26.205  1.00  0.00    -0.326 N 
ATOM     12  C   UNL A   1      30.776  25.278  25.752  1.00  0.00     0.226 C 
ATOM     13  O   UNL A   1      29.849  25.611  26.501  1.00  0.00    -0.275 OA
ATOM     14  H   UNL A   1      31.399  23.998  27.107  1.00  0.00     0.169 HD
BRANCH  12  15
ATOM     15  C   UNL A   1      30.926  25.975  24.421  1.00  0.00     0.122 C 
BRANCH  15  16
ATOM     16  C   UNL A   1      32.145  26.894  24.274  1.00  0.00     0.137 C 
BRANCH  16  17
ATOM     17  N   UNL A   1      32.079  28.211  24.918  1.00  0.00    -0.292 N 
ATOM     18  C   UNL A   1      33.646  30.414  27.275  1.00  0.00     0.029 C 
ATOM     19  C   UNL A   1      32.703  29.857  26.496  1.00  0.00     0.081 C 
ATOM     20  S   UNL A   1      31.401  30.581  25.664  1.00  0.00    -0.054 SA
ATOM     21  C   UNL A   1      32.788  28.424  26.093  1.00  0.00     0.266 C 
ATOM     22  C   UNL A   1      31.246  29.241  24.533  1.00  0.00     0.148 C 
ATOM     23  O   UNL A   1      33.405  27.584  26.724  1.00  0.00    -0.268 OA
ATOM     24  S   UNL A   1      30.216  29.312  23.222  1.00  0.00    -0.052 S 
BRANCH  18  25
ATOM     25  C   UNL A   1      33.884  31.831  27.628  1.00  0.00    -0.020 A 
ATOM     26  C   UNL A   1      35.525  33.531  28.347  1.00  0.00     0.161 A 
ATOM     27  C   UNL A   1      35.191  32.210  28.000  1.00  0.00     0.058 A 
ATOM     28  C   UNL A   1      34.508  34.482  28.363  1.00  0.00     0.157 A 
ATOM     29  C   UNL A   1      33.207  34.130  28.003  1.00  0.00     0.051 A 
ATOM     30  C   UNL A   1      32.893  32.811  27.655  1.00  0.00     0.012 A 
BRANCH  26  31
ATOM     31  O   UNL A   1      36.846  33.692  28.660  1.00  0.00    -0.493 OA
ATOM     32  C   UNL A   1      37.427  32.869  29.664  1.00  0.00     0.278 C 
ENDBRANCH  26  31
BRANCH  28  33
ATOM     33  O   UNL A   1      34.667  35.770  28.785  1.00  0.00    -0.504 OA
ATOM     34  H   UNL A   1      34.340  36.031  29.623  1.00  0.00     0.293 HD
ENDBRANCH  28  33
ENDBRANCH  18  25
ENDBRANCH  16  17
ENDBRANCH  15  16
ENDBRANCH  12  15
ENDBRANCH   6  11
ENDBRANCH   1   5
BRANCH   3  35
ATOM     35  C   UNL A   1      37.248  20.573  25.035  1.00  0.00     0.118 C 
BRANCH  35  36
ATOM     36  C   UNL A   1      38.415  19.597  25.001  1.00  0.00     0.042 C 
BRANCH  36  37
ATOM     37  C   UNL A   1      39.454  19.793  26.089  1.00  0.00     0.118 C 
BRANCH  37  38
ATOM     38  N   UNL A   1      40.582  18.876  25.975  1.00  0.00    -0.352 N 
ATOM     39  C   UNL A   1      41.938  19.098  26.015  1.00  0.00     0.251 C 
ATOM     40  H   UNL A   1      40.328  17.933  25.846  1.00  0.00     0.163 HD
ATOM     41  O   UNL A   1      42.704  18.172  25.755  1.00  0.00    -0.269 OA
BRANCH  39  42
ATOM     42  C   UNL A   1      42.496  20.433  26.340  1.00  0.00     0.039 A 
ATOM     43  C   UNL A   1      43.060  21.198  25.313  1.00  0.00     0.014 A 
ATOM     44  C   UNL A   1      42.500  20.930  27.643  1.00  0.00     0.014 A 
ATOM     45  C   UNL A   1      43.551  22.481  25.581  1.00  0.00     0.010 A 
ATOM     46  C   UNL A   1      42.886  22.245  27.889  1.00  0.00     0.010 A 
ATOM     47  C   UNL A   1      43.426  23.034  26.863  1.00  0.00    -0.014 A 
BRANCH  47  48
ATOM     48  C   UNL A   1      43.871  24.419  27.174  1.00  0.00     0.031 A 
ATOM     49  C   UNL A   1      42.868  25.444  27.634  1.00  0.00     0.074 A 
ATOM     50  C   UNL A   1      45.150  24.781  26.957  1.00  0.00     0.049 A 
ATOM     51  N   UNL A   1      43.020  26.730  27.825  1.00  0.00    -0.248 NA
ATOM     52  C   UNL A   1      41.498  24.962  27.882  1.00  0.00     0.031 C 
ATOM     53  C   UNL A   1      46.211  23.897  26.477  1.00  0.00     0.029 A 
ATOM     54  N   UNL A   1      45.772  25.999  27.094  1.00  0.00    -0.354 N 
ATOM     55  C   UNL A   1      41.769  27.210  28.187  1.00  0.00     0.074 A 
ATOM     56  C   UNL A   1      40.854  26.092  28.134  1.00  0.00     0.031 C 
ATOM     57  C   UNL A   1      47.355  24.593  26.376  1.00  0.00     0.029 A 
ATOM     58  C   UNL A   1      47.099  25.985  26.735  1.00  0.00     0.049 A 
ATOM     59  H   UNL A   1      45.311  26.806  27.420  1.00  0.00     0.167 HD
ATOM     60  C   UNL A   1      41.417  28.466  28.553  1.00  0.00     0.037 A 
ATOM     61  C   UNL A   1      48.001  26.984  26.683  1.00  0.00     0.037 A 
ATOM     62  C   UNL A   1      42.336  29.572  28.632  1.00  0.00     0.049 A 
ATOM     63  C   UNL A   1      47.581  28.375  27.076  1.00  0.00     0.074 A 
ATOM     64  C   UNL A   1      42.092  30.868  29.051  1.00  0.00     0.029 A 
ATOM     65  N   UNL A   1      43.677  29.509  28.281  1.00  0.00    -0.354 N 
ATOM     66  N   UNL A   1      46.409  28.804  27.476  1.00  0.00    -0.248 NA
ATOM     67  C   UNL A   1      48.612  29.422  27.015  1.00  0.00     0.031 C 
ATOM     68  C   UNL A   1      43.269  31.605  28.897  1.00  0.00     0.029 A 
ATOM     69  C   UNL A   1      44.266  30.752  28.449  1.00  0.00     0.049 A 
ATOM     70  H   UNL A   1      44.141  28.702  27.961  1.00  0.00     0.167 HD
ATOM     71  C   UNL A   1      46.570  30.156  27.751  1.00  0.00     0.074 A 
ATOM     72  C   UNL A   1      47.955  30.475  27.479  1.00  0.00     0.031 C 
ATOM     73  C   UNL A   1      45.652  31.052  28.192  1.00  0.00     0.037 A 
BRANCH  60  74
ATOM     74  C   UNL A   1      39.975  28.716  28.895  1.00  0.00     0.064 A 
ATOM     75  C   UNL A   1      39.486  28.559  30.201  1.00  0.00     0.173 A 
ATOM     76  C   UNL A   1      39.076  29.155  27.911  1.00  0.00     0.173 A 
ATOM     77  F   UNL A   1      40.300  28.133  31.180  1.00  0.00    -0.203 F 
ATOM     78  C   UNL A   1      38.148  28.799  30.502  1.00  0.00     0.198 A 
ATOM     79  C   UNL A   1      37.747  29.429  28.221  1.00  0.00     0.198 A 
ATOM     80  F   UNL A   1      39.489  29.331  26.646  1.00  0.00    -0.203 F 
ATOM     81  F   UNL A   1      37.694  28.587  31.745  1.00  0.00    -0.200 F 
ATOM     82  C   UNL A   1      37.281  29.240  29.515  1.00  0.00     0.200 A 
ATOM     83  F   UNL A   1      36.915  29.873  27.270  1.00  0.00    -0.200 F 
ATOM     84  F   UNL A   1      35.996  29.480  29.806  1.00  0.00    -0.200 F 
ENDBRANCH  60  74
BRANCH  61  85
ATOM     85  C   UNL A   1      49.398  26.703  26.253  1.00  0.00     0.064 A 
ATOM     86  C   UNL A   1      49.789  26.877  24.918  1.00  0.00     0.173 A 
ATOM     87  C   UNL A   1      50.366  26.248  27.160  1.00  0.00     0.173 A 
ATOM     88  F   UNL A   1      48.896  27.290  24.007  1.00  0.00    -0.203 F 
ATOM     89  C   UNL A   1      51.086  26.582  24.502  1.00  0.00     0.198 A 
ATOM     90  C   UNL A   1      51.672  25.986  26.750  1.00  0.00     0.198 A 
ATOM     91  F   UNL A   1      50.046  26.070  28.451  1.00  0.00    -0.203 F 
ATOM     92  F   UNL A   1      51.417  26.705  23.210  1.00  0.00    -0.200 F 
ATOM     93  C   UNL A   1      52.028  26.142  25.420  1.00  0.00     0.200 A 
ATOM     94  F   UNL A   1      52.583  25.578  27.644  1.00  0.00    -0.200 F 
ATOM     95  F   UNL A   1      53.277  25.863  25.021  1.00  0.00    -0.200 F 
ENDBRANCH  61  85
BRANCH  73  96
ATOM     96  C   UNL A   1      46.120  32.452  28.466  1.00  0.00     0.064 A 
ATOM     97  C   UNL A   1      46.605  32.841  29.723  1.00  0.00     0.173 A 
ATOM     98  C   UNL A   1      46.141  33.402  27.433  1.00  0.00     0.173 A 
ATOM     99  F   UNL A   1      46.594  31.974  30.748  1.00  0.00    -0.203 F 
ATOM    100  C   UNL A   1      47.074  34.133  29.940  1.00  0.00     0.198 A 
ATOM    101  C   UNL A   1      46.643  34.683  27.644  1.00  0.00     0.198 A 
ATOM    102  F   UNL A   1      45.696  33.081  26.209  1.00  0.00    -0.203 F 
ATOM    103  F   UNL A   1      47.493  34.496  31.161  1.00  0.00    -0.200 F 
ATOM    104  C   UNL A   1      47.103  35.050  28.899  1.00  0.00     0.200 A 
ATOM    105  F   UNL A   1      46.686  35.560  26.632  1.00  0.00    -0.200 F 
ATOM    106  F   UNL A   1      47.570  36.288  29.107  1.00  0.00    -0.200 F 
ENDBRANCH  73  96
ENDBRANCH  47  48
ENDBRANCH  39  42
ENDBRANCH  37  38
ENDBRANCH  36  37
ENDBRANCH  35  36
ENDBRANCH   3  35
TORSDOF 17
ENDMDL
MODEL 3
REMARK VINA RESULT:     -13.4      5.077      7.085
REMARK SMILES COc1cc(/C=C2\SC(=S)N(CCC(=O)Nc3ccc(C(=O)NCCCNC(=O)c4ccc(-c5c6nc(c(-c7c(F)c(F)c(F)c(F)c7F)c7ccc([nH]7)c(-c7c(F)c(F)c(F)c(F)c7F)c7nc(c(-c8c(F)c(F)c(F)c(F)c8F)c8ccc5[nH]8)C=C7)C=C6)cc4)cc3)C2=O)ccc1O
REMARK SMILES IDX 21 1 22 2 23 3 20 5 17 6 18 7 94 8 19 9 93 10 16 11 14 12
REMARK SMILES IDX 15 13 13 15 12 16 11 17 6 18 7 19 8 20 95 21 9 22 96 23
REMARK SMILES IDX 10 24 5 25 3 26 4 27 99 28 98 29 97 30 2 31 1 32 100 33
REMARK SMILES IDX 24 35 25 36 26 37 27 38 28 39 29 41 30 42 31 43 92 44 32 45
REMARK SMILES IDX 91 46 33 47 34 48 35 49 85 50 36 51 90 52 84 53 86 54 37 55
REMARK SMILES IDX 89 56 83 57 82 58 38 60 70 61 50 62 69 63 51 64 54 65 68 66
REMARK SMILES IDX 87 67 52 68 53 69 67 71 88 72 55 73 39 74 40 75 48 76 41 77
REMARK SMILES IDX 42 78 46 79 49 80 43 81 44 82 47 83 45 84 71 85 72 86 80 87
REMARK SMILES IDX 73 88 74 89 78 90 81 91 75 92 76 93 79 94 77 95 56 96 57 97
REMARK SMILES IDX 65 98 58 99 59 100 63 101 66 102 60 103 61 104 64 105 62 106
REMARK H PARENT 23 4 16 14 100 34 27 40 86 59 54 70
REMARK Flexibility Score: inf
ROOT
ATOM      1  C   UNL A   1      40.876  21.977  27.382  1.00  0.00     0.251 C 
ATOM      2  O   UNL A   1      41.206  22.776  28.257  1.00  0.00    -0.269 OA
ATOM      3  N   UNL A   1      41.710  20.913  27.113  1.00  0.00    -0.352 N 
ATOM      4  H   UNL A   1      42.511  20.872  27.685  1.00  0.00     0.163 HD
ENDROOT
BRANCH   1   5
ATOM      5  C   UNL A   1      39.625  22.225  26.614  1.00  0.00     0.039 A 
ATOM      6  C   UNL A   1      37.497  22.891  24.879  1.00  0.00     0.041 A 
ATOM      7  C   UNL A   1      38.023  23.842  25.762  1.00  0.00     0.027 A 
ATOM      8  C   UNL A   1      37.918  21.574  25.018  1.00  0.00     0.027 A 
ATOM      9  C   UNL A   1      39.083  23.513  26.619  1.00  0.00     0.016 A 
ATOM     10  C   UNL A   1      38.957  21.238  25.895  1.00  0.00     0.016 A 
BRANCH   6  11
ATOM     11  N   UNL A   1      36.604  23.366  23.903  1.00  0.00    -0.326 N 
ATOM     12  C   UNL A   1      35.246  23.393  23.775  1.00  0.00     0.226 C 
ATOM     13  O   UNL A   1      34.783  23.907  22.750  1.00  0.00    -0.275 OA
ATOM     14  H   UNL A   1      37.065  23.772  23.133  1.00  0.00     0.169 HD
BRANCH  12  15
ATOM     15  C   UNL A   1      34.297  22.798  24.788  1.00  0.00     0.122 C 
BRANCH  15  16
ATOM     16  C   UNL A   1      33.914  23.701  25.966  1.00  0.00     0.137 C 
BRANCH  16  17
ATOM     17  N   UNL A   1      32.725  24.549  25.809  1.00  0.00    -0.292 N 
ATOM     18  C   UNL A   1      31.467  27.628  24.469  1.00  0.00     0.029 C 
ATOM     19  C   UNL A   1      31.568  26.529  25.235  1.00  0.00     0.081 C 
ATOM     20  S   UNL A   1      30.348  25.533  25.890  1.00  0.00    -0.054 SA
ATOM     21  C   UNL A   1      32.891  25.890  25.491  1.00  0.00     0.266 C 
ATOM     22  C   UNL A   1      31.433  24.162  26.093  1.00  0.00     0.148 C 
ATOM     23  O   UNL A   1      33.951  26.487  25.417  1.00  0.00    -0.268 OA
ATOM     24  S   UNL A   1      30.874  22.661  26.561  1.00  0.00    -0.052 S 
BRANCH  18  25
ATOM     25  C   UNL A   1      30.273  28.304  23.915  1.00  0.00    -0.020 A 
ATOM     26  C   UNL A   1      29.146  30.452  23.450  1.00  0.00     0.161 A 
ATOM     27  C   UNL A   1      30.230  29.713  23.956  1.00  0.00     0.058 A 
ATOM     28  C   UNL A   1      28.061  29.751  22.931  1.00  0.00     0.157 A 
ATOM     29  C   UNL A   1      28.078  28.358  22.883  1.00  0.00     0.051 A 
ATOM     30  C   UNL A   1      29.168  27.638  23.386  1.00  0.00     0.012 A 
BRANCH  26  31
ATOM     31  O   UNL A   1      29.307  31.804  23.573  1.00  0.00    -0.493 OA
ATOM     32  C   UNL A   1      28.941  32.648  22.488  1.00  0.00     0.278 C 
ENDBRANCH  26  31
BRANCH  28  33
ATOM     33  O   UNL A   1      26.901  30.334  22.510  1.00  0.00    -0.504 OA
ATOM     34  H   UNL A   1      26.537  31.052  22.990  1.00  0.00     0.293 HD
ENDBRANCH  28  33
ENDBRANCH  18  25
ENDBRANCH  16  17
ENDBRANCH  15  16
ENDBRANCH  12  15
ENDBRANCH   6  11
ENDBRANCH   1   5
BRANCH   3  35
ATOM     35  C   UNL A   1      41.617  19.842  26.134  1.00  0.00     0.118 C 
BRANCH  35  36
ATOM     36  C   UNL A   1      42.404  18.594  26.505  1.00  0.00     0.042 C 
BRANCH  36  37
ATOM     37  C   UNL A   1      43.896  18.667  26.242  1.00  0.00     0.118 C 
BRANCH  37  38
ATOM     38  N   UNL A   1      44.231  18.598  24.825  1.00  0.00    -0.352 N 
ATOM     39  C   UNL A   1      44.616  19.574  23.936  1.00  0.00     0.251 C 
ATOM     40  H   UNL A   1      44.172  17.695  24.437  1.00  0.00     0.163 HD
ATOM     41  O   UNL A   1      44.713  19.293  22.744  1.00  0.00    -0.269 OA
BRANCH  39  42
ATOM     42  C   UNL A   1      44.889  20.962  24.380  1.00  0.00     0.039 A 
ATOM     43  C   UNL A   1      44.627  22.018  23.499  1.00  0.00     0.014 A 
ATOM     44  C   UNL A   1      45.429  21.239  25.636  1.00  0.00     0.014 A 
ATOM     45  C   UNL A   1      44.830  23.341  23.908  1.00  0.00     0.010 A 
ATOM     46  C   UNL A   1      45.527  22.554  26.080  1.00  0.00     0.010 A 
ATOM     47  C   UNL A   1      45.239  23.623  25.219  1.00  0.00    -0.014 A 
BRANCH  47  48
ATOM     48  C   UNL A   1      45.399  25.016  25.715  1.00  0.00     0.031 A 
ATOM     49  C   UNL A   1      46.758  25.667  25.698  1.00  0.00     0.074 A 
ATOM     50  C   UNL A   1      44.352  25.663  26.261  1.00  0.00     0.049 A 
ATOM     51  N   UNL A   1      47.138  26.812  26.205  1.00  0.00    -0.248 NA
ATOM     52  C   UNL A   1      47.844  24.910  25.052  1.00  0.00     0.031 C 
ATOM     53  C   UNL A   1      42.993  25.132  26.374  1.00  0.00     0.029 A 
ATOM     54  N   UNL A   1      44.270  26.905  26.845  1.00  0.00    -0.354 N 
ATOM     55  C   UNL A   1      48.502  26.899  25.963  1.00  0.00     0.074 A 
ATOM     56  C   UNL A   1      48.897  25.668  25.316  1.00  0.00     0.031 C 
ATOM     57  C   UNL A   1      42.210  26.045  26.970  1.00  0.00     0.029 A 
ATOM     58  C   UNL A   1      43.020  27.206  27.329  1.00  0.00     0.049 A 
ATOM     59  H   UNL A   1      45.036  27.521  26.909  1.00  0.00     0.167 HD
ATOM     60  C   UNL A   1      49.347  27.923  26.233  1.00  0.00     0.037 A 
ATOM     61  C   UNL A   1      42.581  28.286  28.004  1.00  0.00     0.037 A 
ATOM     62  C   UNL A   1      48.944  29.160  26.851  1.00  0.00     0.049 A 
ATOM     63  C   UNL A   1      43.543  29.403  28.310  1.00  0.00     0.074 A 
ATOM     64  C   UNL A   1      49.710  30.282  27.113  1.00  0.00     0.029 A 
ATOM     65  N   UNL A   1      47.663  29.433  27.307  1.00  0.00    -0.354 N 
ATOM     66  N   UNL A   1      44.818  29.500  28.021  1.00  0.00    -0.248 NA
ATOM     67  C   UNL A   1      43.004  30.563  29.034  1.00  0.00     0.031 C 
ATOM     68  C   UNL A   1      48.908  31.212  27.781  1.00  0.00     0.029 A 
ATOM     69  C   UNL A   1      47.624  30.698  27.873  1.00  0.00     0.049 A 
ATOM     70  H   UNL A   1      46.895  28.821  27.238  1.00  0.00     0.167 HD
ATOM     71  C   UNL A   1      45.223  30.743  28.491  1.00  0.00     0.074 A 
ATOM     72  C   UNL A   1      44.057  31.368  29.077  1.00  0.00     0.031 C 
ATOM     73  C   UNL A   1      46.451  31.316  28.437  1.00  0.00     0.037 A 
BRANCH  60  74
ATOM     74  C   UNL A   1      50.794  27.752  25.866  1.00  0.00     0.064 A 
ATOM     75  C   UNL A   1      51.267  28.030  24.574  1.00  0.00     0.173 A 
ATOM     76  C   UNL A   1      51.728  27.338  26.828  1.00  0.00     0.173 A 
ATOM     77  F   UNL A   1      50.416  28.420  23.613  1.00  0.00    -0.203 F 
ATOM     78  C   UNL A   1      52.612  27.869  24.252  1.00  0.00     0.198 A 
ATOM     79  C   UNL A   1      53.078  27.213  26.512  1.00  0.00     0.198 A 
ATOM     80  F   UNL A   1      51.334  27.065  28.081  1.00  0.00    -0.203 F 
ATOM     81  F   UNL A   1      53.029  28.087  22.997  1.00  0.00    -0.200 F 
ATOM     82  C   UNL A   1      53.517  27.468  25.221  1.00  0.00     0.200 A 
ATOM     83  F   UNL A   1      53.954  26.842  27.455  1.00  0.00    -0.200 F 
ATOM     84  F   UNL A   1      54.813  27.322  24.912  1.00  0.00    -0.200 F 
ENDBRANCH  60  74
BRANCH  61  85
ATOM     85  C   UNL A   1      41.156  28.372  28.425  1.00  0.00     0.064 A 
ATOM     86  C   UNL A   1      40.193  28.957  27.590  1.00  0.00     0.173 A 
ATOM     87  C   UNL A   1      40.730  27.885  29.669  1.00  0.00     0.173 A 
ATOM     88  F   UNL A   1      40.553  29.456  26.399  1.00  0.00    -0.203 F 
ATOM     89  C   UNL A   1      38.864  29.072  27.994  1.00  0.00     0.198 A 
ATOM     90  C   UNL A   1      39.394  27.971  30.058  1.00  0.00     0.198 A 
ATOM     91  F   UNL A   1      41.609  27.312  30.504  1.00  0.00    -0.203 F 
ATOM     92  F   UNL A   1      37.976  29.683  27.199  1.00  0.00    -0.200 F 
ATOM     93  C   UNL A   1      38.464  28.574  29.225  1.00  0.00     0.200 A 
ATOM     94  F   UNL A   1      39.009  27.473  31.241  1.00  0.00    -0.200 F 
ATOM     95  F   UNL A   1      37.186  28.682  29.612  1.00  0.00    -0.200 F 
ENDBRANCH  61  85
BRANCH  73  96
ATOM     96  C   UNL A   1      46.593  32.711  28.974  1.00  0.00     0.064 A 
ATOM     97  C   UNL A   1      46.889  32.961  30.322  1.00  0.00     0.173 A 
ATOM     98  C   UNL A   1      46.492  33.812  28.109  1.00  0.00     0.173 A 
ATOM     99  F   UNL A   1      46.982  31.944  31.192  1.00  0.00    -0.203 F 
ATOM    100  C   UNL A   1      47.059  34.262  30.787  1.00  0.00     0.198 A 
ATOM    101  C   UNL A   1      46.697  35.109  28.571  1.00  0.00     0.198 A 
ATOM    102  F   UNL A   1      46.218  33.629  26.809  1.00  0.00    -0.203 F 
ATOM    103  F   UNL A   1      47.300  34.481  32.088  1.00  0.00    -0.200 F 
ATOM    104  C   UNL A   1      46.974  35.334  29.911  1.00  0.00     0.200 A 
ATOM    105  F   UNL A   1      46.632  36.140  27.718  1.00  0.00    -0.200 F 
ATOM    106  F   UNL A   1      47.154  36.584  30.358  1.00  0.00    -0.200 F 
ENDBRANCH  73  96
ENDBRANCH  47  48
ENDBRANCH  39  42
ENDBRANCH  37  38
ENDBRANCH  36  37
ENDBRANCH  35  36
ENDBRANCH   3  35
TORSDOF 17
ENDMDL
