MODEL 1
REMARK VINA RESULT:     -12.1      0.000      0.000
REMARK SMILES C[C@@H](CCC(=O)Nc1ccccn1)C(=O)NCCCNC(=O)c1ccc(-c2c3nc(c(-c4c(F)c(F)c(F)c(F)c4F)c4ccc([nH]4)c(-c4c(F)c(F)c(F)c(F)c4F)c4nc(c(-c5c(F)c(F)c(F)c(F)c5F)c5ccc2[nH]5)C=C4)C=C3)cc1
REMARK SMILES IDX 17 1 16 2 14 3 15 4 2 6 1 7 3 8 4 9 5 10 6 11 7 12 8 14 9 15
REMARK SMILES IDX 13 16 10 17 12 18 11 19 18 20 19 21 20 22 21 23 22 25 23 26
REMARK SMILES IDX 24 27 85 28 25 29 84 30 26 31 27 32 28 33 78 34 29 35 83 36
REMARK SMILES IDX 77 37 79 38 30 39 82 40 76 41 75 42 31 44 63 45 43 46 62 47
REMARK SMILES IDX 44 48 47 49 61 50 80 51 45 52 46 53 60 55 81 56 48 57 32 58
REMARK SMILES IDX 33 59 41 60 34 61 35 62 39 63 42 64 36 65 37 66 40 67 38 68
REMARK SMILES IDX 64 69 65 70 73 71 66 72 67 73 71 74 74 75 68 76 69 77 72 78
REMARK SMILES IDX 70 79 49 80 50 81 58 82 51 83 52 84 56 85 59 86 53 87 54 88
REMARK SMILES IDX 57 89 55 90
REMARK H PARENT 16 5 7 13 20 24 79 43 47 54
REMARK Flexibility Score: inf
ROOT
ATOM      1  C   UNL A   1      32.272  27.401  26.398  1.00  0.00     0.117 C 
ENDROOT
BRANCH   1   2
ATOM      2  N   UNL A   1      31.187  26.457  26.637  1.00  0.00    -0.356 N 
ATOM      3  C   UNL A   1      30.248  25.808  25.917  1.00  0.00     0.222 C 
ATOM      4  O   UNL A   1      29.473  25.132  26.611  1.00  0.00    -0.275 OA
ATOM      5  H   UNL A   1      31.120  26.229  27.592  1.00  0.00     0.163 HD
BRANCH   3   6
ATOM      6  C   UNL A   1      30.106  25.749  24.383  1.00  0.00     0.076 C 
ATOM      7  C   UNL A   1      28.944  26.659  23.905  1.00  0.00     0.018 C 
BRANCH   6   8
ATOM      8  C   UNL A   1      31.305  25.881  23.438  1.00  0.00     0.023 C 
BRANCH   8   9
ATOM      9  C   UNL A   1      31.208  26.880  22.277  1.00  0.00     0.101 C 
BRANCH   9  10
ATOM     10  C   UNL A   1      31.922  28.193  22.476  1.00  0.00     0.225 C 
ATOM     11  O   UNL A   1      33.142  28.186  22.678  1.00  0.00    -0.275 OA
ATOM     12  N   UNL A   1      31.316  29.399  22.350  1.00  0.00    -0.311 N 
ATOM     13  H   UNL A   1      31.960  30.100  22.103  1.00  0.00     0.171 HD
BRANCH  12  14
ATOM     14  C   UNL A   1      30.029  29.913  22.476  1.00  0.00     0.132 A 
ATOM     15  C   UNL A   1      29.471  30.414  23.634  1.00  0.00     0.047 A 
ATOM     16  N   UNL A   1      29.404  30.034  21.286  1.00  0.00    -0.239 NA
ATOM     17  C   UNL A   1      28.244  31.082  23.580  1.00  0.00     0.005 A 
ATOM     18  C   UNL A   1      28.202  30.656  21.255  1.00  0.00     0.113 A 
ATOM     19  C   UNL A   1      27.591  31.203  22.365  1.00  0.00     0.020 A 
ENDBRANCH  12  14
ENDBRANCH   9  10
ENDBRANCH   8   9
ENDBRANCH   6   8
ENDBRANCH   3   6
ENDBRANCH   1   2
BRANCH   1  20
ATOM     20  C   UNL A   1      31.765  28.849  26.439  1.00  0.00     0.042 C 
BRANCH  20  21
ATOM     21  C   UNL A   1      32.657  29.889  25.770  1.00  0.00     0.118 C 
BRANCH  21  22
ATOM     22  N   UNL A   1      32.524  31.212  26.355  1.00  0.00    -0.352 N 
ATOM     23  C   UNL A   1      33.280  31.929  27.247  1.00  0.00     0.251 C 
ATOM     24  H   UNL A   1      31.723  31.694  26.047  1.00  0.00     0.163 HD
ATOM     25  O   UNL A   1      32.830  33.011  27.623  1.00  0.00    -0.269 OA
BRANCH  23  26
ATOM     26  C   UNL A   1      34.599  31.485  27.779  1.00  0.00     0.039 A 
ATOM     27  C   UNL A   1      34.723  30.134  28.147  1.00  0.00     0.014 A 
ATOM     28  C   UNL A   1      35.668  32.342  28.044  1.00  0.00     0.014 A 
ATOM     29  C   UNL A   1      35.885  29.656  28.765  1.00  0.00     0.010 A 
ATOM     30  C   UNL A   1      36.863  31.848  28.585  1.00  0.00     0.010 A 
ATOM     31  C   UNL A   1      36.974  30.508  28.988  1.00  0.00    -0.014 A 
BRANCH  31  32
ATOM     32  C   UNL A   1      38.186  30.038  29.720  1.00  0.00     0.031 A 
ATOM     33  C   UNL A   1      38.424  30.477  31.145  1.00  0.00     0.074 A 
ATOM     34  C   UNL A   1      39.091  29.246  29.114  1.00  0.00     0.049 A 
ATOM     35  N   UNL A   1      39.455  30.260  31.925  1.00  0.00    -0.248 NA
ATOM     36  C   UNL A   1      37.375  31.302  31.763  1.00  0.00     0.031 C 
ATOM     37  C   UNL A   1      39.014  28.774  27.732  1.00  0.00     0.029 A 
ATOM     38  N   UNL A   1      40.261  28.698  29.586  1.00  0.00    -0.354 N 
ATOM     39  C   UNL A   1      39.201  30.963  33.097  1.00  0.00     0.074 A 
ATOM     40  C   UNL A   1      37.935  31.641  32.914  1.00  0.00     0.031 C 
ATOM     41  C   UNL A   1      40.072  27.988  27.476  1.00  0.00     0.029 A 
ATOM     42  C   UNL A   1      40.917  27.919  28.665  1.00  0.00     0.049 A 
ATOM     43  H   UNL A   1      40.597  28.851  30.499  1.00  0.00     0.167 HD
ATOM     44  C   UNL A   1      39.941  31.026  34.231  1.00  0.00     0.037 A 
ATOM     45  C   UNL A   1      42.065  27.221  28.770  1.00  0.00     0.037 A 
ATOM     46  C   UNL A   1      41.159  30.290  34.447  1.00  0.00     0.049 A 
ATOM     47  C   UNL A   1      42.816  27.221  30.075  1.00  0.00     0.074 A 
ATOM     48  C   UNL A   1      41.959  30.248  35.577  1.00  0.00     0.029 A 
ATOM     49  N   UNL A   1      41.742  29.444  33.516  1.00  0.00    -0.354 N 
ATOM     50  N   UNL A   1      42.553  27.875  31.181  1.00  0.00    -0.248 NA
ATOM     51  C   UNL A   1      44.013  26.372  30.151  1.00  0.00     0.031 C 
ATOM     52  C   UNL A   1      43.030  29.383  35.325  1.00  0.00     0.029 A 
ATOM     53  C   UNL A   1      42.880  28.862  34.051  1.00  0.00     0.049 A 
ATOM     54  H   UNL A   1      41.397  29.279  32.609  1.00  0.00     0.167 HD
ATOM     55  C   UNL A   1      43.530  27.493  32.090  1.00  0.00     0.074 A 
ATOM     56  C   UNL A   1      44.384  26.542  31.413  1.00  0.00     0.031 C 
ATOM     57  C   UNL A   1      43.705  27.898  33.372  1.00  0.00     0.037 A 
BRANCH  44  58
ATOM     58  C   UNL A   1      39.445  31.919  35.333  1.00  0.00     0.064 A 
ATOM     59  C   UNL A   1      38.570  31.452  36.325  1.00  0.00     0.173 A 
ATOM     60  C   UNL A   1      39.858  33.258  35.403  1.00  0.00     0.173 A 
ATOM     61  F   UNL A   1      38.135  30.183  36.297  1.00  0.00    -0.203 F 
ATOM     62  C   UNL A   1      38.096  32.301  37.322  1.00  0.00     0.198 A 
ATOM     63  C   UNL A   1      39.408  34.096  36.420  1.00  0.00     0.198 A 
ATOM     64  F   UNL A   1      40.702  33.756  34.486  1.00  0.00    -0.203 F 
ATOM     65  F   UNL A   1      37.212  31.847  38.222  1.00  0.00    -0.200 F 
ATOM     66  C   UNL A   1      38.517  33.621  37.371  1.00  0.00     0.200 A 
ATOM     67  F   UNL A   1      39.826  35.369  36.474  1.00  0.00    -0.200 F 
ATOM     68  F   UNL A   1      38.059  34.437  38.329  1.00  0.00    -0.200 F 
ENDBRANCH  44  58
BRANCH  45  69
ATOM     69  C   UNL A   1      42.545  26.410  27.622  1.00  0.00     0.064 A 
ATOM     70  C   UNL A   1      42.043  25.120  27.399  1.00  0.00     0.173 A 
ATOM     71  C   UNL A   1      43.507  26.901  26.728  1.00  0.00     0.173 A 
ATOM     72  F   UNL A   1      41.138  24.599  28.241  1.00  0.00    -0.203 F 
ATOM     73  C   UNL A   1      42.497  24.345  26.335  1.00  0.00     0.198 A 
ATOM     74  C   UNL A   1      43.944  26.134  25.651  1.00  0.00     0.198 A 
ATOM     75  F   UNL A   1      44.016  28.130  26.898  1.00  0.00    -0.203 F 
ATOM     76  F   UNL A   1      42.031  23.099  26.169  1.00  0.00    -0.200 F 
ATOM     77  C   UNL A   1      43.443  24.854  25.457  1.00  0.00     0.200 A 
ATOM     78  F   UNL A   1      44.851  26.631  24.799  1.00  0.00    -0.200 F 
ATOM     79  F   UNL A   1      43.879  24.108  24.433  1.00  0.00    -0.200 F 
ENDBRANCH  45  69
BRANCH  57  80
ATOM     80  C   UNL A   1      44.830  27.274  34.141  1.00  0.00     0.064 A 
ATOM     81  C   UNL A   1      46.108  27.849  34.173  1.00  0.00     0.173 A 
ATOM     82  C   UNL A   1      44.617  26.098  34.876  1.00  0.00     0.173 A 
ATOM     83  F   UNL A   1      46.363  28.966  33.475  1.00  0.00    -0.203 F 
ATOM     84  C   UNL A   1      47.141  27.254  34.892  1.00  0.00     0.198 A 
ATOM     85  C   UNL A   1      45.647  25.519  35.614  1.00  0.00     0.198 A 
ATOM     86  F   UNL A   1      43.411  25.513  34.882  1.00  0.00    -0.203 F 
ATOM     87  F   UNL A   1      48.367  27.796  34.873  1.00  0.00    -0.200 F 
ATOM     88  C   UNL A   1      46.909  26.093  35.615  1.00  0.00     0.200 A 
ATOM     89  F   UNL A   1      45.419  24.402  36.317  1.00  0.00    -0.200 F 
ATOM     90  F   UNL A   1      47.905  25.522  36.306  1.00  0.00    -0.200 F 
ENDBRANCH  57  80
ENDBRANCH  31  32
ENDBRANCH  23  26
ENDBRANCH  21  22
ENDBRANCH  20  21
ENDBRANCH   1  20
TORSDOF 14
ENDMDL
MODEL 2
REMARK VINA RESULT:     -12.0      0.168      2.003
REMARK SMILES C[C@@H](CCC(=O)Nc1ccccn1)C(=O)NCCCNC(=O)c1ccc(-c2c3nc(c(-c4c(F)c(F)c(F)c(F)c4F)c4ccc([nH]4)c(-c4c(F)c(F)c(F)c(F)c4F)c4nc(c(-c5c(F)c(F)c(F)c(F)c5F)c5ccc2[nH]5)C=C4)C=C3)cc1
REMARK SMILES IDX 17 1 16 2 14 3 15 4 2 6 1 7 3 8 4 9 5 10 6 11 7 12 8 14 9 15
REMARK SMILES IDX 13 16 10 17 12 18 11 19 18 20 19 21 20 22 21 23 22 25 23 26
REMARK SMILES IDX 24 27 85 28 25 29 84 30 26 31 27 32 28 33 78 34 29 35 83 36
REMARK SMILES IDX 77 37 79 38 30 39 82 40 76 41 75 42 31 44 63 45 43 46 62 47
REMARK SMILES IDX 44 48 47 49 61 50 80 51 45 52 46 53 60 55 81 56 48 57 32 58
REMARK SMILES IDX 33 59 41 60 34 61 35 62 39 63 42 64 36 65 37 66 40 67 38 68
REMARK SMILES IDX 64 69 65 70 73 71 66 72 67 73 71 74 74 75 68 76 69 77 72 78
REMARK SMILES IDX 70 79 49 80 50 81 58 82 51 83 52 84 56 85 59 86 53 87 54 88
REMARK SMILES IDX 57 89 55 90
REMARK H PARENT 16 5 7 13 20 24 79 43 47 54
REMARK Flexibility Score: inf
ROOT
ATOM      1  C   UNL A   1      32.292  27.262  26.404  1.00  0.00     0.117 C 
ENDROOT
BRANCH   1   2
ATOM      2  N   UNL A   1      31.197  26.335  26.668  1.00  0.00    -0.356 N 
ATOM      3  C   UNL A   1      30.233  25.699  25.970  1.00  0.00     0.222 C 
ATOM      4  O   UNL A   1      29.462  25.037  26.682  1.00  0.00    -0.275 OA
ATOM      5  H   UNL A   1      31.146  26.111  27.625  1.00  0.00     0.163 HD
BRANCH   3   6
ATOM      6  C   UNL A   1      30.059  25.638  24.440  1.00  0.00     0.076 C 
ATOM      7  C   UNL A   1      28.901  26.565  23.983  1.00  0.00     0.018 C 
BRANCH   6   8
ATOM      8  C   UNL A   1      31.239  25.749  23.469  1.00  0.00     0.023 C 
BRANCH   8   9
ATOM      9  C   UNL A   1      31.158  26.787  22.342  1.00  0.00     0.101 C 
BRANCH   9  10
ATOM     10  C   UNL A   1      31.927  28.065  22.568  1.00  0.00     0.225 C 
ATOM     11  O   UNL A   1      33.151  28.005  22.736  1.00  0.00    -0.275 OA
ATOM     12  N   UNL A   1      31.364  29.296  22.500  1.00  0.00    -0.311 N 
ATOM     13  H   UNL A   1      32.028  29.982  22.260  1.00  0.00     0.171 HD
BRANCH  12  14
ATOM     14  C   UNL A   1      30.102  29.852  22.678  1.00  0.00     0.132 A 
ATOM     15  C   UNL A   1      29.727  30.687  23.711  1.00  0.00     0.047 A 
ATOM     16  N   UNL A   1      29.287  29.631  21.625  1.00  0.00    -0.239 NA
ATOM     17  C   UNL A   1      28.489  31.335  23.665  1.00  0.00     0.005 A 
ATOM     18  C   UNL A   1      28.080  30.242  21.610  1.00  0.00     0.113 A 
ATOM     19  C   UNL A   1      27.643  31.106  22.593  1.00  0.00     0.020 A 
ENDBRANCH  12  14
ENDBRANCH   9  10
ENDBRANCH   8   9
ENDBRANCH   6   8
ENDBRANCH   3   6
ENDBRANCH   1   2
BRANCH   1  20
ATOM     20  C   UNL A   1      31.819  28.719  26.500  1.00  0.00     0.042 C 
BRANCH  20  21
ATOM     21  C   UNL A   1      32.695  29.754  25.801  1.00  0.00     0.118 C 
BRANCH  21  22
ATOM     22  N   UNL A   1      32.571  31.082  26.375  1.00  0.00    -0.352 N 
ATOM     23  C   UNL A   1      33.334  31.802  27.259  1.00  0.00     0.251 C 
ATOM     24  H   UNL A   1      31.773  31.567  26.064  1.00  0.00     0.163 HD
ATOM     25  O   UNL A   1      32.891  32.890  27.627  1.00  0.00    -0.269 OA
BRANCH  23  26
ATOM     26  C   UNL A   1      34.651  31.354  27.792  1.00  0.00     0.039 A 
ATOM     27  C   UNL A   1      34.754  30.018  28.213  1.00  0.00     0.014 A 
ATOM     28  C   UNL A   1      35.739  32.201  28.010  1.00  0.00     0.014 A 
ATOM     29  C   UNL A   1      35.915  29.542  28.837  1.00  0.00     0.010 A 
ATOM     30  C   UNL A   1      36.931  31.706  28.556  1.00  0.00     0.010 A 
ATOM     31  C   UNL A   1      37.022  30.381  29.011  1.00  0.00    -0.014 A 
BRANCH  31  32
ATOM     32  C   UNL A   1      38.235  29.918  29.747  1.00  0.00     0.031 A 
ATOM     33  C   UNL A   1      38.471  30.365  31.170  1.00  0.00     0.074 A 
ATOM     34  C   UNL A   1      39.142  29.124  29.146  1.00  0.00     0.049 A 
ATOM     35  N   UNL A   1      39.502  30.155  31.952  1.00  0.00    -0.248 NA
ATOM     36  C   UNL A   1      37.419  31.192  31.782  1.00  0.00     0.031 C 
ATOM     37  C   UNL A   1      39.067  28.644  27.766  1.00  0.00     0.029 A 
ATOM     38  N   UNL A   1      40.313  28.582  29.622  1.00  0.00    -0.354 N 
ATOM     39  C   UNL A   1      39.245  30.864  33.119  1.00  0.00     0.074 A 
ATOM     40  C   UNL A   1      37.978  31.539  32.931  1.00  0.00     0.031 C 
ATOM     41  C   UNL A   1      40.127  27.859  27.516  1.00  0.00     0.029 A 
ATOM     42  C   UNL A   1      40.970  27.798  28.707  1.00  0.00     0.049 A 
ATOM     43  H   UNL A   1      40.647  28.740  30.535  1.00  0.00     0.167 HD
ATOM     44  C   UNL A   1      39.984  30.935  34.254  1.00  0.00     0.037 A 
ATOM     45  C   UNL A   1      42.120  27.103  28.816  1.00  0.00     0.037 A 
ATOM     46  C   UNL A   1      41.204  30.203  34.475  1.00  0.00     0.049 A 
ATOM     47  C   UNL A   1      42.870  27.112  30.121  1.00  0.00     0.074 A 
ATOM     48  C   UNL A   1      42.002  30.169  35.606  1.00  0.00     0.029 A 
ATOM     49  N   UNL A   1      41.788  29.352  33.549  1.00  0.00    -0.354 N 
ATOM     50  N   UNL A   1      42.605  27.771  31.224  1.00  0.00    -0.248 NA
ATOM     51  C   UNL A   1      44.069  26.266  30.204  1.00  0.00     0.031 C 
ATOM     52  C   UNL A   1      43.076  29.304  35.360  1.00  0.00     0.029 A 
ATOM     53  C   UNL A   1      42.927  28.776  34.088  1.00  0.00     0.049 A 
ATOM     54  H   UNL A   1      41.444  29.182  32.642  1.00  0.00     0.167 HD
ATOM     55  C   UNL A   1      43.582  27.397  32.136  1.00  0.00     0.074 A 
ATOM     56  C   UNL A   1      44.439  26.443  31.464  1.00  0.00     0.031 C 
ATOM     57  C   UNL A   1      43.755  27.809  33.415  1.00  0.00     0.037 A 
BRANCH  44  58
ATOM     58  C   UNL A   1      39.485  31.833  35.350  1.00  0.00     0.064 A 
ATOM     59  C   UNL A   1      39.889  33.173  35.447  1.00  0.00     0.173 A 
ATOM     60  C   UNL A   1      38.585  31.349  36.312  1.00  0.00     0.173 A 
ATOM     61  F   UNL A   1      40.758  33.682  34.560  1.00  0.00    -0.203 F 
ATOM     62  C   UNL A   1      39.441  33.984  36.487  1.00  0.00     0.198 A 
ATOM     63  C   UNL A   1      38.114  32.172  37.332  1.00  0.00     0.198 A 
ATOM     64  F   UNL A   1      38.158  30.078  36.262  1.00  0.00    -0.203 F 
ATOM     65  F   UNL A   1      39.889  35.243  36.593  1.00  0.00    -0.200 F 
ATOM     66  C   UNL A   1      38.551  33.484  37.426  1.00  0.00     0.200 A 
ATOM     67  F   UNL A   1      37.244  31.693  38.232  1.00  0.00    -0.200 F 
ATOM     68  F   UNL A   1      38.123  34.265  38.427  1.00  0.00    -0.200 F 
ENDBRANCH  44  58
BRANCH  45  69
ATOM     69  C   UNL A   1      42.602  26.287  27.672  1.00  0.00     0.064 A 
ATOM     70  C   UNL A   1      43.552  26.801  26.778  1.00  0.00     0.173 A 
ATOM     71  C   UNL A   1      42.131  24.986  27.450  1.00  0.00     0.173 A 
ATOM     72  F   UNL A   1      44.014  28.049  26.938  1.00  0.00    -0.203 F 
ATOM     73  C   UNL A   1      43.999  26.051  25.693  1.00  0.00     0.198 A 
ATOM     74  C   UNL A   1      42.596  24.227  26.377  1.00  0.00     0.198 A 
ATOM     75  F   UNL A   1      41.224  24.448  28.278  1.00  0.00    -0.203 F 
ATOM     76  F   UNL A   1      44.876  26.583  24.830  1.00  0.00    -0.200 F 
ATOM     77  C   UNL A   1      43.525  24.762  25.497  1.00  0.00     0.200 A 
ATOM     78  F   UNL A   1      42.144  22.979  26.195  1.00  0.00    -0.200 F 
ATOM     79  F   UNL A   1      43.958  24.040  24.454  1.00  0.00    -0.200 F 
ENDBRANCH  45  69
BRANCH  57  80
ATOM     80  C   UNL A   1      44.881  27.192  34.189  1.00  0.00     0.064 A 
ATOM     81  C   UNL A   1      44.710  26.011  34.923  1.00  0.00     0.173 A 
ATOM     82  C   UNL A   1      46.154  27.780  34.172  1.00  0.00     0.173 A 
ATOM     83  F   UNL A   1      43.507  25.420  34.980  1.00  0.00    -0.203 F 
ATOM     84  C   UNL A   1      45.768  25.454  35.637  1.00  0.00     0.198 A 
ATOM     85  C   UNL A   1      47.216  27.207  34.867  1.00  0.00     0.198 A 
ATOM     86  F   UNL A   1      46.370  28.908  33.479  1.00  0.00    -0.203 F 
ATOM     87  F   UNL A   1      45.572  24.348  36.368  1.00  0.00    -0.200 F 
ATOM     88  C   UNL A   1      47.020  26.049  35.605  1.00  0.00     0.200 A 
ATOM     89  F   UNL A   1      48.427  27.780  34.829  1.00  0.00    -0.200 F 
ATOM     90  F   UNL A   1      48.037  25.512  36.292  1.00  0.00    -0.200 F 
ENDBRANCH  57  80
ENDBRANCH  31  32
ENDBRANCH  23  26
ENDBRANCH  21  22
ENDBRANCH  20  21
ENDBRANCH   1  20
TORSDOF 14
ENDMDL
MODEL 3
REMARK VINA RESULT:     -11.6      4.065      6.920
REMARK SMILES C[C@@H](CCC(=O)Nc1ccccn1)C(=O)NCCCNC(=O)c1ccc(-c2c3nc(c(-c4c(F)c(F)c(F)c(F)c4F)c4ccc([nH]4)c(-c4c(F)c(F)c(F)c(F)c4F)c4nc(c(-c5c(F)c(F)c(F)c(F)c5F)c5ccc2[nH]5)C=C4)C=C3)cc1
REMARK SMILES IDX 17 1 16 2 14 3 15 4 2 6 1 7 3 8 4 9 5 10 6 11 7 12 8 14 9 15
REMARK SMILES IDX 13 16 10 17 12 18 11 19 18 20 19 21 20 22 21 23 22 25 23 26
REMARK SMILES IDX 24 27 85 28 25 29 84 30 26 31 27 32 28 33 78 34 29 35 83 36
REMARK SMILES IDX 77 37 79 38 30 39 82 40 76 41 75 42 31 44 63 45 43 46 62 47
REMARK SMILES IDX 44 48 47 49 61 50 80 51 45 52 46 53 60 55 81 56 48 57 32 58
REMARK SMILES IDX 33 59 41 60 34 61 35 62 39 63 42 64 36 65 37 66 40 67 38 68
REMARK SMILES IDX 64 69 65 70 73 71 66 72 67 73 71 74 74 75 68 76 69 77 72 78
REMARK SMILES IDX 70 79 49 80 50 81 58 82 51 83 52 84 56 85 59 86 53 87 54 88
REMARK SMILES IDX 57 89 55 90
REMARK H PARENT 16 5 7 13 20 24 79 43 47 54
REMARK Flexibility Score: inf
ROOT
ATOM      1  C   UNL A   1      33.631  35.023  29.161  1.00  0.00     0.117 C 
ENDROOT
BRANCH   1   2
ATOM      2  N   UNL A   1      32.781  35.125  30.341  1.00  0.00    -0.356 N 
ATOM      3  C   UNL A   1      32.908  35.466  31.641  1.00  0.00     0.222 C 
ATOM      4  O   UNL A   1      31.863  35.324  32.294  1.00  0.00    -0.275 OA
ATOM      5  H   UNL A   1      31.853  34.873  30.132  1.00  0.00     0.163 HD
BRANCH   3   6
ATOM      6  C   UNL A   1      34.138  36.076  32.341  1.00  0.00     0.076 C 
ATOM      7  C   UNL A   1      33.953  37.603  32.542  1.00  0.00     0.018 C 
BRANCH   6   8
ATOM      8  C   UNL A   1      34.772  35.450  33.588  1.00  0.00     0.023 C 
BRANCH   8   9
ATOM      9  C   UNL A   1      34.849  33.920  33.674  1.00  0.00     0.101 C 
BRANCH   9  10
ATOM     10  C   UNL A   1      36.161  33.353  34.158  1.00  0.00     0.225 C 
ATOM     11  O   UNL A   1      36.317  33.155  35.369  1.00  0.00    -0.275 OA
ATOM     12  N   UNL A   1      37.153  32.953  33.326  1.00  0.00    -0.311 N 
ATOM     13  H   UNL A   1      37.716  32.263  33.744  1.00  0.00     0.171 HD
BRANCH  12  14
ATOM     14  C   UNL A   1      37.590  33.254  32.040  1.00  0.00     0.132 A 
ATOM     15  C   UNL A   1      37.035  32.779  30.869  1.00  0.00     0.047 A 
ATOM     16  N   UNL A   1      38.535  34.216  32.029  1.00  0.00    -0.239 NA
ATOM     17  C   UNL A   1      37.440  33.314  29.643  1.00  0.00     0.005 A 
ATOM     18  C   UNL A   1      38.939  34.702  30.832  1.00  0.00     0.113 A 
ATOM     19  C   UNL A   1      38.417  34.296  29.620  1.00  0.00     0.020 A 
ENDBRANCH  12  14
ENDBRANCH   9  10
ENDBRANCH   8   9
ENDBRANCH   6   8
ENDBRANCH   3   6
ENDBRANCH   1   2
BRANCH   1  20
ATOM     20  C   UNL A   1      33.266  33.791  28.321  1.00  0.00     0.042 C 
BRANCH  20  21
ATOM     21  C   UNL A   1      34.399  32.806  28.052  1.00  0.00     0.118 C 
BRANCH  21  22
ATOM     22  N   UNL A   1      33.929  31.451  27.819  1.00  0.00    -0.352 N 
ATOM     23  C   UNL A   1      34.534  30.221  27.867  1.00  0.00     0.251 C 
ATOM     24  H   UNL A   1      32.975  31.407  27.577  1.00  0.00     0.163 HD
ATOM     25  O   UNL A   1      33.865  29.251  27.512  1.00  0.00    -0.269 OA
BRANCH  23  26
ATOM     26  C   UNL A   1      35.935  29.991  28.319  1.00  0.00     0.039 A 
ATOM     27  C   UNL A   1      36.960  30.233  27.389  1.00  0.00     0.014 A 
ATOM     28  C   UNL A   1      36.280  29.440  29.554  1.00  0.00     0.014 A 
ATOM     29  C   UNL A   1      38.295  29.930  27.687  1.00  0.00     0.010 A 
ATOM     30  C   UNL A   1      37.624  29.216  29.886  1.00  0.00     0.010 A 
ATOM     31  C   UNL A   1      38.644  29.422  28.944  1.00  0.00    -0.014 A 
BRANCH  31  32
ATOM     32  C   UNL A   1      40.047  29.015  29.251  1.00  0.00     0.031 A 
ATOM     33  C   UNL A   1      40.919  29.903  30.106  1.00  0.00     0.074 A 
ATOM     34  C   UNL A   1      40.558  27.875  28.749  1.00  0.00     0.049 A 
ATOM     35  N   UNL A   1      42.188  29.781  30.414  1.00  0.00    -0.248 NA
ATOM     36  C   UNL A   1      40.286  31.109  30.661  1.00  0.00     0.031 C 
ATOM     37  C   UNL A   1      39.848  26.939  27.878  1.00  0.00     0.029 A 
ATOM     38  N   UNL A   1      41.802  27.309  28.899  1.00  0.00    -0.354 N 
ATOM     39  C   UNL A   1      42.512  30.917  31.147  1.00  0.00     0.074 A 
ATOM     40  C   UNL A   1      41.318  31.732  31.211  1.00  0.00     0.031 C 
ATOM     41  C   UNL A   1      40.654  25.904  27.593  1.00  0.00     0.029 A 
ATOM     42  C   UNL A   1      41.948  26.113  28.239  1.00  0.00     0.049 A 
ATOM     43  H   UNL A   1      42.521  27.722  29.430  1.00  0.00     0.167 HD
ATOM     44  C   UNL A   1      43.690  31.246  31.733  1.00  0.00     0.037 A 
ATOM     45  C   UNL A   1      43.002  25.276  28.168  1.00  0.00     0.037 A 
ATOM     46  C   UNL A   1      44.857  30.402  31.739  1.00  0.00     0.049 A 
ATOM     47  C   UNL A   1      44.266  25.612  28.914  1.00  0.00     0.074 A 
ATOM     48  C   UNL A   1      46.083  30.623  32.344  1.00  0.00     0.029 A 
ATOM     49  N   UNL A   1      44.931  29.159  31.130  1.00  0.00    -0.354 N 
ATOM     50  N   UNL A   1      44.552  26.679  29.620  1.00  0.00    -0.248 NA
ATOM     51  C   UNL A   1      45.348  24.618  28.867  1.00  0.00     0.031 C 
ATOM     52  C   UNL A   1      46.902  29.516  32.091  1.00  0.00     0.029 A 
ATOM     53  C   UNL A   1      46.175  28.593  31.358  1.00  0.00     0.049 A 
ATOM     54  H   UNL A   1      44.206  28.739  30.613  1.00  0.00     0.167 HD
ATOM     55  C   UNL A   1      45.828  26.472  30.125  1.00  0.00     0.074 A 
ATOM     56  C   UNL A   1      46.258  25.172  29.656  1.00  0.00     0.031 C 
ATOM     57  C   UNL A   1      46.578  27.288  30.906  1.00  0.00     0.037 A 
BRANCH  44  58
ATOM     58  C   UNL A   1      43.772  32.578  32.423  1.00  0.00     0.064 A 
ATOM     59  C   UNL A   1      43.449  32.727  33.781  1.00  0.00     0.173 A 
ATOM     60  C   UNL A   1      44.187  33.719  31.720  1.00  0.00     0.173 A 
ATOM     61  F   UNL A   1      43.035  31.669  34.495  1.00  0.00    -0.203 F 
ATOM     62  C   UNL A   1      43.501  33.974  34.398  1.00  0.00     0.198 A 
ATOM     63  C   UNL A   1      44.269  34.959  32.349  1.00  0.00     0.198 A 
ATOM     64  F   UNL A   1      44.518  33.633  30.423  1.00  0.00    -0.203 F 
ATOM     65  F   UNL A   1      43.129  34.102  35.679  1.00  0.00    -0.200 F 
ATOM     66  C   UNL A   1      43.914  35.088  33.683  1.00  0.00     0.200 A 
ATOM     67  F   UNL A   1      44.682  36.033  31.661  1.00  0.00    -0.200 F 
ATOM     68  F   UNL A   1      43.962  36.288  34.278  1.00  0.00    -0.200 F 
ENDBRANCH  44  58
BRANCH  45  69
ATOM     69  C   UNL A   1      42.886  24.004  27.410  1.00  0.00     0.064 A 
ATOM     70  C   UNL A   1      42.454  22.831  28.045  1.00  0.00     0.173 A 
ATOM     71  C   UNL A   1      43.202  23.932  26.047  1.00  0.00     0.173 A 
ATOM     72  F   UNL A   1      42.163  22.847  29.354  1.00  0.00    -0.203 F 
ATOM     73  C   UNL A   1      42.357  21.629  27.348  1.00  0.00     0.198 A 
ATOM     74  C   UNL A   1      43.082  22.734  25.345  1.00  0.00     0.198 A 
ATOM     75  F   UNL A   1      43.618  25.027  25.394  1.00  0.00    -0.203 F 
ATOM     76  F   UNL A   1      41.981  20.514  27.989  1.00  0.00    -0.200 F 
ATOM     77  C   UNL A   1      42.666  21.582  25.996  1.00  0.00     0.200 A 
ATOM     78  F   UNL A   1      43.372  22.693  24.037  1.00  0.00    -0.200 F 
ATOM     79  F   UNL A   1      42.571  20.426  25.326  1.00  0.00    -0.200 F 
ENDBRANCH  45  69
BRANCH  57  80
ATOM     80  C   UNL A   1      47.917  26.777  31.345  1.00  0.00     0.064 A 
ATOM     81  C   UNL A   1      48.071  26.033  32.523  1.00  0.00     0.173 A 
ATOM     82  C   UNL A   1      49.055  27.015  30.561  1.00  0.00     0.173 A 
ATOM     83  F   UNL A   1      47.014  25.792  33.312  1.00  0.00    -0.203 F 
ATOM     84  C   UNL A   1      49.324  25.568  32.914  1.00  0.00     0.198 A 
ATOM     85  C   UNL A   1      50.302  26.528  30.943  1.00  0.00     0.198 A 
ATOM     86  F   UNL A   1      48.958  27.717  29.422  1.00  0.00    -0.203 F 
ATOM     87  F   UNL A   1      49.457  24.897  34.067  1.00  0.00    -0.200 F 
ATOM     88  C   UNL A   1      50.437  25.812  32.123  1.00  0.00     0.200 A 
ATOM     89  F   UNL A   1      51.375  26.758  30.174  1.00  0.00    -0.200 F 
ATOM     90  F   UNL A   1      51.642  25.364  32.502  1.00  0.00    -0.200 F 
ENDBRANCH  57  80
ENDBRANCH  31  32
ENDBRANCH  23  26
ENDBRANCH  21  22
ENDBRANCH  20  21
ENDBRANCH   1  20
TORSDOF 14
ENDMDL
