MODEL 1
REMARK VINA RESULT:     -13.1      0.000      0.000
REMARK SMILES O=C(NCCCNC(=O)c1ccc(-c2c3nc(c(-c4c(F)c(F)c(F)c(F)c4F)c4ccc([nH]4)c(-c4c(F)c(F)c(F)c(F)c4F)c4nc(c(-c5c(F)c(F)c(F)c(F)c5F)c5ccc2[nH]5)C=C4)C=C3)cc1)c1ccc(NC(=O)[C@H]2CCS(=O)(=O)C2)cc1
REMARK SMILES IDX 5 1 4 2 3 3 1 4 2 5 73 7 74 8 88 9 75 10 87 11 76 12 77 13
REMARK SMILES IDX 78 14 79 16 80 17 81 18 86 19 82 20 83 21 84 22 85 23 6 24
REMARK SMILES IDX 7 25 8 26 9 28 10 29 11 30 72 31 12 32 71 33 13 34 14 35
REMARK SMILES IDX 15 36 65 37 16 38 70 39 64 40 66 41 17 42 69 43 63 44 62 45
REMARK SMILES IDX 18 47 50 48 30 49 49 50 31 51 34 52 48 53 67 54 32 55 33 56
REMARK SMILES IDX 47 58 68 59 35 60 19 61 20 62 28 63 21 64 22 65 26 66 29 67
REMARK SMILES IDX 23 68 24 69 27 70 25 71 51 72 52 73 60 74 53 75 54 76 58 77
REMARK SMILES IDX 61 78 55 79 56 80 59 81 57 82 36 83 37 84 45 85 38 86 39 87
REMARK SMILES IDX 43 88 46 89 40 90 41 91 44 92 42 93
REMARK H PARENT 3 6 77 15 7 27 66 46 34 57
REMARK Flexibility Score: inf
ROOT
ATOM      1  C   UNL A   1      31.503  32.194  26.501  1.00  0.00     0.042 C 
ENDROOT
BRANCH   1   2
ATOM      2  C   UNL A   1      31.778  30.763  26.118  1.00  0.00     0.118 C 
BRANCH   2   3
ATOM      3  N   UNL A   1      31.657  29.825  27.239  1.00  0.00    -0.352 N 
ATOM      4  O   UNL A   1      31.430  27.828  28.284  1.00  0.00    -0.269 OA
ATOM      5  C   UNL A   1      31.701  28.445  27.259  1.00  0.00     0.251 C 
ATOM      6  H   UNL A   1      31.524  30.248  28.118  1.00  0.00     0.163 HD
BRANCH   5   7
ATOM      7  C   UNL A   1      32.089  27.713  26.035  1.00  0.00     0.039 A 
ATOM      8  C   UNL A   1      31.080  27.268  25.205  1.00  0.00     0.016 A 
ATOM      9  C   UNL A   1      33.413  27.415  25.709  1.00  0.00     0.016 A 
ATOM     10  C   UNL A   1      31.354  26.311  24.256  1.00  0.00     0.027 A 
ATOM     11  C   UNL A   1      33.688  26.643  24.561  1.00  0.00     0.027 A 
ATOM     12  C   UNL A   1      32.641  26.108  23.798  1.00  0.00     0.041 A 
BRANCH  12  13
ATOM     13  N   UNL A   1      32.917  25.471  22.568  1.00  0.00    -0.326 N 
ATOM     14  C   UNL A   1      33.084  24.142  22.236  1.00  0.00     0.228 C 
ATOM     15  H   UNL A   1      33.007  26.091  21.807  1.00  0.00     0.169 HD
ATOM     16  O   UNL A   1      33.278  23.853  21.053  1.00  0.00    -0.274 OA
BRANCH  14  17
ATOM     17  C   UNL A   1      33.046  23.051  23.292  1.00  0.00     0.095 C 
ATOM     18  C   UNL A   1      32.413  21.720  22.834  1.00  0.00     0.030 C 
ATOM     19  C   UNL A   1      34.382  22.597  23.877  1.00  0.00     0.150 C 
ATOM     20  C   UNL A   1      32.340  20.877  24.102  1.00  0.00     0.138 C 
ATOM     21  S   UNL A   1      33.886  21.221  24.935  1.00  0.00     0.151 S 
ATOM     22  O   UNL A   1      33.573  21.736  26.249  1.00  0.00    -0.229 OA
ATOM     23  O   UNL A   1      34.781  20.103  24.725  1.00  0.00    -0.229 OA
ENDBRANCH  14  17
ENDBRANCH  12  13
ENDBRANCH   5   7
ENDBRANCH   2   3
ENDBRANCH   1   2
BRANCH   1  24
ATOM     24  C   UNL A   1      32.616  32.790  27.328  1.00  0.00     0.118 C 
BRANCH  24  25
ATOM     25  N   UNL A   1      32.399  34.204  27.626  1.00  0.00    -0.352 N 
ATOM     26  C   UNL A   1      32.958  34.983  28.612  1.00  0.00     0.251 C 
ATOM     27  H   UNL A   1      31.760  34.666  27.036  1.00  0.00     0.163 HD
ATOM     28  O   UNL A   1      32.532  36.111  28.833  1.00  0.00    -0.269 OA
BRANCH  26  29
ATOM     29  C   UNL A   1      34.055  34.424  29.426  1.00  0.00     0.039 A 
ATOM     30  C   UNL A   1      33.766  33.799  30.640  1.00  0.00     0.014 A 
ATOM     31  C   UNL A   1      35.360  34.453  28.936  1.00  0.00     0.014 A 
ATOM     32  C   UNL A   1      34.777  33.109  31.310  1.00  0.00     0.010 A 
ATOM     33  C   UNL A   1      36.325  33.657  29.529  1.00  0.00     0.010 A 
ATOM     34  C   UNL A   1      36.048  32.984  30.728  1.00  0.00    -0.014 A 
BRANCH  34  35
ATOM     35  C   UNL A   1      37.135  32.183  31.342  1.00  0.00     0.031 A 
ATOM     36  C   UNL A   1      37.657  32.577  32.696  1.00  0.00     0.074 A 
ATOM     37  C   UNL A   1      37.725  31.193  30.646  1.00  0.00     0.049 A 
ATOM     38  N   UNL A   1      38.715  32.149  33.336  1.00  0.00    -0.248 NA
ATOM     39  C   UNL A   1      36.910  33.629  33.404  1.00  0.00     0.031 C 
ATOM     40  C   UNL A   1      37.329  30.737  29.313  1.00  0.00     0.029 A 
ATOM     41  N   UNL A   1      38.805  30.406  30.959  1.00  0.00    -0.354 N 
ATOM     42  C   UNL A   1      38.770  32.895  34.505  1.00  0.00     0.074 A 
ATOM     43  C   UNL A   1      37.688  33.852  34.450  1.00  0.00     0.031 C 
ATOM     44  C   UNL A   1      38.138  29.734  28.933  1.00  0.00     0.029 A 
ATOM     45  C   UNL A   1      39.144  29.517  29.969  1.00  0.00     0.049 A 
ATOM     46  H   UNL A   1      39.291  30.473  31.813  1.00  0.00     0.167 HD
ATOM     47  C   UNL A   1      39.629  32.776  35.544  1.00  0.00     0.037 A 
ATOM     48  C   UNL A   1      40.162  28.639  29.900  1.00  0.00     0.037 A 
ATOM     49  C   UNL A   1      40.694  31.810  35.595  1.00  0.00     0.049 A 
ATOM     50  C   UNL A   1      41.138  28.557  31.044  1.00  0.00     0.074 A 
ATOM     51  C   UNL A   1      41.599  31.577  36.615  1.00  0.00     0.029 A 
ATOM     52  N   UNL A   1      40.998  30.919  34.576  1.00  0.00    -0.354 N 
ATOM     53  N   UNL A   1      41.157  29.234  32.167  1.00  0.00    -0.248 NA
ATOM     54  C   UNL A   1      42.233  27.587  30.911  1.00  0.00     0.031 C 
ATOM     55  C   UNL A   1      42.487  30.584  36.189  1.00  0.00     0.029 A 
ATOM     56  C   UNL A   1      42.093  30.149  34.933  1.00  0.00     0.049 A 
ATOM     57  H   UNL A   1      40.509  30.845  33.724  1.00  0.00     0.167 HD
ATOM     58  C   UNL A   1      42.234  28.742  32.892  1.00  0.00     0.074 A 
ATOM     59  C   UNL A   1      42.845  27.709  32.080  1.00  0.00     0.031 C 
ATOM     60  C   UNL A   1      42.674  29.109  34.121  1.00  0.00     0.037 A 
BRANCH  47  61
ATOM     61  C   UNL A   1      39.449  33.721  36.698  1.00  0.00     0.064 A 
ATOM     62  C   UNL A   1      40.031  34.999  36.704  1.00  0.00     0.173 A 
ATOM     63  C   UNL A   1      38.690  33.345  37.817  1.00  0.00     0.173 A 
ATOM     64  F   UNL A   1      40.779  35.406  35.667  1.00  0.00    -0.203 F 
ATOM     65  C   UNL A   1      39.903  35.842  37.805  1.00  0.00     0.198 A 
ATOM     66  C   UNL A   1      38.528  34.208  38.898  1.00  0.00     0.198 A 
ATOM     67  F   UNL A   1      38.105  32.138  37.864  1.00  0.00    -0.203 F 
ATOM     68  F   UNL A   1      40.532  37.025  37.817  1.00  0.00    -0.200 F 
ATOM     69  C   UNL A   1      39.146  35.449  38.898  1.00  0.00     0.200 A 
ATOM     70  F   UNL A   1      37.784  33.832  39.947  1.00  0.00    -0.200 F 
ATOM     71  F   UNL A   1      39.023  36.261  39.956  1.00  0.00    -0.200 F 
ENDBRANCH  47  61
BRANCH  48  72
ATOM     72  C   UNL A   1      40.294  27.745  28.719  1.00  0.00     0.064 A 
ATOM     73  C   UNL A   1      39.657  26.495  28.696  1.00  0.00     0.173 A 
ATOM     74  C   UNL A   1      41.049  28.111  27.596  1.00  0.00     0.173 A 
ATOM     75  F   UNL A   1      38.939  26.092  29.755  1.00  0.00    -0.203 F 
ATOM     76  C   UNL A   1      39.786  25.640  27.605  1.00  0.00     0.198 A 
ATOM     77  C   UNL A   1      41.153  27.267  26.491  1.00  0.00     0.198 A 
ATOM     78  F   UNL A   1      41.674  29.297  27.563  1.00  0.00    -0.203 F 
ATOM     79  F   UNL A   1      39.203  24.434  27.630  1.00  0.00    -0.200 F 
ATOM     80  C   UNL A   1      40.529  26.028  26.501  1.00  0.00     0.200 A 
ATOM     81  F   UNL A   1      41.858  27.654  25.419  1.00  0.00    -0.200 F 
ATOM     82  F   UNL A   1      40.648  25.208  25.448  1.00  0.00    -0.200 F 
ENDBRANCH  48  72
BRANCH  60  83
ATOM     83  C   UNL A   1      43.830  28.345  34.702  1.00  0.00     0.064 A 
ATOM     84  C   UNL A   1      45.155  28.786  34.570  1.00  0.00     0.173 A 
ATOM     85  C   UNL A   1      43.595  27.185  35.458  1.00  0.00     0.173 A 
ATOM     86  F   UNL A   1      45.434  29.879  33.845  1.00  0.00    -0.203 F 
ATOM     87  C   UNL A   1      46.204  28.081  35.156  1.00  0.00     0.198 A 
ATOM     88  C   UNL A   1      44.642  26.505  36.072  1.00  0.00     0.198 A 
ATOM     89  F   UNL A   1      42.346  26.726  35.621  1.00  0.00    -0.203 F 
ATOM     90  F   UNL A   1      47.466  28.495  34.979  1.00  0.00    -0.200 F 
ATOM     91  C   UNL A   1      45.946  26.948  35.915  1.00  0.00     0.200 A 
ATOM     92  F   UNL A   1      44.389  25.421  36.819  1.00  0.00    -0.200 F 
ATOM     93  F   UNL A   1      46.956  26.283  36.492  1.00  0.00    -0.200 F 
ENDBRANCH  60  83
ENDBRANCH  34  35
ENDBRANCH  26  29
ENDBRANCH  24  25
ENDBRANCH   1  24
TORSDOF 12
ENDMDL
MODEL 2
REMARK VINA RESULT:     -13.1      0.105      1.604
REMARK SMILES O=C(NCCCNC(=O)c1ccc(-c2c3nc(c(-c4c(F)c(F)c(F)c(F)c4F)c4ccc([nH]4)c(-c4c(F)c(F)c(F)c(F)c4F)c4nc(c(-c5c(F)c(F)c(F)c(F)c5F)c5ccc2[nH]5)C=C4)C=C3)cc1)c1ccc(NC(=O)[C@H]2CCS(=O)(=O)C2)cc1
REMARK SMILES IDX 5 1 4 2 3 3 1 4 2 5 73 7 74 8 88 9 75 10 87 11 76 12 77 13
REMARK SMILES IDX 78 14 79 16 80 17 81 18 86 19 82 20 83 21 84 22 85 23 6 24
REMARK SMILES IDX 7 25 8 26 9 28 10 29 11 30 72 31 12 32 71 33 13 34 14 35
REMARK SMILES IDX 15 36 65 37 16 38 70 39 64 40 66 41 17 42 69 43 63 44 62 45
REMARK SMILES IDX 18 47 50 48 30 49 49 50 31 51 34 52 48 53 67 54 32 55 33 56
REMARK SMILES IDX 47 58 68 59 35 60 19 61 20 62 28 63 21 64 22 65 26 66 29 67
REMARK SMILES IDX 23 68 24 69 27 70 25 71 51 72 52 73 60 74 53 75 54 76 58 77
REMARK SMILES IDX 61 78 55 79 56 80 59 81 57 82 36 83 37 84 45 85 38 86 39 87
REMARK SMILES IDX 43 88 46 89 40 90 41 91 44 92 42 93
REMARK H PARENT 3 6 77 15 7 27 66 46 34 57
REMARK Flexibility Score: inf
ROOT
ATOM      1  C   UNL A   1      31.555  32.188  26.505  1.00  0.00     0.042 C 
ENDROOT
BRANCH   1   2
ATOM      2  C   UNL A   1      31.829  30.754  26.131  1.00  0.00     0.118 C 
BRANCH   2   3
ATOM      3  N   UNL A   1      31.679  29.820  27.251  1.00  0.00    -0.352 N 
ATOM      4  O   UNL A   1      31.403  27.828  28.294  1.00  0.00    -0.269 OA
ATOM      5  C   UNL A   1      31.696  28.439  27.272  1.00  0.00     0.251 C 
ATOM      6  H   UNL A   1      31.546  30.245  28.129  1.00  0.00     0.163 HD
BRANCH   5   7
ATOM      7  C   UNL A   1      32.080  27.699  26.052  1.00  0.00     0.039 A 
ATOM      8  C   UNL A   1      31.072  27.281  25.208  1.00  0.00     0.016 A 
ATOM      9  C   UNL A   1      33.400  27.368  25.743  1.00  0.00     0.016 A 
ATOM     10  C   UNL A   1      31.333  26.319  24.261  1.00  0.00     0.027 A 
ATOM     11  C   UNL A   1      33.671  26.591  24.597  1.00  0.00     0.027 A 
ATOM     12  C   UNL A   1      32.620  26.083  23.819  1.00  0.00     0.041 A 
BRANCH  12  13
ATOM     13  N   UNL A   1      32.896  25.441  22.593  1.00  0.00    -0.326 N 
ATOM     14  C   UNL A   1      33.093  24.114  22.271  1.00  0.00     0.228 C 
ATOM     15  H   UNL A   1      32.958  26.055  21.824  1.00  0.00     0.169 HD
ATOM     16  O   UNL A   1      33.278  23.817  21.089  1.00  0.00    -0.274 OA
BRANCH  14  17
ATOM     17  C   UNL A   1      33.099  23.033  23.339  1.00  0.00     0.095 C 
ATOM     18  C   UNL A   1      32.440  21.700  22.923  1.00  0.00     0.030 C 
ATOM     19  C   UNL A   1      34.459  22.579  23.866  1.00  0.00     0.150 C 
ATOM     20  C   UNL A   1      32.422  20.870  24.201  1.00  0.00     0.138 C 
ATOM     21  S   UNL A   1      34.006  21.215  24.959  1.00  0.00     0.151 S 
ATOM     22  O   UNL A   1      33.755  21.744  26.282  1.00  0.00    -0.229 OA
ATOM     23  O   UNL A   1      34.886  20.092  24.721  1.00  0.00    -0.229 OA
ENDBRANCH  14  17
ENDBRANCH  12  13
ENDBRANCH   5   7
ENDBRANCH   2   3
ENDBRANCH   1   2
BRANCH   1  24
ATOM     24  C   UNL A   1      32.685  32.801  27.296  1.00  0.00     0.118 C 
BRANCH  24  25
ATOM     25  N   UNL A   1      32.444  34.203  27.626  1.00  0.00    -0.352 N 
ATOM     26  C   UNL A   1      32.973  34.963  28.642  1.00  0.00     0.251 C 
ATOM     27  H   UNL A   1      31.811  34.673  27.034  1.00  0.00     0.163 HD
ATOM     28  O   UNL A   1      32.529  36.080  28.883  1.00  0.00    -0.269 OA
BRANCH  26  29
ATOM     29  C   UNL A   1      34.059  34.398  29.464  1.00  0.00     0.039 A 
ATOM     30  C   UNL A   1      33.751  33.694  30.630  1.00  0.00     0.014 A 
ATOM     31  C   UNL A   1      35.380  34.499  29.027  1.00  0.00     0.014 A 
ATOM     32  C   UNL A   1      34.762  33.002  31.298  1.00  0.00     0.010 A 
ATOM     33  C   UNL A   1      36.351  33.704  29.610  1.00  0.00     0.010 A 
ATOM     34  C   UNL A   1      36.056  32.954  30.758  1.00  0.00    -0.014 A 
BRANCH  34  35
ATOM     35  C   UNL A   1      37.150  32.158  31.366  1.00  0.00     0.031 A 
ATOM     36  C   UNL A   1      37.676  32.553  32.718  1.00  0.00     0.074 A 
ATOM     37  C   UNL A   1      37.740  31.171  30.667  1.00  0.00     0.049 A 
ATOM     38  N   UNL A   1      38.739  32.129  33.354  1.00  0.00    -0.248 NA
ATOM     39  C   UNL A   1      36.928  33.602  33.430  1.00  0.00     0.031 C 
ATOM     40  C   UNL A   1      37.340  30.713  29.336  1.00  0.00     0.029 A 
ATOM     41  N   UNL A   1      38.825  30.388  30.975  1.00  0.00    -0.354 N 
ATOM     42  C   UNL A   1      38.796  32.875  34.522  1.00  0.00     0.074 A 
ATOM     43  C   UNL A   1      37.709  33.828  34.473  1.00  0.00     0.031 C 
ATOM     44  C   UNL A   1      38.151  29.714  28.952  1.00  0.00     0.029 A 
ATOM     45  C   UNL A   1      39.163  29.501  29.983  1.00  0.00     0.049 A 
ATOM     46  H   UNL A   1      39.315  30.456  31.827  1.00  0.00     0.167 HD
ATOM     47  C   UNL A   1      39.660  32.759  35.558  1.00  0.00     0.037 A 
ATOM     48  C   UNL A   1      40.184  28.626  29.909  1.00  0.00     0.037 A 
ATOM     49  C   UNL A   1      40.729  31.797  35.604  1.00  0.00     0.049 A 
ATOM     50  C   UNL A   1      41.165  28.548  31.049  1.00  0.00     0.074 A 
ATOM     51  C   UNL A   1      41.639  31.567  36.619  1.00  0.00     0.029 A 
ATOM     52  N   UNL A   1      41.032  30.908  34.583  1.00  0.00    -0.354 N 
ATOM     53  N   UNL A   1      41.187  29.225  32.172  1.00  0.00    -0.248 NA
ATOM     54  C   UNL A   1      42.264  27.582  30.911  1.00  0.00     0.031 C 
ATOM     55  C   UNL A   1      42.530  30.579  36.189  1.00  0.00     0.029 A 
ATOM     56  C   UNL A   1      42.132  30.142  34.934  1.00  0.00     0.049 A 
ATOM     57  H   UNL A   1      40.540  30.833  33.733  1.00  0.00     0.167 HD
ATOM     58  C   UNL A   1      42.269  28.737  32.892  1.00  0.00     0.074 A 
ATOM     59  C   UNL A   1      42.881  27.707  32.077  1.00  0.00     0.031 C 
ATOM     60  C   UNL A   1      42.713  29.104  34.120  1.00  0.00     0.037 A 
BRANCH  47  61
ATOM     61  C   UNL A   1      39.481  33.703  36.713  1.00  0.00     0.064 A 
ATOM     62  C   UNL A   1      40.084  34.971  36.731  1.00  0.00     0.173 A 
ATOM     63  C   UNL A   1      38.702  33.335  37.821  1.00  0.00     0.173 A 
ATOM     64  F   UNL A   1      40.851  35.369  35.704  1.00  0.00    -0.203 F 
ATOM     65  C   UNL A   1      39.956  35.812  37.833  1.00  0.00     0.198 A 
ATOM     66  C   UNL A   1      38.541  34.197  38.903  1.00  0.00     0.198 A 
ATOM     67  F   UNL A   1      38.097  32.138  37.857  1.00  0.00    -0.203 F 
ATOM     68  F   UNL A   1      40.604  36.985  37.857  1.00  0.00    -0.200 F 
ATOM     69  C   UNL A   1      39.180  35.427  38.915  1.00  0.00     0.200 A 
ATOM     70  F   UNL A   1      37.779  33.829  39.942  1.00  0.00    -0.200 F 
ATOM     71  F   UNL A   1      39.057  36.238  39.975  1.00  0.00    -0.200 F 
ENDBRANCH  47  61
BRANCH  48  72
ATOM     72  C   UNL A   1      40.315  27.733  28.727  1.00  0.00     0.064 A 
ATOM     73  C   UNL A   1      41.075  28.128  27.617  1.00  0.00     0.173 A 
ATOM     74  C   UNL A   1      39.692  26.479  28.678  1.00  0.00     0.173 A 
ATOM     75  F   UNL A   1      41.674  29.328  27.609  1.00  0.00    -0.203 F 
ATOM     76  C   UNL A   1      41.192  27.310  26.495  1.00  0.00     0.198 A 
ATOM     77  C   UNL A   1      39.834  25.648  27.567  1.00  0.00     0.198 A 
ATOM     78  F   UNL A   1      38.957  26.050  29.714  1.00  0.00    -0.203 F 
ATOM     79  F   UNL A   1      41.888  27.732  25.432  1.00  0.00    -0.200 F 
ATOM     80  C   UNL A   1      40.577  26.068  26.473  1.00  0.00     0.200 A 
ATOM     81  F   UNL A   1      39.252  24.441  27.557  1.00  0.00    -0.200 F 
ATOM     82  F   UNL A   1      40.694  25.279  25.397  1.00  0.00    -0.200 F 
ENDBRANCH  48  72
BRANCH  60  83
ATOM     83  C   UNL A   1      43.875  28.346  34.695  1.00  0.00     0.064 A 
ATOM     84  C   UNL A   1      43.703  27.156  35.416  1.00  0.00     0.173 A 
ATOM     85  C   UNL A   1      45.186  28.791  34.464  1.00  0.00     0.173 A 
ATOM     86  F   UNL A   1      42.471  26.695  35.677  1.00  0.00    -0.203 F 
ATOM     87  C   UNL A   1      44.802  26.449  35.901  1.00  0.00     0.198 A 
ATOM     88  C   UNL A   1      46.282  28.063  34.919  1.00  0.00     0.198 A 
ATOM     89  F   UNL A   1      45.406  29.920  33.774  1.00  0.00    -0.203 F 
ATOM     90  F   UNL A   1      44.613  25.338  36.626  1.00  0.00    -0.200 F 
ATOM     91  C   UNL A   1      46.089  26.898  35.643  1.00  0.00     0.200 A 
ATOM     92  F   UNL A   1      47.525  28.490  34.653  1.00  0.00    -0.200 F 
ATOM     93  F   UNL A   1      47.144  26.206  36.097  1.00  0.00    -0.200 F 
ENDBRANCH  60  83
ENDBRANCH  34  35
ENDBRANCH  26  29
ENDBRANCH  24  25
ENDBRANCH   1  24
TORSDOF 12
ENDMDL
MODEL 3
REMARK VINA RESULT:     -13.0      0.341      1.714
REMARK SMILES O=C(NCCCNC(=O)c1ccc(-c2c3nc(c(-c4c(F)c(F)c(F)c(F)c4F)c4ccc([nH]4)c(-c4c(F)c(F)c(F)c(F)c4F)c4nc(c(-c5c(F)c(F)c(F)c(F)c5F)c5ccc2[nH]5)C=C4)C=C3)cc1)c1ccc(NC(=O)[C@H]2CCS(=O)(=O)C2)cc1
REMARK SMILES IDX 5 1 4 2 3 3 1 4 2 5 73 7 74 8 88 9 75 10 87 11 76 12 77 13
REMARK SMILES IDX 78 14 79 16 80 17 81 18 86 19 82 20 83 21 84 22 85 23 6 24
REMARK SMILES IDX 7 25 8 26 9 28 10 29 11 30 72 31 12 32 71 33 13 34 14 35
REMARK SMILES IDX 15 36 65 37 16 38 70 39 64 40 66 41 17 42 69 43 63 44 62 45
REMARK SMILES IDX 18 47 50 48 30 49 49 50 31 51 34 52 48 53 67 54 32 55 33 56
REMARK SMILES IDX 47 58 68 59 35 60 19 61 20 62 28 63 21 64 22 65 26 66 29 67
REMARK SMILES IDX 23 68 24 69 27 70 25 71 51 72 52 73 60 74 53 75 54 76 58 77
REMARK SMILES IDX 61 78 55 79 56 80 59 81 57 82 36 83 37 84 45 85 38 86 39 87
REMARK SMILES IDX 43 88 46 89 40 90 41 91 44 92 42 93
REMARK H PARENT 3 6 77 15 7 27 66 46 34 57
REMARK Flexibility Score: inf
ROOT
ATOM      1  C   UNL A   1      31.501  32.118  26.590  1.00  0.00     0.042 C 
ENDROOT
BRANCH   1   2
ATOM      2  C   UNL A   1      31.792  30.707  26.148  1.00  0.00     0.118 C 
BRANCH   2   3
ATOM      3  N   UNL A   1      31.758  29.733  27.244  1.00  0.00    -0.352 N 
ATOM      4  O   UNL A   1      31.576  27.706  28.239  1.00  0.00    -0.269 OA
ATOM      5  C   UNL A   1      31.759  28.352  27.213  1.00  0.00     0.251 C 
ATOM      6  H   UNL A   1      31.732  30.126  28.145  1.00  0.00     0.163 HD
BRANCH   5   7
ATOM      7  C   UNL A   1      31.992  27.654  25.931  1.00  0.00     0.039 A 
ATOM      8  C   UNL A   1      33.297  27.375  25.578  1.00  0.00     0.016 A 
ATOM      9  C   UNL A   1      30.966  27.313  25.048  1.00  0.00     0.016 A 
ATOM     10  C   UNL A   1      33.594  27.045  24.277  1.00  0.00     0.027 A 
ATOM     11  C   UNL A   1      31.286  26.719  23.809  1.00  0.00     0.027 A 
ATOM     12  C   UNL A   1      32.624  26.550  23.427  1.00  0.00     0.041 A 
BRANCH  12  13
ATOM     13  N   UNL A   1      32.939  25.817  22.262  1.00  0.00    -0.326 N 
ATOM     14  C   UNL A   1      33.135  24.468  22.047  1.00  0.00     0.228 C 
ATOM     15  H   UNL A   1      33.036  26.372  21.453  1.00  0.00     0.169 HD
ATOM     16  O   UNL A   1      33.361  24.084  20.897  1.00  0.00    -0.274 OA
BRANCH  14  17
ATOM     17  C   UNL A   1      33.090  23.469  23.190  1.00  0.00     0.095 C 
ATOM     18  C   UNL A   1      32.386  22.135  22.865  1.00  0.00     0.030 C 
ATOM     19  C   UNL A   1      34.427  23.005  23.766  1.00  0.00     0.150 C 
ATOM     20  C   UNL A   1      32.324  21.401  24.199  1.00  0.00     0.138 C 
ATOM     21  S   UNL A   1      33.913  21.743  24.950  1.00  0.00     0.151 S 
ATOM     22  O   UNL A   1      33.670  22.376  26.227  1.00  0.00    -0.229 OA
ATOM     23  O   UNL A   1      34.752  20.573  24.804  1.00  0.00    -0.229 OA
ENDBRANCH  14  17
ENDBRANCH  12  13
ENDBRANCH   5   7
ENDBRANCH   2   3
ENDBRANCH   1   2
BRANCH   1  24
ATOM     24  C   UNL A   1      32.661  32.737  27.330  1.00  0.00     0.118 C 
BRANCH  24  25
ATOM     25  N   UNL A   1      32.449  34.153  27.621  1.00  0.00    -0.352 N 
ATOM     26  C   UNL A   1      33.023  34.939  28.594  1.00  0.00     0.251 C 
ATOM     27  H   UNL A   1      31.803  34.612  27.036  1.00  0.00     0.163 HD
ATOM     28  O   UNL A   1      32.601  36.069  28.812  1.00  0.00    -0.269 OA
BRANCH  26  29
ATOM     29  C   UNL A   1      34.130  34.385  29.396  1.00  0.00     0.039 A 
ATOM     30  C   UNL A   1      33.848  33.660  30.556  1.00  0.00     0.014 A 
ATOM     31  C   UNL A   1      35.443  34.520  28.947  1.00  0.00     0.014 A 
ATOM     32  C   UNL A   1      34.880  32.980  31.204  1.00  0.00     0.010 A 
ATOM     33  C   UNL A   1      36.436  33.738  29.510  1.00  0.00     0.010 A 
ATOM     34  C   UNL A   1      36.170  32.967  30.650  1.00  0.00    -0.014 A 
BRANCH  34  35
ATOM     35  C   UNL A   1      37.286  32.186  31.237  1.00  0.00     0.031 A 
ATOM     36  C   UNL A   1      37.813  32.568  32.592  1.00  0.00     0.074 A 
ATOM     37  C   UNL A   1      37.894  31.225  30.516  1.00  0.00     0.049 A 
ATOM     38  N   UNL A   1      38.889  32.158  33.212  1.00  0.00    -0.248 NA
ATOM     39  C   UNL A   1      37.045  33.586  33.328  1.00  0.00     0.031 C 
ATOM     40  C   UNL A   1      37.495  30.783  29.180  1.00  0.00     0.029 A 
ATOM     41  N   UNL A   1      38.999  30.463  30.802  1.00  0.00    -0.354 N 
ATOM     42  C   UNL A   1      38.938  32.885  34.394  1.00  0.00     0.074 A 
ATOM     43  C   UNL A   1      37.829  33.812  34.369  1.00  0.00     0.031 C 
ATOM     44  C   UNL A   1      38.327  29.810  28.772  1.00  0.00     0.029 A 
ATOM     45  C   UNL A   1      39.350  29.602  29.792  1.00  0.00     0.049 A 
ATOM     46  H   UNL A   1      39.493  30.527  31.651  1.00  0.00     0.167 HD
ATOM     47  C   UNL A   1      39.811  32.770  35.421  1.00  0.00     0.037 A 
ATOM     48  C   UNL A   1      40.391  28.753  29.695  1.00  0.00     0.037 A 
ATOM     49  C   UNL A   1      40.903  31.833  35.442  1.00  0.00     0.049 A 
ATOM     50  C   UNL A   1      41.382  28.677  30.827  1.00  0.00     0.074 A 
ATOM     51  C   UNL A   1      41.826  31.606  36.447  1.00  0.00     0.029 A 
ATOM     52  N   UNL A   1      41.220  30.970  34.403  1.00  0.00    -0.354 N 
ATOM     53  N   UNL A   1      41.396  29.334  31.962  1.00  0.00    -0.248 NA
ATOM     54  C   UNL A   1      42.502  27.740  30.663  1.00  0.00     0.031 C 
ATOM     55  C   UNL A   1      42.736  30.647  35.992  1.00  0.00     0.029 A 
ATOM     56  C   UNL A   1      42.340  30.224  34.733  1.00  0.00     0.049 A 
ATOM     57  H   UNL A   1      40.723  30.898  33.556  1.00  0.00     0.167 HD
ATOM     58  C   UNL A   1      42.495  28.859  32.665  1.00  0.00     0.074 A 
ATOM     59  C   UNL A   1      43.124  27.858  31.827  1.00  0.00     0.031 C 
ATOM     60  C   UNL A   1      42.939  29.215  33.896  1.00  0.00     0.037 A 
BRANCH  47  61
ATOM     61  C   UNL A   1      39.619  33.688  36.594  1.00  0.00     0.064 A 
ATOM     62  C   UNL A   1      38.831  33.322  37.698  1.00  0.00     0.173 A 
ATOM     63  C   UNL A   1      40.224  34.954  36.616  1.00  0.00     0.173 A 
ATOM     64  F   UNL A   1      38.218  32.129  37.724  1.00  0.00    -0.203 F 
ATOM     65  C   UNL A   1      38.616  34.205  38.752  1.00  0.00     0.198 A 
ATOM     66  C   UNL A   1      40.040  35.819  37.693  1.00  0.00     0.198 A 
ATOM     67  F   UNL A   1      40.992  35.356  35.592  1.00  0.00    -0.203 F 
ATOM     68  F   UNL A   1      37.798  33.860  39.756  1.00  0.00    -0.200 F 
ATOM     69  C   UNL A   1      39.225  35.450  38.752  1.00  0.00     0.200 A 
ATOM     70  F   UNL A   1      40.643  37.016  37.698  1.00  0.00    -0.200 F 
ATOM     71  F   UNL A   1      39.018  36.300  39.767  1.00  0.00    -0.200 F 
ENDBRANCH  47  61
BRANCH  48  72
ATOM     72  C   UNL A   1      40.534  27.885  28.496  1.00  0.00     0.064 A 
ATOM     73  C   UNL A   1      41.264  28.323  27.382  1.00  0.00     0.173 A 
ATOM     74  C   UNL A   1      39.952  26.611  28.434  1.00  0.00     0.173 A 
ATOM     75  F   UNL A   1      41.823  29.543  27.386  1.00  0.00    -0.203 F 
ATOM     76  C   UNL A   1      41.392  27.529  26.245  1.00  0.00     0.198 A 
ATOM     77  C   UNL A   1      40.106  25.804  27.307  1.00  0.00     0.198 A 
ATOM     78  F   UNL A   1      39.248  26.140  29.473  1.00  0.00    -0.203 F 
ATOM     79  F   UNL A   1      42.057  27.992  25.179  1.00  0.00    -0.200 F 
ATOM     80  C   UNL A   1      40.818  26.267  26.210  1.00  0.00     0.200 A 
ATOM     81  F   UNL A   1      39.564  24.579  27.284  1.00  0.00    -0.200 F 
ATOM     82  F   UNL A   1      40.945  25.500  25.119  1.00  0.00    -0.200 F 
ENDBRANCH  48  72
BRANCH  60  83
ATOM     83  C   UNL A   1      44.123  28.473  34.450  1.00  0.00     0.064 A 
ATOM     84  C   UNL A   1      45.433  28.951  34.308  1.00  0.00     0.173 A 
ATOM     85  C   UNL A   1      43.928  27.295  35.188  1.00  0.00     0.173 A 
ATOM     86  F   UNL A   1      45.674  30.064  33.599  1.00  0.00    -0.203 F 
ATOM     87  C   UNL A   1      46.508  28.265  34.869  1.00  0.00     0.198 A 
ATOM     88  C   UNL A   1      45.001  26.632  35.778  1.00  0.00     0.198 A 
ATOM     89  F   UNL A   1      42.694  26.799  35.359  1.00  0.00    -0.203 F 
ATOM     90  F   UNL A   1      47.757  28.716  34.684  1.00  0.00    -0.200 F 
ATOM     91  C   UNL A   1      46.290  27.114  35.612  1.00  0.00     0.200 A 
ATOM     92  F   UNL A   1      44.785  25.530  36.509  1.00  0.00    -0.200 F 
ATOM     93  F   UNL A   1      47.325  26.466  36.165  1.00  0.00    -0.200 F 
ENDBRANCH  60  83
ENDBRANCH  34  35
ENDBRANCH  26  29
ENDBRANCH  24  25
ENDBRANCH   1  24
TORSDOF 12
ENDMDL
