MODEL 1
REMARK VINA RESULT:     -12.3      0.000      0.000
REMARK SMILES CC(C)(C)C[N@H+]1[C@@H](C(=O)NCCCNC(=O)c2ccc(-c3c4nc(c(-c5c(F)c(F)c(F)c(F)c5F)c5ccc([nH]5)c(-c5c(F)c(F)c(F)c(F)c5F)c5nc(c(-c6c(F)c(F)c(F)c(F)c6F)c6ccc3[nH]6)C=C5)C=C4)cc2)CC[C@H]2CCCC[C@@H]21
REMARK SMILES IDX 12 1 11 2 10 3 8 4 9 5 7 7 6 8 87 9 80 11 82 12 86 13 81 14
REMARK SMILES IDX 83 15 85 16 84 17 5 18 2 19 1 20 3 21 4 22 13 23 14 24 15 25
REMARK SMILES IDX 16 27 17 28 18 29 79 30 19 31 78 32 20 33 21 34 22 35 72 36
REMARK SMILES IDX 23 37 77 38 71 39 73 40 24 41 76 42 70 43 69 44 25 46 57 47
REMARK SMILES IDX 37 48 56 49 38 50 41 51 55 52 74 53 39 54 40 55 54 57 75 58
REMARK SMILES IDX 42 59 26 60 27 61 35 62 28 63 29 64 33 65 36 66 30 67 31 68
REMARK SMILES IDX 34 69 32 70 58 71 59 72 67 73 60 74 61 75 65 76 68 77 62 78
REMARK SMILES IDX 63 79 66 80 64 81 43 82 44 83 52 84 45 85 46 86 50 87 53 88
REMARK SMILES IDX 47 89 48 90 51 91 49 92
REMARK H PARENT 10 6 6 10 14 26 73 45 41 56
REMARK Flexibility Score: inf
ROOT
ATOM      1  C   UNL A   1      31.785  28.385  26.572  1.00  0.00     0.042 C 
ENDROOT
BRANCH   1   2
ATOM      2  C   UNL A   1      32.115  26.895  26.538  1.00  0.00     0.118 C 
BRANCH   2   3
ATOM      3  N   UNL A   1      30.960  26.021  26.497  1.00  0.00    -0.351 N 
ATOM      4  C   UNL A   1      30.873  24.664  26.407  1.00  0.00     0.278 C 
ATOM      5  O   UNL A   1      29.835  24.183  26.877  1.00  0.00    -0.268 OA
ATOM      6  H   UNL A   1      30.093  26.485  26.544  1.00  0.00     0.163 HD
BRANCH   4   7
ATOM      7  C   UNL A   1      32.014  23.780  25.864  1.00  0.00     0.274 C 
ATOM      8  N   UNL A   1      32.770  24.261  24.660  1.00  0.00    -0.322 N 
ATOM      9  C   UNL A   1      33.841  23.254  24.285  1.00  0.00     0.187 C 
ATOM     10  H   UNL A   1      33.098  25.161  25.008  1.00  0.00     0.349 HD
ATOM     11  C   UNL A   1      31.515  22.329  25.742  1.00  0.00     0.076 C 
ATOM     12  C   UNL A   1      33.966  22.034  25.231  1.00  0.00     0.048 C 
ATOM     13  C   UNL A   1      35.206  23.944  24.118  1.00  0.00     0.065 C 
ATOM     14  C   UNL A   1      32.607  21.346  25.332  1.00  0.00     0.016 C 
ATOM     15  C   UNL A   1      35.037  21.050  24.742  1.00  0.00     0.010 C 
ATOM     16  C   UNL A   1      36.287  22.953  23.666  1.00  0.00     0.006 C 
ATOM     17  C   UNL A   1      36.386  21.743  24.590  1.00  0.00     0.001 C 
BRANCH   8  18
ATOM     18  C   UNL A   1      32.054  24.595  23.390  1.00  0.00     0.269 C 
BRANCH  18  19
ATOM     19  C   UNL A   1      32.056  26.004  22.712  1.00  0.00     0.011 C 
ATOM     20  C   UNL A   1      30.720  26.729  22.963  1.00  0.00     0.017 C 
ATOM     21  C   UNL A   1      32.154  25.828  21.171  1.00  0.00     0.017 C 
ATOM     22  C   UNL A   1      33.286  26.830  23.113  1.00  0.00     0.017 C 
ENDBRANCH  18  19
ENDBRANCH   8  18
ENDBRANCH   4   7
ENDBRANCH   2   3
ENDBRANCH   1   2
BRANCH   1  23
ATOM     23  C   UNL A   1      32.784  29.326  25.901  1.00  0.00     0.118 C 
BRANCH  23  24
ATOM     24  N   UNL A   1      32.653  30.721  26.288  1.00  0.00    -0.352 N 
ATOM     25  C   UNL A   1      33.382  31.519  27.131  1.00  0.00     0.251 C 
ATOM     26  H   UNL A   1      31.893  31.181  25.863  1.00  0.00     0.163 HD
ATOM     27  O   UNL A   1      32.994  32.666  27.340  1.00  0.00    -0.269 OA
BRANCH  25  28
ATOM     28  C   UNL A   1      34.597  31.035  27.826  1.00  0.00     0.039 A 
ATOM     29  C   UNL A   1      35.649  31.941  28.003  1.00  0.00     0.014 A 
ATOM     30  C   UNL A   1      34.757  29.710  28.237  1.00  0.00     0.014 A 
ATOM     31  C   UNL A   1      36.825  31.541  28.643  1.00  0.00     0.010 A 
ATOM     32  C   UNL A   1      35.902  29.328  28.942  1.00  0.00     0.010 A 
ATOM     33  C   UNL A   1      36.949  30.238  29.150  1.00  0.00    -0.014 A 
BRANCH  33  34
ATOM     34  C   UNL A   1      38.168  29.829  29.897  1.00  0.00     0.031 A 
ATOM     35  C   UNL A   1      38.427  30.343  31.286  1.00  0.00     0.074 A 
ATOM     36  C   UNL A   1      39.067  29.018  29.305  1.00  0.00     0.049 A 
ATOM     37  N   UNL A   1      39.447  30.116  32.077  1.00  0.00    -0.248 NA
ATOM     38  C   UNL A   1      37.420  31.251  31.854  1.00  0.00     0.031 C 
ATOM     39  C   UNL A   1      38.960  28.487  27.946  1.00  0.00     0.029 A 
ATOM     40  N   UNL A   1      40.251  28.501  29.771  1.00  0.00    -0.354 N 
ATOM     41  C   UNL A   1      39.211  30.862  33.225  1.00  0.00     0.074 A 
ATOM     42  C   UNL A   1      37.975  31.585  33.009  1.00  0.00     0.031 C 
ATOM     43  C   UNL A   1      40.018  27.701  27.695  1.00  0.00     0.029 A 
ATOM     44  C   UNL A   1      40.895  27.696  28.862  1.00  0.00     0.049 A 
ATOM     45  H   UNL A   1      40.605  28.689  30.670  1.00  0.00     0.167 HD
ATOM     46  C   UNL A   1      39.945  30.922  34.363  1.00  0.00     0.037 A 
ATOM     47  C   UNL A   1      42.060  27.028  28.960  1.00  0.00     0.037 A 
ATOM     48  C   UNL A   1      41.158  30.179  34.590  1.00  0.00     0.049 A 
ATOM     49  C   UNL A   1      42.848  27.100  30.239  1.00  0.00     0.074 A 
ATOM     50  C   UNL A   1      41.938  30.127  35.732  1.00  0.00     0.029 A 
ATOM     51  N   UNL A   1      41.769  29.360  33.652  1.00  0.00    -0.354 N 
ATOM     52  N   UNL A   1      42.578  27.755  31.341  1.00  0.00    -0.248 NA
ATOM     53  C   UNL A   1      44.098  26.329  30.289  1.00  0.00     0.031 C 
ATOM     54  C   UNL A   1      43.041  29.305  35.473  1.00  0.00     0.029 A 
ATOM     55  C   UNL A   1      42.925  28.811  34.184  1.00  0.00     0.049 A 
ATOM     56  H   UNL A   1      41.430  29.192  32.743  1.00  0.00     0.167 HD
ATOM     57  C   UNL A   1      43.610  27.460  32.222  1.00  0.00     0.074 A 
ATOM     58  C   UNL A   1      44.501  26.550  31.532  1.00  0.00     0.031 C 
ATOM     59  C   UNL A   1      43.802  27.906  33.487  1.00  0.00     0.037 A 
BRANCH  46  60
ATOM     60  C   UNL A   1      39.450  31.820  35.459  1.00  0.00     0.064 A 
ATOM     61  C   UNL A   1      38.568  31.356  36.448  1.00  0.00     0.173 A 
ATOM     62  C   UNL A   1      39.890  33.149  35.545  1.00  0.00     0.173 A 
ATOM     63  F   UNL A   1      38.110  30.097  36.406  1.00  0.00    -0.203 F 
ATOM     64  C   UNL A   1      38.123  32.199  37.463  1.00  0.00     0.198 A 
ATOM     65  C   UNL A   1      39.465  33.980  36.578  1.00  0.00     0.198 A 
ATOM     66  F   UNL A   1      40.740  33.641  34.630  1.00  0.00    -0.203 F 
ATOM     67  F   UNL A   1      37.244  31.747  38.369  1.00  0.00    -0.200 F 
ATOM     68  C   UNL A   1      38.576  33.508  37.532  1.00  0.00     0.200 A 
ATOM     69  F   UNL A   1      39.914  35.242  36.650  1.00  0.00    -0.200 F 
ATOM     70  F   UNL A   1      38.151  34.316  38.513  1.00  0.00    -0.200 F 
ENDBRANCH  46  60
BRANCH  47  71
ATOM     71  C   UNL A   1      42.538  26.206  27.819  1.00  0.00     0.064 A 
ATOM     72  C   UNL A   1      43.482  26.712  26.913  1.00  0.00     0.173 A 
ATOM     73  C   UNL A   1      42.061  24.904  27.606  1.00  0.00     0.173 A 
ATOM     74  F   UNL A   1      43.950  27.960  27.064  1.00  0.00    -0.203 F 
ATOM     75  C   UNL A   1      43.916  25.954  25.828  1.00  0.00     0.198 A 
ATOM     76  C   UNL A   1      42.516  24.138  26.535  1.00  0.00     0.198 A 
ATOM     77  F   UNL A   1      41.161  24.374  28.446  1.00  0.00    -0.203 F 
ATOM     78  F   UNL A   1      44.786  26.478  24.954  1.00  0.00    -0.200 F 
ATOM     79  C   UNL A   1      43.438  24.666  25.643  1.00  0.00     0.200 A 
ATOM     80  F   UNL A   1      42.062  22.889  26.367  1.00  0.00    -0.200 F 
ATOM     81  F   UNL A   1      43.859  23.936  24.602  1.00  0.00    -0.200 F 
ENDBRANCH  47  71
BRANCH  59  82
ATOM     82  C   UNL A   1      45.012  27.396  34.215  1.00  0.00     0.064 A 
ATOM     83  C   UNL A   1      46.232  28.087  34.187  1.00  0.00     0.173 A 
ATOM     84  C   UNL A   1      44.942  26.213  34.967  1.00  0.00     0.173 A 
ATOM     85  F   UNL A   1      46.353  29.213  33.467  1.00  0.00    -0.203 F 
ATOM     86  C   UNL A   1      47.347  27.598  34.862  1.00  0.00     0.198 A 
ATOM     87  C   UNL A   1      46.051  25.743  35.665  1.00  0.00     0.198 A 
ATOM     88  F   UNL A   1      43.797  25.518  35.031  1.00  0.00    -0.203 F 
ATOM     89  F   UNL A   1      48.516  28.248  34.779  1.00  0.00    -0.200 F 
ATOM     90  C   UNL A   1      47.255  26.430  35.605  1.00  0.00     0.200 A 
ATOM     91  F   UNL A   1      45.958  24.620  36.390  1.00  0.00    -0.200 F 
ATOM     92  F   UNL A   1      48.329  25.962  36.256  1.00  0.00    -0.200 F 
ENDBRANCH  59  82
ENDBRANCH  33  34
ENDBRANCH  25  28
ENDBRANCH  23  24
ENDBRANCH   1  23
TORSDOF 12
ENDMDL
MODEL 2
REMARK VINA RESULT:     -12.3      0.129      1.240
REMARK SMILES CC(C)(C)C[N@H+]1[C@@H](C(=O)NCCCNC(=O)c2ccc(-c3c4nc(c(-c5c(F)c(F)c(F)c(F)c5F)c5ccc([nH]5)c(-c5c(F)c(F)c(F)c(F)c5F)c5nc(c(-c6c(F)c(F)c(F)c(F)c6F)c6ccc3[nH]6)C=C5)C=C4)cc2)CC[C@H]2CCCC[C@@H]21
REMARK SMILES IDX 12 1 11 2 10 3 8 4 9 5 7 7 6 8 87 9 80 11 82 12 86 13 81 14
REMARK SMILES IDX 83 15 85 16 84 17 5 18 2 19 1 20 3 21 4 22 13 23 14 24 15 25
REMARK SMILES IDX 16 27 17 28 18 29 79 30 19 31 78 32 20 33 21 34 22 35 72 36
REMARK SMILES IDX 23 37 77 38 71 39 73 40 24 41 76 42 70 43 69 44 25 46 57 47
REMARK SMILES IDX 37 48 56 49 38 50 41 51 55 52 74 53 39 54 40 55 54 57 75 58
REMARK SMILES IDX 42 59 26 60 27 61 35 62 28 63 29 64 33 65 36 66 30 67 31 68
REMARK SMILES IDX 34 69 32 70 58 71 59 72 67 73 60 74 61 75 65 76 68 77 62 78
REMARK SMILES IDX 63 79 66 80 64 81 43 82 44 83 52 84 45 85 46 86 50 87 53 88
REMARK SMILES IDX 47 89 48 90 51 91 49 92
REMARK H PARENT 10 6 6 10 14 26 73 45 41 56
REMARK Flexibility Score: inf
ROOT
ATOM      1  C   UNL A   1      31.908  28.335  26.622  1.00  0.00     0.042 C 
ENDROOT
BRANCH   1   2
ATOM      2  C   UNL A   1      32.245  26.850  26.502  1.00  0.00     0.118 C 
BRANCH   2   3
ATOM      3  N   UNL A   1      31.095  25.970  26.469  1.00  0.00    -0.351 N 
ATOM      4  C   UNL A   1      31.014  24.611  26.402  1.00  0.00     0.278 C 
ATOM      5  O   UNL A   1      29.976  24.134  26.874  1.00  0.00    -0.268 OA
ATOM      6  H   UNL A   1      30.226  26.431  26.501  1.00  0.00     0.163 HD
BRANCH   4   7
ATOM      7  C   UNL A   1      32.164  23.724  25.882  1.00  0.00     0.274 C 
ATOM      8  N   UNL A   1      32.906  24.172  24.658  1.00  0.00    -0.322 N 
ATOM      9  C   UNL A   1      33.987  23.166  24.310  1.00  0.00     0.187 C 
ATOM     10  H   UNL A   1      33.224  25.088  24.971  1.00  0.00     0.349 HD
ATOM     11  C   UNL A   1      31.683  22.264  25.815  1.00  0.00     0.076 C 
ATOM     12  C   UNL A   1      34.135  21.982  25.298  1.00  0.00     0.048 C 
ATOM     13  C   UNL A   1      35.342  23.867  24.110  1.00  0.00     0.065 C 
ATOM     14  C   UNL A   1      32.785  21.280  25.432  1.00  0.00     0.016 C 
ATOM     15  C   UNL A   1      35.215  20.995  24.837  1.00  0.00     0.010 C 
ATOM     16  C   UNL A   1      36.433  22.875  23.686  1.00  0.00     0.006 C 
ATOM     17  C   UNL A   1      36.553  21.699  24.651  1.00  0.00     0.001 C 
BRANCH   8  18
ATOM     18  C   UNL A   1      32.177  24.452  23.382  1.00  0.00     0.269 C 
BRANCH  18  19
ATOM     19  C   UNL A   1      32.224  25.811  22.610  1.00  0.00     0.011 C 
ATOM     20  C   UNL A   1      32.524  25.578  21.117  1.00  0.00     0.017 C 
ATOM     21  C   UNL A   1      33.406  26.664  23.148  1.00  0.00     0.017 C 
ATOM     22  C   UNL A   1      30.962  26.652  22.857  1.00  0.00     0.017 C 
ENDBRANCH  18  19
ENDBRANCH   8  18
ENDBRANCH   4   7
ENDBRANCH   2   3
ENDBRANCH   1   2
BRANCH   1  23
ATOM     23  C   UNL A   1      32.849  29.312  25.920  1.00  0.00     0.118 C 
BRANCH  23  24
ATOM     24  N   UNL A   1      32.696  30.698  26.331  1.00  0.00    -0.352 N 
ATOM     25  C   UNL A   1      33.407  31.490  27.196  1.00  0.00     0.251 C 
ATOM     26  H   UNL A   1      31.934  31.155  25.908  1.00  0.00     0.163 HD
ATOM     27  O   UNL A   1      33.002  32.628  27.423  1.00  0.00    -0.269 OA
BRANCH  25  28
ATOM     28  C   UNL A   1      34.622  31.009  27.893  1.00  0.00     0.039 A 
ATOM     29  C   UNL A   1      35.702  31.894  28.001  1.00  0.00     0.014 A 
ATOM     30  C   UNL A   1      34.754  29.705  28.370  1.00  0.00     0.014 A 
ATOM     31  C   UNL A   1      36.879  31.495  28.640  1.00  0.00     0.010 A 
ATOM     32  C   UNL A   1      35.902  29.328  29.073  1.00  0.00     0.010 A 
ATOM     33  C   UNL A   1      36.978  30.218  29.213  1.00  0.00    -0.014 A 
BRANCH  33  34
ATOM     34  C   UNL A   1      38.200  29.815  29.958  1.00  0.00     0.031 A 
ATOM     35  C   UNL A   1      38.455  30.325  31.350  1.00  0.00     0.074 A 
ATOM     36  C   UNL A   1      39.105  29.013  29.363  1.00  0.00     0.049 A 
ATOM     37  N   UNL A   1      39.477  30.103  32.139  1.00  0.00    -0.248 NA
ATOM     38  C   UNL A   1      37.442  31.224  31.921  1.00  0.00     0.031 C 
ATOM     39  C   UNL A   1      39.001  28.487  28.002  1.00  0.00     0.029 A 
ATOM     40  N   UNL A   1      40.293  28.503  29.826  1.00  0.00    -0.354 N 
ATOM     41  C   UNL A   1      39.236  30.842  33.290  1.00  0.00     0.074 A 
ATOM     42  C   UNL A   1      37.995  31.557  33.078  1.00  0.00     0.031 C 
ATOM     43  C   UNL A   1      40.065  27.710  27.747  1.00  0.00     0.029 A 
ATOM     44  C   UNL A   1      40.942  27.707  28.914  1.00  0.00     0.049 A 
ATOM     45  H   UNL A   1      40.646  28.690  30.726  1.00  0.00     0.167 HD
ATOM     46  C   UNL A   1      39.970  30.903  34.428  1.00  0.00     0.037 A 
ATOM     47  C   UNL A   1      42.113  27.047  29.008  1.00  0.00     0.037 A 
ATOM     48  C   UNL A   1      41.189  30.169  34.651  1.00  0.00     0.049 A 
ATOM     49  C   UNL A   1      42.900  27.119  30.287  1.00  0.00     0.074 A 
ATOM     50  C   UNL A   1      41.970  30.117  35.793  1.00  0.00     0.029 A 
ATOM     51  N   UNL A   1      41.806  29.357  33.711  1.00  0.00    -0.354 N 
ATOM     52  N   UNL A   1      42.626  27.769  31.393  1.00  0.00    -0.248 NA
ATOM     53  C   UNL A   1      44.156  26.358  30.334  1.00  0.00     0.031 C 
ATOM     54  C   UNL A   1      43.079  29.305  35.531  1.00  0.00     0.029 A 
ATOM     55  C   UNL A   1      42.966  28.815  34.240  1.00  0.00     0.049 A 
ATOM     56  H   UNL A   1      41.468  29.191  32.801  1.00  0.00     0.167 HD
ATOM     57  C   UNL A   1      43.660  27.478  32.272  1.00  0.00     0.074 A 
ATOM     58  C   UNL A   1      44.558  26.577  31.578  1.00  0.00     0.031 C 
ATOM     59  C   UNL A   1      43.850  27.919  33.539  1.00  0.00     0.037 A 
BRANCH  46  60
ATOM     60  C   UNL A   1      39.469  31.793  35.528  1.00  0.00     0.064 A 
ATOM     61  C   UNL A   1      38.561  31.330  36.493  1.00  0.00     0.173 A 
ATOM     62  C   UNL A   1      39.930  33.113  35.642  1.00  0.00     0.173 A 
ATOM     63  F   UNL A   1      38.083  30.079  36.423  1.00  0.00    -0.203 F 
ATOM     64  C   UNL A   1      38.110  32.164  37.512  1.00  0.00     0.198 A 
ATOM     65  C   UNL A   1      39.499  33.936  36.680  1.00  0.00     0.198 A 
ATOM     66  F   UNL A   1      40.805  33.604  34.752  1.00  0.00    -0.203 F 
ATOM     67  F   UNL A   1      37.206  31.715  38.393  1.00  0.00    -0.200 F 
ATOM     68  C   UNL A   1      38.584  33.465  37.609  1.00  0.00     0.200 A 
ATOM     69  F   UNL A   1      39.967  35.188  36.780  1.00  0.00    -0.200 F 
ATOM     70  F   UNL A   1      38.153  34.265  38.594  1.00  0.00    -0.200 F 
ENDBRANCH  46  60
BRANCH  47  71
ATOM     71  C   UNL A   1      42.596  26.233  27.864  1.00  0.00     0.064 A 
ATOM     72  C   UNL A   1      43.497  26.767  26.932  1.00  0.00     0.173 A 
ATOM     73  C   UNL A   1      42.166  24.912  27.675  1.00  0.00     0.173 A 
ATOM     74  F   UNL A   1      43.919  28.034  27.060  1.00  0.00    -0.203 F 
ATOM     75  C   UNL A   1      43.936  26.016  25.844  1.00  0.00     0.198 A 
ATOM     76  C   UNL A   1      42.627  24.153  26.600  1.00  0.00     0.198 A 
ATOM     77  F   UNL A   1      41.308  24.354  28.540  1.00  0.00    -0.203 F 
ATOM     78  F   UNL A   1      44.764  26.565  24.944  1.00  0.00    -0.200 F 
ATOM     79  C   UNL A   1      43.506  24.708  25.682  1.00  0.00     0.200 A 
ATOM     80  F   UNL A   1      42.219  22.886  26.454  1.00  0.00    -0.200 F 
ATOM     81  F   UNL A   1      43.931  23.985  24.637  1.00  0.00    -0.200 F 
ENDBRANCH  47  71
BRANCH  59  82
ATOM     82  C   UNL A   1      45.063  27.416  34.264  1.00  0.00     0.064 A 
ATOM     83  C   UNL A   1      45.030  26.234  35.019  1.00  0.00     0.173 A 
ATOM     84  C   UNL A   1      46.279  28.112  34.184  1.00  0.00     0.173 A 
ATOM     85  F   UNL A   1      43.887  25.543  35.140  1.00  0.00    -0.203 F 
ATOM     86  C   UNL A   1      46.163  25.782  35.691  1.00  0.00     0.198 A 
ATOM     87  C   UNL A   1      47.417  27.642  34.834  1.00  0.00     0.198 A 
ATOM     88  F   UNL A   1      46.365  29.244  33.470  1.00  0.00    -0.203 F 
ATOM     89  F   UNL A   1      46.095  24.678  36.448  1.00  0.00    -0.200 F 
ATOM     90  C   UNL A   1      47.356  26.482  35.594  1.00  0.00     0.200 A 
ATOM     91  F   UNL A   1      48.572  28.313  34.731  1.00  0.00    -0.200 F 
ATOM     92  F   UNL A   1      48.446  26.045  36.240  1.00  0.00    -0.200 F 
ENDBRANCH  59  82
ENDBRANCH  33  34
ENDBRANCH  25  28
ENDBRANCH  23  24
ENDBRANCH   1  23
TORSDOF 12
ENDMDL
MODEL 3
REMARK VINA RESULT:     -12.3      0.091      1.682
REMARK SMILES CC(C)(C)C[N@H+]1[C@@H](C(=O)NCCCNC(=O)c2ccc(-c3c4nc(c(-c5c(F)c(F)c(F)c(F)c5F)c5ccc([nH]5)c(-c5c(F)c(F)c(F)c(F)c5F)c5nc(c(-c6c(F)c(F)c(F)c(F)c6F)c6ccc3[nH]6)C=C5)C=C4)cc2)CC[C@H]2CCCC[C@@H]21
REMARK SMILES IDX 12 1 11 2 10 3 8 4 9 5 7 7 6 8 87 9 80 11 82 12 86 13 81 14
REMARK SMILES IDX 83 15 85 16 84 17 5 18 2 19 1 20 3 21 4 22 13 23 14 24 15 25
REMARK SMILES IDX 16 27 17 28 18 29 79 30 19 31 78 32 20 33 21 34 22 35 72 36
REMARK SMILES IDX 23 37 77 38 71 39 73 40 24 41 76 42 70 43 69 44 25 46 57 47
REMARK SMILES IDX 37 48 56 49 38 50 41 51 55 52 74 53 39 54 40 55 54 57 75 58
REMARK SMILES IDX 42 59 26 60 27 61 35 62 28 63 29 64 33 65 36 66 30 67 31 68
REMARK SMILES IDX 34 69 32 70 58 71 59 72 67 73 60 74 61 75 65 76 68 77 62 78
REMARK SMILES IDX 63 79 66 80 64 81 43 82 44 83 52 84 45 85 46 86 50 87 53 88
REMARK SMILES IDX 47 89 48 90 51 91 49 92
REMARK H PARENT 10 6 6 10 14 26 73 45 41 56
REMARK Flexibility Score: inf
ROOT
ATOM      1  C   UNL A   1      31.786  28.359  26.536  1.00  0.00     0.042 C 
ENDROOT
BRANCH   1   2
ATOM      2  C   UNL A   1      32.135  26.873  26.501  1.00  0.00     0.118 C 
BRANCH   2   3
ATOM      3  N   UNL A   1      30.992  25.984  26.473  1.00  0.00    -0.351 N 
ATOM      4  C   UNL A   1      30.921  24.625  26.396  1.00  0.00     0.278 C 
ATOM      5  O   UNL A   1      29.891  24.136  26.876  1.00  0.00    -0.268 OA
ATOM      6  H   UNL A   1      30.119  26.437  26.518  1.00  0.00     0.163 HD
BRANCH   4   7
ATOM      7  C   UNL A   1      32.072  23.751  25.857  1.00  0.00     0.274 C 
ATOM      8  N   UNL A   1      32.800  24.216  24.631  1.00  0.00    -0.322 N 
ATOM      9  C   UNL A   1      33.884  23.222  24.263  1.00  0.00     0.187 C 
ATOM     10  H   UNL A   1      33.115  25.132  24.951  1.00  0.00     0.349 HD
ATOM     11  C   UNL A   1      31.600  22.288  25.779  1.00  0.00     0.076 C 
ATOM     12  C   UNL A   1      34.049  22.028  25.237  1.00  0.00     0.048 C 
ATOM     13  C   UNL A   1      35.233  23.934  24.058  1.00  0.00     0.065 C 
ATOM     14  C   UNL A   1      32.705  21.316  25.376  1.00  0.00     0.016 C 
ATOM     15  C   UNL A   1      35.131  21.053  24.756  1.00  0.00     0.010 C 
ATOM     16  C   UNL A   1      36.326  22.953  23.614  1.00  0.00     0.006 C 
ATOM     17  C   UNL A   1      36.463  21.769  24.566  1.00  0.00     0.001 C 
BRANCH   8  18
ATOM     18  C   UNL A   1      32.057  24.505  23.364  1.00  0.00     0.269 C 
BRANCH  18  19
ATOM     19  C   UNL A   1      32.148  25.846  22.566  1.00  0.00     0.011 C 
ATOM     20  C   UNL A   1      32.528  25.578  21.096  1.00  0.00     0.017 C 
ATOM     21  C   UNL A   1      33.301  26.710  23.146  1.00  0.00     0.017 C 
ATOM     22  C   UNL A   1      30.877  26.693  22.724  1.00  0.00     0.017 C 
ENDBRANCH  18  19
ENDBRANCH   8  18
ENDBRANCH   4   7
ENDBRANCH   2   3
ENDBRANCH   1   2
BRANCH   1  23
ATOM     23  C   UNL A   1      32.788  29.316  25.893  1.00  0.00     0.118 C 
BRANCH  23  24
ATOM     24  N   UNL A   1      32.640  30.705  26.296  1.00  0.00    -0.352 N 
ATOM     25  C   UNL A   1      33.359  31.502  27.149  1.00  0.00     0.251 C 
ATOM     26  H   UNL A   1      31.875  31.160  25.876  1.00  0.00     0.163 HD
ATOM     27  O   UNL A   1      32.957  32.642  27.372  1.00  0.00    -0.269 OA
BRANCH  25  28
ATOM     28  C   UNL A   1      34.579  31.024  27.840  1.00  0.00     0.039 A 
ATOM     29  C   UNL A   1      35.632  31.932  28.001  1.00  0.00     0.014 A 
ATOM     30  C   UNL A   1      34.742  29.704  28.261  1.00  0.00     0.014 A 
ATOM     31  C   UNL A   1      36.813  31.538  28.636  1.00  0.00     0.010 A 
ATOM     32  C   UNL A   1      35.892  29.328  28.961  1.00  0.00     0.010 A 
ATOM     33  C   UNL A   1      36.941  30.240  29.153  1.00  0.00    -0.014 A 
BRANCH  33  34
ATOM     34  C   UNL A   1      38.165  29.838  29.895  1.00  0.00     0.031 A 
ATOM     35  C   UNL A   1      38.426  30.352  31.285  1.00  0.00     0.074 A 
ATOM     36  C   UNL A   1      39.067  29.033  29.299  1.00  0.00     0.049 A 
ATOM     37  N   UNL A   1      39.450  30.131  32.071  1.00  0.00    -0.248 NA
ATOM     38  C   UNL A   1      37.415  31.253  31.857  1.00  0.00     0.031 C 
ATOM     39  C   UNL A   1      38.958  28.504  27.940  1.00  0.00     0.029 A 
ATOM     40  N   UNL A   1      40.257  28.524  29.760  1.00  0.00    -0.354 N 
ATOM     41  C   UNL A   1      39.214  30.874  33.220  1.00  0.00     0.074 A 
ATOM     42  C   UNL A   1      37.973  31.589  33.011  1.00  0.00     0.031 C 
ATOM     43  C   UNL A   1      40.021  27.725  27.684  1.00  0.00     0.029 A 
ATOM     44  C   UNL A   1      40.902  27.724  28.848  1.00  0.00     0.049 A 
ATOM     45  H   UNL A   1      40.612  28.713  30.658  1.00  0.00     0.167 HD
ATOM     46  C   UNL A   1      39.952  30.937  34.356  1.00  0.00     0.037 A 
ATOM     47  C   UNL A   1      42.072  27.064  28.940  1.00  0.00     0.037 A 
ATOM     48  C   UNL A   1      41.171  30.202  34.577  1.00  0.00     0.049 A 
ATOM     49  C   UNL A   1      42.864  27.139  30.216  1.00  0.00     0.074 A 
ATOM     50  C   UNL A   1      41.956  30.153  35.716  1.00  0.00     0.029 A 
ATOM     51  N   UNL A   1      41.784  29.388  33.636  1.00  0.00    -0.354 N 
ATOM     52  N   UNL A   1      42.594  27.792  31.320  1.00  0.00    -0.248 NA
ATOM     53  C   UNL A   1      44.119  26.377  30.260  1.00  0.00     0.031 C 
ATOM     54  C   UNL A   1      43.063  29.339  35.452  1.00  0.00     0.029 A 
ATOM     55  C   UNL A   1      42.946  28.846  34.163  1.00  0.00     0.049 A 
ATOM     56  H   UNL A   1      41.443  29.219  32.728  1.00  0.00     0.167 HD
ATOM     57  C   UNL A   1      43.631  27.502  32.196  1.00  0.00     0.074 A 
ATOM     58  C   UNL A   1      44.526  26.599  31.502  1.00  0.00     0.031 C 
ATOM     59  C   UNL A   1      43.826  27.948  33.462  1.00  0.00     0.037 A 
BRANCH  46  60
ATOM     60  C   UNL A   1      39.456  31.830  35.455  1.00  0.00     0.064 A 
ATOM     61  C   UNL A   1      38.575  31.362  36.442  1.00  0.00     0.173 A 
ATOM     62  C   UNL A   1      39.894  33.160  35.545  1.00  0.00     0.173 A 
ATOM     63  F   UNL A   1      38.118  30.102  36.396  1.00  0.00    -0.203 F 
ATOM     64  C   UNL A   1      38.128  32.200  37.460  1.00  0.00     0.198 A 
ATOM     65  C   UNL A   1      39.467  33.987  36.581  1.00  0.00     0.198 A 
ATOM     66  F   UNL A   1      40.743  33.656  34.633  1.00  0.00    -0.203 F 
ATOM     67  F   UNL A   1      37.249  31.745  38.364  1.00  0.00    -0.200 F 
ATOM     68  C   UNL A   1      38.579  33.510  37.533  1.00  0.00     0.200 A 
ATOM     69  F   UNL A   1      39.914  35.249  36.658  1.00  0.00    -0.200 F 
ATOM     70  F   UNL A   1      38.153  34.314  38.517  1.00  0.00    -0.200 F 
ENDBRANCH  46  60
BRANCH  47  71
ATOM     71  C   UNL A   1      42.551  26.246  27.796  1.00  0.00     0.064 A 
ATOM     72  C   UNL A   1      42.095  24.933  27.610  1.00  0.00     0.173 A 
ATOM     73  C   UNL A   1      43.474  26.754  26.871  1.00  0.00     0.173 A 
ATOM     74  F   UNL A   1      41.228  24.397  28.483  1.00  0.00    -0.203 F 
ATOM     75  C   UNL A   1      42.558  24.154  26.553  1.00  0.00     0.198 A 
ATOM     76  C   UNL A   1      43.917  25.982  25.798  1.00  0.00     0.198 A 
ATOM     77  F   UNL A   1      43.938  28.005  27.002  1.00  0.00    -0.203 F 
ATOM     78  F   UNL A   1      42.138  22.888  26.424  1.00  0.00    -0.200 F 
ATOM     79  C   UNL A   1      43.463  24.680  25.644  1.00  0.00     0.200 A 
ATOM     80  F   UNL A   1      44.781  26.498  24.916  1.00  0.00    -0.200 F 
ATOM     81  F   UNL A   1      43.906  23.931  24.626  1.00  0.00    -0.200 F 
ENDBRANCH  47  71
BRANCH  59  82
ATOM     82  C   UNL A   1      45.041  27.445  34.184  1.00  0.00     0.064 A 
ATOM     83  C   UNL A   1      45.010  26.265  34.942  1.00  0.00     0.173 A 
ATOM     84  C   UNL A   1      46.258  28.140  34.098  1.00  0.00     0.173 A 
ATOM     85  F   UNL A   1      43.867  25.575  35.069  1.00  0.00    -0.203 F 
ATOM     86  C   UNL A   1      46.145  25.814  35.611  1.00  0.00     0.198 A 
ATOM     87  C   UNL A   1      47.397  27.670  34.745  1.00  0.00     0.198 A 
ATOM     88  F   UNL A   1      46.342  29.270  33.381  1.00  0.00    -0.203 F 
ATOM     89  F   UNL A   1      46.078  24.712  36.372  1.00  0.00    -0.200 F 
ATOM     90  C   UNL A   1      47.338  26.513  35.508  1.00  0.00     0.200 A 
ATOM     91  F   UNL A   1      48.552  28.341  34.636  1.00  0.00    -0.200 F 
ATOM     92  F   UNL A   1      48.430  26.077  36.152  1.00  0.00    -0.200 F 
ENDBRANCH  59  82
ENDBRANCH  33  34
ENDBRANCH  25  28
ENDBRANCH  23  24
ENDBRANCH   1  23
TORSDOF 12
ENDMDL
