MODEL 1
REMARK VINA RESULT:     -12.5      0.000      0.000
REMARK SMILES O=C(NCCCNC(=O)c1cccc2cccc([S@](=O)c3ccccc3CO)c12)c1ccc(-c2c3nc(c(-c4c(F)c(F)c(F)c(F)c4F)c4ccc([nH]4)c(-c4c(F)c(F)c(F)c(F)c4F)c4nc(c(-c5c(F)c(F)c(F)c(F)c5F)c5ccc2[nH]5)C=C4)C=C3)cc1
REMARK SMILES IDX 6 1 5 2 4 3 3 4 1 5 2 6 30 8 31 9 92 10 32 11 91 12 33 13
REMARK SMILES IDX 34 14 35 15 85 16 36 17 90 18 84 19 86 20 37 21 89 22 83 23
REMARK SMILES IDX 82 24 38 26 70 27 50 28 69 29 51 30 54 31 68 32 87 33 52 34
REMARK SMILES IDX 53 35 67 37 88 38 55 39 39 40 40 41 48 42 41 43 42 44 46 45
REMARK SMILES IDX 49 46 43 47 44 48 47 49 45 50 71 51 72 52 80 53 73 54 74 55
REMARK SMILES IDX 78 56 81 57 75 58 76 59 79 60 77 61 56 62 57 63 65 64 58 65
REMARK SMILES IDX 59 66 63 67 66 68 60 69 61 70 64 71 62 72 7 73 8 74 9 76
REMARK SMILES IDX 10 77 11 78 29 79 12 80 14 81 18 82 13 83 15 84 17 85 16 86
REMARK SMILES IDX 19 87 20 88 21 89 22 90 26 91 23 92 25 93 24 94 27 95 28 96
REMARK H PARENT 3 7 86 25 54 36 7 75 28 97
REMARK Flexibility Score: inf
ROOT
ATOM      1  C   UNL A   1      33.724  28.284  26.295  1.00  0.00     0.118 C 
ENDROOT
BRANCH   1   2
ATOM      2  C   UNL A   1      33.363  29.731  26.004  1.00  0.00     0.042 C 
BRANCH   2   3
ATOM      3  C   UNL A   1      32.519  30.408  27.072  1.00  0.00     0.118 C 
BRANCH   3   4
ATOM      4  N   UNL A   1      32.626  31.864  27.068  1.00  0.00    -0.352 N 
ATOM      5  O   UNL A   1      33.348  33.929  27.582  1.00  0.00    -0.269 OA
ATOM      6  C   UNL A   1      33.550  32.720  27.626  1.00  0.00     0.251 C 
ATOM      7  H   UNL A   1      31.905  32.319  26.575  1.00  0.00     0.163 HD
BRANCH   6   8
ATOM      8  C   UNL A   1      34.769  32.214  28.303  1.00  0.00     0.039 A 
ATOM      9  C   UNL A   1      34.793  30.971  28.929  1.00  0.00     0.014 A 
ATOM     10  C   UNL A   1      35.940  32.982  28.265  1.00  0.00     0.014 A 
ATOM     11  C   UNL A   1      35.903  30.584  29.672  1.00  0.00     0.010 A 
ATOM     12  C   UNL A   1      37.100  32.539  28.915  1.00  0.00     0.010 A 
ATOM     13  C   UNL A   1      37.080  31.351  29.658  1.00  0.00    -0.014 A 
BRANCH  13  14
ATOM     14  C   UNL A   1      38.277  30.830  30.372  1.00  0.00     0.031 A 
ATOM     15  C   UNL A   1      38.539  31.155  31.816  1.00  0.00     0.074 A 
ATOM     16  C   UNL A   1      39.101  29.990  29.711  1.00  0.00     0.049 A 
ATOM     17  N   UNL A   1      39.490  30.710  32.600  1.00  0.00    -0.248 NA
ATOM     18  C   UNL A   1      37.623  32.103  32.468  1.00  0.00     0.031 C 
ATOM     19  C   UNL A   1      38.965  29.621  28.298  1.00  0.00     0.029 A 
ATOM     20  N   UNL A   1      40.186  29.269  30.137  1.00  0.00    -0.354 N 
ATOM     21  C   UNL A   1      39.295  31.329  33.829  1.00  0.00     0.074 A 
ATOM     22  C   UNL A   1      38.151  32.204  33.681  1.00  0.00     0.031 C 
ATOM     23  C   UNL A   1      39.884  28.695  27.996  1.00  0.00     0.029 A 
ATOM     24  C   UNL A   1      40.714  28.451  29.167  1.00  0.00     0.049 A 
ATOM     25  H   UNL A   1      40.551  29.331  31.049  1.00  0.00     0.167 HD
ATOM     26  C   UNL A   1      39.999  31.169  34.976  1.00  0.00     0.037 A 
ATOM     27  C   UNL A   1      41.758  27.604  29.211  1.00  0.00     0.037 A 
ATOM     28  C   UNL A   1      41.128  30.285  35.123  1.00  0.00     0.049 A 
ATOM     29  C   UNL A   1      42.520  27.453  30.497  1.00  0.00     0.074 A 
ATOM     30  C   UNL A   1      41.893  30.042  36.252  1.00  0.00     0.029 A 
ATOM     31  N   UNL A   1      41.653  29.497  34.110  1.00  0.00    -0.354 N 
ATOM     32  N   UNL A   1      42.303  28.023  31.656  1.00  0.00    -0.248 NA
ATOM     33  C   UNL A   1      43.671  26.542  30.479  1.00  0.00     0.031 C 
ATOM     34  C   UNL A   1      42.906  29.138  35.911  1.00  0.00     0.029 A 
ATOM     35  C   UNL A   1      42.743  28.781  34.583  1.00  0.00     0.049 A 
ATOM     36  H   UNL A   1      41.305  29.453  33.191  1.00  0.00     0.167 HD
ATOM     37  C   UNL A   1      43.286  27.539  32.507  1.00  0.00     0.074 A 
ATOM     38  C   UNL A   1      44.077  26.599  31.739  1.00  0.00     0.031 C 
ATOM     39  C   UNL A   1      43.523  27.855  33.803  1.00  0.00     0.037 A 
BRANCH  26  40
ATOM     40  C   UNL A   1      39.577  31.967  36.176  1.00  0.00     0.064 A 
ATOM     41  C   UNL A   1      40.228  33.157  36.532  1.00  0.00     0.173 A 
ATOM     42  C   UNL A   1      38.458  31.580  36.931  1.00  0.00     0.173 A 
ATOM     43  F   UNL A   1      41.308  33.566  35.848  1.00  0.00    -0.203 F 
ATOM     44  C   UNL A   1      39.783  33.924  37.607  1.00  0.00     0.198 A 
ATOM     45  C   UNL A   1      38.002  32.362  37.990  1.00  0.00     0.198 A 
ATOM     46  F   UNL A   1      37.794  30.455  36.628  1.00  0.00    -0.203 F 
ATOM     47  F   UNL A   1      40.438  35.043  37.945  1.00  0.00    -0.200 F 
ATOM     48  C   UNL A   1      38.666  33.531  38.328  1.00  0.00     0.200 A 
ATOM     49  F   UNL A   1      36.914  31.988  38.676  1.00  0.00    -0.200 F 
ATOM     50  F   UNL A   1      38.230  34.279  39.351  1.00  0.00    -0.200 F 
ENDBRANCH  26  40
BRANCH  27  51
ATOM     51  C   UNL A   1      42.150  26.846  27.994  1.00  0.00     0.064 A 
ATOM     52  C   UNL A   1      41.628  25.572  27.733  1.00  0.00     0.173 A 
ATOM     53  C   UNL A   1      43.061  27.381  27.071  1.00  0.00     0.173 A 
ATOM     54  F   UNL A   1      40.770  25.009  28.596  1.00  0.00    -0.203 F 
ATOM     55  C   UNL A   1      42.018  24.854  26.604  1.00  0.00     0.198 A 
ATOM     56  C   UNL A   1      43.424  26.677  25.927  1.00  0.00     0.198 A 
ATOM     57  F   UNL A   1      43.586  28.598  27.273  1.00  0.00    -0.203 F 
ATOM     58  F   UNL A   1      41.543  23.617  26.403  1.00  0.00    -0.200 F 
ATOM     59  C   UNL A   1      42.910  25.409  25.699  1.00  0.00     0.200 A 
ATOM     60  F   UNL A   1      44.272  27.225  25.047  1.00  0.00    -0.200 F 
ATOM     61  F   UNL A   1      43.282  24.720  24.612  1.00  0.00    -0.200 F 
ENDBRANCH  27  51
BRANCH  39  62
ATOM     62  C   UNL A   1      44.678  27.165  34.465  1.00  0.00     0.064 A 
ATOM     63  C   UNL A   1      44.520  25.927  35.106  1.00  0.00     0.173 A 
ATOM     64  C   UNL A   1      45.955  27.744  34.455  1.00  0.00     0.173 A 
ATOM     65  F   UNL A   1      43.313  25.343  35.158  1.00  0.00    -0.203 F 
ATOM     66  C   UNL A   1      45.592  25.313  35.746  1.00  0.00     0.198 A 
ATOM     67  C   UNL A   1      47.032  27.111  35.071  1.00  0.00     0.198 A 
ATOM     68  F   UNL A   1      46.160  28.924  33.849  1.00  0.00    -0.203 F 
ATOM     69  F   UNL A   1      45.405  24.160  36.404  1.00  0.00    -0.200 F 
ATOM     70  C   UNL A   1      46.847  25.901  35.724  1.00  0.00     0.200 A 
ATOM     71  F   UNL A   1      48.247  27.677  35.039  1.00  0.00    -0.200 F 
ATOM     72  F   UNL A   1      47.877  25.310  36.344  1.00  0.00    -0.200 F 
ENDBRANCH  39  62
ENDBRANCH  13  14
ENDBRANCH   6   8
ENDBRANCH   3   4
ENDBRANCH   2   3
ENDBRANCH   1   2
BRANCH   1  73
ATOM     73  N   UNL A   1      32.644  27.494  26.877  1.00  0.00    -0.352 N 
ATOM     74  C   UNL A   1      31.664  26.743  26.256  1.00  0.00     0.251 C 
ATOM     75  H   UNL A   1      32.606  27.497  27.861  1.00  0.00     0.163 HD
ATOM     76  O   UNL A   1      31.013  25.909  26.876  1.00  0.00    -0.269 OA
BRANCH  74  77
ATOM     77  C   UNL A   1      31.509  26.837  24.794  1.00  0.00     0.048 A 
ATOM     78  C   UNL A   1      30.641  27.889  24.421  1.00  0.00     0.014 A 
ATOM     79  C   UNL A   1      32.165  25.982  23.829  1.00  0.00     0.011 A 
ATOM     80  C   UNL A   1      30.298  28.085  23.102  1.00  0.00     0.001 A 
ATOM     81  C   UNL A   1      31.774  26.248  22.475  1.00  0.00    -0.016 A 
ATOM     82  C   UNL A   1      33.144  24.917  23.985  1.00  0.00     0.052 A 
ATOM     83  C   UNL A   1      30.856  27.260  22.142  1.00  0.00     0.009 A 
ATOM     84  C   UNL A   1      32.288  25.521  21.393  1.00  0.00     0.009 A 
ATOM     85  C   UNL A   1      33.609  24.193  22.856  1.00  0.00     0.019 A 
ATOM     86  C   UNL A   1      33.198  24.498  21.573  1.00  0.00     0.002 A 
BRANCH  82  87
ATOM     87  S   UNL A   1      33.960  24.324  25.491  1.00  0.00     0.086 S 
ATOM     88  O   UNL A   1      35.417  24.634  25.429  1.00  0.00    -0.249 OA
BRANCH  87  89
ATOM     89  C   UNL A   1      33.669  22.517  25.357  1.00  0.00     0.049 A 
ATOM     90  C   UNL A   1      34.711  21.649  24.959  1.00  0.00     0.018 A 
ATOM     91  C   UNL A   1      32.364  21.973  25.432  1.00  0.00    -0.006 A 
ATOM     92  C   UNL A   1      34.482  20.308  24.627  1.00  0.00     0.001 A 
ATOM     93  C   UNL A   1      32.152  20.618  25.078  1.00  0.00     0.007 A 
ATOM     94  C   UNL A   1      33.197  19.794  24.672  1.00  0.00     0.000 A 
BRANCH  91  95
ATOM     95  C   UNL A   1      31.129  22.744  25.830  1.00  0.00     0.192 C 
BRANCH  95  96
ATOM     96  O   UNL A   1      31.029  22.811  27.251  1.00  0.00    -0.392 OA
ATOM     97  H   UNL A   1      30.103  22.958  27.503  1.00  0.00     0.211 HD
ENDBRANCH  95  96
ENDBRANCH  91  95
ENDBRANCH  87  89
ENDBRANCH  82  87
ENDBRANCH  74  77
ENDBRANCH   1  73
TORSDOF 14
ENDMDL
MODEL 2
REMARK VINA RESULT:     -12.5      0.233      1.583
REMARK SMILES O=C(NCCCNC(=O)c1cccc2cccc([S@](=O)c3ccccc3CO)c12)c1ccc(-c2c3nc(c(-c4c(F)c(F)c(F)c(F)c4F)c4ccc([nH]4)c(-c4c(F)c(F)c(F)c(F)c4F)c4nc(c(-c5c(F)c(F)c(F)c(F)c5F)c5ccc2[nH]5)C=C4)C=C3)cc1
REMARK SMILES IDX 6 1 5 2 4 3 3 4 1 5 2 6 30 8 31 9 92 10 32 11 91 12 33 13
REMARK SMILES IDX 34 14 35 15 85 16 36 17 90 18 84 19 86 20 37 21 89 22 83 23
REMARK SMILES IDX 82 24 38 26 70 27 50 28 69 29 51 30 54 31 68 32 87 33 52 34
REMARK SMILES IDX 53 35 67 37 88 38 55 39 39 40 40 41 48 42 41 43 42 44 46 45
REMARK SMILES IDX 49 46 43 47 44 48 47 49 45 50 71 51 72 52 80 53 73 54 74 55
REMARK SMILES IDX 78 56 81 57 75 58 76 59 79 60 77 61 56 62 57 63 65 64 58 65
REMARK SMILES IDX 59 66 63 67 66 68 60 69 61 70 64 71 62 72 7 73 8 74 9 76
REMARK SMILES IDX 10 77 11 78 29 79 12 80 14 81 18 82 13 83 15 84 17 85 16 86
REMARK SMILES IDX 19 87 20 88 21 89 22 90 26 91 23 92 25 93 24 94 27 95 28 96
REMARK H PARENT 3 7 86 25 54 36 7 75 28 97
REMARK Flexibility Score: inf
ROOT
ATOM      1  C   UNL A   1      33.775  28.445  26.264  1.00  0.00     0.118 C 
ENDROOT
BRANCH   1   2
ATOM      2  C   UNL A   1      33.428  29.899  25.988  1.00  0.00     0.042 C 
BRANCH   2   3
ATOM      3  C   UNL A   1      32.490  30.537  26.999  1.00  0.00     0.118 C 
BRANCH   3   4
ATOM      4  N   UNL A   1      32.573  31.995  27.039  1.00  0.00    -0.352 N 
ATOM      5  O   UNL A   1      33.260  34.055  27.614  1.00  0.00    -0.269 OA
ATOM      6  C   UNL A   1      33.481  32.849  27.623  1.00  0.00     0.251 C 
ATOM      7  H   UNL A   1      31.845  32.451  26.558  1.00  0.00     0.163 HD
BRANCH   6   8
ATOM      8  C   UNL A   1      34.708  32.344  28.286  1.00  0.00     0.039 A 
ATOM      9  C   UNL A   1      34.691  31.195  29.073  1.00  0.00     0.014 A 
ATOM     10  C   UNL A   1      35.923  33.008  28.073  1.00  0.00     0.014 A 
ATOM     11  C   UNL A   1      35.822  30.825  29.792  1.00  0.00     0.010 A 
ATOM     12  C   UNL A   1      37.094  32.566  28.705  1.00  0.00     0.010 A 
ATOM     13  C   UNL A   1      37.045  31.490  29.603  1.00  0.00    -0.014 A 
BRANCH  13  14
ATOM     14  C   UNL A   1      38.252  30.977  30.306  1.00  0.00     0.031 A 
ATOM     15  C   UNL A   1      38.547  31.341  31.734  1.00  0.00     0.074 A 
ATOM     16  C   UNL A   1      39.052  30.109  29.653  1.00  0.00     0.049 A 
ATOM     17  N   UNL A   1      39.510  30.908  32.511  1.00  0.00    -0.248 NA
ATOM     18  C   UNL A   1      37.656  32.318  32.377  1.00  0.00     0.031 C 
ATOM     19  C   UNL A   1      38.883  29.701  28.255  1.00  0.00     0.029 A 
ATOM     20  N   UNL A   1      40.138  29.388  30.077  1.00  0.00    -0.354 N 
ATOM     21  C   UNL A   1      39.348  31.564  33.725  1.00  0.00     0.074 A 
ATOM     22  C   UNL A   1      38.211  32.448  33.576  1.00  0.00     0.031 C 
ATOM     23  C   UNL A   1      39.785  28.756  27.960  1.00  0.00     0.029 A 
ATOM     24  C   UNL A   1      40.637  28.537  29.121  1.00  0.00     0.049 A 
ATOM     25  H   UNL A   1      40.524  29.472  30.979  1.00  0.00     0.167 HD
ATOM     26  C   UNL A   1      40.075  31.430  34.862  1.00  0.00     0.037 A 
ATOM     27  C   UNL A   1      41.673  27.680  29.168  1.00  0.00     0.037 A 
ATOM     28  C   UNL A   1      41.197  30.538  35.010  1.00  0.00     0.049 A 
ATOM     29  C   UNL A   1      42.460  27.557  30.441  1.00  0.00     0.074 A 
ATOM     30  C   UNL A   1      41.984  30.319  36.130  1.00  0.00     0.029 A 
ATOM     31  N   UNL A   1      41.692  29.715  34.010  1.00  0.00    -0.354 N 
ATOM     32  N   UNL A   1      42.274  28.164  31.587  1.00  0.00    -0.248 NA
ATOM     33  C   UNL A   1      43.601  26.634  30.425  1.00  0.00     0.031 C 
ATOM     34  C   UNL A   1      42.979  29.394  35.795  1.00  0.00     0.029 A 
ATOM     35  C   UNL A   1      42.784  29.001  34.481  1.00  0.00     0.049 A 
ATOM     36  H   UNL A   1      41.324  29.648  33.100  1.00  0.00     0.167 HD
ATOM     37  C   UNL A   1      43.270  27.693  32.431  1.00  0.00     0.074 A 
ATOM     38  C   UNL A   1      44.034  26.722  31.674  1.00  0.00     0.031 C 
ATOM     39  C   UNL A   1      43.537  28.044  33.712  1.00  0.00     0.037 A 
BRANCH  26  40
ATOM     40  C   UNL A   1      39.686  32.267  36.047  1.00  0.00     0.064 A 
ATOM     41  C   UNL A   1      40.313  33.492  36.315  1.00  0.00     0.173 A 
ATOM     42  C   UNL A   1      38.623  31.878  36.875  1.00  0.00     0.173 A 
ATOM     43  F   UNL A   1      41.342  33.906  35.558  1.00  0.00    -0.203 F 
ATOM     44  C   UNL A   1      39.897  34.293  37.377  1.00  0.00     0.198 A 
ATOM     45  C   UNL A   1      38.194  32.692  37.922  1.00  0.00     0.198 A 
ATOM     46  F   UNL A   1      37.984  30.719  36.657  1.00  0.00    -0.203 F 
ATOM     47  F   UNL A   1      40.528  35.447  37.632  1.00  0.00    -0.200 F 
ATOM     48  C   UNL A   1      38.832  33.896  38.173  1.00  0.00     0.200 A 
ATOM     49  F   UNL A   1      37.157  32.313  38.680  1.00  0.00    -0.200 F 
ATOM     50  F   UNL A   1      38.423  34.675  39.184  1.00  0.00    -0.200 F 
ENDBRANCH  26  40
BRANCH  27  51
ATOM     51  C   UNL A   1      42.030  26.883  27.965  1.00  0.00     0.064 A 
ATOM     52  C   UNL A   1      42.920  27.379  27.003  1.00  0.00     0.173 A 
ATOM     53  C   UNL A   1      41.482  25.609  27.752  1.00  0.00     0.173 A 
ATOM     54  F   UNL A   1      43.455  28.601  27.151  1.00  0.00    -0.203 F 
ATOM     55  C   UNL A   1      43.233  26.640  25.864  1.00  0.00     0.198 A 
ATOM     56  C   UNL A   1      41.821  24.858  26.630  1.00  0.00     0.198 A 
ATOM     57  F   UNL A   1      40.629  25.087  28.645  1.00  0.00    -0.203 F 
ATOM     58  F   UNL A   1      44.046  27.158  24.934  1.00  0.00    -0.200 F 
ATOM     59  C   UNL A   1      42.688  25.378  25.682  1.00  0.00     0.200 A 
ATOM     60  F   UNL A   1      41.306  23.632  26.468  1.00  0.00    -0.200 F 
ATOM     61  F   UNL A   1      42.991  24.666  24.588  1.00  0.00    -0.200 F 
ENDBRANCH  27  51
BRANCH  39  62
ATOM     62  C   UNL A   1      44.699  27.361  34.369  1.00  0.00     0.064 A 
ATOM     63  C   UNL A   1      45.989  27.911  34.331  1.00  0.00     0.173 A 
ATOM     64  C   UNL A   1      44.521  26.146  35.046  1.00  0.00     0.173 A 
ATOM     65  F   UNL A   1      46.212  29.063  33.679  1.00  0.00    -0.203 F 
ATOM     66  C   UNL A   1      47.065  27.251  34.916  1.00  0.00     0.198 A 
ATOM     67  C   UNL A   1      45.596  25.503  35.655  1.00  0.00     0.198 A 
ATOM     68  F   UNL A   1      43.307  25.580  35.117  1.00  0.00    -0.203 F 
ATOM     69  F   UNL A   1      48.299  27.766  34.815  1.00  0.00    -0.200 F 
ATOM     70  C   UNL A   1      46.868  26.051  35.580  1.00  0.00     0.200 A 
ATOM     71  F   UNL A   1      45.402  24.347  36.307  1.00  0.00    -0.200 F 
ATOM     72  F   UNL A   1      47.907  25.415  36.139  1.00  0.00    -0.200 F 
ENDBRANCH  39  62
ENDBRANCH  13  14
ENDBRANCH   6   8
ENDBRANCH   3   4
ENDBRANCH   2   3
ENDBRANCH   1   2
BRANCH   1  73
ATOM     73  N   UNL A   1      32.708  27.677  26.896  1.00  0.00    -0.352 N 
ATOM     74  C   UNL A   1      31.704  26.921  26.322  1.00  0.00     0.251 C 
ATOM     75  H   UNL A   1      32.701  27.702  27.881  1.00  0.00     0.163 HD
ATOM     76  O   UNL A   1      31.067  26.105  26.980  1.00  0.00    -0.269 OA
BRANCH  74  77
ATOM     77  C   UNL A   1      31.504  26.984  24.864  1.00  0.00     0.048 A 
ATOM     78  C   UNL A   1      30.643  28.042  24.495  1.00  0.00     0.014 A 
ATOM     79  C   UNL A   1      32.113  26.095  23.900  1.00  0.00     0.011 A 
ATOM     80  C   UNL A   1      30.260  28.215  23.183  1.00  0.00     0.001 A 
ATOM     81  C   UNL A   1      31.684  26.338  22.552  1.00  0.00    -0.016 A 
ATOM     82  C   UNL A   1      33.078  25.017  24.049  1.00  0.00     0.052 A 
ATOM     83  C   UNL A   1      30.773  27.359  22.225  1.00  0.00     0.009 A 
ATOM     84  C   UNL A   1      32.150  25.578  21.472  1.00  0.00     0.009 A 
ATOM     85  C   UNL A   1      33.494  24.259  22.923  1.00  0.00     0.019 A 
ATOM     86  C   UNL A   1      33.047  24.542  21.647  1.00  0.00     0.002 A 
BRANCH  82  87
ATOM     87  S   UNL A   1      33.932  24.444  25.541  1.00  0.00     0.086 S 
ATOM     88  O   UNL A   1      35.386  24.758  25.442  1.00  0.00    -0.249 OA
BRANCH  87  89
ATOM     89  C   UNL A   1      33.646  22.634  25.433  1.00  0.00     0.049 A 
ATOM     90  C   UNL A   1      34.684  21.765  25.029  1.00  0.00     0.018 A 
ATOM     91  C   UNL A   1      32.344  22.086  25.536  1.00  0.00    -0.006 A 
ATOM     92  C   UNL A   1      34.455  20.420  24.717  1.00  0.00     0.001 A 
ATOM     93  C   UNL A   1      32.132  20.726  25.201  1.00  0.00     0.007 A 
ATOM     94  C   UNL A   1      33.174  19.902  24.789  1.00  0.00     0.000 A 
BRANCH  91  95
ATOM     95  C   UNL A   1      31.113  22.857  25.944  1.00  0.00     0.192 C 
BRANCH  95  96
ATOM     96  O   UNL A   1      31.053  22.972  27.364  1.00  0.00    -0.392 OA
ATOM     97  H   UNL A   1      31.491  22.206  27.768  1.00  0.00     0.211 HD
ENDBRANCH  95  96
ENDBRANCH  91  95
ENDBRANCH  87  89
ENDBRANCH  82  87
ENDBRANCH  74  77
ENDBRANCH   1  73
TORSDOF 14
ENDMDL
MODEL 3
REMARK VINA RESULT:     -12.4      0.928      1.168
REMARK SMILES O=C(NCCCNC(=O)c1cccc2cccc([S@](=O)c3ccccc3CO)c12)c1ccc(-c2c3nc(c(-c4c(F)c(F)c(F)c(F)c4F)c4ccc([nH]4)c(-c4c(F)c(F)c(F)c(F)c4F)c4nc(c(-c5c(F)c(F)c(F)c(F)c5F)c5ccc2[nH]5)C=C4)C=C3)cc1
REMARK SMILES IDX 6 1 5 2 4 3 3 4 1 5 2 6 30 8 31 9 92 10 32 11 91 12 33 13
REMARK SMILES IDX 34 14 35 15 85 16 36 17 90 18 84 19 86 20 37 21 89 22 83 23
REMARK SMILES IDX 82 24 38 26 70 27 50 28 69 29 51 30 54 31 68 32 87 33 52 34
REMARK SMILES IDX 53 35 67 37 88 38 55 39 39 40 40 41 48 42 41 43 42 44 46 45
REMARK SMILES IDX 49 46 43 47 44 48 47 49 45 50 71 51 72 52 80 53 73 54 74 55
REMARK SMILES IDX 78 56 81 57 75 58 76 59 79 60 77 61 56 62 57 63 65 64 58 65
REMARK SMILES IDX 59 66 63 67 66 68 60 69 61 70 64 71 62 72 7 73 8 74 9 76
REMARK SMILES IDX 10 77 11 78 29 79 12 80 14 81 18 82 13 83 15 84 17 85 16 86
REMARK SMILES IDX 19 87 20 88 21 89 22 90 26 91 23 92 25 93 24 94 27 95 28 96
REMARK H PARENT 3 7 86 25 54 36 7 75 28 97
REMARK Flexibility Score: inf
ROOT
ATOM      1  C   UNL A   1      32.363  27.362  26.767  1.00  0.00     0.118 C 
ENDROOT
BRANCH   1   2
ATOM      2  C   UNL A   1      32.001  28.834  26.885  1.00  0.00     0.042 C 
BRANCH   2   3
ATOM      3  C   UNL A   1      32.923  29.782  26.134  1.00  0.00     0.118 C 
BRANCH   3   4
ATOM      4  N   UNL A   1      32.723  31.187  26.475  1.00  0.00    -0.352 N 
ATOM      5  O   UNL A   1      32.956  33.158  27.529  1.00  0.00    -0.269 OA
ATOM      6  C   UNL A   1      33.403  32.035  27.320  1.00  0.00     0.251 C 
ATOM      7  H   UNL A   1      31.961  31.607  26.014  1.00  0.00     0.163 HD
BRANCH   6   8
ATOM      8  C   UNL A   1      34.648  31.613  28.007  1.00  0.00     0.039 A 
ATOM      9  C   UNL A   1      34.780  30.344  28.564  1.00  0.00     0.014 A 
ATOM     10  C   UNL A   1      35.737  32.494  28.049  1.00  0.00     0.014 A 
ATOM     11  C   UNL A   1      35.903  30.026  29.319  1.00  0.00     0.010 A 
ATOM     12  C   UNL A   1      36.918  32.130  28.711  1.00  0.00     0.010 A 
ATOM     13  C   UNL A   1      36.997  30.904  29.386  1.00  0.00    -0.014 A 
BRANCH  13  14
ATOM     14  C   UNL A   1      38.222  30.464  30.108  1.00  0.00     0.031 A 
ATOM     15  C   UNL A   1      38.490  30.872  31.530  1.00  0.00     0.074 A 
ATOM     16  C   UNL A   1      39.066  29.620  29.479  1.00  0.00     0.049 A 
ATOM     17  N   UNL A   1      39.466  30.502  32.322  1.00  0.00    -0.248 NA
ATOM     18  C   UNL A   1      37.549  31.820  32.145  1.00  0.00     0.031 C 
ATOM     19  C   UNL A   1      38.926  29.175  28.090  1.00  0.00     0.029 A 
ATOM     20  N   UNL A   1      40.182  28.961  29.926  1.00  0.00    -0.354 N 
ATOM     21  C   UNL A   1      39.265  31.176  33.520  1.00  0.00     0.074 A 
ATOM     22  C   UNL A   1      38.088  32.003  33.345  1.00  0.00     0.031 C 
ATOM     23  C   UNL A   1      39.873  28.266  27.822  1.00  0.00     0.029 A 
ATOM     24  C   UNL A   1      40.727  28.113  28.992  1.00  0.00     0.049 A 
ATOM     25  H   UNL A   1      40.556  29.082  30.828  1.00  0.00     0.167 HD
ATOM     26  C   UNL A   1      39.988  31.101  34.664  1.00  0.00     0.037 A 
ATOM     27  C   UNL A   1      41.801  27.306  29.065  1.00  0.00     0.037 A 
ATOM     28  C   UNL A   1      41.150  30.266  34.840  1.00  0.00     0.049 A 
ATOM     29  C   UNL A   1      42.583  27.249  30.345  1.00  0.00     0.074 A 
ATOM     30  C   UNL A   1      41.938  30.109  35.968  1.00  0.00     0.029 A 
ATOM     31  N   UNL A   1      41.690  29.446  33.861  1.00  0.00    -0.354 N 
ATOM     32  N   UNL A   1      42.362  27.871  31.477  1.00  0.00    -0.248 NA
ATOM     33  C   UNL A   1      43.766  26.380  30.357  1.00  0.00     0.031 C 
ATOM     34  C   UNL A   1      42.977  29.224  35.660  1.00  0.00     0.029 A 
ATOM     35  C   UNL A   1      42.811  28.794  34.354  1.00  0.00     0.049 A 
ATOM     36  H   UNL A   1      41.332  29.342  32.950  1.00  0.00     0.167 HD
ATOM     37  C   UNL A   1      43.372  27.466  32.336  1.00  0.00     0.074 A 
ATOM     38  C   UNL A   1      44.186  26.516  31.607  1.00  0.00     0.031 C 
ATOM     39  C   UNL A   1      43.613  27.857  33.611  1.00  0.00     0.037 A 
BRANCH  26  40
ATOM     40  C   UNL A   1      39.553  31.945  35.828  1.00  0.00     0.064 A 
ATOM     41  C   UNL A   1      40.104  33.213  36.061  1.00  0.00     0.173 A 
ATOM     42  C   UNL A   1      38.516  31.515  36.671  1.00  0.00     0.173 A 
ATOM     43  F   UNL A   1      41.104  33.667  35.289  1.00  0.00    -0.203 F 
ATOM     44  C   UNL A   1      39.643  34.014  37.103  1.00  0.00     0.198 A 
ATOM     45  C   UNL A   1      38.041  32.329  37.696  1.00  0.00     0.198 A 
ATOM     46  F   UNL A   1      37.949  30.313  36.485  1.00  0.00    -0.203 F 
ATOM     47  F   UNL A   1      40.204  35.211  37.324  1.00  0.00    -0.200 F 
ATOM     48  C   UNL A   1      38.606  33.576  37.913  1.00  0.00     0.200 A 
ATOM     49  F   UNL A   1      37.031  31.909  38.469  1.00  0.00    -0.200 F 
ATOM     50  F   UNL A   1      38.153  34.356  38.905  1.00  0.00    -0.200 F 
ENDBRANCH  26  40
BRANCH  27  51
ATOM     51  C   UNL A   1      42.204  26.501  27.883  1.00  0.00     0.064 A 
ATOM     52  C   UNL A   1      41.644  25.240  27.638  1.00  0.00     0.173 A 
ATOM     53  C   UNL A   1      43.165  26.976  26.977  1.00  0.00     0.173 A 
ATOM     54  F   UNL A   1      40.737  24.733  28.486  1.00  0.00    -0.203 F 
ATOM     55  C   UNL A   1      42.043  24.477  26.543  1.00  0.00     0.198 A 
ATOM     56  C   UNL A   1      43.539  26.226  25.865  1.00  0.00     0.198 A 
ATOM     57  F   UNL A   1      43.729  28.178  27.165  1.00  0.00    -0.203 F 
ATOM     58  F   UNL A   1      41.530  23.253  26.358  1.00  0.00    -0.200 F 
ATOM     59  C   UNL A   1      42.985  24.973  25.654  1.00  0.00     0.200 A 
ATOM     60  F   UNL A   1      44.437  26.718  25.001  1.00  0.00    -0.200 F 
ATOM     61  F   UNL A   1      43.367  24.240  24.599  1.00  0.00    -0.200 F 
ENDBRANCH  27  51
BRANCH  39  62
ATOM     62  C   UNL A   1      44.801  27.243  34.291  1.00  0.00     0.064 A 
ATOM     63  C   UNL A   1      44.694  26.040  35.004  1.00  0.00     0.173 A 
ATOM     64  C   UNL A   1      46.058  27.861  34.226  1.00  0.00     0.173 A 
ATOM     65  F   UNL A   1      43.508  25.421  35.110  1.00  0.00    -0.203 F 
ATOM     66  C   UNL A   1      45.795  25.497  35.658  1.00  0.00     0.198 A 
ATOM     67  C   UNL A   1      47.164  27.299  34.858  1.00  0.00     0.198 A 
ATOM     68  F   UNL A   1      46.215  29.010  33.551  1.00  0.00    -0.203 F 
ATOM     69  F   UNL A   1      45.657  24.378  36.384  1.00  0.00    -0.200 F 
ATOM     70  C   UNL A   1      47.030  26.123  35.581  1.00  0.00     0.200 A 
ATOM     71  F   UNL A   1      48.359  27.901  34.774  1.00  0.00    -0.200 F 
ATOM     72  F   UNL A   1      48.088  25.601  36.216  1.00  0.00    -0.200 F 
ENDBRANCH  39  62
ENDBRANCH  13  14
ENDBRANCH   6   8
ENDBRANCH   3   4
ENDBRANCH   2   3
ENDBRANCH   1   2
BRANCH   1  73
ATOM     73  N   UNL A   1      31.234  26.448  26.892  1.00  0.00    -0.352 N 
ATOM     74  C   UNL A   1      30.648  25.631  25.943  1.00  0.00     0.251 C 
ATOM     75  H   UNL A   1      30.826  26.406  27.788  1.00  0.00     0.163 HD
ATOM     76  O   UNL A   1      29.903  24.712  26.267  1.00  0.00    -0.269 OA
BRANCH  74  77
ATOM     77  C   UNL A   1      31.050  25.770  24.533  1.00  0.00     0.048 A 
ATOM     78  C   UNL A   1      30.477  26.913  23.931  1.00  0.00     0.014 A 
ATOM     79  C   UNL A   1      31.935  24.871  23.826  1.00  0.00     0.011 A 
ATOM     80  C   UNL A   1      30.662  27.171  22.590  1.00  0.00     0.001 A 
ATOM     81  C   UNL A   1      32.095  25.204  22.440  1.00  0.00    -0.016 A 
ATOM     82  C   UNL A   1      32.689  23.707  24.266  1.00  0.00     0.052 A 
ATOM     83  C   UNL A   1      31.458  26.312  21.854  1.00  0.00     0.009 A 
ATOM     84  C   UNL A   1      32.903  24.449  21.579  1.00  0.00     0.009 A 
ATOM     85  C   UNL A   1      33.469  22.961  23.344  1.00  0.00     0.019 A 
ATOM     86  C   UNL A   1      33.587  23.333  22.019  1.00  0.00     0.002 A 
BRANCH  82  87
ATOM     87  S   UNL A   1      32.839  23.002  25.929  1.00  0.00     0.086 S 
ATOM     88  O   UNL A   1      33.094  24.090  26.916  1.00  0.00    -0.249 OA
BRANCH  87  89
ATOM     89  C   UNL A   1      34.324  21.943  25.726  1.00  0.00     0.049 A 
ATOM     90  C   UNL A   1      35.615  22.515  25.683  1.00  0.00     0.018 A 
ATOM     91  C   UNL A   1      34.211  20.572  25.392  1.00  0.00    -0.006 A 
ATOM     92  C   UNL A   1      36.747  21.782  25.308  1.00  0.00     0.001 A 
ATOM     93  C   UNL A   1      35.367  19.851  25.001  1.00  0.00     0.007 A 
ATOM     94  C   UNL A   1      36.621  20.451  24.951  1.00  0.00     0.000 A 
BRANCH  91  95
ATOM     95  C   UNL A   1      32.919  19.791  25.375  1.00  0.00     0.192 C 
BRANCH  95  96
ATOM     96  O   UNL A   1      32.903  18.846  26.443  1.00  0.00    -0.392 OA
ATOM     97  H   UNL A   1      33.575  19.088  27.099  1.00  0.00     0.211 HD
ENDBRANCH  95  96
ENDBRANCH  91  95
ENDBRANCH  87  89
ENDBRANCH  82  87
ENDBRANCH  74  77
ENDBRANCH   1  73
TORSDOF 14
ENDMDL
