MODEL 1
REMARK VINA RESULT:     -12.1      0.000      0.000
REMARK SMILES CC[C@@H](C)[C@H](NC(=O)Cn1ccc(C(F)(F)F)n1)C(=O)NCCCNC(=O)c1ccc(-c2c3nc(c(-c4c(F)c(F)c(F)c(F)c4F)c4ccc([nH]4)c(-c4c(F)c(F)c(F)c(F)c4F)c4nc(c(-c5c(F)c(F)c(F)c(F)c5F)c5ccc2[nH]5)C=C4)C=C3)cc1
REMARK SMILES IDX 22 1 21 2 19 3 20 4 5 6 3 7 4 8 2 9 1 10 6 11 7 12 8 14 9 15
REMARK SMILES IDX 10 16 11 17 18 18 12 19 13 20 14 21 15 22 16 23 17 24 23 25
REMARK SMILES IDX 24 26 25 27 26 28 27 30 28 31 29 32 90 33 30 34 89 35 31 36
REMARK SMILES IDX 32 37 33 38 83 39 34 40 88 41 82 42 84 43 35 44 87 45 81 46
REMARK SMILES IDX 80 47 36 49 68 50 48 51 67 52 49 53 52 54 66 55 85 56 50 57
REMARK SMILES IDX 51 58 65 60 86 61 53 62 37 63 38 64 46 65 39 66 40 67 44 68
REMARK SMILES IDX 47 69 41 70 42 71 45 72 43 73 69 74 70 75 78 76 71 77 72 78
REMARK SMILES IDX 76 79 79 80 73 81 74 82 77 83 75 84 54 85 55 86 63 87 56 88
REMARK SMILES IDX 57 89 61 90 64 91 58 92 59 93 62 94 60 95
REMARK H PARENT 21 5 6 13 25 29 84 48 52 59
REMARK Flexibility Score: inf
ROOT
ATOM      1  C   UNL A   1      36.852  20.905  24.797  1.00  0.00     0.117 C 
ENDROOT
BRANCH   1   2
ATOM      2  N   UNL A   1      36.224  21.432  25.989  1.00  0.00    -0.354 N 
ATOM      3  C   UNL A   1      34.887  21.585  26.226  1.00  0.00     0.242 C 
ATOM      4  O   UNL A   1      34.500  21.530  27.396  1.00  0.00    -0.273 OA
ATOM      5  H   UNL A   1      36.830  21.715  26.713  1.00  0.00     0.163 HD
BRANCH   3   6
ATOM      6  C   UNL A   1      33.872  21.701  25.064  1.00  0.00     0.174 C 
BRANCH   6   7
ATOM      7  C   UNL A   1      33.393  20.282  24.537  1.00  0.00     0.018 C 
ATOM      8  C   UNL A   1      32.430  20.374  23.336  1.00  0.00     0.010 C 
BRANCH   7   9
ATOM      9  C   UNL A   1      32.928  19.280  25.640  1.00  0.00     0.002 C 
ATOM     10  C   UNL A   1      33.005  17.796  25.306  1.00  0.00     0.004 C 
ENDBRANCH   7   9
ENDBRANCH   6   7
BRANCH   6  11
ATOM     11  N   UNL A   1      34.316  22.609  23.988  1.00  0.00    -0.342 N 
ATOM     12  C   UNL A   1      34.448  23.968  23.959  1.00  0.00     0.242 C 
ATOM     13  H   UNL A   1      34.557  22.158  23.146  1.00  0.00     0.164 HD
ATOM     14  O   UNL A   1      34.528  24.488  22.840  1.00  0.00    -0.273 OA
BRANCH  12  15
ATOM     15  C   UNL A   1      34.619  24.811  25.200  1.00  0.00     0.243 C 
BRANCH  15  16
ATOM     16  N   UNL A   1      33.426  25.529  25.592  1.00  0.00    -0.263 N 
ATOM     17  C   UNL A   1      32.141  25.076  25.605  1.00  0.00     0.110 A 
ATOM     18  N   UNL A   1      33.543  26.809  25.989  1.00  0.00    -0.168 NA
ATOM     19  C   UNL A   1      31.401  26.071  26.197  1.00  0.00     0.055 A 
ATOM     20  C   UNL A   1      32.317  27.129  26.453  1.00  0.00     0.166 A 
BRANCH  20  21
ATOM     21  C   UNL A   1      31.997  28.429  27.143  1.00  0.00     0.435 C 
ATOM     22  F   UNL A   1      33.119  29.017  27.643  1.00  0.00    -0.164 F 
ATOM     23  F   UNL A   1      31.461  29.333  26.274  1.00  0.00    -0.164 F 
ATOM     24  F   UNL A   1      31.121  28.314  28.175  1.00  0.00    -0.164 F 
ENDBRANCH  20  21
ENDBRANCH  15  16
ENDBRANCH  12  15
ENDBRANCH   6  11
ENDBRANCH   3   6
ENDBRANCH   1   2
BRANCH   1  25
ATOM     25  C   UNL A   1      37.780  19.717  25.015  1.00  0.00     0.042 C 
BRANCH  25  26
ATOM     26  C   UNL A   1      39.072  20.133  25.685  1.00  0.00     0.118 C 
BRANCH  26  27
ATOM     27  N   UNL A   1      40.065  19.051  25.724  1.00  0.00    -0.352 N 
ATOM     28  C   UNL A   1      41.433  19.135  25.955  1.00  0.00     0.251 C 
ATOM     29  H   UNL A   1      39.714  18.144  25.567  1.00  0.00     0.163 HD
ATOM     30  O   UNL A   1      42.185  18.224  25.708  1.00  0.00    -0.269 OA
BRANCH  28  31
ATOM     31  C   UNL A   1      41.928  20.403  26.517  1.00  0.00     0.039 A 
ATOM     32  C   UNL A   1      42.479  21.406  25.715  1.00  0.00     0.014 A 
ATOM     33  C   UNL A   1      41.654  20.616  27.857  1.00  0.00     0.014 A 
ATOM     34  C   UNL A   1      42.663  22.672  26.267  1.00  0.00     0.010 A 
ATOM     35  C   UNL A   1      41.583  21.903  28.297  1.00  0.00     0.010 A 
ATOM     36  C   UNL A   1      42.189  22.919  27.561  1.00  0.00    -0.014 A 
BRANCH  36  37
ATOM     37  C   UNL A   1      42.275  24.228  28.203  1.00  0.00     0.031 A 
ATOM     38  C   UNL A   1      41.065  25.101  28.137  1.00  0.00     0.074 A 
ATOM     39  C   UNL A   1      43.287  24.480  29.064  1.00  0.00     0.049 A 
ATOM     40  N   UNL A   1      40.983  26.331  27.739  1.00  0.00    -0.248 NA
ATOM     41  C   UNL A   1      39.768  24.520  28.522  1.00  0.00     0.031 C 
ATOM     42  C   UNL A   1      44.384  23.586  29.478  1.00  0.00     0.029 A 
ATOM     43  N   UNL A   1      43.463  25.546  29.884  1.00  0.00    -0.354 N 
ATOM     44  C   UNL A   1      39.667  26.734  27.970  1.00  0.00     0.074 A 
ATOM     45  C   UNL A   1      38.936  25.546  28.327  1.00  0.00     0.031 C 
ATOM     46  C   UNL A   1      44.913  24.021  30.639  1.00  0.00     0.029 A 
ATOM     47  C   UNL A   1      44.355  25.325  30.923  1.00  0.00     0.049 A 
ATOM     48  H   UNL A   1      42.998  26.404  29.753  1.00  0.00     0.167 HD
ATOM     49  C   UNL A   1      39.322  28.051  28.051  1.00  0.00     0.037 A 
ATOM     50  C   UNL A   1      44.602  26.146  31.967  1.00  0.00     0.037 A 
ATOM     51  C   UNL A   1      40.331  28.899  27.477  1.00  0.00     0.049 A 
ATOM     52  C   UNL A   1      44.128  27.494  31.578  1.00  0.00     0.074 A 
ATOM     53  C   UNL A   1      40.882  29.038  26.219  1.00  0.00     0.029 A 
ATOM     54  N   UNL A   1      41.195  29.548  28.324  1.00  0.00    -0.354 N 
ATOM     55  N   UNL A   1      44.656  28.197  30.612  1.00  0.00    -0.248 NA
ATOM     56  C   UNL A   1      42.772  27.865  31.953  1.00  0.00     0.031 C 
ATOM     57  C   UNL A   1      42.267  29.294  26.450  1.00  0.00     0.029 A 
ATOM     58  C   UNL A   1      42.460  29.349  27.831  1.00  0.00     0.049 A 
ATOM     59  H   UNL A   1      40.953  30.059  29.130  1.00  0.00     0.167 HD
ATOM     60  C   UNL A   1      43.578  28.809  29.987  1.00  0.00     0.074 A 
ATOM     61  C   UNL A   1      42.459  28.641  30.912  1.00  0.00     0.031 C 
ATOM     62  C   UNL A   1      43.622  29.139  28.662  1.00  0.00     0.037 A 
BRANCH  49  63
ATOM     63  C   UNL A   1      38.225  28.601  28.934  1.00  0.00     0.064 A 
ATOM     64  C   UNL A   1      37.341  29.574  28.423  1.00  0.00     0.173 A 
ATOM     65  C   UNL A   1      38.196  28.431  30.334  1.00  0.00     0.173 A 
ATOM     66  F   UNL A   1      37.299  29.836  27.108  1.00  0.00    -0.203 F 
ATOM     67  C   UNL A   1      36.546  30.363  29.259  1.00  0.00     0.198 A 
ATOM     68  C   UNL A   1      37.361  29.182  31.162  1.00  0.00     0.198 A 
ATOM     69  F   UNL A   1      39.050  27.617  30.967  1.00  0.00    -0.203 F 
ATOM     70  F   UNL A   1      35.814  31.358  28.739  1.00  0.00    -0.200 F 
ATOM     71  C   UNL A   1      36.560  30.169  30.628  1.00  0.00     0.200 A 
ATOM     72  F   UNL A   1      37.402  28.990  32.487  1.00  0.00    -0.200 F 
ATOM     73  F   UNL A   1      35.845  30.962  31.438  1.00  0.00    -0.200 F 
ENDBRANCH  49  63
BRANCH  50  74
ATOM     74  C   UNL A   1      44.914  25.748  33.356  1.00  0.00     0.064 A 
ATOM     75  C   UNL A   1      45.865  26.442  34.115  1.00  0.00     0.173 A 
ATOM     76  C   UNL A   1      44.098  24.831  34.052  1.00  0.00     0.173 A 
ATOM     77  F   UNL A   1      46.644  27.365  33.533  1.00  0.00    -0.203 F 
ATOM     78  C   UNL A   1      45.986  26.242  35.493  1.00  0.00     0.198 A 
ATOM     79  C   UNL A   1      44.221  24.631  35.427  1.00  0.00     0.198 A 
ATOM     80  F   UNL A   1      43.102  24.187  33.426  1.00  0.00    -0.203 F 
ATOM     81  F   UNL A   1      46.868  26.965  36.198  1.00  0.00    -0.200 F 
ATOM     82  C   UNL A   1      45.159  25.343  36.149  1.00  0.00     0.200 A 
ATOM     83  F   UNL A   1      43.382  23.797  36.055  1.00  0.00    -0.200 F 
ATOM     84  F   UNL A   1      45.234  25.199  37.480  1.00  0.00    -0.200 F 
ENDBRANCH  50  74
BRANCH  62  85
ATOM     85  C   UNL A   1      44.944  29.016  27.951  1.00  0.00     0.064 A 
ATOM     86  C   UNL A   1      45.958  29.987  28.021  1.00  0.00     0.173 A 
ATOM     87  C   UNL A   1      45.264  27.807  27.321  1.00  0.00     0.173 A 
ATOM     88  F   UNL A   1      45.777  31.121  28.701  1.00  0.00    -0.203 F 
ATOM     89  C   UNL A   1      47.214  29.780  27.452  1.00  0.00     0.198 A 
ATOM     90  C   UNL A   1      46.531  27.586  26.784  1.00  0.00     0.198 A 
ATOM     91  F   UNL A   1      44.364  26.814  27.280  1.00  0.00    -0.203 F 
ATOM     92  F   UNL A   1      48.155  30.730  27.535  1.00  0.00    -0.200 F 
ATOM     93  C   UNL A   1      47.501  28.574  26.840  1.00  0.00     0.200 A 
ATOM     94  F   UNL A   1      46.823  26.397  26.239  1.00  0.00    -0.200 F 
ATOM     95  F   UNL A   1      48.722  28.352  26.333  1.00  0.00    -0.200 F 
ENDBRANCH  62  85
ENDBRANCH  36  37
ENDBRANCH  28  31
ENDBRANCH  26  27
ENDBRANCH  25  26
ENDBRANCH   1  25
TORSDOF 16
ENDMDL
MODEL 2
REMARK VINA RESULT:     -12.0      3.753      7.758
REMARK SMILES CC[C@@H](C)[C@H](NC(=O)Cn1ccc(C(F)(F)F)n1)C(=O)NCCCNC(=O)c1ccc(-c2c3nc(c(-c4c(F)c(F)c(F)c(F)c4F)c4ccc([nH]4)c(-c4c(F)c(F)c(F)c(F)c4F)c4nc(c(-c5c(F)c(F)c(F)c(F)c5F)c5ccc2[nH]5)C=C4)C=C3)cc1
REMARK SMILES IDX 22 1 21 2 19 3 20 4 5 6 3 7 4 8 2 9 1 10 6 11 7 12 8 14 9 15
REMARK SMILES IDX 10 16 11 17 18 18 12 19 13 20 14 21 15 22 16 23 17 24 23 25
REMARK SMILES IDX 24 26 25 27 26 28 27 30 28 31 29 32 90 33 30 34 89 35 31 36
REMARK SMILES IDX 32 37 33 38 83 39 34 40 88 41 82 42 84 43 35 44 87 45 81 46
REMARK SMILES IDX 80 47 36 49 68 50 48 51 67 52 49 53 52 54 66 55 85 56 50 57
REMARK SMILES IDX 51 58 65 60 86 61 53 62 37 63 38 64 46 65 39 66 40 67 44 68
REMARK SMILES IDX 47 69 41 70 42 71 45 72 43 73 69 74 70 75 78 76 71 77 72 78
REMARK SMILES IDX 76 79 79 80 73 81 74 82 77 83 75 84 54 85 55 86 63 87 56 88
REMARK SMILES IDX 57 89 61 90 64 91 58 92 59 93 62 94 60 95
REMARK H PARENT 21 5 6 13 25 29 84 48 52 59
REMARK Flexibility Score: inf
ROOT
ATOM      1  C   UNL A   1      31.739  28.967  26.288  1.00  0.00     0.117 C 
ENDROOT
BRANCH   1   2
ATOM      2  N   UNL A   1      31.057  28.167  25.294  1.00  0.00    -0.354 N 
ATOM      3  C   UNL A   1      30.949  26.806  25.254  1.00  0.00     0.242 C 
ATOM      4  O   UNL A   1      29.955  26.323  24.706  1.00  0.00    -0.273 OA
ATOM      5  H   UNL A   1      30.622  28.660  24.561  1.00  0.00     0.163 HD
BRANCH   3   6
ATOM      6  C   UNL A   1      31.971  25.896  25.975  1.00  0.00     0.174 C 
BRANCH   6   7
ATOM      7  C   UNL A   1      33.042  25.281  24.978  1.00  0.00     0.018 C 
ATOM      8  C   UNL A   1      34.454  25.182  25.588  1.00  0.00     0.010 C 
BRANCH   7   9
ATOM      9  C   UNL A   1      33.022  25.866  23.531  1.00  0.00     0.002 C 
ATOM     10  C   UNL A   1      33.237  24.887  22.383  1.00  0.00     0.004 C 
ENDBRANCH   7   9
ENDBRANCH   6   7
BRANCH   6  11
ATOM     11  N   UNL A   1      31.342  24.890  26.855  1.00  0.00    -0.342 N 
ATOM     12  C   UNL A   1      30.756  23.690  26.568  1.00  0.00     0.242 C 
ATOM     13  H   UNL A   1      31.346  25.124  27.811  1.00  0.00     0.164 HD
ATOM     14  O   UNL A   1      30.032  23.209  27.448  1.00  0.00    -0.273 OA
BRANCH  12  15
ATOM     15  C   UNL A   1      31.050  22.901  25.314  1.00  0.00     0.243 C 
BRANCH  15  16
ATOM     16  N   UNL A   1      32.015  21.841  25.499  1.00  0.00    -0.263 N 
ATOM     17  C   UNL A   1      33.147  21.860  26.257  1.00  0.00     0.110 A 
ATOM     18  N   UNL A   1      31.825  20.674  24.857  1.00  0.00    -0.168 NA
ATOM     19  C   UNL A   1      33.637  20.576  26.230  1.00  0.00     0.055 A 
ATOM     20  C   UNL A   1      32.766  19.853  25.368  1.00  0.00     0.166 A 
BRANCH  20  21
ATOM     21  C   UNL A   1      32.853  18.383  25.054  1.00  0.00     0.435 C 
ATOM     22  F   UNL A   1      32.012  18.040  24.038  1.00  0.00    -0.164 F 
ATOM     23  F   UNL A   1      34.102  18.038  24.632  1.00  0.00    -0.164 F 
ATOM     24  F   UNL A   1      32.556  17.568  26.100  1.00  0.00    -0.164 F 
ENDBRANCH  20  21
ENDBRANCH  15  16
ENDBRANCH  12  15
ENDBRANCH   6  11
ENDBRANCH   3   6
ENDBRANCH   1   2
BRANCH   1  25
ATOM     25  C   UNL A   1      33.191  29.304  25.977  1.00  0.00     0.042 C 
BRANCH  25  26
ATOM     26  C   UNL A   1      33.921  29.817  27.200  1.00  0.00     0.118 C 
BRANCH  26  27
ATOM     27  N   UNL A   1      34.297  31.232  27.085  1.00  0.00    -0.352 N 
ATOM     28  C   UNL A   1      35.372  31.896  27.664  1.00  0.00     0.251 C 
ATOM     29  H   UNL A   1      33.708  31.786  26.521  1.00  0.00     0.163 HD
ATOM     30  O   UNL A   1      35.435  33.100  27.713  1.00  0.00    -0.269 OA
BRANCH  28  31
ATOM     31  C   UNL A   1      36.440  31.051  28.224  1.00  0.00     0.039 A 
ATOM     32  C   UNL A   1      36.607  29.717  27.845  1.00  0.00     0.014 A 
ATOM     33  C   UNL A   1      37.373  31.702  29.012  1.00  0.00     0.014 A 
ATOM     34  C   UNL A   1      37.791  29.069  28.195  1.00  0.00     0.010 A 
ATOM     35  C   UNL A   1      38.618  31.157  29.109  1.00  0.00     0.010 A 
ATOM     36  C   UNL A   1      38.806  29.808  28.812  1.00  0.00    -0.014 A 
BRANCH  36  37
ATOM     37  C   UNL A   1      40.105  29.239  29.159  1.00  0.00     0.031 A 
ATOM     38  C   UNL A   1      40.387  29.012  30.608  1.00  0.00     0.074 A 
ATOM     39  C   UNL A   1      40.862  28.672  28.191  1.00  0.00     0.049 A 
ATOM     40  N   UNL A   1      41.410  29.404  31.297  1.00  0.00    -0.248 NA
ATOM     41  C   UNL A   1      39.379  28.294  31.407  1.00  0.00     0.031 C 
ATOM     42  C   UNL A   1      40.560  28.533  26.754  1.00  0.00     0.029 A 
ATOM     43  N   UNL A   1      42.002  27.948  28.314  1.00  0.00    -0.354 N 
ATOM     44  C   UNL A   1      41.263  28.852  32.571  1.00  0.00     0.074 A 
ATOM     45  C   UNL A   1      39.937  28.293  32.620  1.00  0.00     0.031 C 
ATOM     46  C   UNL A   1      41.322  27.556  26.221  1.00  0.00     0.029 A 
ATOM     47  C   UNL A   1      42.305  27.168  27.209  1.00  0.00     0.049 A 
ATOM     48  H   UNL A   1      42.568  27.975  29.120  1.00  0.00     0.167 HD
ATOM     49  C   UNL A   1      42.319  28.715  33.423  1.00  0.00     0.037 A 
ATOM     50  C   UNL A   1      43.283  26.241  27.115  1.00  0.00     0.037 A 
ATOM     51  C   UNL A   1      43.425  29.547  33.033  1.00  0.00     0.049 A 
ATOM     52  C   UNL A   1      44.253  26.526  28.197  1.00  0.00     0.074 A 
ATOM     53  C   UNL A   1      43.613  30.907  32.891  1.00  0.00     0.029 A 
ATOM     54  N   UNL A   1      44.476  28.964  32.369  1.00  0.00    -0.354 N 
ATOM     55  N   UNL A   1      44.979  27.611  28.253  1.00  0.00    -0.248 NA
ATOM     56  C   UNL A   1      44.079  25.824  29.459  1.00  0.00     0.031 C 
ATOM     57  C   UNL A   1      44.444  31.044  31.739  1.00  0.00     0.029 A 
ATOM     58  C   UNL A   1      44.753  29.761  31.287  1.00  0.00     0.049 A 
ATOM     59  H   UNL A   1      44.942  28.135  32.622  1.00  0.00     0.167 HD
ATOM     60  C   UNL A   1      45.006  27.951  29.597  1.00  0.00     0.074 A 
ATOM     61  C   UNL A   1      44.515  26.767  30.299  1.00  0.00     0.031 C 
ATOM     62  C   UNL A   1      45.149  29.251  29.996  1.00  0.00     0.037 A 
BRANCH  49  63
ATOM     63  C   UNL A   1      42.479  27.593  34.423  1.00  0.00     0.064 A 
ATOM     64  C   UNL A   1      43.024  26.361  34.008  1.00  0.00     0.173 A 
ATOM     65  C   UNL A   1      41.849  27.582  35.686  1.00  0.00     0.173 A 
ATOM     66  F   UNL A   1      43.628  26.247  32.815  1.00  0.00    -0.203 F 
ATOM     67  C   UNL A   1      42.884  25.195  34.768  1.00  0.00     0.198 A 
ATOM     68  C   UNL A   1      41.758  26.430  36.467  1.00  0.00     0.198 A 
ATOM     69  F   UNL A   1      41.200  28.652  36.163  1.00  0.00    -0.203 F 
ATOM     70  F   UNL A   1      43.310  24.023  34.277  1.00  0.00    -0.200 F 
ATOM     71  C   UNL A   1      42.247  25.230  35.995  1.00  0.00     0.200 A 
ATOM     72  F   UNL A   1      41.122  26.481  37.645  1.00  0.00    -0.200 F 
ATOM     73  F   UNL A   1      42.057  24.106  36.698  1.00  0.00    -0.200 F 
ENDBRANCH  49  63
BRANCH  50  74
ATOM     74  C   UNL A   1      43.233  24.970  26.362  1.00  0.00     0.064 A 
ATOM     75  C   UNL A   1      44.086  24.734  25.277  1.00  0.00     0.173 A 
ATOM     76  C   UNL A   1      42.517  23.859  26.855  1.00  0.00     0.173 A 
ATOM     77  F   UNL A   1      44.837  25.730  24.784  1.00  0.00    -0.203 F 
ATOM     78  C   UNL A   1      44.227  23.458  24.723  1.00  0.00     0.198 A 
ATOM     79  C   UNL A   1      42.656  22.587  26.300  1.00  0.00     0.198 A 
ATOM     80  F   UNL A   1      41.744  23.970  27.946  1.00  0.00    -0.203 F 
ATOM     81  F   UNL A   1      45.096  23.257  23.721  1.00  0.00    -0.200 F 
ATOM     82  C   UNL A   1      43.518  22.384  25.239  1.00  0.00     0.200 A 
ATOM     83  F   UNL A   1      42.004  21.549  26.843  1.00  0.00    -0.200 F 
ATOM     84  F   UNL A   1      43.702  21.150  24.748  1.00  0.00    -0.200 F 
ENDBRANCH  50  74
BRANCH  62  85
ATOM     85  C   UNL A   1      45.490  30.274  28.944  1.00  0.00     0.064 A 
ATOM     86  C   UNL A   1      44.527  31.026  28.248  1.00  0.00     0.173 A 
ATOM     87  C   UNL A   1      46.831  30.630  28.755  1.00  0.00     0.173 A 
ATOM     88  F   UNL A   1      43.223  30.831  28.455  1.00  0.00    -0.203 F 
ATOM     89  C   UNL A   1      44.887  32.050  27.374  1.00  0.00     0.198 A 
ATOM     90  C   UNL A   1      47.189  31.677  27.909  1.00  0.00     0.198 A 
ATOM     91  F   UNL A   1      47.795  29.997  29.441  1.00  0.00    -0.203 F 
ATOM     92  F   UNL A   1      43.940  32.743  26.725  1.00  0.00    -0.200 F 
ATOM     93  C   UNL A   1      46.219  32.380  27.211  1.00  0.00     0.200 A 
ATOM     94  F   UNL A   1      48.477  32.029  27.794  1.00  0.00    -0.200 F 
ATOM     95  F   UNL A   1      46.567  33.395  26.408  1.00  0.00    -0.200 F 
ENDBRANCH  62  85
ENDBRANCH  36  37
ENDBRANCH  28  31
ENDBRANCH  26  27
ENDBRANCH  25  26
ENDBRANCH   1  25
TORSDOF 16
ENDMDL
MODEL 3
REMARK VINA RESULT:     -12.0      4.302     10.481
REMARK SMILES CC[C@@H](C)[C@H](NC(=O)Cn1ccc(C(F)(F)F)n1)C(=O)NCCCNC(=O)c1ccc(-c2c3nc(c(-c4c(F)c(F)c(F)c(F)c4F)c4ccc([nH]4)c(-c4c(F)c(F)c(F)c(F)c4F)c4nc(c(-c5c(F)c(F)c(F)c(F)c5F)c5ccc2[nH]5)C=C4)C=C3)cc1
REMARK SMILES IDX 22 1 21 2 19 3 20 4 5 6 3 7 4 8 2 9 1 10 6 11 7 12 8 14 9 15
REMARK SMILES IDX 10 16 11 17 18 18 12 19 13 20 14 21 15 22 16 23 17 24 23 25
REMARK SMILES IDX 24 26 25 27 26 28 27 30 28 31 29 32 90 33 30 34 89 35 31 36
REMARK SMILES IDX 32 37 33 38 83 39 34 40 88 41 82 42 84 43 35 44 87 45 81 46
REMARK SMILES IDX 80 47 36 49 68 50 48 51 67 52 49 53 52 54 66 55 85 56 50 57
REMARK SMILES IDX 51 58 65 60 86 61 53 62 37 63 38 64 46 65 39 66 40 67 44 68
REMARK SMILES IDX 47 69 41 70 42 71 45 72 43 73 69 74 70 75 78 76 71 77 72 78
REMARK SMILES IDX 76 79 79 80 73 81 74 82 77 83 75 84 54 85 55 86 63 87 56 88
REMARK SMILES IDX 57 89 61 90 64 91 58 92 59 93 62 94 60 95
REMARK H PARENT 21 5 6 13 25 29 84 48 52 59
REMARK Flexibility Score: inf
ROOT
ATOM      1  C   UNL A   1      43.995  23.275  24.588  1.00  0.00     0.117 C 
ENDROOT
BRANCH   1   2
ATOM      2  N   UNL A   1      43.118  24.402  24.818  1.00  0.00    -0.354 N 
ATOM      3  C   UNL A   1      43.476  25.698  25.059  1.00  0.00     0.242 C 
ATOM      4  O   UNL A   1      42.693  26.586  24.714  1.00  0.00    -0.273 OA
ATOM      5  H   UNL A   1      42.151  24.214  24.799  1.00  0.00     0.163 HD
BRANCH   3   6
ATOM      6  C   UNL A   1      44.867  26.055  25.635  1.00  0.00     0.174 C 
BRANCH   6   7
ATOM      7  C   UNL A   1      44.965  25.780  27.195  1.00  0.00     0.018 C 
ATOM      8  C   UNL A   1      45.268  27.048  28.017  1.00  0.00     0.010 C 
BRANCH   7   9
ATOM      9  C   UNL A   1      45.828  24.544  27.604  1.00  0.00     0.002 C 
ATOM     10  C   UNL A   1      47.192  24.824  28.220  1.00  0.00     0.004 C 
ENDBRANCH   7   9
ENDBRANCH   6   7
BRANCH   6  11
ATOM     11  N   UNL A   1      45.335  27.400  25.245  1.00  0.00    -0.342 N 
ATOM     12  C   UNL A   1      46.571  27.977  25.323  1.00  0.00     0.242 C 
ATOM     13  H   UNL A   1      44.638  27.981  24.863  1.00  0.00     0.164 HD
ATOM     14  O   UNL A   1      46.609  29.209  25.226  1.00  0.00    -0.273 OA
BRANCH  12  15
ATOM     15  C   UNL A   1      47.854  27.183  25.394  1.00  0.00     0.243 C 
BRANCH  15  16
ATOM     16  N   UNL A   1      48.654  27.249  24.190  1.00  0.00    -0.263 N 
ATOM     17  C   UNL A   1      50.011  27.294  24.086  1.00  0.00     0.110 A 
ATOM     18  N   UNL A   1      48.028  27.287  23.000  1.00  0.00    -0.168 NA
ATOM     19  C   UNL A   1      50.286  27.193  22.744  1.00  0.00     0.055 A 
ATOM     20  C   UNL A   1      49.021  27.159  22.095  1.00  0.00     0.166 A 
BRANCH  20  21
ATOM     21  C   UNL A   1      48.789  27.002  20.615  1.00  0.00     0.435 C 
ATOM     22  F   UNL A   1      49.837  27.490  19.893  1.00  0.00    -0.164 F 
ATOM     23  F   UNL A   1      48.678  25.690  20.266  1.00  0.00    -0.164 F 
ATOM     24  F   UNL A   1      47.672  27.624  20.154  1.00  0.00    -0.164 F 
ENDBRANCH  20  21
ENDBRANCH  15  16
ENDBRANCH  12  15
ENDBRANCH   6  11
ENDBRANCH   3   6
ENDBRANCH   1   2
BRANCH   1  25
ATOM     25  C   UNL A   1      43.593  21.978  25.278  1.00  0.00     0.042 C 
BRANCH  25  26
ATOM     26  C   UNL A   1      42.840  22.241  26.564  1.00  0.00     0.118 C 
BRANCH  26  27
ATOM     27  N   UNL A   1      41.400  21.976  26.443  1.00  0.00    -0.352 N 
ATOM     28  C   UNL A   1      40.333  22.787  26.814  1.00  0.00     0.251 C 
ATOM     29  H   UNL A   1      41.158  21.109  26.045  1.00  0.00     0.163 HD
ATOM     30  O   UNL A   1      39.207  22.366  26.908  1.00  0.00    -0.269 OA
BRANCH  28  31
ATOM     31  C   UNL A   1      40.647  24.198  27.092  1.00  0.00     0.039 A 
ATOM     32  C   UNL A   1      39.973  25.247  26.462  1.00  0.00     0.014 A 
ATOM     33  C   UNL A   1      41.523  24.426  28.139  1.00  0.00     0.014 A 
ATOM     34  C   UNL A   1      40.121  26.536  26.973  1.00  0.00     0.010 A 
ATOM     35  C   UNL A   1      41.446  25.623  28.787  1.00  0.00     0.010 A 
ATOM     36  C   UNL A   1      40.848  26.712  28.156  1.00  0.00    -0.014 A 
BRANCH  36  37
ATOM     37  C   UNL A   1      41.006  28.010  28.806  1.00  0.00     0.031 A 
ATOM     38  C   UNL A   1      42.108  28.890  28.314  1.00  0.00     0.074 A 
ATOM     39  C   UNL A   1      40.009  28.489  29.586  1.00  0.00     0.049 A 
ATOM     40  N   UNL A   1      43.040  29.469  29.002  1.00  0.00    -0.248 NA
ATOM     41  C   UNL A   1      42.217  29.122  26.864  1.00  0.00     0.031 C 
ATOM     42  C   UNL A   1      38.711  27.864  29.902  1.00  0.00     0.029 A 
ATOM     43  N   UNL A   1      39.876  29.720  30.139  1.00  0.00    -0.354 N 
ATOM     44  C   UNL A   1      43.755  30.264  28.105  1.00  0.00     0.074 A 
ATOM     45  C   UNL A   1      43.291  29.911  26.789  1.00  0.00     0.031 C 
ATOM     46  C   UNL A   1      37.845  28.805  30.327  1.00  0.00     0.029 A 
ATOM     47  C   UNL A   1      38.582  30.034  30.526  1.00  0.00     0.049 A 
ATOM     48  H   UNL A   1      40.634  30.338  30.257  1.00  0.00     0.167 HD
ATOM     49  C   UNL A   1      44.532  31.304  28.526  1.00  0.00     0.037 A 
ATOM     50  C   UNL A   1      38.134  31.234  30.957  1.00  0.00     0.037 A 
ATOM     51  C   UNL A   1      44.836  31.203  29.929  1.00  0.00     0.049 A 
ATOM     52  C   UNL A   1      39.321  32.008  31.389  1.00  0.00     0.074 A 
ATOM     53  C   UNL A   1      45.502  30.282  30.713  1.00  0.00     0.029 A 
ATOM     54  N   UNL A   1      44.123  31.980  30.807  1.00  0.00    -0.354 N 
ATOM     55  N   UNL A   1      40.074  31.674  32.402  1.00  0.00    -0.248 NA
ATOM     56  C   UNL A   1      39.940  32.891  30.412  1.00  0.00     0.031 C 
ATOM     57  C   UNL A   1      44.756  30.229  31.929  1.00  0.00     0.029 A 
ATOM     58  C   UNL A   1      43.719  31.158  31.828  1.00  0.00     0.049 A 
ATOM     59  H   UNL A   1      43.939  32.943  30.722  1.00  0.00     0.167 HD
ATOM     60  C   UNL A   1      41.369  31.958  31.991  1.00  0.00     0.074 A 
ATOM     61  C   UNL A   1      41.215  32.789  30.799  1.00  0.00     0.031 C 
ATOM     62  C   UNL A   1      42.437  31.262  32.483  1.00  0.00     0.037 A 
BRANCH  49  63
ATOM     63  C   UNL A   1      44.753  32.583  27.752  1.00  0.00     0.064 A 
ATOM     64  C   UNL A   1      45.973  32.786  27.076  1.00  0.00     0.173 A 
ATOM     65  C   UNL A   1      43.941  33.727  27.896  1.00  0.00     0.173 A 
ATOM     66  F   UNL A   1      46.835  31.774  26.900  1.00  0.00    -0.203 F 
ATOM     67  C   UNL A   1      46.377  34.054  26.643  1.00  0.00     0.198 A 
ATOM     68  C   UNL A   1      44.321  34.980  27.414  1.00  0.00     0.198 A 
ATOM     69  F   UNL A   1      42.804  33.706  28.603  1.00  0.00    -0.203 F 
ATOM     70  F   UNL A   1      47.598  34.220  26.115  1.00  0.00    -0.200 F 
ATOM     71  C   UNL A   1      45.552  35.150  26.816  1.00  0.00     0.200 A 
ATOM     72  F   UNL A   1      43.516  36.033  27.608  1.00  0.00    -0.200 F 
ATOM     73  F   UNL A   1      45.960  36.374  26.458  1.00  0.00    -0.200 F 
ENDBRANCH  49  63
BRANCH  50  74
ATOM     74  C   UNL A   1      36.805  31.829  30.703  1.00  0.00     0.064 A 
ATOM     75  C   UNL A   1      35.903  32.064  31.748  1.00  0.00     0.173 A 
ATOM     76  C   UNL A   1      36.494  32.413  29.458  1.00  0.00     0.173 A 
ATOM     77  F   UNL A   1      36.156  31.583  32.974  1.00  0.00    -0.203 F 
ATOM     78  C   UNL A   1      34.761  32.850  31.564  1.00  0.00     0.198 A 
ATOM     79  C   UNL A   1      35.354  33.195  29.274  1.00  0.00     0.198 A 
ATOM     80  F   UNL A   1      37.343  32.316  28.424  1.00  0.00    -0.203 F 
ATOM     81  F   UNL A   1      33.950  33.102  32.601  1.00  0.00    -0.200 F 
ATOM     82  C   UNL A   1      34.491  33.421  30.330  1.00  0.00     0.200 A 
ATOM     83  F   UNL A   1      35.133  33.782  28.090  1.00  0.00    -0.200 F 
ATOM     84  F   UNL A   1      33.431  34.224  30.171  1.00  0.00    -0.200 F 
ENDBRANCH  50  74
BRANCH  62  85
ATOM     85  C   UNL A   1      42.193  30.325  33.637  1.00  0.00     0.064 A 
ATOM     86  C   UNL A   1      41.882  28.963  33.482  1.00  0.00     0.173 A 
ATOM     87  C   UNL A   1      42.450  30.774  34.939  1.00  0.00     0.173 A 
ATOM     88  F   UNL A   1      41.735  28.426  32.270  1.00  0.00    -0.203 F 
ATOM     89  C   UNL A   1      41.787  28.103  34.575  1.00  0.00     0.198 A 
ATOM     90  C   UNL A   1      42.390  29.906  36.027  1.00  0.00     0.198 A 
ATOM     91  F   UNL A   1      42.818  32.047  35.148  1.00  0.00    -0.203 F 
ATOM     92  F   UNL A   1      41.484  26.810  34.389  1.00  0.00    -0.200 F 
ATOM     93  C   UNL A   1      42.049  28.574  35.847  1.00  0.00     0.200 A 
ATOM     94  F   UNL A   1      42.696  30.354  37.252  1.00  0.00    -0.200 F 
ATOM     95  F   UNL A   1      42.006  27.741  36.896  1.00  0.00    -0.200 F 
ENDBRANCH  62  85
ENDBRANCH  36  37
ENDBRANCH  28  31
ENDBRANCH  26  27
ENDBRANCH  25  26
ENDBRANCH   1  25
TORSDOF 16
ENDMDL
