MODEL 1
REMARK VINA RESULT:     -14.6      0.000      0.000
REMARK SMILES CCc1nn2c(nnc3c(=O)n([C@H](C(=O)NCCCNC(=O)c4ccc(-c5c6nc(c(-c7c(F)c(F)c(F)c(F)c7F)c7ccc([nH]7)c(-c7c(F)c(F)c(F)c(F)c7F)c7nc(c(-c8c(F)c(F)c(F)c(F)c8F)c8ccc5[nH]8)C=C7)C=C6)cc4)C(C)C)ccc32)c1-c1ccc(Cl)cc1
REMARK SMILES IDX 18 1 17 2 16 3 14 4 15 5 13 7 12 8 3 9 4 10 92 11 5 12 6 13
REMARK SMILES IDX 91 14 7 15 9 16 90 17 8 18 10 19 89 20 11 21 2 22 1 23 93 24
REMARK SMILES IDX 94 25 99 26 95 27 98 28 96 29 97 30 86 31 87 32 88 33 19 34
REMARK SMILES IDX 20 35 21 36 22 38 23 39 24 40 85 41 25 42 84 43 26 44 27 45
REMARK SMILES IDX 28 46 78 47 29 48 83 49 77 50 79 51 30 52 82 53 76 54 75 55
REMARK SMILES IDX 31 57 63 58 43 59 62 60 44 61 47 62 61 63 80 64 45 65 46 66
REMARK SMILES IDX 60 68 81 69 48 70 32 71 33 72 41 73 34 74 35 75 39 76 42 77
REMARK SMILES IDX 36 78 37 79 40 80 38 81 64 82 65 83 73 84 66 85 67 86 71 87
REMARK SMILES IDX 74 88 68 89 69 90 72 91 70 92 49 93 50 94 58 95 51 96 52 97
REMARK SMILES IDX 56 98 59 99 53 100 54 101 57 102 55 103
REMARK H PARENT 16 6 20 37 79 56 47 67
REMARK Flexibility Score: inf
ROOT
ATOM      1  C   UNL A   1      36.803  22.775  26.350  1.00  0.00     0.042 C 
ENDROOT
BRANCH   1   2
ATOM      2  C   UNL A   1      36.608  21.606  25.385  1.00  0.00     0.117 C 
BRANCH   2   3
ATOM      3  N   UNL A   1      36.180  22.017  24.056  1.00  0.00    -0.354 N 
ATOM      4  C   UNL A   1      34.994  22.549  23.625  1.00  0.00     0.243 C 
ATOM      5  O   UNL A   1      34.963  22.931  22.454  1.00  0.00    -0.273 OA
ATOM      6  H   UNL A   1      36.855  21.893  23.351  1.00  0.00     0.163 HD
BRANCH   4   7
ATOM      7  C   UNL A   1      33.792  22.652  24.596  1.00  0.00     0.182 C 
BRANCH   7   8
ATOM      8  N   UNL A   1      33.324  24.062  24.636  1.00  0.00    -0.301 N 
ATOM      9  C   UNL A   1      31.395  30.014  25.380  1.00  0.00     0.073 A 
ATOM     10  N   UNL A   1      32.143  28.975  25.788  1.00  0.00    -0.170 NA
ATOM     11  C   UNL A   1      30.693  29.713  24.190  1.00  0.00     0.052 A 
ATOM     12  N   UNL A   1      31.928  27.999  24.857  1.00  0.00    -0.210 N 
ATOM     13  C   UNL A   1      31.042  28.421  23.878  1.00  0.00     0.186 A 
ATOM     14  C   UNL A   1      32.442  26.702  24.790  1.00  0.00     0.102 A 
ATOM     15  N   UNL A   1      30.680  27.595  22.857  1.00  0.00    -0.129 NA
ATOM     16  C   UNL A   1      32.013  25.954  23.755  1.00  0.00     0.177 A 
ATOM     17  C   UNL A   1      33.367  26.161  25.759  1.00  0.00     0.049 A 
ATOM     18  N   UNL A   1      31.134  26.425  22.801  1.00  0.00    -0.141 NA
ATOM     19  C   UNL A   1      32.467  24.531  23.629  1.00  0.00     0.281 A 
ATOM     20  C   UNL A   1      33.773  24.891  25.656  1.00  0.00     0.092 A 
ATOM     21  O   UNL A   1      32.045  23.846  22.700  1.00  0.00    -0.267 OA
BRANCH   9  22
ATOM     22  C   UNL A   1      31.314  31.290  26.161  1.00  0.00     0.055 C 
ATOM     23  C   UNL A   1      32.441  31.525  27.155  1.00  0.00     0.011 C 
ENDBRANCH   9  22
BRANCH  11  24
ATOM     24  C   UNL A   1      29.785  30.473  23.362  1.00  0.00    -0.013 A 
ATOM     25  C   UNL A   1      29.212  31.650  23.854  1.00  0.00     0.010 A 
ATOM     26  C   UNL A   1      29.581  30.100  22.028  1.00  0.00     0.010 A 
ATOM     27  C   UNL A   1      28.453  32.460  23.006  1.00  0.00     0.021 A 
ATOM     28  C   UNL A   1      28.822  30.910  21.183  1.00  0.00     0.021 A 
ATOM     29  C   UNL A   1      28.267  32.091  21.674  1.00  0.00     0.041 A 
ATOM     30  Cl  UNL A   1      27.366  33.111  20.623  1.00  0.00    -0.084 Cl
ENDBRANCH  11  24
ENDBRANCH   7   8
BRANCH   7  31
ATOM     31  C   UNL A   1      32.660  21.616  24.342  1.00  0.00     0.015 C 
ATOM     32  C   UNL A   1      33.151  20.176  24.224  1.00  0.00     0.010 C 
ATOM     33  C   UNL A   1      31.625  21.684  25.473  1.00  0.00     0.010 C 
ENDBRANCH   7  31
ENDBRANCH   4   7
ENDBRANCH   2   3
ENDBRANCH   1   2
BRANCH   1  34
ATOM     34  C   UNL A   1      38.090  23.520  26.094  1.00  0.00     0.118 C 
BRANCH  34  35
ATOM     35  N   UNL A   1      39.269  22.655  26.130  1.00  0.00    -0.352 N 
ATOM     36  C   UNL A   1      40.563  23.031  26.416  1.00  0.00     0.251 C 
ATOM     37  H   UNL A   1      39.123  21.703  25.928  1.00  0.00     0.163 HD
ATOM     38  O   UNL A   1      41.519  22.304  26.136  1.00  0.00    -0.269 OA
BRANCH  36  39
ATOM     39  C   UNL A   1      40.774  24.314  27.099  1.00  0.00     0.039 A 
ATOM     40  C   UNL A   1      41.628  24.456  28.195  1.00  0.00     0.014 A 
ATOM     41  C   UNL A   1      40.078  25.407  26.588  1.00  0.00     0.014 A 
ATOM     42  C   UNL A   1      41.757  25.716  28.769  1.00  0.00     0.010 A 
ATOM     43  C   UNL A   1      40.403  26.666  26.977  1.00  0.00     0.010 A 
ATOM     44  C   UNL A   1      41.115  26.800  28.155  1.00  0.00    -0.014 A 
BRANCH  44  45
ATOM     45  C   UNL A   1      41.103  28.134  28.713  1.00  0.00     0.031 A 
ATOM     46  C   UNL A   1      42.160  29.031  28.201  1.00  0.00     0.074 A 
ATOM     47  C   UNL A   1      40.032  28.562  29.418  1.00  0.00     0.049 A 
ATOM     48  N   UNL A   1      43.130  29.554  28.871  1.00  0.00    -0.248 NA
ATOM     49  C   UNL A   1      42.233  29.269  26.751  1.00  0.00     0.031 C 
ATOM     50  C   UNL A   1      38.768  27.867  29.709  1.00  0.00     0.029 A 
ATOM     51  N   UNL A   1      39.825  29.786  29.963  1.00  0.00    -0.354 N 
ATOM     52  C   UNL A   1      43.848  30.325  27.964  1.00  0.00     0.074 A 
ATOM     53  C   UNL A   1      43.360  29.976  26.655  1.00  0.00     0.031 C 
ATOM     54  C   UNL A   1      37.865  28.748  30.198  1.00  0.00     0.029 A 
ATOM     55  C   UNL A   1      38.528  30.021  30.401  1.00  0.00     0.049 A 
ATOM     56  H   UNL A   1      40.541  30.457  30.042  1.00  0.00     0.167 HD
ATOM     57  C   UNL A   1      44.647  31.344  28.384  1.00  0.00     0.037 A 
ATOM     58  C   UNL A   1      38.055  31.207  30.862  1.00  0.00     0.037 A 
ATOM     59  C   UNL A   1      44.893  31.261  29.801  1.00  0.00     0.049 A 
ATOM     60  C   UNL A   1      39.242  32.010  31.265  1.00  0.00     0.074 A 
ATOM     61  C   UNL A   1      45.536  30.342  30.608  1.00  0.00     0.029 A 
ATOM     62  N   UNL A   1      44.079  31.984  30.641  1.00  0.00    -0.354 N 
ATOM     63  N   UNL A   1      40.020  31.687  32.264  1.00  0.00    -0.248 NA
ATOM     64  C   UNL A   1      39.849  32.862  30.251  1.00  0.00     0.031 C 
ATOM     65  C   UNL A   1      44.716  30.232  31.772  1.00  0.00     0.029 A 
ATOM     66  C   UNL A   1      43.667  31.144  31.648  1.00  0.00     0.049 A 
ATOM     67  H   UNL A   1      43.835  32.933  30.539  1.00  0.00     0.167 HD
ATOM     68  C   UNL A   1      41.308  31.935  31.810  1.00  0.00     0.074 A 
ATOM     69  C   UNL A   1      41.136  32.715  30.584  1.00  0.00     0.031 C 
ATOM     70  C   UNL A   1      42.377  31.236  32.295  1.00  0.00     0.037 A 
BRANCH  57  71
ATOM     71  C   UNL A   1      44.959  32.569  27.572  1.00  0.00     0.064 A 
ATOM     72  C   UNL A   1      46.200  32.673  26.915  1.00  0.00     0.173 A 
ATOM     73  C   UNL A   1      44.190  33.752  27.617  1.00  0.00     0.173 A 
ATOM     74  F   UNL A   1      47.023  31.616  26.839  1.00  0.00    -0.203 F 
ATOM     75  C   UNL A   1      46.653  33.883  26.384  1.00  0.00     0.198 A 
ATOM     76  C   UNL A   1      44.621  34.944  27.036  1.00  0.00     0.198 A 
ATOM     77  F   UNL A   1      43.050  33.831  28.312  1.00  0.00    -0.203 F 
ATOM     78  F   UNL A   1      47.884  33.961  25.861  1.00  0.00    -0.200 F 
ATOM     79  C   UNL A   1      45.863  35.017  26.444  1.00  0.00     0.200 A 
ATOM     80  F   UNL A   1      43.847  36.035  27.123  1.00  0.00    -0.200 F 
ATOM     81  F   UNL A   1      46.314  36.188  25.977  1.00  0.00    -0.200 F 
ENDBRANCH  57  71
BRANCH  58  82
ATOM     82  C   UNL A   1      36.718  31.810  30.643  1.00  0.00     0.064 A 
ATOM     83  C   UNL A   1      35.875  32.119  31.723  1.00  0.00     0.173 A 
ATOM     84  C   UNL A   1      36.366  32.366  29.397  1.00  0.00     0.173 A 
ATOM     85  F   UNL A   1      36.161  31.665  32.952  1.00  0.00    -0.203 F 
ATOM     86  C   UNL A   1      34.766  32.960  31.572  1.00  0.00     0.198 A 
ATOM     87  C   UNL A   1      35.259  33.203  29.247  1.00  0.00     0.198 A 
ATOM     88  F   UNL A   1      37.146  32.187  28.321  1.00  0.00    -0.203 F 
ATOM     89  F   UNL A   1      34.020  33.284  32.638  1.00  0.00    -0.200 F 
ATOM     90  C   UNL A   1      34.467  33.512  30.338  1.00  0.00     0.200 A 
ATOM     91  F   UNL A   1      35.004  33.760  28.055  1.00  0.00    -0.200 F 
ATOM     92  F   UNL A   1      33.447  34.373  30.206  1.00  0.00    -0.200 F 
ENDBRANCH  58  82
BRANCH  70  93
ATOM     93  C   UNL A   1      42.128  30.315  33.466  1.00  0.00     0.064 A 
ATOM     94  C   UNL A   1      41.796  28.952  33.337  1.00  0.00     0.173 A 
ATOM     95  C   UNL A   1      42.362  30.787  34.761  1.00  0.00     0.173 A 
ATOM     96  F   UNL A   1      41.664  28.388  32.133  1.00  0.00    -0.203 F 
ATOM     97  C   UNL A   1      41.653  28.123  34.448  1.00  0.00     0.198 A 
ATOM     98  C   UNL A   1      42.256  29.948  35.869  1.00  0.00     0.198 A 
ATOM     99  F   UNL A   1      42.747  32.058  34.951  1.00  0.00    -0.203 F 
ATOM    100  F   UNL A   1      41.321  26.832  34.286  1.00  0.00    -0.200 F 
ATOM    101  C   UNL A   1      41.888  28.621  35.715  1.00  0.00     0.200 A 
ATOM    102  F   UNL A   1      42.537  30.422  37.091  1.00  0.00    -0.200 F 
ATOM    103  F   UNL A   1      41.787  27.818  36.784  1.00  0.00    -0.200 F 
ENDBRANCH  70  93
ENDBRANCH  44  45
ENDBRANCH  36  39
ENDBRANCH  34  35
ENDBRANCH   1  34
TORSDOF 14
ENDMDL
MODEL 2
REMARK VINA RESULT:     -14.1      5.428      9.752
REMARK SMILES CCc1nn2c(nnc3c(=O)n([C@H](C(=O)NCCCNC(=O)c4ccc(-c5c6nc(c(-c7c(F)c(F)c(F)c(F)c7F)c7ccc([nH]7)c(-c7c(F)c(F)c(F)c(F)c7F)c7nc(c(-c8c(F)c(F)c(F)c(F)c8F)c8ccc5[nH]8)C=C7)C=C6)cc4)C(C)C)ccc32)c1-c1ccc(Cl)cc1
REMARK SMILES IDX 18 1 17 2 16 3 14 4 15 5 13 7 12 8 3 9 4 10 92 11 5 12 6 13
REMARK SMILES IDX 91 14 7 15 9 16 90 17 8 18 10 19 89 20 11 21 2 22 1 23 93 24
REMARK SMILES IDX 94 25 99 26 95 27 98 28 96 29 97 30 86 31 87 32 88 33 19 34
REMARK SMILES IDX 20 35 21 36 22 38 23 39 24 40 85 41 25 42 84 43 26 44 27 45
REMARK SMILES IDX 28 46 78 47 29 48 83 49 77 50 79 51 30 52 82 53 76 54 75 55
REMARK SMILES IDX 31 57 63 58 43 59 62 60 44 61 47 62 61 63 80 64 45 65 46 66
REMARK SMILES IDX 60 68 81 69 48 70 32 71 33 72 41 73 34 74 35 75 39 76 42 77
REMARK SMILES IDX 36 78 37 79 40 80 38 81 64 82 65 83 73 84 66 85 67 86 71 87
REMARK SMILES IDX 74 88 68 89 69 90 72 91 70 92 49 93 50 94 58 95 51 96 52 97
REMARK SMILES IDX 56 98 59 99 53 100 54 101 57 102 55 103
REMARK H PARENT 16 6 20 37 79 56 47 67
REMARK Flexibility Score: inf
ROOT
ATOM      1  C   UNL A   1      44.426  23.021  24.859  1.00  0.00     0.042 C 
ENDROOT
BRANCH   1   2
ATOM      2  C   UNL A   1      45.564  24.027  25.024  1.00  0.00     0.117 C 
BRANCH   2   3
ATOM      3  N   UNL A   1      45.108  25.407  25.113  1.00  0.00    -0.354 N 
ATOM      4  C   UNL A   1      45.680  26.500  25.708  1.00  0.00     0.243 C 
ATOM      5  O   UNL A   1      45.126  27.582  25.504  1.00  0.00    -0.273 OA
ATOM      6  H   UNL A   1      44.247  25.583  24.672  1.00  0.00     0.163 HD
BRANCH   4   7
ATOM      7  C   UNL A   1      46.955  26.334  26.571  1.00  0.00     0.182 C 
BRANCH   7   8
ATOM      8  N   UNL A   1      46.558  25.940  27.948  1.00  0.00    -0.301 N 
ATOM      9  C   UNL A   1      44.388  24.056  33.555  1.00  0.00     0.073 A 
ATOM     10  N   UNL A   1      44.464  23.893  32.224  1.00  0.00    -0.170 NA
ATOM     11  C   UNL A   1      45.181  25.143  33.991  1.00  0.00     0.052 A 
ATOM     12  N   UNL A   1      45.313  24.874  31.796  1.00  0.00    -0.210 N 
ATOM     13  C   UNL A   1      45.757  25.653  32.852  1.00  0.00     0.186 A 
ATOM     14  C   UNL A   1      45.742  25.180  30.503  1.00  0.00     0.102 A 
ATOM     15  N   UNL A   1      46.605  26.698  32.644  1.00  0.00    -0.129 NA
ATOM     16  C   UNL A   1      46.565  26.241  30.393  1.00  0.00     0.177 A 
ATOM     17  C   UNL A   1      45.337  24.436  29.332  1.00  0.00     0.049 A 
ATOM     18  N   UNL A   1      46.984  26.982  31.481  1.00  0.00    -0.141 NA
ATOM     19  C   UNL A   1      47.034  26.681  29.040  1.00  0.00     0.281 A 
ATOM     20  C   UNL A   1      45.748  24.825  28.120  1.00  0.00     0.092 A 
ATOM     21  O   UNL A   1      47.759  27.669  28.947  1.00  0.00    -0.267 OA
BRANCH   9  22
ATOM     22  C   UNL A   1      43.511  23.195  34.413  1.00  0.00     0.055 C 
ATOM     23  C   UNL A   1      42.382  23.917  35.131  1.00  0.00     0.011 C 
ENDBRANCH   9  22
BRANCH  11  24
ATOM     24  C   UNL A   1      45.442  25.712  35.293  1.00  0.00    -0.013 A 
ATOM     25  C   UNL A   1      44.763  26.864  35.699  1.00  0.00     0.010 A 
ATOM     26  C   UNL A   1      46.279  25.039  36.192  1.00  0.00     0.010 A 
ATOM     27  C   UNL A   1      44.905  27.329  37.009  1.00  0.00     0.021 A 
ATOM     28  C   UNL A   1      46.421  25.506  37.499  1.00  0.00     0.021 A 
ATOM     29  C   UNL A   1      45.727  26.645  37.904  1.00  0.00     0.041 A 
ATOM     30  Cl  UNL A   1      45.868  27.197  39.526  1.00  0.00    -0.084 Cl
ENDBRANCH  11  24
ENDBRANCH   7   8
BRANCH   7  31
ATOM     31  C   UNL A   1      48.051  25.424  25.944  1.00  0.00     0.015 C 
ATOM     32  C   UNL A   1      48.623  25.956  24.633  1.00  0.00     0.010 C 
ATOM     33  C   UNL A   1      49.206  25.237  26.936  1.00  0.00     0.010 C 
ENDBRANCH   7  31
ENDBRANCH   4   7
ENDBRANCH   2   3
ENDBRANCH   1   2
BRANCH   1  34
ATOM     34  C   UNL A   1      43.069  23.661  25.014  1.00  0.00     0.118 C 
BRANCH  34  35
ATOM     35  N   UNL A   1      42.058  22.742  25.536  1.00  0.00    -0.352 N 
ATOM     36  C   UNL A   1      41.223  22.955  26.612  1.00  0.00     0.251 C 
ATOM     37  H   UNL A   1      41.964  21.881  25.071  1.00  0.00     0.163 HD
ATOM     38  O   UNL A   1      40.623  22.024  27.151  1.00  0.00    -0.269 OA
BRANCH  36  39
ATOM     39  C   UNL A   1      41.040  24.335  27.081  1.00  0.00     0.039 A 
ATOM     40  C   UNL A   1      40.083  25.197  26.540  1.00  0.00     0.014 A 
ATOM     41  C   UNL A   1      41.872  24.749  28.118  1.00  0.00     0.014 A 
ATOM     42  C   UNL A   1      39.991  26.484  27.058  1.00  0.00     0.010 A 
ATOM     43  C   UNL A   1      41.606  25.900  28.789  1.00  0.00     0.010 A 
ATOM     44  C   UNL A   1      40.780  26.818  28.167  1.00  0.00    -0.014 A 
BRANCH  44  45
ATOM     45  C   UNL A   1      40.836  28.149  28.729  1.00  0.00     0.031 A 
ATOM     46  C   UNL A   1      41.929  28.997  28.209  1.00  0.00     0.074 A 
ATOM     47  C   UNL A   1      39.793  28.625  29.446  1.00  0.00     0.049 A 
ATOM     48  N   UNL A   1      42.930  29.472  28.870  1.00  0.00    -0.248 NA
ATOM     49  C   UNL A   1      41.999  29.236  26.759  1.00  0.00     0.031 C 
ATOM     50  C   UNL A   1      38.501  27.989  29.748  1.00  0.00     0.029 A 
ATOM     51  N   UNL A   1      39.650  29.855  29.996  1.00  0.00    -0.354 N 
ATOM     52  C   UNL A   1      43.674  30.211  27.958  1.00  0.00     0.074 A 
ATOM     53  C   UNL A   1      43.157  29.890  26.653  1.00  0.00     0.031 C 
ATOM     54  C   UNL A   1      37.646  28.910  30.249  1.00  0.00     0.029 A 
ATOM     55  C   UNL A   1      38.369  30.150  30.448  1.00  0.00     0.049 A 
ATOM     56  H   UNL A   1      40.398  30.491  30.070  1.00  0.00     0.167 HD
ATOM     57  C   UNL A   1      44.525  31.189  28.373  1.00  0.00     0.037 A 
ATOM     58  C   UNL A   1      37.958  31.355  30.917  1.00  0.00     0.037 A 
ATOM     59  C   UNL A   1      44.780  31.091  29.787  1.00  0.00     0.049 A 
ATOM     60  C   UNL A   1      39.186  32.100  31.310  1.00  0.00     0.074 A 
ATOM     61  C   UNL A   1      45.387  30.140  30.586  1.00  0.00     0.029 A 
ATOM     62  N   UNL A   1      44.009  31.849  30.637  1.00  0.00    -0.354 N 
ATOM     63  N   UNL A   1      39.957  31.738  32.301  1.00  0.00    -0.248 NA
ATOM     64  C   UNL A   1      39.821  32.926  30.292  1.00  0.00     0.031 C 
ATOM     65  C   UNL A   1      44.574  30.066  31.757  1.00  0.00     0.029 A 
ATOM     66  C   UNL A   1      43.569  31.026  31.646  1.00  0.00     0.049 A 
ATOM     67  H   UNL A   1      43.809  32.808  30.540  1.00  0.00     0.167 HD
ATOM     68  C   UNL A   1      41.251  31.927  31.834  1.00  0.00     0.074 A 
ATOM     69  C   UNL A   1      41.103  32.718  30.612  1.00  0.00     0.031 C 
ATOM     70  C   UNL A   1      42.290  31.176  32.307  1.00  0.00     0.037 A 
BRANCH  57  71
ATOM     71  C   UNL A   1      44.885  32.401  27.561  1.00  0.00     0.064 A 
ATOM     72  C   UNL A   1      46.139  32.465  26.923  1.00  0.00     0.173 A 
ATOM     73  C   UNL A   1      44.152  33.607  27.589  1.00  0.00     0.173 A 
ATOM     74  F   UNL A   1      46.931  31.384  26.865  1.00  0.00    -0.203 F 
ATOM     75  C   UNL A   1      46.636  33.659  26.395  1.00  0.00     0.198 A 
ATOM     76  C   UNL A   1      44.627  34.783  27.011  1.00  0.00     0.198 A 
ATOM     77  F   UNL A   1      43.004  33.724  28.266  1.00  0.00    -0.203 F 
ATOM     78  F   UNL A   1      47.878  33.698  25.892  1.00  0.00    -0.200 F 
ATOM     79  C   UNL A   1      45.879  34.817  26.438  1.00  0.00     0.200 A 
ATOM     80  F   UNL A   1      43.885  35.898  27.081  1.00  0.00    -0.200 F 
ATOM     81  F   UNL A   1      46.373  35.972  25.973  1.00  0.00    -0.200 F 
ENDBRANCH  57  71
BRANCH  58  82
ATOM     82  C   UNL A   1      36.649  32.021  30.713  1.00  0.00     0.064 A 
ATOM     83  C   UNL A   1      35.769  32.238  31.786  1.00  0.00     0.173 A 
ATOM     84  C   UNL A   1      36.366  32.720  29.523  1.00  0.00     0.173 A 
ATOM     85  F   UNL A   1      35.989  31.644  32.968  1.00  0.00    -0.203 F 
ATOM     86  C   UNL A   1      34.691  33.126  31.685  1.00  0.00     0.198 A 
ATOM     87  C   UNL A   1      35.290  33.603  29.422  1.00  0.00     0.198 A 
ATOM     88  F   UNL A   1      37.185  32.634  28.465  1.00  0.00    -0.203 F 
ATOM     89  F   UNL A   1      33.910  33.356  32.750  1.00  0.00    -0.200 F 
ATOM     90  C   UNL A   1      34.461  33.818  30.508  1.00  0.00     0.200 A 
ATOM     91  F   UNL A   1      35.101  34.295  28.289  1.00  0.00    -0.200 F 
ATOM     92  F   UNL A   1      33.472  34.720  30.432  1.00  0.00    -0.200 F 
ENDBRANCH  58  82
BRANCH  70  93
ATOM     93  C   UNL A   1      42.010  30.264  33.477  1.00  0.00     0.064 A 
ATOM     94  C   UNL A   1      41.637  28.913  33.348  1.00  0.00     0.173 A 
ATOM     95  C   UNL A   1      42.255  30.730  34.773  1.00  0.00     0.173 A 
ATOM     96  F   UNL A   1      41.490  28.352  32.145  1.00  0.00    -0.203 F 
ATOM     97  C   UNL A   1      41.465  28.089  34.459  1.00  0.00     0.198 A 
ATOM     98  C   UNL A   1      42.120  29.896  35.881  1.00  0.00     0.198 A 
ATOM     99  F   UNL A   1      42.678  31.989  34.963  1.00  0.00    -0.203 F 
ATOM    100  F   UNL A   1      41.094  26.809  34.297  1.00  0.00    -0.200 F 
ATOM    101  C   UNL A   1      41.712  28.581  35.727  1.00  0.00     0.200 A 
ATOM    102  F   UNL A   1      42.413  30.362  37.104  1.00  0.00    -0.200 F 
ATOM    103  F   UNL A   1      41.583  27.782  36.796  1.00  0.00    -0.200 F 
ENDBRANCH  70  93
ENDBRANCH  44  45
ENDBRANCH  36  39
ENDBRANCH  34  35
ENDBRANCH   1  34
TORSDOF 14
ENDMDL
MODEL 3
REMARK VINA RESULT:     -13.8      5.518     10.364
REMARK SMILES CCc1nn2c(nnc3c(=O)n([C@H](C(=O)NCCCNC(=O)c4ccc(-c5c6nc(c(-c7c(F)c(F)c(F)c(F)c7F)c7ccc([nH]7)c(-c7c(F)c(F)c(F)c(F)c7F)c7nc(c(-c8c(F)c(F)c(F)c(F)c8F)c8ccc5[nH]8)C=C7)C=C6)cc4)C(C)C)ccc32)c1-c1ccc(Cl)cc1
REMARK SMILES IDX 18 1 17 2 16 3 14 4 15 5 13 7 12 8 3 9 4 10 92 11 5 12 6 13
REMARK SMILES IDX 91 14 7 15 9 16 90 17 8 18 10 19 89 20 11 21 2 22 1 23 93 24
REMARK SMILES IDX 94 25 99 26 95 27 98 28 96 29 97 30 86 31 87 32 88 33 19 34
REMARK SMILES IDX 20 35 21 36 22 38 23 39 24 40 85 41 25 42 84 43 26 44 27 45
REMARK SMILES IDX 28 46 78 47 29 48 83 49 77 50 79 51 30 52 82 53 76 54 75 55
REMARK SMILES IDX 31 57 63 58 43 59 62 60 44 61 47 62 61 63 80 64 45 65 46 66
REMARK SMILES IDX 60 68 81 69 48 70 32 71 33 72 41 73 34 74 35 75 39 76 42 77
REMARK SMILES IDX 36 78 37 79 40 80 38 81 64 82 65 83 73 84 66 85 67 86 71 87
REMARK SMILES IDX 74 88 68 89 69 90 72 91 70 92 49 93 50 94 58 95 51 96 52 97
REMARK SMILES IDX 56 98 59 99 53 100 54 101 57 102 55 103
REMARK H PARENT 16 6 20 37 79 56 47 67
REMARK Flexibility Score: inf
ROOT
ATOM      1  C   UNL A   1      44.633  23.124  25.186  1.00  0.00     0.042 C 
ENDROOT
BRANCH   1   2
ATOM      2  C   UNL A   1      45.041  23.008  26.654  1.00  0.00     0.117 C 
BRANCH   2   3
ATOM      3  N   UNL A   1      46.306  23.662  26.956  1.00  0.00    -0.354 N 
ATOM      4  C   UNL A   1      46.589  24.724  27.773  1.00  0.00     0.243 C 
ATOM      5  O   UNL A   1      47.783  24.977  27.941  1.00  0.00    -0.273 OA
ATOM      6  H   UNL A   1      47.087  23.278  26.497  1.00  0.00     0.163 HD
BRANCH   4   7
ATOM      7  C   UNL A   1      45.438  25.522  28.434  1.00  0.00     0.182 C 
BRANCH   7   8
ATOM      8  N   UNL A   1      45.692  25.614  29.895  1.00  0.00    -0.301 N 
ATOM      9  C   UNL A   1      47.274  26.251  35.961  1.00  0.00     0.073 A 
ATOM     10  N   UNL A   1      47.335  26.687  34.692  1.00  0.00    -0.170 NA
ATOM     11  C   UNL A   1      46.438  25.116  36.080  1.00  0.00     0.052 A 
ATOM     12  N   UNL A   1      46.534  25.835  33.986  1.00  0.00    -0.210 N 
ATOM     13  C   UNL A   1      45.983  24.865  34.808  1.00  0.00     0.186 A 
ATOM     14  C   UNL A   1      46.240  25.812  32.621  1.00  0.00     0.102 A 
ATOM     15  N   UNL A   1      45.158  23.904  34.302  1.00  0.00    -0.129 NA
ATOM     16  C   UNL A   1      45.431  24.816  32.212  1.00  0.00     0.177 A 
ATOM     17  C   UNL A   1      46.765  26.772  31.678  1.00  0.00     0.049 A 
ATOM     18  N   UNL A   1      44.902  23.876  33.074  1.00  0.00    -0.141 NA
ATOM     19  C   UNL A   1      45.104  24.675  30.756  1.00  0.00     0.281 A 
ATOM     20  C   UNL A   1      46.481  26.651  30.376  1.00  0.00     0.092 A 
ATOM     21  O   UNL A   1      44.392  23.744  30.387  1.00  0.00    -0.267 OA
BRANCH   9  22
ATOM     22  C   UNL A   1      48.058  26.896  37.062  1.00  0.00     0.055 C 
ATOM     23  C   UNL A   1      49.110  27.901  36.619  1.00  0.00     0.011 C 
ENDBRANCH   9  22
BRANCH  11  24
ATOM     24  C   UNL A   1      46.043  24.296  37.202  1.00  0.00    -0.013 A 
ATOM     25  C   UNL A   1      46.397  22.944  37.237  1.00  0.00     0.010 A 
ATOM     26  C   UNL A   1      45.419  24.885  38.308  1.00  0.00     0.010 A 
ATOM     27  C   UNL A   1      46.144  22.189  38.384  1.00  0.00     0.021 A 
ATOM     28  C   UNL A   1      45.166  24.129  39.454  1.00  0.00     0.021 A 
ATOM     29  C   UNL A   1      45.536  22.786  39.489  1.00  0.00     0.041 A 
ATOM     30  Cl  UNL A   1      45.263  21.864  40.915  1.00  0.00    -0.084 Cl
ENDBRANCH  11  24
ENDBRANCH   7   8
BRANCH   7  31
ATOM     31  C   UNL A   1      45.124  26.889  27.759  1.00  0.00     0.015 C 
ATOM     32  C   UNL A   1      46.360  27.734  27.465  1.00  0.00     0.010 C 
ATOM     33  C   UNL A   1      44.369  26.662  26.443  1.00  0.00     0.010 C 
ENDBRANCH   7  31
ENDBRANCH   4   7
ENDBRANCH   2   3
ENDBRANCH   1   2
BRANCH   1  34
ATOM     34  C   UNL A   1      43.238  23.674  25.020  1.00  0.00     0.118 C 
BRANCH  34  35
ATOM     35  N   UNL A   1      42.203  22.774  25.531  1.00  0.00    -0.352 N 
ATOM     36  C   UNL A   1      41.344  23.013  26.580  1.00  0.00     0.251 C 
ATOM     37  H   UNL A   1      42.111  21.907  25.076  1.00  0.00     0.163 HD
ATOM     38  O   UNL A   1      40.719  22.097  27.118  1.00  0.00    -0.269 OA
BRANCH  36  39
ATOM     39  C   UNL A   1      41.164  24.401  27.024  1.00  0.00     0.039 A 
ATOM     40  C   UNL A   1      40.392  25.327  26.319  1.00  0.00     0.014 A 
ATOM     41  C   UNL A   1      41.803  24.758  28.210  1.00  0.00     0.014 A 
ATOM     42  C   UNL A   1      40.287  26.618  26.827  1.00  0.00     0.010 A 
ATOM     43  C   UNL A   1      41.488  25.923  28.832  1.00  0.00     0.010 A 
ATOM     44  C   UNL A   1      40.864  26.896  28.073  1.00  0.00    -0.014 A 
BRANCH  44  45
ATOM     45  C   UNL A   1      40.897  28.219  28.654  1.00  0.00     0.031 A 
ATOM     46  C   UNL A   1      41.975  29.093  28.146  1.00  0.00     0.074 A 
ATOM     47  C   UNL A   1      39.846  28.668  29.377  1.00  0.00     0.049 A 
ATOM     48  N   UNL A   1      42.968  29.576  28.814  1.00  0.00    -0.248 NA
ATOM     49  C   UNL A   1      42.041  29.354  26.700  1.00  0.00     0.031 C 
ATOM     50  C   UNL A   1      38.565  28.006  29.670  1.00  0.00     0.029 A 
ATOM     51  N   UNL A   1      39.682  29.887  29.945  1.00  0.00    -0.354 N 
ATOM     52  C   UNL A   1      43.700  30.340  27.913  1.00  0.00     0.074 A 
ATOM     53  C   UNL A   1      43.188  30.028  26.603  1.00  0.00     0.031 C 
ATOM     54  C   UNL A   1      37.694  28.905  30.184  1.00  0.00     0.029 A 
ATOM     55  C   UNL A   1      38.397  30.154  30.400  1.00  0.00     0.049 A 
ATOM     56  H   UNL A   1      40.419  30.535  30.028  1.00  0.00     0.167 HD
ATOM     57  C   UNL A   1      44.533  31.327  28.341  1.00  0.00     0.037 A 
ATOM     58  C   UNL A   1      37.965  31.346  30.886  1.00  0.00     0.037 A 
ATOM     59  C   UNL A   1      44.791  31.212  29.754  1.00  0.00     0.049 A 
ATOM     60  C   UNL A   1      39.180  32.106  31.290  1.00  0.00     0.074 A 
ATOM     61  C   UNL A   1      45.414  30.261  30.539  1.00  0.00     0.029 A 
ATOM     62  N   UNL A   1      44.007  31.946  30.614  1.00  0.00    -0.354 N 
ATOM     63  N   UNL A   1      39.957  31.742  32.276  1.00  0.00    -0.248 NA
ATOM     64  C   UNL A   1      39.802  32.956  30.284  1.00  0.00     0.031 C 
ATOM     65  C   UNL A   1      44.602  30.156  31.709  1.00  0.00     0.029 A 
ATOM     66  C   UNL A   1      43.580  31.101  31.612  1.00  0.00     0.049 A 
ATOM     67  H   UNL A   1      43.791  32.903  30.531  1.00  0.00     0.167 HD
ATOM     68  C   UNL A   1      41.248  31.960  31.811  1.00  0.00     0.074 A 
ATOM     69  C   UNL A   1      41.087  32.765  30.601  1.00  0.00     0.031 C 
ATOM     70  C   UNL A   1      42.300  31.220  32.274  1.00  0.00     0.037 A 
BRANCH  57  71
ATOM     71  C   UNL A   1      44.874  32.556  27.546  1.00  0.00     0.064 A 
ATOM     72  C   UNL A   1      46.111  32.634  26.879  1.00  0.00     0.173 A 
ATOM     73  C   UNL A   1      44.141  33.760  27.618  1.00  0.00     0.173 A 
ATOM     74  F   UNL A   1      46.901  31.555  26.779  1.00  0.00    -0.203 F 
ATOM     75  C   UNL A   1      46.595  33.839  26.365  1.00  0.00     0.198 A 
ATOM     76  C   UNL A   1      44.601  34.948  27.054  1.00  0.00     0.198 A 
ATOM     77  F   UNL A   1      43.010  33.861  28.326  1.00  0.00    -0.203 F 
ATOM     78  F   UNL A   1      47.823  33.890  25.831  1.00  0.00    -0.200 F 
ATOM     79  C   UNL A   1      45.839  34.995  26.451  1.00  0.00     0.200 A 
ATOM     80  F   UNL A   1      43.861  36.061  27.166  1.00  0.00    -0.200 F 
ATOM     81  F   UNL A   1      46.321  36.160  25.999  1.00  0.00    -0.200 F 
ENDBRANCH  57  71
BRANCH  58  82
ATOM     82  C   UNL A   1      36.645  31.992  30.692  1.00  0.00     0.064 A 
ATOM     83  C   UNL A   1      35.947  32.560  31.771  1.00  0.00     0.173 A 
ATOM     84  C   UNL A   1      36.182  32.328  29.404  1.00  0.00     0.173 A 
ATOM     85  F   UNL A   1      36.348  32.326  33.028  1.00  0.00    -0.203 F 
ATOM     86  C   UNL A   1      34.874  33.436  31.572  1.00  0.00     0.198 A 
ATOM     87  C   UNL A   1      35.110  33.199  29.207  1.00  0.00     0.198 A 
ATOM     88  F   UNL A   1      36.823  31.893  28.309  1.00  0.00    -0.203 F 
ATOM     89  F   UNL A   1      34.272  34.008  32.626  1.00  0.00    -0.200 F 
ATOM     90  C   UNL A   1      34.465  33.766  30.291  1.00  0.00     0.200 A 
ATOM     91  F   UNL A   1      34.749  33.539  27.961  1.00  0.00    -0.200 F 
ATOM     92  F   UNL A   1      33.482  34.658  30.099  1.00  0.00    -0.200 F 
ENDBRANCH  58  82
BRANCH  70  93
ATOM     93  C   UNL A   1      42.035  30.287  33.431  1.00  0.00     0.064 A 
ATOM     94  C   UNL A   1      41.681  28.933  33.283  1.00  0.00     0.173 A 
ATOM     95  C   UNL A   1      42.276  30.738  34.733  1.00  0.00     0.173 A 
ATOM     96  F   UNL A   1      41.540  28.388  32.072  1.00  0.00    -0.203 F 
ATOM     97  C   UNL A   1      41.523  28.090  34.383  1.00  0.00     0.198 A 
ATOM     98  C   UNL A   1      42.156  29.885  35.830  1.00  0.00     0.198 A 
ATOM     99  F   UNL A   1      42.682  32.000  34.941  1.00  0.00    -0.203 F 
ATOM    100  F   UNL A   1      41.170  26.808  34.203  1.00  0.00    -0.200 F 
ATOM    101  C   UNL A   1      41.766  28.567  35.657  1.00  0.00     0.200 A 
ATOM    102  F   UNL A   1      42.444  30.338  37.058  1.00  0.00    -0.200 F 
ATOM    103  F   UNL A   1      41.651  27.751  36.714  1.00  0.00    -0.200 F 
ENDBRANCH  70  93
ENDBRANCH  44  45
ENDBRANCH  36  39
ENDBRANCH  34  35
ENDBRANCH   1  34
TORSDOF 14
ENDMDL
