MODEL 1
REMARK VINA RESULT:     -13.6      0.000      0.000
REMARK SMILES C[N@@H+]1CCN(C(=O)c2cnn3c2CCCC3)C[C@@H]1C(=O)NCCCNC(=O)c1ccc(-c2c3nc(c(-c4c(F)c(F)c(F)c(F)c4F)c4ccc([nH]4)c(-c4c(F)c(F)c(F)c(F)c4F)c4nc(c(-c5c(F)c(F)c(F)c(F)c5F)c5ccc2[nH]5)C=C4)C=C3)cc1
REMARK SMILES IDX 23 1 22 2 21 3 19 4 20 5 18 7 1 8 2 9 3 10 4 12 17 13 5 14
REMARK SMILES IDX 6 15 7 16 8 17 9 18 12 19 10 20 11 21 13 22 16 23 14 24
REMARK SMILES IDX 15 25 24 26 25 27 26 28 27 30 28 31 29 32 90 33 30 34 89 35
REMARK SMILES IDX 31 36 32 37 33 38 83 39 34 40 88 41 82 42 84 43 35 44 87 45
REMARK SMILES IDX 81 46 80 47 36 49 68 50 48 51 67 52 49 53 52 54 66 55 85 56
REMARK SMILES IDX 50 57 51 58 65 60 86 61 53 62 37 63 38 64 46 65 39 66 40 67
REMARK SMILES IDX 44 68 47 69 41 70 42 71 45 72 43 73 69 74 70 75 78 76 71 77
REMARK SMILES IDX 72 78 76 79 79 80 73 81 74 82 77 83 75 84 54 85 55 86 63 87
REMARK SMILES IDX 56 88 57 89 61 90 64 91 58 92 59 93 62 94 60 95
REMARK H PARENT 21 6 2 11 25 29 84 48 52 59
REMARK Flexibility Score: inf
ROOT
ATOM      1  C   UNL A   1      38.826  21.385  25.805  1.00  0.00     0.042 C 
ENDROOT
BRANCH   1   2
ATOM      2  C   UNL A   1      38.004  22.670  25.655  1.00  0.00     0.118 C 
BRANCH   2   3
ATOM      3  N   UNL A   1      37.437  22.849  24.327  1.00  0.00    -0.351 N 
ATOM      4  C   UNL A   1      36.175  23.176  23.916  1.00  0.00     0.280 C 
ATOM      5  O   UNL A   1      36.034  23.366  22.703  1.00  0.00    -0.268 OA
ATOM      6  H   UNL A   1      38.078  22.710  23.592  1.00  0.00     0.163 HD
BRANCH   4   7
ATOM      7  C   UNL A   1      35.000  23.277  24.920  1.00  0.00     0.293 C 
ATOM      8  C   UNL A   1      34.439  20.870  24.832  1.00  0.00     0.333 C 
ATOM      9  N   UNL A   1      33.953  22.232  24.717  1.00  0.00    -0.324 N 
ATOM     10  C   UNL A   1      33.222  22.431  23.450  1.00  0.00     0.284 C 
ATOM     11  H   UNL A   1      33.302  22.359  25.491  1.00  0.00     0.348 HD
ATOM     12  C   UNL A   1      32.577  23.822  23.373  1.00  0.00     0.181 C 
ATOM     13  C   UNL A   1      34.370  24.693  24.830  1.00  0.00     0.195 C 
ATOM     14  N   UNL A   1      33.542  24.888  23.631  1.00  0.00    -0.326 N 
BRANCH  14  15
ATOM     15  C   UNL A   1      33.498  26.025  22.833  1.00  0.00     0.257 C 
ATOM     16  O   UNL A   1      33.740  25.989  21.627  1.00  0.00    -0.269 OA
BRANCH  15  17
ATOM     17  C   UNL A   1      33.056  27.263  23.441  1.00  0.00     0.081 A 
ATOM     18  C   UNL A   1      33.771  28.232  24.182  1.00  0.00     0.149 A 
ATOM     19  C   UNL A   1      31.782  27.792  23.339  1.00  0.00     0.051 A 
ATOM     20  N   UNL A   1      33.001  29.253  24.577  1.00  0.00    -0.180 NA
ATOM     21  N   UNL A   1      31.812  28.979  24.015  1.00  0.00    -0.269 N 
ATOM     22  C   UNL A   1      30.562  27.311  22.635  1.00  0.00     0.057 C 
ATOM     23  C   UNL A   1      30.675  29.861  24.197  1.00  0.00     0.144 C 
ATOM     24  C   UNL A   1      29.306  28.040  23.117  1.00  0.00     0.008 C 
ATOM     25  C   UNL A   1      29.550  29.548  23.208  1.00  0.00     0.024 C 
ENDBRANCH  15  17
ENDBRANCH  14  15
ENDBRANCH   4   7
ENDBRANCH   2   3
ENDBRANCH   1   2
BRANCH   1  26
ATOM     26  C   UNL A   1      40.016  21.522  26.737  1.00  0.00     0.118 C 
BRANCH  26  27
ATOM     27  N   UNL A   1      41.303  21.521  26.048  1.00  0.00    -0.352 N 
ATOM     28  C   UNL A   1      42.149  22.601  25.841  1.00  0.00     0.251 C 
ATOM     29  H   UNL A   1      41.605  20.655  25.688  1.00  0.00     0.163 HD
ATOM     30  O   UNL A   1      43.009  22.577  24.982  1.00  0.00    -0.269 OA
BRANCH  28  31
ATOM     31  C   UNL A   1      41.970  23.792  26.694  1.00  0.00     0.039 A 
ATOM     32  C   UNL A   1      42.595  23.900  27.940  1.00  0.00     0.014 A 
ATOM     33  C   UNL A   1      41.194  24.831  26.194  1.00  0.00     0.014 A 
ATOM     34  C   UNL A   1      42.491  25.101  28.641  1.00  0.00     0.010 A 
ATOM     35  C   UNL A   1      41.245  26.061  26.792  1.00  0.00     0.010 A 
ATOM     36  C   UNL A   1      41.825  26.184  28.051  1.00  0.00    -0.014 A 
BRANCH  36  37
ATOM     37  C   UNL A   1      41.766  27.489  28.702  1.00  0.00     0.031 A 
ATOM     38  C   UNL A   1      42.862  28.436  28.352  1.00  0.00     0.074 A 
ATOM     39  C   UNL A   1      40.661  27.896  29.366  1.00  0.00     0.049 A 
ATOM     40  N   UNL A   1      43.717  28.999  29.141  1.00  0.00    -0.248 NA
ATOM     41  C   UNL A   1      43.092  28.729  26.926  1.00  0.00     0.031 C 
ATOM     42  C   UNL A   1      39.370  27.204  29.500  1.00  0.00     0.029 A 
ATOM     43  N   UNL A   1      40.415  29.092  29.964  1.00  0.00    -0.354 N 
ATOM     44  C   UNL A   1      44.489  29.846  28.345  1.00  0.00     0.074 A 
ATOM     45  C   UNL A   1      44.162  29.523  26.981  1.00  0.00     0.031 C 
ATOM     46  C   UNL A   1      38.424  28.080  29.902  1.00  0.00     0.029 A 
ATOM     47  C   UNL A   1      39.075  29.330  30.239  1.00  0.00     0.049 A 
ATOM     48  H   UNL A   1      41.126  29.735  30.183  1.00  0.00     0.167 HD
ATOM     49  C   UNL A   1      45.178  30.893  28.882  1.00  0.00     0.037 A 
ATOM     50  C   UNL A   1      38.530  30.486  30.685  1.00  0.00     0.037 A 
ATOM     51  C   UNL A   1      45.314  30.743  30.308  1.00  0.00     0.049 A 
ATOM     52  C   UNL A   1      39.633  31.304  31.246  1.00  0.00     0.074 A 
ATOM     53  C   UNL A   1      45.911  29.810  31.133  1.00  0.00     0.029 A 
ATOM     54  N   UNL A   1      44.464  31.460  31.112  1.00  0.00    -0.354 N 
ATOM     55  N   UNL A   1      40.299  30.987  32.321  1.00  0.00    -0.248 NA
ATOM     56  C   UNL A   1      40.297  32.241  30.352  1.00  0.00     0.031 C 
ATOM     57  C   UNL A   1      45.032  29.692  32.248  1.00  0.00     0.029 A 
ATOM     58  C   UNL A   1      43.990  30.603  32.070  1.00  0.00     0.049 A 
ATOM     59  H   UNL A   1      44.239  32.414  31.019  1.00  0.00     0.167 HD
ATOM     60  C   UNL A   1      41.612  31.336  32.039  1.00  0.00     0.074 A 
ATOM     61  C   UNL A   1      41.532  32.189  30.856  1.00  0.00     0.031 C 
ATOM     62  C   UNL A   1      42.655  30.670  32.615  1.00  0.00     0.037 A 
BRANCH  49  63
ATOM     63  C   UNL A   1      45.422  32.223  28.201  1.00  0.00     0.064 A 
ATOM     64  C   UNL A   1      44.318  33.051  27.901  1.00  0.00     0.173 A 
ATOM     65  C   UNL A   1      46.629  32.572  27.559  1.00  0.00     0.173 A 
ATOM     66  F   UNL A   1      43.117  32.817  28.451  1.00  0.00    -0.203 F 
ATOM     67  C   UNL A   1      44.396  34.079  26.957  1.00  0.00     0.198 A 
ATOM     68  C   UNL A   1      46.715  33.633  26.657  1.00  0.00     0.198 A 
ATOM     69  F   UNL A   1      47.743  31.844  27.685  1.00  0.00    -0.203 F 
ATOM     70  F   UNL A   1      43.288  34.746  26.605  1.00  0.00    -0.200 F 
ATOM     71  C   UNL A   1      45.593  34.362  26.327  1.00  0.00     0.200 A 
ATOM     72  F   UNL A   1      47.882  33.885  26.048  1.00  0.00    -0.200 F 
ATOM     73  F   UNL A   1      45.656  35.299  25.372  1.00  0.00    -0.200 F 
ENDBRANCH  49  63
BRANCH  50  74
ATOM     74  C   UNL A   1      37.187  31.036  30.397  1.00  0.00     0.064 A 
ATOM     75  C   UNL A   1      36.341  31.469  31.426  1.00  0.00     0.173 A 
ATOM     76  C   UNL A   1      36.817  31.391  29.085  1.00  0.00     0.173 A 
ATOM     77  F   UNL A   1      36.650  31.209  32.705  1.00  0.00    -0.203 F 
ATOM     78  C   UNL A   1      35.198  32.229  31.162  1.00  0.00     0.198 A 
ATOM     79  C   UNL A   1      35.673  32.146  28.820  1.00  0.00     0.198 A 
ATOM     80  F   UNL A   1      37.609  31.092  28.044  1.00  0.00    -0.203 F 
ATOM     81  F   UNL A   1      34.442  32.675  32.176  1.00  0.00    -0.200 F 
ATOM     82  C   UNL A   1      34.870  32.576  29.861  1.00  0.00     0.200 A 
ATOM     83  F   UNL A   1      35.390  32.509  27.562  1.00  0.00    -0.200 F 
ATOM     84  F   UNL A   1      33.809  33.356  29.613  1.00  0.00    -0.200 F 
ENDBRANCH  50  74
BRANCH  62  85
ATOM     85  C   UNL A   1      42.356  29.739  33.756  1.00  0.00     0.064 A 
ATOM     86  C   UNL A   1      42.061  28.373  33.601  1.00  0.00     0.173 A 
ATOM     87  C   UNL A   1      42.557  30.210  35.061  1.00  0.00     0.173 A 
ATOM     88  F   UNL A   1      41.949  27.825  32.387  1.00  0.00    -0.203 F 
ATOM     89  C   UNL A   1      41.946  27.528  34.704  1.00  0.00     0.198 A 
ATOM     90  C   UNL A   1      42.478  29.358  36.157  1.00  0.00     0.198 A 
ATOM     91  F   UNL A   1      42.895  31.493  35.265  1.00  0.00    -0.203 F 
ATOM     92  F   UNL A   1      41.666  26.228  34.529  1.00  0.00    -0.200 F 
ATOM     93  C   UNL A   1      42.166  28.019  35.980  1.00  0.00     0.200 A 
ATOM     94  F   UNL A   1      42.740  29.826  37.384  1.00  0.00    -0.200 F 
ATOM     95  F   UNL A   1      42.108  27.197  37.037  1.00  0.00    -0.200 F 
ENDBRANCH  62  85
ENDBRANCH  36  37
ENDBRANCH  28  31
ENDBRANCH  26  27
ENDBRANCH   1  26
TORSDOF 12
ENDMDL
MODEL 2
REMARK VINA RESULT:     -13.4      3.190      8.817
REMARK SMILES C[N@@H+]1CCN(C(=O)c2cnn3c2CCCC3)C[C@@H]1C(=O)NCCCNC(=O)c1ccc(-c2c3nc(c(-c4c(F)c(F)c(F)c(F)c4F)c4ccc([nH]4)c(-c4c(F)c(F)c(F)c(F)c4F)c4nc(c(-c5c(F)c(F)c(F)c(F)c5F)c5ccc2[nH]5)C=C4)C=C3)cc1
REMARK SMILES IDX 23 1 22 2 21 3 19 4 20 5 18 7 1 8 2 9 3 10 4 12 17 13 5 14
REMARK SMILES IDX 6 15 7 16 8 17 9 18 12 19 10 20 11 21 13 22 16 23 14 24
REMARK SMILES IDX 15 25 24 26 25 27 26 28 27 30 28 31 29 32 90 33 30 34 89 35
REMARK SMILES IDX 31 36 32 37 33 38 83 39 34 40 88 41 82 42 84 43 35 44 87 45
REMARK SMILES IDX 81 46 80 47 36 49 68 50 48 51 67 52 49 53 52 54 66 55 85 56
REMARK SMILES IDX 50 57 51 58 65 60 86 61 53 62 37 63 38 64 46 65 39 66 40 67
REMARK SMILES IDX 44 68 47 69 41 70 42 71 45 72 43 73 69 74 70 75 78 76 71 77
REMARK SMILES IDX 72 78 76 79 79 80 73 81 74 82 77 83 75 84 54 85 55 86 63 87
REMARK SMILES IDX 56 88 57 89 61 90 64 91 58 92 59 93 62 94 60 95
REMARK H PARENT 21 6 2 11 25 29 84 48 52 59
REMARK Flexibility Score: inf
ROOT
ATOM      1  C   UNL A   1      34.481  30.145  27.490  1.00  0.00     0.042 C 
ENDROOT
BRANCH   1   2
ATOM      2  C   UNL A   1      33.015  30.381  27.109  1.00  0.00     0.118 C 
BRANCH   2   3
ATOM      3  N   UNL A   1      32.125  29.305  27.517  1.00  0.00    -0.351 N 
ATOM      4  C   UNL A   1      31.851  28.091  26.953  1.00  0.00     0.280 C 
ATOM      5  O   UNL A   1      31.121  27.342  27.611  1.00  0.00    -0.268 OA
ATOM      6  H   UNL A   1      31.631  29.484  28.350  1.00  0.00     0.163 HD
BRANCH   4   7
ATOM      7  C   UNL A   1      32.413  27.702  25.563  1.00  0.00     0.293 C 
ATOM      8  C   UNL A   1      30.711  28.965  24.286  1.00  0.00     0.333 C 
ATOM      9  N   UNL A   1      31.378  27.692  24.486  1.00  0.00    -0.324 N 
ATOM     10  C   UNL A   1      30.401  26.603  24.678  1.00  0.00     0.284 C 
ATOM     11  H   UNL A   1      31.897  27.515  23.626  1.00  0.00     0.348 HD
ATOM     12  C   UNL A   1      31.080  25.228  24.747  1.00  0.00     0.181 C 
ATOM     13  C   UNL A   1      33.101  26.314  25.659  1.00  0.00     0.195 C 
ATOM     14  N   UNL A   1      32.150  25.195  25.740  1.00  0.00    -0.326 N 
BRANCH  14  15
ATOM     15  C   UNL A   1      32.261  24.074  26.554  1.00  0.00     0.257 C 
ATOM     16  O   UNL A   1      31.438  23.820  27.434  1.00  0.00    -0.269 OA
BRANCH  15  17
ATOM     17  C   UNL A   1      33.332  23.139  26.278  1.00  0.00     0.081 A 
ATOM     18  C   UNL A   1      34.681  23.133  26.698  1.00  0.00     0.149 A 
ATOM     19  C   UNL A   1      33.199  21.963  25.562  1.00  0.00     0.051 A 
ATOM     20  N   UNL A   1      35.364  22.082  26.231  1.00  0.00    -0.180 NA
ATOM     21  N   UNL A   1      34.429  21.369  25.581  1.00  0.00    -0.269 N 
ATOM     22  C   UNL A   1      32.023  21.331  24.903  1.00  0.00     0.057 C 
ATOM     23  C   UNL A   1      34.761  20.123  24.918  1.00  0.00     0.144 C 
ATOM     24  C   UNL A   1      32.445  20.231  23.927  1.00  0.00     0.008 C 
ATOM     25  C   UNL A   1      33.509  19.324  24.550  1.00  0.00     0.024 C 
ENDBRANCH  15  17
ENDBRANCH  14  15
ENDBRANCH   4   7
ENDBRANCH   2   3
ENDBRANCH   1   2
BRANCH   1  26
ATOM     26  C   UNL A   1      35.272  31.422  27.710  1.00  0.00     0.118 C 
BRANCH  26  27
ATOM     27  N   UNL A   1      34.882  32.152  28.913  1.00  0.00    -0.352 N 
ATOM     28  C   UNL A   1      35.314  31.927  30.211  1.00  0.00     0.251 C 
ATOM     29  H   UNL A   1      34.239  32.887  28.788  1.00  0.00     0.163 HD
ATOM     30  O   UNL A   1      34.691  32.346  31.168  1.00  0.00    -0.269 OA
BRANCH  28  31
ATOM     31  C   UNL A   1      36.556  31.153  30.402  1.00  0.00     0.039 A 
ATOM     32  C   UNL A   1      36.543  29.759  30.506  1.00  0.00     0.014 A 
ATOM     33  C   UNL A   1      37.754  31.858  30.426  1.00  0.00     0.014 A 
ATOM     34  C   UNL A   1      37.758  29.078  30.557  1.00  0.00     0.010 A 
ATOM     35  C   UNL A   1      38.938  31.183  30.292  1.00  0.00     0.010 A 
ATOM     36  C   UNL A   1      38.954  29.799  30.434  1.00  0.00    -0.014 A 
BRANCH  36  37
ATOM     37  C   UNL A   1      40.249  29.126  30.389  1.00  0.00     0.031 A 
ATOM     38  C   UNL A   1      40.924  28.936  31.705  1.00  0.00     0.074 A 
ATOM     39  C   UNL A   1      40.676  28.493  29.274  1.00  0.00     0.049 A 
ATOM     40  N   UNL A   1      42.085  29.364  32.078  1.00  0.00    -0.248 NA
ATOM     41  C   UNL A   1      40.174  28.255  32.774  1.00  0.00     0.031 C 
ATOM     42  C   UNL A   1      39.960  28.299  28.004  1.00  0.00     0.029 A 
ATOM     43  N   UNL A   1      41.810  27.767  29.084  1.00  0.00    -0.354 N 
ATOM     44  C   UNL A   1      42.291  28.871  33.367  1.00  0.00     0.074 A 
ATOM     45  C   UNL A   1      41.028  28.330  33.796  1.00  0.00     0.031 C 
ATOM     46  C   UNL A   1      40.554  27.317  27.293  1.00  0.00     0.029 A 
ATOM     47  C   UNL A   1      41.787  26.954  27.960  1.00  0.00     0.049 A 
ATOM     48  H   UNL A   1      42.581  27.815  29.692  1.00  0.00     0.167 HD
ATOM     49  C   UNL A   1      43.544  28.757  33.892  1.00  0.00     0.037 A 
ATOM     50  C   UNL A   1      42.706  26.021  27.614  1.00  0.00     0.037 A 
ATOM     51  C   UNL A   1      44.488  29.548  33.146  1.00  0.00     0.049 A 
ATOM     52  C   UNL A   1      43.940  26.314  28.381  1.00  0.00     0.074 A 
ATOM     53  C   UNL A   1      44.627  30.895  32.876  1.00  0.00     0.029 A 
ATOM     54  N   UNL A   1      45.288  28.902  32.236  1.00  0.00    -0.354 N 
ATOM     55  N   UNL A   1      44.677  27.375  28.196  1.00  0.00    -0.248 NA
ATOM     56  C   UNL A   1      44.107  25.654  29.667  1.00  0.00     0.031 C 
ATOM     57  C   UNL A   1      45.092  30.952  31.530  1.00  0.00     0.029 A 
ATOM     58  C   UNL A   1      45.272  29.642  31.084  1.00  0.00     0.049 A 
ATOM     59  H   UNL A   1      45.782  28.064  32.386  1.00  0.00     0.167 HD
ATOM     60  C   UNL A   1      45.070  27.758  29.470  1.00  0.00     0.074 A 
ATOM     61  C   UNL A   1      44.770  26.610  30.322  1.00  0.00     0.031 C 
ATOM     62  C   UNL A   1      45.331  29.066  29.761  1.00  0.00     0.037 A 
BRANCH  49  63
ATOM     63  C   UNL A   1      44.000  27.672  34.844  1.00  0.00     0.064 A 
ATOM     64  C   UNL A   1      43.869  26.321  34.455  1.00  0.00     0.173 A 
ATOM     65  C   UNL A   1      44.259  27.882  36.215  1.00  0.00     0.173 A 
ATOM     66  F   UNL A   1      43.620  25.996  33.177  1.00  0.00    -0.203 F 
ATOM     67  C   UNL A   1      43.893  25.276  35.383  1.00  0.00     0.198 A 
ATOM     68  C   UNL A   1      44.336  26.831  37.130  1.00  0.00     0.198 A 
ATOM     69  F   UNL A   1      44.337  29.105  36.750  1.00  0.00    -0.203 F 
ATOM     70  F   UNL A   1      43.626  24.024  34.984  1.00  0.00    -0.200 F 
ATOM     71  C   UNL A   1      44.116  25.533  36.723  1.00  0.00     0.200 A 
ATOM     72  F   UNL A   1      44.542  27.102  38.427  1.00  0.00    -0.200 F 
ATOM     73  F   UNL A   1      44.071  24.544  37.623  1.00  0.00    -0.200 F 
ENDBRANCH  49  63
BRANCH  50  74
ATOM     74  C   UNL A   1      42.489  24.746  26.895  1.00  0.00     0.064 A 
ATOM     75  C   UNL A   1      43.121  24.483  25.672  1.00  0.00     0.173 A 
ATOM     76  C   UNL A   1      41.862  23.655  27.528  1.00  0.00     0.173 A 
ATOM     77  F   UNL A   1      43.778  25.460  25.030  1.00  0.00    -0.203 F 
ATOM     78  C   UNL A   1      43.142  23.197  25.122  1.00  0.00     0.198 A 
ATOM     79  C   UNL A   1      41.879  22.373  26.977  1.00  0.00     0.198 A 
ATOM     80  F   UNL A   1      41.304  23.794  28.740  1.00  0.00    -0.203 F 
ATOM     81  F   UNL A   1      43.805  22.971  23.979  1.00  0.00    -0.200 F 
ATOM     82  C   UNL A   1      42.530  22.142  25.778  1.00  0.00     0.200 A 
ATOM     83  F   UNL A   1      41.319  21.354  27.642  1.00  0.00    -0.200 F 
ATOM     84  F   UNL A   1      42.603  20.900  25.282  1.00  0.00    -0.200 F 
ENDBRANCH  50  74
BRANCH  62  85
ATOM     85  C   UNL A   1      45.444  30.036  28.619  1.00  0.00     0.064 A 
ATOM     86  C   UNL A   1      44.363  30.765  28.095  1.00  0.00     0.173 A 
ATOM     87  C   UNL A   1      46.726  30.370  28.164  1.00  0.00     0.173 A 
ATOM     88  F   UNL A   1      43.118  30.574  28.546  1.00  0.00    -0.203 F 
ATOM     89  C   UNL A   1      44.557  31.763  27.141  1.00  0.00     0.198 A 
ATOM     90  C   UNL A   1      46.922  31.390  27.239  1.00  0.00     0.198 A 
ATOM     91  F   UNL A   1      47.801  29.745  28.669  1.00  0.00    -0.203 F 
ATOM     92  F   UNL A   1      43.508  32.446  26.658  1.00  0.00    -0.200 F 
ATOM     93  C   UNL A   1      45.837  32.082  26.722  1.00  0.00     0.200 A 
ATOM     94  F   UNL A   1      48.166  31.729  26.875  1.00  0.00    -0.200 F 
ATOM     95  F   UNL A   1      46.031  33.076  25.844  1.00  0.00    -0.200 F 
ENDBRANCH  62  85
ENDBRANCH  36  37
ENDBRANCH  28  31
ENDBRANCH  26  27
ENDBRANCH   1  26
TORSDOF 12
ENDMDL
MODEL 3
REMARK VINA RESULT:     -13.3      1.118      1.701
REMARK SMILES C[N@@H+]1CCN(C(=O)c2cnn3c2CCCC3)C[C@@H]1C(=O)NCCCNC(=O)c1ccc(-c2c3nc(c(-c4c(F)c(F)c(F)c(F)c4F)c4ccc([nH]4)c(-c4c(F)c(F)c(F)c(F)c4F)c4nc(c(-c5c(F)c(F)c(F)c(F)c5F)c5ccc2[nH]5)C=C4)C=C3)cc1
REMARK SMILES IDX 23 1 22 2 21 3 19 4 20 5 18 7 1 8 2 9 3 10 4 12 17 13 5 14
REMARK SMILES IDX 6 15 7 16 8 17 9 18 12 19 10 20 11 21 13 22 16 23 14 24
REMARK SMILES IDX 15 25 24 26 25 27 26 28 27 30 28 31 29 32 90 33 30 34 89 35
REMARK SMILES IDX 31 36 32 37 33 38 83 39 34 40 88 41 82 42 84 43 35 44 87 45
REMARK SMILES IDX 81 46 80 47 36 49 68 50 48 51 67 52 49 53 52 54 66 55 85 56
REMARK SMILES IDX 50 57 51 58 65 60 86 61 53 62 37 63 38 64 46 65 39 66 40 67
REMARK SMILES IDX 44 68 47 69 41 70 42 71 45 72 43 73 69 74 70 75 78 76 71 77
REMARK SMILES IDX 72 78 76 79 79 80 73 81 74 82 77 83 75 84 54 85 55 86 63 87
REMARK SMILES IDX 56 88 57 89 61 90 64 91 58 92 59 93 62 94 60 95
REMARK H PARENT 21 6 2 11 25 29 84 48 52 59
REMARK Flexibility Score: inf
ROOT
ATOM      1  C   UNL A   1      38.610  23.480  26.080  1.00  0.00     0.042 C 
ENDROOT
BRANCH   1   2
ATOM      2  C   UNL A   1      37.702  22.328  25.635  1.00  0.00     0.118 C 
BRANCH   2   3
ATOM      3  N   UNL A   1      37.165  22.493  24.292  1.00  0.00    -0.351 N 
ATOM      4  C   UNL A   1      35.918  22.833  23.850  1.00  0.00     0.280 C 
ATOM      5  O   UNL A   1      35.805  23.002  22.631  1.00  0.00    -0.268 OA
ATOM      6  H   UNL A   1      37.818  22.330  23.574  1.00  0.00     0.163 HD
BRANCH   4   7
ATOM      7  C   UNL A   1      34.724  22.972  24.827  1.00  0.00     0.293 C 
ATOM      8  C   UNL A   1      34.011  20.612  24.628  1.00  0.00     0.333 C 
ATOM      9  N   UNL A   1      33.618  22.007  24.555  1.00  0.00    -0.324 N 
ATOM     10  C   UNL A   1      32.936  22.302  23.280  1.00  0.00     0.284 C 
ATOM     11  H   UNL A   1      32.955  22.146  25.318  1.00  0.00     0.348 HD
ATOM     12  C   UNL A   1      32.386  23.735  23.243  1.00  0.00     0.181 C 
ATOM     13  C   UNL A   1      34.190  24.428  24.779  1.00  0.00     0.195 C 
ATOM     14  N   UNL A   1      33.409  24.724  23.568  1.00  0.00    -0.326 N 
BRANCH  14  15
ATOM     15  C   UNL A   1      33.462  25.891  22.816  1.00  0.00     0.257 C 
ATOM     16  O   UNL A   1      33.775  25.891  21.626  1.00  0.00    -0.269 OA
BRANCH  15  17
ATOM     17  C   UNL A   1      33.036  27.124  23.448  1.00  0.00     0.081 A 
ATOM     18  C   UNL A   1      33.762  28.067  24.210  1.00  0.00     0.149 A 
ATOM     19  C   UNL A   1      31.771  27.673  23.352  1.00  0.00     0.051 A 
ATOM     20  N   UNL A   1      33.007  29.091  24.622  1.00  0.00    -0.180 NA
ATOM     21  N   UNL A   1      31.815  28.846  24.051  1.00  0.00    -0.269 N 
ATOM     22  C   UNL A   1      30.546  27.224  22.634  1.00  0.00     0.057 C 
ATOM     23  C   UNL A   1      30.691  29.742  24.246  1.00  0.00     0.144 C 
ATOM     24  C   UNL A   1      29.299  27.962  23.127  1.00  0.00     0.008 C 
ATOM     25  C   UNL A   1      29.565  29.465  23.249  1.00  0.00     0.024 C 
ENDBRANCH  15  17
ENDBRANCH  14  15
ENDBRANCH   4   7
ENDBRANCH   2   3
ENDBRANCH   1   2
BRANCH   1  26
ATOM     26  C   UNL A   1      39.714  23.059  27.033  1.00  0.00     0.118 C 
BRANCH  26  27
ATOM     27  N   UNL A   1      40.969  22.726  26.364  1.00  0.00    -0.352 N 
ATOM     28  C   UNL A   1      41.934  23.607  25.898  1.00  0.00     0.251 C 
ATOM     29  H   UNL A   1      41.151  21.768  26.229  1.00  0.00     0.163 HD
ATOM     30  O   UNL A   1      42.757  23.264  25.071  1.00  0.00    -0.269 OA
BRANCH  28  31
ATOM     31  C   UNL A   1      41.930  24.982  26.432  1.00  0.00     0.039 A 
ATOM     32  C   UNL A   1      41.210  26.007  25.811  1.00  0.00     0.014 A 
ATOM     33  C   UNL A   1      42.632  25.217  27.608  1.00  0.00     0.014 A 
ATOM     34  C   UNL A   1      41.143  27.253  26.433  1.00  0.00     0.010 A 
ATOM     35  C   UNL A   1      42.415  26.375  28.305  1.00  0.00     0.010 A 
ATOM     36  C   UNL A   1      41.738  27.424  27.691  1.00  0.00    -0.014 A 
BRANCH  36  37
ATOM     37  C   UNL A   1      41.619  28.680  28.426  1.00  0.00     0.031 A 
ATOM     38  C   UNL A   1      42.684  29.688  28.158  1.00  0.00     0.074 A 
ATOM     39  C   UNL A   1      40.489  29.001  29.095  1.00  0.00     0.049 A 
ATOM     40  N   UNL A   1      43.505  30.228  28.998  1.00  0.00    -0.248 NA
ATOM     41  C   UNL A   1      42.925  30.083  26.760  1.00  0.00     0.031 C 
ATOM     42  C   UNL A   1      39.224  28.254  29.159  1.00  0.00     0.029 A 
ATOM     43  N   UNL A   1      40.189  30.144  29.767  1.00  0.00    -0.354 N 
ATOM     44  C   UNL A   1      44.256  31.155  28.274  1.00  0.00     0.074 A 
ATOM     45  C   UNL A   1      43.963  30.912  26.887  1.00  0.00     0.031 C 
ATOM     46  C   UNL A   1      38.240  29.065  29.602  1.00  0.00     0.029 A 
ATOM     47  C   UNL A   1      38.837  30.313  30.032  1.00  0.00     0.049 A 
ATOM     48  H   UNL A   1      40.872  30.797  30.040  1.00  0.00     0.167 HD
ATOM     49  C   UNL A   1      44.896  32.187  28.892  1.00  0.00     0.037 A 
ATOM     50  C   UNL A   1      38.242  31.417  30.544  1.00  0.00     0.037 A 
ATOM     51  C   UNL A   1      45.016  31.948  30.307  1.00  0.00     0.049 A 
ATOM     52  C   UNL A   1      39.304  32.235  31.177  1.00  0.00     0.074 A 
ATOM     53  C   UNL A   1      45.636  30.984  31.079  1.00  0.00     0.029 A 
ATOM     54  N   UNL A   1      44.127  32.577  31.141  1.00  0.00    -0.354 N 
ATOM     55  N   UNL A   1      39.965  31.872  32.242  1.00  0.00    -0.248 NA
ATOM     56  C   UNL A   1      39.946  33.253  30.360  1.00  0.00     0.031 C 
ATOM     57  C   UNL A   1      44.744  30.760  32.168  1.00  0.00     0.029 A 
ATOM     58  C   UNL A   1      43.672  31.642  32.032  1.00  0.00     0.049 A 
ATOM     59  H   UNL A   1      43.867  33.526  31.108  1.00  0.00     0.167 HD
ATOM     60  C   UNL A   1      41.267  32.287  32.007  1.00  0.00     0.074 A 
ATOM     61  C   UNL A   1      41.174  33.213  30.881  1.00  0.00     0.031 C 
ATOM     62  C   UNL A   1      42.326  31.623  32.556  1.00  0.00     0.037 A 
BRANCH  49  63
ATOM     63  C   UNL A   1      45.100  33.568  28.305  1.00  0.00     0.064 A 
ATOM     64  C   UNL A   1      46.412  34.083  28.205  1.00  0.00     0.173 A 
ATOM     65  C   UNL A   1      44.068  34.514  28.133  1.00  0.00     0.173 A 
ATOM     66  F   UNL A   1      47.476  33.279  28.352  1.00  0.00    -0.203 F 
ATOM     67  C   UNL A   1      46.663  35.449  28.050  1.00  0.00     0.198 A 
ATOM     68  C   UNL A   1      44.324  35.870  27.924  1.00  0.00     0.198 A 
ATOM     69  F   UNL A   1      42.776  34.196  28.270  1.00  0.00    -0.203 F 
ATOM     70  F   UNL A   1      47.923  35.904  28.101  1.00  0.00    -0.200 F 
ATOM     71  C   UNL A   1      45.618  36.344  27.921  1.00  0.00     0.200 A 
ATOM     72  F   UNL A   1      43.296  36.723  27.812  1.00  0.00    -0.200 F 
ATOM     73  F   UNL A   1      45.853  37.659  27.841  1.00  0.00    -0.200 F 
ENDBRANCH  49  63
BRANCH  50  74
ATOM     74  C   UNL A   1      36.884  31.934  30.269  1.00  0.00     0.064 A 
ATOM     75  C   UNL A   1      35.952  32.121  31.299  1.00  0.00     0.173 A 
ATOM     76  C   UNL A   1      36.566  32.505  29.021  1.00  0.00     0.173 A 
ATOM     77  F   UNL A   1      36.205  31.647  32.528  1.00  0.00    -0.203 F 
ATOM     78  C   UNL A   1      34.778  32.853  31.099  1.00  0.00     0.198 A 
ATOM     79  C   UNL A   1      35.391  33.231  28.819  1.00  0.00     0.198 A 
ATOM     80  F   UNL A   1      37.434  32.448  27.999  1.00  0.00    -0.203 F 
ATOM     81  F   UNL A   1      33.937  33.060  32.123  1.00  0.00    -0.200 F 
ATOM     82  C   UNL A   1      34.502  33.415  29.863  1.00  0.00     0.200 A 
ATOM     83  F   UNL A   1      35.156  33.804  27.631  1.00  0.00    -0.200 F 
ATOM     84  F   UNL A   1      33.407  34.168  29.689  1.00  0.00    -0.200 F 
ENDBRANCH  50  74
BRANCH  62  85
ATOM     85  C   UNL A   1      42.045  30.607  33.628  1.00  0.00     0.064 A 
ATOM     86  C   UNL A   1      41.765  29.253  33.374  1.00  0.00     0.173 A 
ATOM     87  C   UNL A   1      42.249  30.983  34.962  1.00  0.00     0.173 A 
ATOM     88  F   UNL A   1      41.652  28.794  32.124  1.00  0.00    -0.203 F 
ATOM     89  C   UNL A   1      41.667  28.328  34.413  1.00  0.00     0.198 A 
ATOM     90  C   UNL A   1      42.186  30.052  35.993  1.00  0.00     0.198 A 
ATOM     91  F   UNL A   1      42.573  32.252  35.258  1.00  0.00    -0.203 F 
ATOM     92  F   UNL A   1      41.401  27.041  34.144  1.00  0.00    -0.200 F 
ATOM     93  C   UNL A   1      41.889  28.726  35.720  1.00  0.00     0.200 A 
ATOM     94  F   UNL A   1      42.451  30.433  37.250  1.00  0.00    -0.200 F 
ATOM     95  F   UNL A   1      41.847  27.829  36.714  1.00  0.00    -0.200 F 
ENDBRANCH  62  85
ENDBRANCH  36  37
ENDBRANCH  28  31
ENDBRANCH  26  27
ENDBRANCH   1  26
TORSDOF 12
ENDMDL
