MODEL 1
REMARK VINA RESULT:     -13.1      0.000      0.000
REMARK SMILES O=C(NCCCNC(=O)[C@H]1C=C[C@@H](NC(=O)c2ccc(Cl)cn2)C1)c1ccc(-c2c3nc(c(-c4c(F)c(F)c(F)c(F)c4F)c4ccc([nH]4)c(-c4c(F)c(F)c(F)c(F)c4F)c4nc(c(-c5c(F)c(F)c(F)c(F)c5F)c5ccc2[nH]5)C=C4)C=C3)cc1
REMARK SMILES IDX 5 1 4 2 3 3 1 4 2 5 25 7 26 8 87 9 27 10 86 11 28 12 29 13
REMARK SMILES IDX 30 14 80 15 31 16 85 17 79 18 81 19 32 20 84 21 78 22 77 23
REMARK SMILES IDX 33 25 65 26 45 27 64 28 46 29 49 30 63 31 82 32 47 33 48 34
REMARK SMILES IDX 62 36 83 37 50 38 34 39 35 40 43 41 36 42 37 43 41 44 44 45
REMARK SMILES IDX 38 46 39 47 42 48 40 49 66 50 67 51 75 52 68 53 69 54 73 55
REMARK SMILES IDX 76 56 70 57 71 58 74 59 72 60 51 61 52 62 60 63 53 64 54 65
REMARK SMILES IDX 58 66 61 67 55 68 56 69 59 70 57 71 6 72 7 73 8 74 9 76
REMARK SMILES IDX 10 77 11 78 24 79 12 80 13 81 14 82 15 83 16 85 17 86 18 87
REMARK SMILES IDX 23 88 19 89 22 90 20 91 21 92
REMARK H PARENT 3 6 81 24 49 35 7 75 14 84
REMARK Flexibility Score: inf
ROOT
ATOM      1  C   UNL A   1      31.371  32.035  26.879  1.00  0.00     0.042 C 
ENDROOT
BRANCH   1   2
ATOM      2  C   UNL A   1      32.631  32.794  27.264  1.00  0.00     0.118 C 
BRANCH   2   3
ATOM      3  N   UNL A   1      32.380  34.175  27.654  1.00  0.00    -0.352 N 
ATOM      4  O   UNL A   1      32.521  36.066  28.869  1.00  0.00    -0.269 OA
ATOM      5  C   UNL A   1      32.990  34.964  28.599  1.00  0.00     0.251 C 
ATOM      6  H   UNL A   1      31.654  34.617  27.157  1.00  0.00     0.163 HD
BRANCH   5   7
ATOM      7  C   UNL A   1      34.182  34.476  29.328  1.00  0.00     0.039 A 
ATOM      8  C   UNL A   1      35.462  34.643  28.802  1.00  0.00     0.014 A 
ATOM      9  C   UNL A   1      34.015  33.832  30.558  1.00  0.00     0.014 A 
ATOM     10  C   UNL A   1      36.537  33.981  29.382  1.00  0.00     0.010 A 
ATOM     11  C   UNL A   1      35.120  33.269  31.205  1.00  0.00     0.010 A 
ATOM     12  C   UNL A   1      36.382  33.288  30.593  1.00  0.00    -0.014 A 
BRANCH  12  13
ATOM     13  C   UNL A   1      37.561  32.611  31.194  1.00  0.00     0.031 A 
ATOM     14  C   UNL A   1      38.015  32.934  32.593  1.00  0.00     0.074 A 
ATOM     15  C   UNL A   1      38.191  31.653  30.486  1.00  0.00     0.049 A 
ATOM     16  N   UNL A   1      38.992  32.402  33.286  1.00  0.00    -0.248 NA
ATOM     17  C   UNL A   1      37.290  33.998  33.304  1.00  0.00     0.031 C 
ATOM     18  C   UNL A   1      37.851  31.258  29.118  1.00  0.00     0.029 A 
ATOM     19  N   UNL A   1      39.222  30.816  30.826  1.00  0.00    -0.354 N 
ATOM     20  C   UNL A   1      39.020  33.087  34.495  1.00  0.00     0.074 A 
ATOM     21  C   UNL A   1      37.975  34.086  34.436  1.00  0.00     0.031 C 
ATOM     22  C   UNL A   1      38.609  30.212  28.759  1.00  0.00     0.029 A 
ATOM     23  C   UNL A   1      39.534  29.906  29.845  1.00  0.00     0.049 A 
ATOM     24  H   UNL A   1      39.695  30.863  31.689  1.00  0.00     0.167 HD
ATOM     25  C   UNL A   1      39.837  32.893  35.558  1.00  0.00     0.037 A 
ATOM     26  C   UNL A   1      40.463  28.933  29.819  1.00  0.00     0.037 A 
ATOM     27  C   UNL A   1      40.850  31.871  35.630  1.00  0.00     0.049 A 
ATOM     28  C   UNL A   1      41.347  28.737  31.015  1.00  0.00     0.074 A 
ATOM     29  C   UNL A   1      41.698  31.566  36.681  1.00  0.00     0.029 A 
ATOM     30  N   UNL A   1      41.152  30.984  34.606  1.00  0.00    -0.354 N 
ATOM     31  N   UNL A   1      41.341  29.371  32.161  1.00  0.00    -0.248 NA
ATOM     32  C   UNL A   1      42.372  27.690  30.911  1.00  0.00     0.031 C 
ATOM     33  C   UNL A   1      42.540  30.523  36.279  1.00  0.00     0.029 A 
ATOM     34  C   UNL A   1      42.184  30.145  34.994  1.00  0.00     0.049 A 
ATOM     35  H   UNL A   1      40.699  30.956  33.732  1.00  0.00     0.167 HD
ATOM     36  C   UNL A   1      42.341  28.787  32.925  1.00  0.00     0.074 A 
ATOM     37  C   UNL A   1      42.924  27.735  32.116  1.00  0.00     0.031 C 
ATOM     38  C   UNL A   1      42.744  29.096  34.182  1.00  0.00     0.037 A 
BRANCH  25  39
ATOM     39  C   UNL A   1      39.687  33.820  36.732  1.00  0.00     0.064 A 
ATOM     40  C   UNL A   1      40.328  35.066  36.778  1.00  0.00     0.173 A 
ATOM     41  C   UNL A   1      38.856  33.470  37.807  1.00  0.00     0.173 A 
ATOM     42  F   UNL A   1      41.144  35.445  35.783  1.00  0.00    -0.203 F 
ATOM     43  C   UNL A   1      40.162  35.917  37.870  1.00  0.00     0.198 A 
ATOM     44  C   UNL A   1      38.671  34.333  38.883  1.00  0.00     0.198 A 
ATOM     45  F   UNL A   1      38.214  32.291  37.809  1.00  0.00    -0.203 F 
ATOM     46  F   UNL A   1      40.821  37.084  37.914  1.00  0.00    -0.200 F 
ATOM     47  C   UNL A   1      39.329  35.553  38.917  1.00  0.00     0.200 A 
ATOM     48  F   UNL A   1      37.856  33.985  39.888  1.00  0.00    -0.200 F 
ATOM     49  F   UNL A   1      39.167  36.375  39.963  1.00  0.00    -0.200 F 
ENDBRANCH  25  39
BRANCH  26  50
ATOM     50  C   UNL A   1      40.586  28.064  28.622  1.00  0.00     0.064 A 
ATOM     51  C   UNL A   1      39.911  26.838  28.552  1.00  0.00     0.173 A 
ATOM     52  C   UNL A   1      41.363  28.448  27.519  1.00  0.00     0.173 A 
ATOM     53  F   UNL A   1      39.170  26.422  29.590  1.00  0.00    -0.203 F 
ATOM     54  C   UNL A   1      40.019  26.022  27.429  1.00  0.00     0.198 A 
ATOM     55  C   UNL A   1      41.447  27.644  26.384  1.00  0.00     0.198 A 
ATOM     56  F   UNL A   1      42.022  29.615  27.535  1.00  0.00    -0.203 F 
ATOM     57  F   UNL A   1      39.394  24.837  27.402  1.00  0.00    -0.200 F 
ATOM     58  C   UNL A   1      40.780  26.428  26.343  1.00  0.00     0.200 A 
ATOM     59  F   UNL A   1      42.169  28.050  25.332  1.00  0.00    -0.200 F 
ATOM     60  F   UNL A   1      40.876  25.647  25.259  1.00  0.00    -0.200 F 
ENDBRANCH  26  50
BRANCH  38  61
ATOM     61  C   UNL A   1      43.836  28.255  34.772  1.00  0.00     0.064 A 
ATOM     62  C   UNL A   1      45.187  28.615  34.658  1.00  0.00     0.173 A 
ATOM     63  C   UNL A   1      43.524  27.082  35.476  1.00  0.00     0.173 A 
ATOM     64  F   UNL A   1      45.537  29.719  33.979  1.00  0.00    -0.203 F 
ATOM     65  C   UNL A   1      46.187  27.814  35.201  1.00  0.00     0.198 A 
ATOM     66  C   UNL A   1      44.525  26.299  36.041  1.00  0.00     0.198 A 
ATOM     67  F   UNL A   1      42.246  26.698  35.617  1.00  0.00    -0.203 F 
ATOM     68  F   UNL A   1      47.474  28.148  35.033  1.00  0.00    -0.200 F 
ATOM     69  C   UNL A   1      45.856  26.660  35.896  1.00  0.00     0.200 A 
ATOM     70  F   UNL A   1      44.203  25.191  36.722  1.00  0.00    -0.200 F 
ATOM     71  F   UNL A   1      46.821  25.891  36.418  1.00  0.00    -0.200 F 
ENDBRANCH  38  61
ENDBRANCH  12  13
ENDBRANCH   5   7
ENDBRANCH   2   3
ENDBRANCH   1   2
BRANCH   1  72
ATOM     72  C   UNL A   1      31.607  30.865  25.940  1.00  0.00     0.117 C 
BRANCH  72  73
ATOM     73  N   UNL A   1      30.722  30.882  24.788  1.00  0.00    -0.356 N 
ATOM     74  C   UNL A   1      30.315  29.854  23.987  1.00  0.00     0.227 C 
ATOM     75  H   UNL A   1      30.362  31.766  24.550  1.00  0.00     0.163 HD
ATOM     76  O   UNL A   1      29.535  30.118  23.073  1.00  0.00    -0.274 OA
BRANCH  74  77
ATOM     77  C   UNL A   1      30.889  28.458  24.219  1.00  0.00     0.103 C 
ATOM     78  C   UNL A   1      29.953  27.359  23.794  1.00  0.00    -0.016 C 
ATOM     79  C   UNL A   1      32.123  28.170  23.347  1.00  0.00     0.047 C 
ATOM     80  C   UNL A   1      30.603  26.371  23.175  1.00  0.00    -0.006 C 
ATOM     81  C   UNL A   1      32.056  26.674  23.029  1.00  0.00     0.106 C 
BRANCH  81  82
ATOM     82  N   UNL A   1      32.411  26.352  21.670  1.00  0.00    -0.344 N 
ATOM     83  C   UNL A   1      32.926  25.175  21.179  1.00  0.00     0.270 C 
ATOM     84  H   UNL A   1      32.268  27.067  21.008  1.00  0.00     0.164 HD
ATOM     85  O   UNL A   1      33.076  25.021  19.970  1.00  0.00    -0.267 OA
BRANCH  83  86
ATOM     86  C   UNL A   1      33.301  24.094  22.130  1.00  0.00     0.128 A 
ATOM     87  C   UNL A   1      32.390  23.090  22.452  1.00  0.00     0.036 A 
ATOM     88  N   UNL A   1      34.537  24.197  22.682  1.00  0.00    -0.250 NA
ATOM     89  C   UNL A   1      32.754  22.158  23.424  1.00  0.00     0.024 A 
ATOM     90  C   UNL A   1      34.869  23.256  23.598  1.00  0.00     0.132 A 
ATOM     91  C   UNL A   1      34.016  22.241  24.006  1.00  0.00     0.059 A 
ATOM     92  Cl  UNL A   1      34.496  21.119  25.211  1.00  0.00    -0.083 Cl
ENDBRANCH  83  86
ENDBRANCH  81  82
ENDBRANCH  74  77
ENDBRANCH  72  73
ENDBRANCH   1  72
TORSDOF 12
ENDMDL
MODEL 2
REMARK VINA RESULT:     -13.0      5.775     11.345
REMARK SMILES O=C(NCCCNC(=O)[C@H]1C=C[C@@H](NC(=O)c2ccc(Cl)cn2)C1)c1ccc(-c2c3nc(c(-c4c(F)c(F)c(F)c(F)c4F)c4ccc([nH]4)c(-c4c(F)c(F)c(F)c(F)c4F)c4nc(c(-c5c(F)c(F)c(F)c(F)c5F)c5ccc2[nH]5)C=C4)C=C3)cc1
REMARK SMILES IDX 5 1 4 2 3 3 1 4 2 5 25 7 26 8 87 9 27 10 86 11 28 12 29 13
REMARK SMILES IDX 30 14 80 15 31 16 85 17 79 18 81 19 32 20 84 21 78 22 77 23
REMARK SMILES IDX 33 25 65 26 45 27 64 28 46 29 49 30 63 31 82 32 47 33 48 34
REMARK SMILES IDX 62 36 83 37 50 38 34 39 35 40 43 41 36 42 37 43 41 44 44 45
REMARK SMILES IDX 38 46 39 47 42 48 40 49 66 50 67 51 75 52 68 53 69 54 73 55
REMARK SMILES IDX 76 56 70 57 71 58 74 59 72 60 51 61 52 62 60 63 53 64 54 65
REMARK SMILES IDX 58 66 61 67 55 68 56 69 59 70 57 71 6 72 7 73 8 74 9 76
REMARK SMILES IDX 10 77 11 78 24 79 12 80 13 81 14 82 15 83 16 85 17 86 18 87
REMARK SMILES IDX 23 88 19 89 22 90 20 91 21 92
REMARK H PARENT 3 6 81 24 49 35 7 75 14 84
REMARK Flexibility Score: inf
ROOT
ATOM      1  C   UNL A   1      38.191  19.708  24.789  1.00  0.00     0.042 C 
ENDROOT
BRANCH   1   2
ATOM      2  C   UNL A   1      39.309  20.046  25.762  1.00  0.00     0.118 C 
BRANCH   2   3
ATOM      3  N   UNL A   1      40.348  19.026  25.828  1.00  0.00    -0.352 N 
ATOM      4  O   UNL A   1      42.423  18.154  25.916  1.00  0.00    -0.269 OA
ATOM      5  C   UNL A   1      41.700  19.138  26.047  1.00  0.00     0.251 C 
ATOM      6  H   UNL A   1      40.028  18.104  25.695  1.00  0.00     0.163 HD
BRANCH   5   7
ATOM      7  C   UNL A   1      42.298  20.446  26.393  1.00  0.00     0.039 A 
ATOM      8  C   UNL A   1      42.353  20.882  27.716  1.00  0.00     0.014 A 
ATOM      9  C   UNL A   1      42.808  21.256  25.374  1.00  0.00     0.014 A 
ATOM     10  C   UNL A   1      42.703  22.197  27.995  1.00  0.00     0.010 A 
ATOM     11  C   UNL A   1      43.276  22.540  25.672  1.00  0.00     0.010 A 
ATOM     12  C   UNL A   1      43.173  23.044  26.978  1.00  0.00    -0.014 A 
BRANCH  12  13
ATOM     13  C   UNL A   1      43.559  24.437  27.319  1.00  0.00     0.031 A 
ATOM     14  C   UNL A   1      44.946  24.953  27.035  1.00  0.00     0.074 A 
ATOM     15  C   UNL A   1      42.628  25.261  27.839  1.00  0.00     0.049 A 
ATOM     16  N   UNL A   1      45.433  26.155  27.224  1.00  0.00    -0.248 NA
ATOM     17  C   UNL A   1      45.915  23.998  26.478  1.00  0.00     0.031 C 
ATOM     18  C   UNL A   1      41.255  24.876  28.169  1.00  0.00     0.029 A 
ATOM     19  N   UNL A   1      42.681  26.595  28.150  1.00  0.00    -0.354 N 
ATOM     20  C   UNL A   1      46.768  26.090  26.843  1.00  0.00     0.074 A 
ATOM     21  C   UNL A   1      47.021  24.727  26.430  1.00  0.00     0.031 C 
ATOM     22  C   UNL A   1      40.577  25.961  28.569  1.00  0.00     0.029 A 
ATOM     23  C   UNL A   1      41.482  27.103  28.589  1.00  0.00     0.049 A 
ATOM     24  H   UNL A   1      43.500  27.138  28.068  1.00  0.00     0.167 HD
ATOM     25  C   UNL A   1      47.693  27.080  26.833  1.00  0.00     0.037 A 
ATOM     26  C   UNL A   1      41.149  28.350  28.969  1.00  0.00     0.037 A 
ATOM     27  C   UNL A   1      47.428  28.446  27.207  1.00  0.00     0.049 A 
ATOM     28  C   UNL A   1      42.193  29.427  28.937  1.00  0.00     0.074 A 
ATOM     29  C   UNL A   1      48.288  29.530  27.187  1.00  0.00     0.029 A 
ATOM     30  N   UNL A   1      46.207  28.915  27.669  1.00  0.00    -0.354 N 
ATOM     31  N   UNL A   1      43.441  29.357  28.546  1.00  0.00    -0.248 NA
ATOM     32  C   UNL A   1      41.781  30.756  29.406  1.00  0.00     0.031 C 
ATOM     33  C   UNL A   1      47.600  30.647  27.675  1.00  0.00     0.029 A 
ATOM     34  C   UNL A   1      46.297  30.269  27.954  1.00  0.00     0.049 A 
ATOM     35  H   UNL A   1      45.396  28.367  27.779  1.00  0.00     0.167 HD
ATOM     36  C   UNL A   1      43.958  30.636  28.697  1.00  0.00     0.074 A 
ATOM     37  C   UNL A   1      42.883  31.465  29.201  1.00  0.00     0.031 C 
ATOM     38  C   UNL A   1      45.213  31.082  28.444  1.00  0.00     0.037 A 
BRANCH  25  39
ATOM     39  C   UNL A   1      49.093  26.722  26.421  1.00  0.00     0.064 A 
ATOM     40  C   UNL A   1      49.542  26.883  25.102  1.00  0.00     0.173 A 
ATOM     41  C   UNL A   1      50.010  26.248  27.372  1.00  0.00     0.173 A 
ATOM     42  F   UNL A   1      48.703  27.320  24.151  1.00  0.00    -0.203 F 
ATOM     43  C   UNL A   1      50.851  26.559  24.746  1.00  0.00     0.198 A 
ATOM     44  C   UNL A   1      51.324  25.951  27.019  1.00  0.00     0.198 A 
ATOM     45  F   UNL A   1      49.634  26.082  28.649  1.00  0.00    -0.203 F 
ATOM     46  F   UNL A   1      51.245  26.678  23.470  1.00  0.00    -0.200 F 
ATOM     47  C   UNL A   1      51.740  26.100  25.705  1.00  0.00     0.200 A 
ATOM     48  F   UNL A   1      52.186  25.519  27.949  1.00  0.00    -0.200 F 
ATOM     49  F   UNL A   1      53.000  25.794  25.361  1.00  0.00    -0.200 F 
ENDBRANCH  25  39
BRANCH  26  50
ATOM     50  C   UNL A   1      39.756  28.642  29.393  1.00  0.00     0.064 A 
ATOM     51  C   UNL A   1      39.352  28.436  30.719  1.00  0.00     0.173 A 
ATOM     52  C   UNL A   1      38.809  29.148  28.490  1.00  0.00     0.173 A 
ATOM     53  F   UNL A   1      40.218  27.938  31.613  1.00  0.00    -0.203 F 
ATOM     54  C   UNL A   1      38.048  28.714  31.123  1.00  0.00     0.198 A 
ATOM     55  C   UNL A   1      37.514  29.452  28.902  1.00  0.00     0.198 A 
ATOM     56  F   UNL A   1      39.151  29.368  27.213  1.00  0.00    -0.203 F 
ATOM     57  F   UNL A   1      37.676  28.473  32.387  1.00  0.00    -0.200 F 
ATOM     58  C   UNL A   1      37.132  29.228  30.217  1.00  0.00     0.200 A 
ATOM     59  F   UNL A   1      36.640  29.965  28.027  1.00  0.00    -0.200 F 
ATOM     60  F   UNL A   1      35.882  29.504  30.608  1.00  0.00    -0.200 F 
ENDBRANCH  26  50
BRANCH  38  61
ATOM     61  C   UNL A   1      45.474  32.542  28.666  1.00  0.00     0.064 A 
ATOM     62  C   UNL A   1      45.973  33.024  29.885  1.00  0.00     0.173 A 
ATOM     63  C   UNL A   1      45.235  33.467  27.639  1.00  0.00     0.173 A 
ATOM     64  F   UNL A   1      46.201  32.180  30.903  1.00  0.00    -0.203 F 
ATOM     65  C   UNL A   1      46.195  34.385  30.076  1.00  0.00     0.198 A 
ATOM     66  C   UNL A   1      45.485  34.823  27.825  1.00  0.00     0.198 A 
ATOM     67  F   UNL A   1      44.762  33.055  26.453  1.00  0.00    -0.203 F 
ATOM     68  F   UNL A   1      46.622  34.830  31.266  1.00  0.00    -0.200 F 
ATOM     69  C   UNL A   1      45.956  35.282  29.046  1.00  0.00     0.200 A 
ATOM     70  F   UNL A   1      45.264  35.687  26.825  1.00  0.00    -0.200 F 
ATOM     71  F   UNL A   1      46.172  36.591  29.233  1.00  0.00    -0.200 F 
ENDBRANCH  38  61
ENDBRANCH  12  13
ENDBRANCH   5   7
ENDBRANCH   2   3
ENDBRANCH   1   2
BRANCH   1  72
ATOM     72  C   UNL A   1      36.854  20.345  25.125  1.00  0.00     0.117 C 
BRANCH  72  73
ATOM     73  N   UNL A   1      35.744  19.417  25.008  1.00  0.00    -0.356 N 
ATOM     74  C   UNL A   1      34.429  19.661  24.729  1.00  0.00     0.227 C 
ATOM     75  H   UNL A   1      35.973  18.470  25.151  1.00  0.00     0.163 HD
ATOM     76  O   UNL A   1      33.672  18.693  24.661  1.00  0.00    -0.274 OA
BRANCH  74  77
ATOM     77  C   UNL A   1      33.956  21.104  24.579  1.00  0.00     0.103 C 
ATOM     78  C   UNL A   1      32.724  21.235  23.725  1.00  0.00    -0.016 C 
ATOM     79  C   UNL A   1      33.479  21.715  25.908  1.00  0.00     0.047 C 
ATOM     80  C   UNL A   1      31.864  22.119  24.234  1.00  0.00    -0.006 C 
ATOM     81  C   UNL A   1      32.346  22.673  25.532  1.00  0.00     0.106 C 
BRANCH  81  82
ATOM     82  N   UNL A   1      31.227  22.634  26.439  1.00  0.00    -0.344 N 
ATOM     83  C   UNL A   1      30.338  23.640  26.742  1.00  0.00     0.270 C 
ATOM     84  H   UNL A   1      31.079  21.777  26.902  1.00  0.00     0.164 HD
ATOM     85  O   UNL A   1      29.368  23.414  27.460  1.00  0.00    -0.267 OA
BRANCH  83  86
ATOM     86  C   UNL A   1      30.571  25.003  26.192  1.00  0.00     0.128 A 
ATOM     87  C   UNL A   1      30.021  25.373  24.967  1.00  0.00     0.036 A 
ATOM     88  N   UNL A   1      31.383  25.805  26.928  1.00  0.00    -0.250 NA
ATOM     89  C   UNL A   1      30.351  26.626  24.449  1.00  0.00     0.024 A 
ATOM     90  C   UNL A   1      31.656  27.026  26.410  1.00  0.00     0.132 A 
ATOM     91  C   UNL A   1      31.181  27.467  25.184  1.00  0.00     0.059 A 
ATOM     92  Cl  UNL A   1      31.617  29.011  24.575  1.00  0.00    -0.083 Cl
ENDBRANCH  83  86
ENDBRANCH  81  82
ENDBRANCH  74  77
ENDBRANCH  72  73
ENDBRANCH   1  72
TORSDOF 12
ENDMDL
MODEL 3
REMARK VINA RESULT:     -13.0      5.747     11.362
REMARK SMILES O=C(NCCCNC(=O)[C@H]1C=C[C@@H](NC(=O)c2ccc(Cl)cn2)C1)c1ccc(-c2c3nc(c(-c4c(F)c(F)c(F)c(F)c4F)c4ccc([nH]4)c(-c4c(F)c(F)c(F)c(F)c4F)c4nc(c(-c5c(F)c(F)c(F)c(F)c5F)c5ccc2[nH]5)C=C4)C=C3)cc1
REMARK SMILES IDX 5 1 4 2 3 3 1 4 2 5 25 7 26 8 87 9 27 10 86 11 28 12 29 13
REMARK SMILES IDX 30 14 80 15 31 16 85 17 79 18 81 19 32 20 84 21 78 22 77 23
REMARK SMILES IDX 33 25 65 26 45 27 64 28 46 29 49 30 63 31 82 32 47 33 48 34
REMARK SMILES IDX 62 36 83 37 50 38 34 39 35 40 43 41 36 42 37 43 41 44 44 45
REMARK SMILES IDX 38 46 39 47 42 48 40 49 66 50 67 51 75 52 68 53 69 54 73 55
REMARK SMILES IDX 76 56 70 57 71 58 74 59 72 60 51 61 52 62 60 63 53 64 54 65
REMARK SMILES IDX 58 66 61 67 55 68 56 69 59 70 57 71 6 72 7 73 8 74 9 76
REMARK SMILES IDX 10 77 11 78 24 79 12 80 13 81 14 82 15 83 16 85 17 86 18 87
REMARK SMILES IDX 23 88 19 89 22 90 20 91 21 92
REMARK H PARENT 3 6 81 24 49 35 7 75 14 84
REMARK Flexibility Score: inf
ROOT
ATOM      1  C   UNL A   1      38.297  19.917  24.821  1.00  0.00     0.042 C 
ENDROOT
BRANCH   1   2
ATOM      2  C   UNL A   1      39.313  20.109  25.936  1.00  0.00     0.118 C 
BRANCH   2   3
ATOM      3  N   UNL A   1      40.368  19.104  25.938  1.00  0.00    -0.352 N 
ATOM      4  O   UNL A   1      42.457  18.261  25.908  1.00  0.00    -0.269 OA
ATOM      5  C   UNL A   1      41.729  19.234  26.085  1.00  0.00     0.251 C 
ATOM      6  H   UNL A   1      40.055  18.179  25.815  1.00  0.00     0.163 HD
BRANCH   5   7
ATOM      7  C   UNL A   1      42.326  20.547  26.409  1.00  0.00     0.039 A 
ATOM      8  C   UNL A   1      42.542  20.930  27.732  1.00  0.00     0.014 A 
ATOM      9  C   UNL A   1      42.671  21.418  25.370  1.00  0.00     0.014 A 
ATOM     10  C   UNL A   1      42.885  22.244  28.022  1.00  0.00     0.010 A 
ATOM     11  C   UNL A   1      43.134  22.704  25.663  1.00  0.00     0.010 A 
ATOM     12  C   UNL A   1      43.189  23.150  26.993  1.00  0.00    -0.014 A 
BRANCH  12  13
ATOM     13  C   UNL A   1      43.574  24.541  27.344  1.00  0.00     0.031 A 
ATOM     14  C   UNL A   1      44.959  25.061  27.064  1.00  0.00     0.074 A 
ATOM     15  C   UNL A   1      42.641  25.360  27.869  1.00  0.00     0.049 A 
ATOM     16  N   UNL A   1      45.445  26.262  27.261  1.00  0.00    -0.248 NA
ATOM     17  C   UNL A   1      45.930  24.111  26.501  1.00  0.00     0.031 C 
ATOM     18  C   UNL A   1      41.268  24.971  28.196  1.00  0.00     0.029 A 
ATOM     19  N   UNL A   1      42.693  26.692  28.190  1.00  0.00    -0.354 N 
ATOM     20  C   UNL A   1      46.780  26.202  26.880  1.00  0.00     0.074 A 
ATOM     21  C   UNL A   1      47.035  24.842  26.458  1.00  0.00     0.031 C 
ATOM     22  C   UNL A   1      40.588  26.052  28.604  1.00  0.00     0.029 A 
ATOM     23  C   UNL A   1      41.493  27.195  28.632  1.00  0.00     0.049 A 
ATOM     24  H   UNL A   1      43.511  27.236  28.112  1.00  0.00     0.167 HD
ATOM     25  C   UNL A   1      47.704  27.193  26.877  1.00  0.00     0.037 A 
ATOM     26  C   UNL A   1      41.157  28.439  29.020  1.00  0.00     0.037 A 
ATOM     27  C   UNL A   1      47.437  28.556  27.261  1.00  0.00     0.049 A 
ATOM     28  C   UNL A   1      42.200  29.517  28.997  1.00  0.00     0.074 A 
ATOM     29  C   UNL A   1      48.296  29.641  27.249  1.00  0.00     0.029 A 
ATOM     30  N   UNL A   1      46.215  29.020  27.726  1.00  0.00    -0.354 N 
ATOM     31  N   UNL A   1      43.449  29.452  28.606  1.00  0.00    -0.248 NA
ATOM     32  C   UNL A   1      41.786  30.843  29.475  1.00  0.00     0.031 C 
ATOM     33  C   UNL A   1      47.606  30.753  27.745  1.00  0.00     0.029 A 
ATOM     34  C   UNL A   1      46.303  30.372  28.021  1.00  0.00     0.049 A 
ATOM     35  H   UNL A   1      45.405  28.470  27.832  1.00  0.00     0.167 HD
ATOM     36  C   UNL A   1      43.964  30.730  28.766  1.00  0.00     0.074 A 
ATOM     37  C   UNL A   1      42.887  31.555  29.275  1.00  0.00     0.031 C 
ATOM     38  C   UNL A   1      45.219  31.180  28.516  1.00  0.00     0.037 A 
BRANCH  25  39
ATOM     39  C   UNL A   1      49.105  26.839  26.463  1.00  0.00     0.064 A 
ATOM     40  C   UNL A   1      50.038  26.322  27.373  1.00  0.00     0.173 A 
ATOM     41  C   UNL A   1      49.504  26.983  25.125  1.00  0.00     0.173 A 
ATOM     42  F   UNL A   1      49.713  26.177  28.666  1.00  0.00    -0.203 F 
ATOM     43  C   UNL A   1      51.328  25.986  26.964  1.00  0.00     0.198 A 
ATOM     44  C   UNL A   1      50.784  26.621  24.714  1.00  0.00     0.198 A 
ATOM     45  F   UNL A   1      48.647  27.467  24.213  1.00  0.00    -0.203 F 
ATOM     46  F   UNL A   1      52.217  25.536  27.860  1.00  0.00    -0.200 F 
ATOM     47  C   UNL A   1      51.696  26.129  25.635  1.00  0.00     0.200 A 
ATOM     48  F   UNL A   1      51.135  26.748  23.427  1.00  0.00    -0.200 F 
ATOM     49  F   UNL A   1      52.936  25.800  25.242  1.00  0.00    -0.200 F 
ENDBRANCH  25  39
BRANCH  26  50
ATOM     50  C   UNL A   1      39.764  28.726  29.447  1.00  0.00     0.064 A 
ATOM     51  C   UNL A   1      38.825  29.230  28.537  1.00  0.00     0.173 A 
ATOM     52  C   UNL A   1      39.340  28.487  30.762  1.00  0.00     0.173 A 
ATOM     53  F   UNL A   1      39.189  29.490  27.273  1.00  0.00    -0.203 F 
ATOM     54  C   UNL A   1      37.515  29.496  28.931  1.00  0.00     0.198 A 
ATOM     55  C   UNL A   1      38.023  28.726  31.147  1.00  0.00     0.198 A 
ATOM     56  F   UNL A   1      40.200  27.999  31.667  1.00  0.00    -0.203 F 
ATOM     57  F   UNL A   1      36.646  30.012  28.052  1.00  0.00    -0.200 F 
ATOM     58  C   UNL A   1      37.113  29.237  30.233  1.00  0.00     0.200 A 
ATOM     59  F   UNL A   1      37.636  28.457  32.401  1.00  0.00    -0.200 F 
ATOM     60  F   UNL A   1      35.852  29.484  30.608  1.00  0.00    -0.200 F 
ENDBRANCH  26  50
BRANCH  38  61
ATOM     61  C   UNL A   1      45.477  32.639  28.749  1.00  0.00     0.064 A 
ATOM     62  C   UNL A   1      45.967  33.114  29.973  1.00  0.00     0.173 A 
ATOM     63  C   UNL A   1      45.245  33.570  27.725  1.00  0.00     0.173 A 
ATOM     64  F   UNL A   1      46.188  32.264  30.988  1.00  0.00    -0.203 F 
ATOM     65  C   UNL A   1      46.188  34.474  30.175  1.00  0.00     0.198 A 
ATOM     66  C   UNL A   1      45.493  34.925  27.921  1.00  0.00     0.198 A 
ATOM     67  F   UNL A   1      44.781  33.164  26.533  1.00  0.00    -0.203 F 
ATOM     68  F   UNL A   1      46.605  34.912  31.370  1.00  0.00    -0.200 F 
ATOM     69  C   UNL A   1      45.956  35.377  29.148  1.00  0.00     0.200 A 
ATOM     70  F   UNL A   1      45.280  35.795  26.924  1.00  0.00    -0.200 F 
ATOM     71  F   UNL A   1      46.170  36.685  29.344  1.00  0.00    -0.200 F 
ENDBRANCH  38  61
ENDBRANCH  12  13
ENDBRANCH   5   7
ENDBRANCH   2   3
ENDBRANCH   1   2
BRANCH   1  72
ATOM     72  C   UNL A   1      36.945  20.555  25.090  1.00  0.00     0.117 C 
BRANCH  72  73
ATOM     73  N   UNL A   1      35.851  19.603  25.017  1.00  0.00    -0.356 N 
ATOM     74  C   UNL A   1      34.525  19.816  24.764  1.00  0.00     0.227 C 
ATOM     75  H   UNL A   1      36.102  18.664  25.172  1.00  0.00     0.163 HD
ATOM     76  O   UNL A   1      33.786  18.833  24.732  1.00  0.00    -0.274 OA
BRANCH  74  77
ATOM     77  C   UNL A   1      34.021  21.247  24.598  1.00  0.00     0.103 C 
ATOM     78  C   UNL A   1      32.786  21.342  23.743  1.00  0.00    -0.016 C 
ATOM     79  C   UNL A   1      33.531  21.862  25.921  1.00  0.00     0.047 C 
ATOM     80  C   UNL A   1      31.907  22.212  24.243  1.00  0.00    -0.006 C 
ATOM     81  C   UNL A   1      32.377  22.791  25.535  1.00  0.00     0.106 C 
BRANCH  81  82
ATOM     82  N   UNL A   1      31.259  22.737  26.443  1.00  0.00    -0.344 N 
ATOM     83  C   UNL A   1      30.342  23.723  26.726  1.00  0.00     0.270 C 
ATOM     84  H   UNL A   1      31.136  21.886  26.923  1.00  0.00     0.164 HD
ATOM     85  O   UNL A   1      29.379  23.484  27.448  1.00  0.00    -0.267 OA
BRANCH  83  86
ATOM     86  C   UNL A   1      30.535  25.081  26.149  1.00  0.00     0.128 A 
ATOM     87  C   UNL A   1      29.959  25.417  24.926  1.00  0.00     0.036 A 
ATOM     88  N   UNL A   1      31.338  25.914  26.859  1.00  0.00    -0.250 NA
ATOM     89  C   UNL A   1      30.253  26.667  24.381  1.00  0.00     0.024 A 
ATOM     90  C   UNL A   1      31.576  27.131  26.316  1.00  0.00     0.132 A 
ATOM     91  C   UNL A   1      31.074  27.540  25.090  1.00  0.00     0.059 A 
ATOM     92  Cl  UNL A   1      31.465  29.082  24.447  1.00  0.00    -0.083 Cl
ENDBRANCH  83  86
ENDBRANCH  81  82
ENDBRANCH  74  77
ENDBRANCH  72  73
ENDBRANCH   1  72
TORSDOF 12
ENDMDL
