MODEL 1
REMARK VINA RESULT:     -16.2      0.000      0.000
REMARK SMILES Cc1ccn2c([C@@H]3CCCC[C@@H]3C(=O)NCCCNC(=O)c3ccc(-c4c5nc(c(-c6c(F)c(F)c(F)c(F)c6F)c6ccc([nH]6)c(-c6c(F)c(F)c(F)c(F)c6F)c6nc(c(-c7c(F)c(F)c(F)c(F)c7F)c7ccc4[nH]7)C=C6)C=C5)cc3)nnc2c1
REMARK SMILES IDX 17 1 16 2 15 3 13 4 14 5 12 7 7 8 8 9 9 10 11 11 10 12 6 13
REMARK SMILES IDX 1 14 2 15 3 16 88 17 4 18 87 19 5 20 86 21 85 22 18 23 19 24
REMARK SMILES IDX 20 25 21 27 22 28 23 29 84 30 24 31 83 32 25 33 26 34 27 35
REMARK SMILES IDX 77 36 28 37 82 38 76 39 78 40 29 41 81 42 75 43 74 44 30 46
REMARK SMILES IDX 62 47 42 48 61 49 43 50 46 51 60 52 79 53 44 54 45 55 59 57
REMARK SMILES IDX 80 58 47 59 31 60 32 61 40 62 33 63 34 64 38 65 41 66 35 67
REMARK SMILES IDX 36 68 39 69 37 70 63 71 64 72 72 73 65 74 66 75 70 76 73 77
REMARK SMILES IDX 67 78 68 79 71 80 69 81 48 82 49 83 57 84 50 85 51 86 55 87
REMARK SMILES IDX 58 88 52 89 53 90 56 91 54 92
REMARK H PARENT 15 6 19 26 78 45 46 56
REMARK Flexibility Score: inf
ROOT
ATOM      1  C   UNL A   1      33.608  28.577  27.355  1.00  0.00     0.042 C 
ENDROOT
BRANCH   1   2
ATOM      2  C   UNL A   1      31.489  27.993  26.895  1.00  0.00     0.117 C 
BRANCH   2   3
ATOM      3  N   UNL A   1      31.031  26.338  26.876  1.00  0.00    -0.356 N 
ATOM      4  C   UNL A   1      30.326  25.489  26.044  1.00  0.00     0.223 C 
ATOM      5  O   UNL A   1      29.646  24.642  26.641  1.00  0.00    -0.275 OA
ATOM      6  H   UNL A   1      31.360  25.866  27.675  1.00  0.00     0.163 HD
BRANCH   4   7
ATOM      7  C   UNL A   1      30.379  25.470  24.477  1.00  0.00     0.089 C 
ATOM      8  C   UNL A   1      31.691  25.628  23.680  1.00  0.00     0.071 C 
ATOM      9  C   UNL A   1      32.215  27.072  23.545  1.00  0.00     0.012 C 
ATOM     10  C   UNL A   1      31.180  27.997  22.952  1.00  0.00     0.001 C 
ATOM     11  C   UNL A   1      29.364  26.482  23.874  1.00  0.00     0.014 C 
ATOM     12  C   UNL A   1      29.896  27.919  23.765  1.00  0.00     0.001 C 
BRANCH   8  13
ATOM     13  C   UNL A   1      32.749  24.838  24.283  1.00  0.00     0.141 A 
ATOM     14  C   UNL A   1      34.080  18.076  24.467  1.00  0.00     0.044 C 
ATOM     15  C   UNL A   1      33.945  19.573  24.627  1.00  0.00    -0.046 A 
ATOM     16  C   UNL A   1      32.528  20.265  23.285  1.00  0.00     0.022 A 
ATOM     17  C   UNL A   1      34.728  21.078  25.397  1.00  0.00     0.053 A 
ATOM     18  C   UNL A   1      31.963  21.931  23.107  1.00  0.00     0.095 A 
ATOM     19  C   UNL A   1      34.305  22.932  25.006  1.00  0.00     0.161 A 
ATOM     20  N   UNL A   1      32.735  23.509  24.022  1.00  0.00    -0.286 N 
ATOM     21  N   UNL A   1      34.645  24.114  25.523  1.00  0.00    -0.130 NA
ATOM     22  N   UNL A   1      33.773  25.180  25.061  1.00  0.00    -0.134 NA
ENDBRANCH   8  13
ENDBRANCH   4   7
ENDBRANCH   2   3
ENDBRANCH   1   2
BRANCH   1  23
ATOM     23  C   UNL A   1      34.176  28.831  26.256  1.00  0.00     0.118 C 
BRANCH  23  24
ATOM     24  N   UNL A   1      34.464  30.855  26.876  1.00  0.00    -0.352 N 
ATOM     25  C   UNL A   1      35.502  31.631  27.860  1.00  0.00     0.251 C 
ATOM     26  H   UNL A   1      33.810  31.467  26.466  1.00  0.00     0.163 HD
ATOM     27  O   UNL A   1      35.508  32.861  27.720  1.00  0.00    -0.269 OA
BRANCH  25  28
ATOM     28  C   UNL A   1      36.557  31.012  28.926  1.00  0.00     0.039 A 
ATOM     29  C   UNL A   1      37.696  31.623  29.481  1.00  0.00     0.014 A 
ATOM     30  C   UNL A   1      36.398  29.703  29.378  1.00  0.00     0.014 A 
ATOM     31  C   UNL A   1      38.853  30.906  29.674  1.00  0.00     0.010 A 
ATOM     32  C   UNL A   1      37.483  29.013  29.952  1.00  0.00     0.010 A 
ATOM     33  C   UNL A   1      38.760  29.544  29.826  1.00  0.00    -0.014 A 
BRANCH  33  34
ATOM     34  C   UNL A   1      40.013  28.786  29.897  1.00  0.00     0.031 A 
ATOM     35  C   UNL A   1      40.618  28.720  31.270  1.00  0.00     0.074 A 
ATOM     36  C   UNL A   1      40.590  28.241  28.801  1.00  0.00     0.049 A 
ATOM     37  N   UNL A   1      41.757  29.196  31.669  1.00  0.00    -0.248 NA
ATOM     38  C   UNL A   1      39.754  28.264  32.374  1.00  0.00     0.031 C 
ATOM     39  C   UNL A   1      40.081  28.190  27.429  1.00  0.00     0.029 A 
ATOM     40  N   UNL A   1      41.767  27.545  28.702  1.00  0.00    -0.354 N 
ATOM     41  C   UNL A   1      41.836  28.917  33.034  1.00  0.00     0.074 A 
ATOM     42  C   UNL A   1      40.520  28.503  33.439  1.00  0.00     0.031 C 
ATOM     43  C   UNL A   1      40.777  27.281  26.710  1.00  0.00     0.029 A 
ATOM     44  C   UNL A   1      41.886  26.810  27.512  1.00  0.00     0.049 A 
ATOM     45  H   UNL A   1      42.462  27.559  29.399  1.00  0.00     0.167 HD
ATOM     46  C   UNL A   1      43.040  28.807  33.661  1.00  0.00     0.037 A 
ATOM     47  C   UNL A   1      42.823  25.859  27.247  1.00  0.00     0.037 A 
ATOM     48  C   UNL A   1      44.056  29.538  32.951  1.00  0.00     0.049 A 
ATOM     49  C   UNL A   1      43.973  26.135  28.146  1.00  0.00     0.074 A 
ATOM     50  C   UNL A   1      44.280  30.873  32.678  1.00  0.00     0.029 A 
ATOM     51  N   UNL A   1      44.842  28.842  32.070  1.00  0.00    -0.354 N 
ATOM     52  N   UNL A   1      44.706  27.210  28.034  1.00  0.00    -0.248 NA
ATOM     53  C   UNL A   1      43.932  25.522  29.467  1.00  0.00     0.031 C 
ATOM     54  C   UNL A   1      44.772  30.894  31.340  1.00  0.00     0.029 A 
ATOM     55  C   UNL A   1      44.922  29.574  30.915  1.00  0.00     0.049 A 
ATOM     56  H   UNL A   1      45.272  27.972  32.237  1.00  0.00     0.167 HD
ATOM     57  C   UNL A   1      44.860  27.659  29.335  1.00  0.00     0.074 A 
ATOM     58  C   UNL A   1      44.366  26.567  30.179  1.00  0.00     0.031 C 
ATOM     59  C   UNL A   1      45.079  28.975  29.613  1.00  0.00     0.037 A 
BRANCH  46  60
ATOM     60  C   UNL A   1      43.375  27.686  34.627  1.00  0.00     0.064 A 
ATOM     61  C   UNL A   1      43.757  28.005  35.947  1.00  0.00     0.173 A 
ATOM     62  C   UNL A   1      43.649  26.358  34.227  1.00  0.00     0.173 A 
ATOM     63  F   UNL A   1      43.557  29.237  36.439  1.00  0.00    -0.203 F 
ATOM     64  C   UNL A   1      44.447  27.098  36.759  1.00  0.00     0.198 A 
ATOM     65  C   UNL A   1      44.298  25.445  35.055  1.00  0.00     0.198 A 
ATOM     66  F   UNL A   1      43.403  25.913  32.992  1.00  0.00    -0.203 F 
ATOM     67  F   UNL A   1      44.903  27.490  37.957  1.00  0.00    -0.200 F 
ATOM     68  C   UNL A   1      44.727  25.823  36.307  1.00  0.00     0.200 A 
ATOM     69  F   UNL A   1      44.575  24.219  34.587  1.00  0.00    -0.200 F 
ATOM     70  F   UNL A   1      45.444  24.974  37.054  1.00  0.00    -0.200 F 
ENDBRANCH  46  60
BRANCH  47  71
ATOM     71  C   UNL A   1      42.608  24.530  26.610  1.00  0.00     0.064 A 
ATOM     72  C   UNL A   1      43.364  24.103  25.502  1.00  0.00     0.173 A 
ATOM     73  C   UNL A   1      41.849  23.536  27.258  1.00  0.00     0.173 A 
ATOM     74  F   UNL A   1      44.167  24.965  24.860  1.00  0.00    -0.203 F 
ATOM     75  C   UNL A   1      43.362  22.765  25.077  1.00  0.00     0.198 A 
ATOM     76  C   UNL A   1      41.849  22.204  26.836  1.00  0.00     0.198 A 
ATOM     77  F   UNL A   1      41.166  23.818  28.376  1.00  0.00    -0.203 F 
ATOM     78  F   UNL A   1      44.131  22.385  24.047  1.00  0.00    -0.200 F 
ATOM     79  C   UNL A   1      42.611  21.816  25.751  1.00  0.00     0.200 A 
ATOM     80  F   UNL A   1      41.155  21.289  27.527  1.00  0.00    -0.200 F 
ATOM     81  F   UNL A   1      42.652  20.528  25.383  1.00  0.00    -0.200 F 
ENDBRANCH  47  71
BRANCH  59  82
ATOM     82  C   UNL A   1      45.306  29.921  28.466  1.00  0.00     0.064 A 
ATOM     83  C   UNL A   1      44.274  30.613  27.806  1.00  0.00     0.173 A 
ATOM     84  C   UNL A   1      46.622  30.287  28.166  1.00  0.00     0.173 A 
ATOM     85  F   UNL A   1      42.990  30.381  28.106  1.00  0.00    -0.203 F 
ATOM     86  C   UNL A   1      44.556  31.615  26.876  1.00  0.00     0.198 A 
ATOM     87  C   UNL A   1      46.900  31.309  27.261  1.00  0.00     0.198 A 
ATOM     88  F   UNL A   1      47.643  29.698  28.807  1.00  0.00    -0.203 F 
ATOM     89  F   UNL A   1      43.556  32.267  26.263  1.00  0.00    -0.200 F 
ATOM     90  C   UNL A   1      45.870  31.969  26.613  1.00  0.00     0.200 A 
ATOM     91  F   UNL A   1      48.171  31.679  27.052  1.00  0.00    -0.200 F 
ATOM     92  F   UNL A   1      46.143  32.964  25.757  1.00  0.00    -0.200 F 
ENDBRANCH  59  82
ENDBRANCH  33  34
ENDBRANCH  25  28
ENDBRANCH  23  24
ENDBRANCH   1  23
TORSDOF 11
ENDMDL
MODEL 2
REMARK VINA RESULT:     -16.0      3.344      8.695
REMARK SMILES Cc1ccn2c([C@@H]3CCCC[C@@H]3C(=O)NCCCNC(=O)c3ccc(-c4c5nc(c(-c6c(F)c(F)c(F)c(F)c6F)c6ccc([nH]6)c(-c6c(F)c(F)c(F)c(F)c6F)c6nc(c(-c7c(F)c(F)c(F)c(F)c7F)c7ccc4[nH]7)C=C6)C=C5)cc3)nnc2c1
REMARK SMILES IDX 17 1 16 2 15 3 13 4 14 5 12 7 7 8 8 9 9 10 11 11 10 12 6 13
REMARK SMILES IDX 1 14 2 15 3 16 88 17 4 18 87 19 5 20 86 21 85 22 18 23 19 24
REMARK SMILES IDX 20 25 21 27 22 28 23 29 84 30 24 31 83 32 25 33 26 34 27 35
REMARK SMILES IDX 77 36 28 37 82 38 76 39 78 40 29 41 81 42 75 43 74 44 30 46
REMARK SMILES IDX 62 47 42 48 61 49 43 50 46 51 60 52 79 53 44 54 45 55 59 57
REMARK SMILES IDX 80 58 47 59 31 60 32 61 40 62 33 63 34 64 38 65 41 66 35 67
REMARK SMILES IDX 36 68 39 69 37 70 63 71 64 72 72 73 65 74 66 75 70 76 73 77
REMARK SMILES IDX 67 78 68 79 71 80 69 81 48 82 49 83 57 84 50 85 51 86 55 87
REMARK SMILES IDX 58 88 52 89 53 90 56 91 54 92
REMARK H PARENT 15 6 19 26 78 45 46 56
REMARK Flexibility Score: inf
ROOT
ATOM      1  C   UNL A   1      36.076  22.698  26.023  1.00  0.00     0.042 C 
ENDROOT
BRANCH   1   2
ATOM      2  C   UNL A   1      35.656  22.167  23.882  1.00  0.00     0.117 C 
BRANCH   2   3
ATOM      3  N   UNL A   1      34.721  23.217  22.896  1.00  0.00    -0.356 N 
ATOM      4  C   UNL A   1      33.461  23.223  22.328  1.00  0.00     0.223 C 
ATOM      5  O   UNL A   1      33.413  23.746  21.205  1.00  0.00    -0.275 OA
ATOM      6  H   UNL A   1      35.218  24.037  22.674  1.00  0.00     0.163 HD
BRANCH   4   7
ATOM      7  C   UNL A   1      32.139  22.711  22.998  1.00  0.00     0.089 C 
ATOM      8  C   UNL A   1      31.822  22.920  24.494  1.00  0.00     0.071 C 
ATOM      9  C   UNL A   1      32.528  21.950  25.463  1.00  0.00     0.012 C 
ATOM     10  C   UNL A   1      32.261  20.506  25.113  1.00  0.00     0.001 C 
ATOM     11  C   UNL A   1      31.910  21.203  22.698  1.00  0.00     0.014 C 
ATOM     12  C   UNL A   1      32.637  20.252  23.661  1.00  0.00     0.001 C 
BRANCH   8  13
ATOM     13  C   UNL A   1      32.168  24.269  24.902  1.00  0.00     0.141 A 
ATOM     14  C   UNL A   1      29.471  30.463  23.529  1.00  0.00     0.044 C 
ATOM     15  C   UNL A   1      30.270  29.235  23.899  1.00  0.00    -0.046 A 
ATOM     16  C   UNL A   1      29.173  27.549  23.409  1.00  0.00     0.022 A 
ATOM     17  C   UNL A   1      31.763  28.643  24.844  1.00  0.00     0.053 A 
ATOM     18  C   UNL A   1      29.681  25.865  23.591  1.00  0.00     0.095 A 
ATOM     19  C   UNL A   1      32.194  26.804  25.292  1.00  0.00     0.161 A 
ATOM     20  N   UNL A   1      31.331  25.256  24.502  1.00  0.00    -0.286 N 
ATOM     21  N   UNL A   1      33.243  26.177  25.830  1.00  0.00    -0.130 NA
ATOM     22  N   UNL A   1      33.177  24.740  25.630  1.00  0.00    -0.134 NA
ENDBRANCH   8  13
ENDBRANCH   4   7
ENDBRANCH   2   3
ENDBRANCH   1   2
BRANCH   1  23
ATOM     23  C   UNL A   1      36.770  23.753  26.021  1.00  0.00     0.118 C 
BRANCH  23  24
ATOM     24  N   UNL A   1      38.491  22.618  26.586  1.00  0.00    -0.352 N 
ATOM     25  C   UNL A   1      39.983  22.967  27.131  1.00  0.00     0.251 C 
ATOM     26  H   UNL A   1      38.344  21.648  26.495  1.00  0.00     0.163 HD
ATOM     27  O   UNL A   1      40.583  22.000  27.617  1.00  0.00    -0.269 OA
BRANCH  25  28
ATOM     28  C   UNL A   1      40.743  24.400  27.186  1.00  0.00     0.039 A 
ATOM     29  C   UNL A   1      41.793  24.799  28.032  1.00  0.00     0.014 A 
ATOM     30  C   UNL A   1      40.343  25.430  26.335  1.00  0.00     0.014 A 
ATOM     31  C   UNL A   1      41.825  26.068  28.561  1.00  0.00     0.010 A 
ATOM     32  C   UNL A   1      40.677  26.765  26.629  1.00  0.00     0.010 A 
ATOM     33  C   UNL A   1      41.171  27.073  27.890  1.00  0.00    -0.014 A 
BRANCH  33  34
ATOM     34  C   UNL A   1      41.106  28.386  28.538  1.00  0.00     0.031 A 
ATOM     35  C   UNL A   1      42.276  29.279  28.245  1.00  0.00     0.074 A 
ATOM     36  C   UNL A   1      40.094  28.731  29.369  1.00  0.00     0.049 A 
ATOM     37  N   UNL A   1      43.157  29.746  29.075  1.00  0.00    -0.248 NA
ATOM     38  C   UNL A   1      42.633  29.494  26.831  1.00  0.00     0.031 C 
ATOM     39  C   UNL A   1      38.880  27.978  29.693  1.00  0.00     0.029 A 
ATOM     40  N   UNL A   1      39.915  29.893  30.073  1.00  0.00    -0.354 N 
ATOM     41  C   UNL A   1      44.061  30.481  28.307  1.00  0.00     0.074 A 
ATOM     42  C   UNL A   1      43.788  30.150  26.935  1.00  0.00     0.031 C 
ATOM     43  C   UNL A   1      37.976  28.792  30.283  1.00  0.00     0.029 A 
ATOM     44  C   UNL A   1      38.602  30.072  30.535  1.00  0.00     0.049 A 
ATOM     45  H   UNL A   1      40.637  30.540  30.238  1.00  0.00     0.167 HD
ATOM     46  C   UNL A   1      44.789  31.494  28.855  1.00  0.00     0.037 A 
ATOM     47  C   UNL A   1      38.083  31.220  31.051  1.00  0.00     0.037 A 
ATOM     48  C   UNL A   1      44.937  31.308  30.275  1.00  0.00     0.049 A 
ATOM     49  C   UNL A   1      39.232  32.017  31.551  1.00  0.00     0.074 A 
ATOM     50  C   UNL A   1      45.569  30.374  31.071  1.00  0.00     0.029 A 
ATOM     51  N   UNL A   1      44.056  31.963  31.096  1.00  0.00    -0.354 N 
ATOM     52  N   UNL A   1      39.967  31.629  32.558  1.00  0.00    -0.248 NA
ATOM     53  C   UNL A   1      39.876  32.908  30.595  1.00  0.00     0.031 C 
ATOM     54  C   UNL A   1      44.682  30.172  32.170  1.00  0.00     0.029 A 
ATOM     55  C   UNL A   1      43.621  31.067  32.037  1.00  0.00     0.049 A 
ATOM     56  H   UNL A   1      43.785  32.906  31.023  1.00  0.00     0.167 HD
ATOM     57  C   UNL A   1      41.268  31.858  32.144  1.00  0.00     0.074 A 
ATOM     58  C   UNL A   1      41.147  32.659  30.923  1.00  0.00     0.031 C 
ATOM     59  C   UNL A   1      42.311  31.131  32.636  1.00  0.00     0.037 A 
BRANCH  46  60
ATOM     60  C   UNL A   1      44.959  32.848  28.193  1.00  0.00     0.064 A 
ATOM     61  C   UNL A   1      46.252  33.279  27.829  1.00  0.00     0.173 A 
ATOM     62  C   UNL A   1      43.970  33.856  28.200  1.00  0.00     0.173 A 
ATOM     63  F   UNL A   1      47.278  32.416  27.794  1.00  0.00    -0.203 F 
ATOM     64  C   UNL A   1      46.545  34.627  27.591  1.00  0.00     0.198 A 
ATOM     65  C   UNL A   1      44.257  35.191  27.921  1.00  0.00     0.198 A 
ATOM     66  F   UNL A   1      42.709  33.626  28.578  1.00  0.00    -0.203 F 
ATOM     67  F   UNL A   1      47.812  35.006  27.377  1.00  0.00    -0.200 F 
ATOM     68  C   UNL A   1      45.549  35.583  27.649  1.00  0.00     0.200 A 
ATOM     69  F   UNL A   1      43.278  36.103  28.002  1.00  0.00    -0.200 F 
ATOM     70  F   UNL A   1      45.836  36.880  27.489  1.00  0.00    -0.200 F 
ENDBRANCH  46  60
BRANCH  47  71
ATOM     71  C   UNL A   1      36.759  31.831  30.749  1.00  0.00     0.064 A 
ATOM     72  C   UNL A   1      35.872  32.230  31.766  1.00  0.00     0.173 A 
ATOM     73  C   UNL A   1      36.461  32.297  29.453  1.00  0.00     0.173 A 
ATOM     74  F   UNL A   1      36.109  31.888  33.041  1.00  0.00    -0.203 F 
ATOM     75  C   UNL A   1      34.762  33.048  31.500  1.00  0.00     0.198 A 
ATOM     76  C   UNL A   1      35.357  33.112  29.190  1.00  0.00     0.198 A 
ATOM     77  F   UNL A   1      37.290  32.049  28.430  1.00  0.00    -0.203 F 
ATOM     78  F   UNL A   1      33.965  33.448  32.502  1.00  0.00    -0.200 F 
ATOM     79  C   UNL A   1      34.512  33.495  30.213  1.00  0.00     0.200 A 
ATOM     80  F   UNL A   1      35.155  33.575  27.948  1.00  0.00    -0.200 F 
ATOM     81  F   UNL A   1      33.487  34.323  29.967  1.00  0.00    -0.200 F 
ENDBRANCH  47  71
BRANCH  59  82
ATOM     82  C   UNL A   1      42.045  30.170  33.762  1.00  0.00     0.064 A 
ATOM     83  C   UNL A   1      41.697  28.820  33.573  1.00  0.00     0.173 A 
ATOM     84  C   UNL A   1      42.352  30.580  35.064  1.00  0.00     0.173 A 
ATOM     85  F   UNL A   1      41.477  28.332  32.346  1.00  0.00    -0.203 F 
ATOM     86  C   UNL A   1      41.644  27.930  34.648  1.00  0.00     0.198 A 
ATOM     87  C   UNL A   1      42.329  29.683  36.129  1.00  0.00     0.198 A 
ATOM     88  F   UNL A   1      42.744  31.843  35.292  1.00  0.00    -0.203 F 
ATOM     89  F   UNL A   1      41.316  26.645  34.444  1.00  0.00    -0.200 F 
ATOM     90  C   UNL A   1      41.971  28.361  35.923  1.00  0.00     0.200 A 
ATOM     91  F   UNL A   1      42.697  30.097  37.349  1.00  0.00    -0.200 F 
ATOM     92  F   UNL A   1      41.969  27.499  36.950  1.00  0.00    -0.200 F 
ENDBRANCH  59  82
ENDBRANCH  33  34
ENDBRANCH  25  28
ENDBRANCH  23  24
ENDBRANCH   1  23
TORSDOF 11
ENDMDL
MODEL 3
REMARK VINA RESULT:     -15.6      3.096      8.164
REMARK SMILES Cc1ccn2c([C@@H]3CCCC[C@@H]3C(=O)NCCCNC(=O)c3ccc(-c4c5nc(c(-c6c(F)c(F)c(F)c(F)c6F)c6ccc([nH]6)c(-c6c(F)c(F)c(F)c(F)c6F)c6nc(c(-c7c(F)c(F)c(F)c(F)c7F)c7ccc4[nH]7)C=C6)C=C5)cc3)nnc2c1
REMARK SMILES IDX 17 1 16 2 15 3 13 4 14 5 12 7 7 8 8 9 9 10 11 11 10 12 6 13
REMARK SMILES IDX 1 14 2 15 3 16 88 17 4 18 87 19 5 20 86 21 85 22 18 23 19 24
REMARK SMILES IDX 20 25 21 27 22 28 23 29 84 30 24 31 83 32 25 33 26 34 27 35
REMARK SMILES IDX 77 36 28 37 82 38 76 39 78 40 29 41 81 42 75 43 74 44 30 46
REMARK SMILES IDX 62 47 42 48 61 49 43 50 46 51 60 52 79 53 44 54 45 55 59 57
REMARK SMILES IDX 80 58 47 59 31 60 32 61 40 62 33 63 34 64 38 65 41 66 35 67
REMARK SMILES IDX 36 68 39 69 37 70 63 71 64 72 72 73 65 74 66 75 70 76 73 77
REMARK SMILES IDX 67 78 68 79 71 80 69 81 48 82 49 83 57 84 50 85 51 86 55 87
REMARK SMILES IDX 58 88 52 89 53 90 56 91 54 92
REMARK H PARENT 15 6 19 26 78 45 46 56
REMARK Flexibility Score: inf
ROOT
ATOM      1  C   UNL A   1      36.931  23.903  26.132  1.00  0.00     0.042 C 
ENDROOT
BRANCH   1   2
ATOM      2  C   UNL A   1      34.795  24.547  25.871  1.00  0.00     0.117 C 
BRANCH   2   3
ATOM      3  N   UNL A   1      34.357  25.592  24.581  1.00  0.00    -0.356 N 
ATOM      4  C   UNL A   1      33.202  26.169  24.089  1.00  0.00     0.223 C 
ATOM      5  O   UNL A   1      33.163  26.254  22.853  1.00  0.00    -0.275 OA
ATOM      6  H   UNL A   1      35.142  25.849  24.046  1.00  0.00     0.163 HD
BRANCH   4   7
ATOM      7  C   UNL A   1      32.026  26.763  24.940  1.00  0.00     0.089 C 
ATOM      8  C   UNL A   1      30.821  25.920  25.409  1.00  0.00     0.071 C 
ATOM      9  C   UNL A   1      29.738  25.661  24.343  1.00  0.00     0.012 C 
ATOM     10  C   UNL A   1      29.220  26.943  23.739  1.00  0.00     0.001 C 
ATOM     11  C   UNL A   1      31.445  28.042  24.272  1.00  0.00     0.014 C 
ATOM     12  C   UNL A   1      30.382  27.763  23.199  1.00  0.00     0.001 C 
BRANCH   8  13
ATOM     13  C   UNL A   1      31.267  24.627  25.898  1.00  0.00     0.141 A 
ATOM     14  C   UNL A   1      32.562  18.597  22.817  1.00  0.00     0.044 C 
ATOM     15  C   UNL A   1      32.264  19.782  23.707  1.00  0.00    -0.046 A 
ATOM     16  C   UNL A   1      32.041  21.468  22.525  1.00  0.00     0.022 A 
ATOM     17  C   UNL A   1      32.250  20.367  25.476  1.00  0.00     0.053 A 
ATOM     18  C   UNL A   1      31.632  23.099  23.073  1.00  0.00     0.095 A 
ATOM     19  C   UNL A   1      32.076  22.201  26.087  1.00  0.00     0.161 A 
ATOM     20  N   UNL A   1      31.511  23.678  24.963  1.00  0.00    -0.286 N 
ATOM     21  N   UNL A   1      31.918  22.798  27.271  1.00  0.00    -0.130 NA
ATOM     22  N   UNL A   1      31.501  24.182  27.129  1.00  0.00    -0.134 NA
ENDBRANCH   8  13
ENDBRANCH   4   7
ENDBRANCH   2   3
ENDBRANCH   1   2
BRANCH   1  23
ATOM     23  C   UNL A   1      37.241  23.209  25.125  1.00  0.00     0.118 C 
BRANCH  23  24
ATOM     24  N   UNL A   1      38.682  22.154  26.299  1.00  0.00    -0.352 N 
ATOM     25  C   UNL A   1      39.991  22.565  27.174  1.00  0.00     0.251 C 
ATOM     26  H   UNL A   1      38.511  21.184  26.316  1.00  0.00     0.163 HD
ATOM     27  O   UNL A   1      40.385  21.678  27.942  1.00  0.00    -0.269 OA
BRANCH  25  28
ATOM     28  C   UNL A   1      40.786  23.979  27.222  1.00  0.00     0.039 A 
ATOM     29  C   UNL A   1      41.845  24.355  28.067  1.00  0.00     0.014 A 
ATOM     30  C   UNL A   1      40.412  25.014  26.365  1.00  0.00     0.014 A 
ATOM     31  C   UNL A   1      41.908  25.625  28.590  1.00  0.00     0.010 A 
ATOM     32  C   UNL A   1      40.780  26.342  26.653  1.00  0.00     0.010 A 
ATOM     33  C   UNL A   1      41.281  26.643  27.913  1.00  0.00    -0.014 A 
BRANCH  33  34
ATOM     34  C   UNL A   1      41.247  27.961  28.555  1.00  0.00     0.031 A 
ATOM     35  C   UNL A   1      42.442  28.821  28.262  1.00  0.00     0.074 A 
ATOM     36  C   UNL A   1      40.242  28.336  29.381  1.00  0.00     0.049 A 
ATOM     37  N   UNL A   1      43.332  29.269  29.092  1.00  0.00    -0.248 NA
ATOM     38  C   UNL A   1      42.809  29.020  26.848  1.00  0.00     0.031 C 
ATOM     39  C   UNL A   1      39.008  27.617  29.704  1.00  0.00     0.029 A 
ATOM     40  N   UNL A   1      40.091  29.506  30.078  1.00  0.00    -0.354 N 
ATOM     41  C   UNL A   1      44.257  29.977  28.324  1.00  0.00     0.074 A 
ATOM     42  C   UNL A   1      43.980  29.646  26.953  1.00  0.00     0.031 C 
ATOM     43  C   UNL A   1      38.123  28.457  30.287  1.00  0.00     0.029 A 
ATOM     44  C   UNL A   1      38.782  29.722  30.535  1.00  0.00     0.049 A 
ATOM     45  H   UNL A   1      40.830  30.135  30.242  1.00  0.00     0.167 HD
ATOM     46  C   UNL A   1      45.010  30.972  28.869  1.00  0.00     0.037 A 
ATOM     47  C   UNL A   1      38.291  30.885  31.043  1.00  0.00     0.037 A 
ATOM     48  C   UNL A   1      45.148  30.790  30.290  1.00  0.00     0.049 A 
ATOM     49  C   UNL A   1      39.459  31.654  31.544  1.00  0.00     0.074 A 
ATOM     50  C   UNL A   1      45.753  29.844  31.094  1.00  0.00     0.029 A 
ATOM     51  N   UNL A   1      44.282  31.472  31.106  1.00  0.00    -0.354 N 
ATOM     52  N   UNL A   1      40.180  31.252  32.555  1.00  0.00    -0.248 NA
ATOM     53  C   UNL A   1      40.129  32.524  30.585  1.00  0.00     0.031 C 
ATOM     54  C   UNL A   1      44.857  29.671  32.191  1.00  0.00     0.029 A 
ATOM     55  C   UNL A   1      43.820  30.593  32.049  1.00  0.00     0.049 A 
ATOM     56  H   UNL A   1      44.035  32.422  31.027  1.00  0.00     0.167 HD
ATOM     57  C   UNL A   1      41.489  31.445  32.144  1.00  0.00     0.074 A 
ATOM     58  C   UNL A   1      41.392  32.243  30.919  1.00  0.00     0.031 C 
ATOM     59  C   UNL A   1      42.510  30.693  32.644  1.00  0.00     0.037 A 
BRANCH  46  60
ATOM     60  C   UNL A   1      45.217  32.318  28.202  1.00  0.00     0.064 A 
ATOM     61  C   UNL A   1      44.101  33.147  27.961  1.00  0.00     0.173 A 
ATOM     62  C   UNL A   1      46.394  32.679  27.507  1.00  0.00     0.173 A 
ATOM     63  F   UNL A   1      42.924  32.902  28.556  1.00  0.00    -0.203 F 
ATOM     64  C   UNL A   1      44.138  34.187  27.025  1.00  0.00     0.198 A 
ATOM     65  C   UNL A   1      46.437  33.742  26.608  1.00  0.00     0.198 A 
ATOM     66  F   UNL A   1      47.520  31.964  27.578  1.00  0.00    -0.203 F 
ATOM     67  F   UNL A   1      43.018  34.863  26.735  1.00  0.00    -0.200 F 
ATOM     68  C   UNL A   1      45.303  34.475  26.340  1.00  0.00     0.200 A 
ATOM     69  F   UNL A   1      47.575  33.991  25.941  1.00  0.00    -0.200 F 
ATOM     70  F   UNL A   1      45.325  35.424  25.396  1.00  0.00    -0.200 F 
ENDBRANCH  46  60
BRANCH  47  71
ATOM     71  C   UNL A   1      36.984  31.529  30.734  1.00  0.00     0.064 A 
ATOM     72  C   UNL A   1      36.036  31.812  31.735  1.00  0.00     0.173 A 
ATOM     73  C   UNL A   1      36.762  32.140  29.484  1.00  0.00     0.173 A 
ATOM     74  F   UNL A   1      36.199  31.327  32.975  1.00  0.00    -0.203 F 
ATOM     75  C   UNL A   1      34.940  32.657  31.497  1.00  0.00     0.198 A 
ATOM     76  C   UNL A   1      35.672  32.982  29.249  1.00  0.00     0.198 A 
ATOM     77  F   UNL A   1      37.653  32.008  28.491  1.00  0.00    -0.203 F 
ATOM     78  F   UNL A   1      34.084  32.942  32.489  1.00  0.00    -0.200 F 
ATOM     79  C   UNL A   1      34.766  33.248  30.257  1.00  0.00     0.200 A 
ATOM     80  F   UNL A   1      35.543  33.583  28.058  1.00  0.00    -0.200 F 
ATOM     81  F   UNL A   1      33.753  34.100  30.045  1.00  0.00    -0.200 F 
ENDBRANCH  47  71
BRANCH  59  82
ATOM     82  C   UNL A   1      42.215  29.745  33.773  1.00  0.00     0.064 A 
ATOM     83  C   UNL A   1      41.782  28.419  33.589  1.00  0.00     0.173 A 
ATOM     84  C   UNL A   1      42.578  30.131  35.068  1.00  0.00     0.173 A 
ATOM     85  F   UNL A   1      41.503  27.951  32.367  1.00  0.00    -0.203 F 
ATOM     86  C   UNL A   1      41.703  27.529  34.663  1.00  0.00     0.198 A 
ATOM     87  C   UNL A   1      42.529  29.233  36.131  1.00  0.00     0.198 A 
ATOM     88  F   UNL A   1      43.051  31.367  35.290  1.00  0.00    -0.203 F 
ATOM     89  F   UNL A   1      41.294  26.267  34.463  1.00  0.00    -0.200 F 
ATOM     90  C   UNL A   1      42.087  27.935  35.931  1.00  0.00     0.200 A 
ATOM     91  F   UNL A   1      42.951  29.618  37.343  1.00  0.00    -0.200 F 
ATOM     92  F   UNL A   1      42.059  27.070  36.955  1.00  0.00    -0.200 F 
ENDBRANCH  59  82
ENDBRANCH  33  34
ENDBRANCH  25  28
ENDBRANCH  23  24
ENDBRANCH   1  23
TORSDOF 11
ENDMDL
