MODEL 1
REMARK VINA RESULT:     -12.4      0.000      0.000
REMARK SMILES CC1CCN(C(=O)N[C@]2(C(=O)NCCCNC(=O)c3ccc(-c4c5nc(c(-c6c(F)c(F)c(F)c(F)c6F)c6ccc([nH]6)c(-c6c(F)c(F)c(F)c(F)c6F)c6nc(c(-c7c(F)c(F)c(F)c(F)c7F)c7ccc4[nH]7)C=C6)C=C5)cc3)CCSC2)CC1
REMARK SMILES IDX 14 1 13 2 12 3 10 4 11 5 9 7 82 8 85 9 83 10 84 11 8 12 1 13
REMARK SMILES IDX 2 14 3 15 87 16 4 17 86 18 5 19 6 20 7 21 15 23 16 24 17 25
REMARK SMILES IDX 18 27 19 28 20 29 81 30 21 31 80 32 22 33 23 34 24 35 74 36
REMARK SMILES IDX 25 37 79 38 73 39 75 40 26 41 78 42 72 43 71 44 27 46 59 47
REMARK SMILES IDX 39 48 58 49 40 50 43 51 57 52 76 53 41 54 42 55 56 57 77 58
REMARK SMILES IDX 44 59 28 60 29 61 37 62 30 63 31 64 35 65 38 66 32 67 33 68
REMARK SMILES IDX 36 69 34 70 60 71 61 72 69 73 62 74 63 75 67 76 70 77 64 78
REMARK SMILES IDX 65 79 68 80 66 81 45 82 46 83 54 84 47 85 48 86 52 87 55 88
REMARK SMILES IDX 49 89 50 90 53 91 51 92
REMARK H PARENT 12 6 8 22 16 26 75 45 43 56
REMARK Flexibility Score: inf
ROOT
ATOM      1  C   UNL A   1      31.700  31.104  26.126  1.00  0.00     0.042 C 
ENDROOT
BRANCH   1   2
ATOM      2  C   UNL A   1      31.760  29.580  25.988  1.00  0.00     0.117 C 
BRANCH   2   3
ATOM      3  N   UNL A   1      32.817  29.038  25.155  1.00  0.00    -0.354 N 
ATOM      4  C   UNL A   1      32.858  28.585  23.872  1.00  0.00     0.246 C 
ATOM      5  O   UNL A   1      33.977  28.657  23.342  1.00  0.00    -0.272 OA
ATOM      6  H   UNL A   1      33.687  28.989  25.613  1.00  0.00     0.163 HD
BRANCH   4   7
ATOM      7  C   UNL A   1      31.646  28.053  23.048  1.00  0.00     0.130 C 
ATOM      8  C   UNL A   1      30.464  27.332  23.722  1.00  0.00     0.050 C 
ATOM      9  C   UNL A   1      31.093  29.351  22.376  1.00  0.00     0.108 C 
ATOM     10  C   UNL A   1      29.136  27.828  23.173  1.00  0.00     0.072 C 
ATOM     11  S   UNL A   1      29.402  29.587  22.968  1.00  0.00    -0.159 SA
BRANCH   7  12
ATOM     12  N   UNL A   1      32.195  27.149  21.986  1.00  0.00    -0.323 N 
ATOM     13  C   UNL A   1      35.834  24.078  25.855  1.00  0.00     0.008 C 
ATOM     14  C   UNL A   1      34.582  23.945  24.988  1.00  0.00    -0.011 C 
ATOM     15  C   UNL A   1      34.925  23.769  23.501  1.00  0.00     0.025 C 
ATOM     16  C   UNL A   1      33.706  25.184  25.164  1.00  0.00     0.025 C 
ATOM     17  C   UNL A   1      33.674  23.820  22.607  1.00  0.00     0.121 C 
ATOM     18  C   UNL A   1      32.467  25.101  24.274  1.00  0.00     0.121 C 
ATOM     19  N   UNL A   1      32.868  25.021  22.881  1.00  0.00    -0.325 N 
ATOM     20  C   UNL A   1      32.649  25.891  21.853  1.00  0.00     0.318 C 
ATOM     21  O   UNL A   1      32.903  25.579  20.682  1.00  0.00    -0.249 OA
ATOM     22  H   UNL A   1      32.235  27.620  21.123  1.00  0.00     0.166 HD
ENDBRANCH   7  12
ENDBRANCH   4   7
ENDBRANCH   2   3
ENDBRANCH   1   2
BRANCH   1  23
ATOM     23  C   UNL A   1      32.792  31.815  26.912  1.00  0.00     0.118 C 
BRANCH  23  24
ATOM     24  N   UNL A   1      32.517  33.194  27.251  1.00  0.00    -0.352 N 
ATOM     25  C   UNL A   1      33.159  34.011  28.152  1.00  0.00     0.251 C 
ATOM     26  H   UNL A   1      31.764  33.606  26.769  1.00  0.00     0.163 HD
ATOM     27  O   UNL A   1      32.737  35.135  28.376  1.00  0.00    -0.269 OA
BRANCH  25  28
ATOM     28  C   UNL A   1      34.345  33.508  28.881  1.00  0.00     0.039 A 
ATOM     29  C   UNL A   1      34.144  32.697  29.999  1.00  0.00     0.014 A 
ATOM     30  C   UNL A   1      35.641  33.827  28.464  1.00  0.00     0.014 A 
ATOM     31  C   UNL A   1      35.244  32.149  30.663  1.00  0.00     0.010 A 
ATOM     32  C   UNL A   1      36.735  33.227  29.087  1.00  0.00     0.010 A 
ATOM     33  C   UNL A   1      36.548  32.382  30.192  1.00  0.00    -0.014 A 
BRANCH  33  34
ATOM     34  C   UNL A   1      37.718  31.737  30.843  1.00  0.00     0.031 A 
ATOM     35  C   UNL A   1      38.148  32.156  32.221  1.00  0.00     0.074 A 
ATOM     36  C   UNL A   1      38.422  30.802  30.175  1.00  0.00     0.049 A 
ATOM     37  N   UNL A   1      39.161  31.736  32.937  1.00  0.00    -0.248 NA
ATOM     38  C   UNL A   1      37.348  33.204  32.874  1.00  0.00     0.031 C 
ATOM     39  C   UNL A   1      38.134  30.339  28.818  1.00  0.00     0.029 A 
ATOM     40  N   UNL A   1      39.530  30.078  30.544  1.00  0.00    -0.354 N 
ATOM     41  C   UNL A   1      39.124  32.470  34.115  1.00  0.00     0.074 A 
ATOM     42  C   UNL A   1      38.023  33.401  33.997  1.00  0.00     0.031 C 
ATOM     43  C   UNL A   1      39.025  29.394  28.477  1.00  0.00     0.029 A 
ATOM     44  C   UNL A   1      39.970  29.211  29.574  1.00  0.00     0.049 A 
ATOM     45  H   UNL A   1      39.966  30.173  31.422  1.00  0.00     0.167 HD
ATOM     46  C   UNL A   1      39.921  32.361  35.206  1.00  0.00     0.037 A 
ATOM     47  C   UNL A   1      41.022  28.370  29.567  1.00  0.00     0.037 A 
ATOM     48  C   UNL A   1      41.005  31.421  35.328  1.00  0.00     0.049 A 
ATOM     49  C   UNL A   1      41.901  28.280  30.786  1.00  0.00     0.074 A 
ATOM     50  C   UNL A   1      41.832  31.195  36.415  1.00  0.00     0.029 A 
ATOM     51  N   UNL A   1      41.418  30.555  34.326  1.00  0.00    -0.354 N 
ATOM     52  N   UNL A   1      41.811  28.928  31.921  1.00  0.00    -0.248 NA
ATOM     53  C   UNL A   1      43.027  27.337  30.722  1.00  0.00     0.031 C 
ATOM     54  C   UNL A   1      42.779  30.232  36.052  1.00  0.00     0.029 A 
ATOM     55  C   UNL A   1      42.505  29.813  34.760  1.00  0.00     0.049 A 
ATOM     56  H   UNL A   1      40.999  30.478  33.438  1.00  0.00     0.167 HD
ATOM     57  C   UNL A   1      42.844  28.451  32.717  1.00  0.00     0.074 A 
ATOM     58  C   UNL A   1      43.540  27.446  31.940  1.00  0.00     0.031 C 
ATOM     59  C   UNL A   1      43.185  28.811  33.979  1.00  0.00     0.037 A 
BRANCH  46  60
ATOM     60  C   UNL A   1      39.650  33.284  36.359  1.00  0.00     0.064 A 
ATOM     61  C   UNL A   1      38.775  32.930  37.397  1.00  0.00     0.173 A 
ATOM     62  C   UNL A   1      40.305  34.522  36.451  1.00  0.00     0.173 A 
ATOM     63  F   UNL A   1      38.114  31.762  37.355  1.00  0.00    -0.203 F 
ATOM     64  C   UNL A   1      38.542  33.791  38.466  1.00  0.00     0.198 A 
ATOM     65  C   UNL A   1      40.096  35.366  37.537  1.00  0.00     0.198 A 
ATOM     66  F   UNL A   1      41.158  34.908  35.490  1.00  0.00    -0.203 F 
ATOM     67  F   UNL A   1      37.663  33.452  39.419  1.00  0.00    -0.200 F 
ATOM     68  C   UNL A   1      39.208  35.005  38.540  1.00  0.00     0.200 A 
ATOM     69  F   UNL A   1      40.752  36.533  37.614  1.00  0.00    -0.200 F 
ATOM     70  F   UNL A   1      38.991  35.830  39.573  1.00  0.00    -0.200 F 
ENDBRANCH  46  60
BRANCH  47  71
ATOM     71  C   UNL A   1      41.292  27.526  28.372  1.00  0.00     0.064 A 
ATOM     72  C   UNL A   1      42.181  27.949  27.374  1.00  0.00     0.173 A 
ATOM     73  C   UNL A   1      40.661  26.285  28.198  1.00  0.00     0.173 A 
ATOM     74  F   UNL A   1      42.792  29.138  27.485  1.00  0.00    -0.203 F 
ATOM     75  C   UNL A   1      42.410  27.177  26.238  1.00  0.00     0.198 A 
ATOM     76  C   UNL A   1      40.915  25.499  27.076  1.00  0.00     0.198 A 
ATOM     77  F   UNL A   1      39.807  25.830  29.126  1.00  0.00    -0.203 F 
ATOM     78  F   UNL A   1      43.226  27.630  25.276  1.00  0.00    -0.200 F 
ATOM     79  C   UNL A   1      41.782  25.950  26.093  1.00  0.00     0.200 A 
ATOM     80  F   UNL A   1      40.319  24.306  26.948  1.00  0.00    -0.200 F 
ATOM     81  F   UNL A   1      42.005  25.206  25.001  1.00  0.00    -0.200 F 
ENDBRANCH  47  71
BRANCH  59  82
ATOM     82  C   UNL A   1      44.339  28.090  34.615  1.00  0.00     0.064 A 
ATOM     83  C   UNL A   1      45.648  28.591  34.553  1.00  0.00     0.173 A 
ATOM     84  C   UNL A   1      44.126  26.902  35.331  1.00  0.00     0.173 A 
ATOM     85  F   UNL A   1      45.909  29.715  33.870  1.00  0.00    -0.203 F 
ATOM     86  C   UNL A   1      46.703  27.915  35.160  1.00  0.00     0.198 A 
ATOM     87  C   UNL A   1      45.177  26.245  35.965  1.00  0.00     0.198 A 
ATOM     88  F   UNL A   1      42.892  26.383  35.426  1.00  0.00    -0.203 F 
ATOM     89  F   UNL A   1      47.953  28.386  35.045  1.00  0.00    -0.200 F 
ATOM     90  C   UNL A   1      46.466  26.748  35.872  1.00  0.00     0.200 A 
ATOM     91  F   UNL A   1      44.943  25.127  36.663  1.00  0.00    -0.200 F 
ATOM     92  F   UNL A   1      47.481  26.103  36.461  1.00  0.00    -0.200 F 
ENDBRANCH  59  82
ENDBRANCH  33  34
ENDBRANCH  25  28
ENDBRANCH  23  24
ENDBRANCH   1  23
TORSDOF 11
ENDMDL
MODEL 2
REMARK VINA RESULT:     -12.4      5.439     10.640
REMARK SMILES CC1CCN(C(=O)N[C@]2(C(=O)NCCCNC(=O)c3ccc(-c4c5nc(c(-c6c(F)c(F)c(F)c(F)c6F)c6ccc([nH]6)c(-c6c(F)c(F)c(F)c(F)c6F)c6nc(c(-c7c(F)c(F)c(F)c(F)c7F)c7ccc4[nH]7)C=C6)C=C5)cc3)CCSC2)CC1
REMARK SMILES IDX 14 1 13 2 12 3 10 4 11 5 9 7 82 8 85 9 83 10 84 11 8 12 1 13
REMARK SMILES IDX 2 14 3 15 87 16 4 17 86 18 5 19 6 20 7 21 15 23 16 24 17 25
REMARK SMILES IDX 18 27 19 28 20 29 81 30 21 31 80 32 22 33 23 34 24 35 74 36
REMARK SMILES IDX 25 37 79 38 73 39 75 40 26 41 78 42 72 43 71 44 27 46 59 47
REMARK SMILES IDX 39 48 58 49 40 50 43 51 57 52 76 53 41 54 42 55 56 57 77 58
REMARK SMILES IDX 44 59 28 60 29 61 37 62 30 63 31 64 35 65 38 66 32 67 33 68
REMARK SMILES IDX 36 69 34 70 60 71 61 72 69 73 62 74 63 75 67 76 70 77 64 78
REMARK SMILES IDX 65 79 68 80 66 81 45 82 46 83 54 84 47 85 48 86 52 87 55 88
REMARK SMILES IDX 49 89 50 90 53 91 51 92
REMARK H PARENT 12 6 8 22 16 26 75 45 43 56
REMARK Flexibility Score: inf
ROOT
ATOM      1  C   UNL A   1      37.363  20.053  25.001  1.00  0.00     0.042 C 
ENDROOT
BRANCH   1   2
ATOM      2  C   UNL A   1      36.311  21.117  24.672  1.00  0.00     0.117 C 
BRANCH   2   3
ATOM      3  N   UNL A   1      35.582  21.686  25.788  1.00  0.00    -0.354 N 
ATOM      4  C   UNL A   1      34.330  21.489  26.288  1.00  0.00     0.246 C 
ATOM      5  O   UNL A   1      34.214  21.761  27.493  1.00  0.00    -0.272 OA
ATOM      6  H   UNL A   1      36.101  22.354  26.292  1.00  0.00     0.163 HD
BRANCH   4   7
ATOM      7  C   UNL A   1      33.106  20.930  25.500  1.00  0.00     0.130 C 
ATOM      8  C   UNL A   1      32.985  21.091  23.974  1.00  0.00     0.050 C 
ATOM      9  C   UNL A   1      33.167  19.400  25.816  1.00  0.00     0.108 C 
ATOM     10  C   UNL A   1      32.527  19.796  23.321  1.00  0.00     0.072 C 
ATOM     11  S   UNL A   1      33.399  18.534  24.246  1.00  0.00    -0.159 SA
BRANCH   7  12
ATOM     12  N   UNL A   1      31.875  21.510  26.127  1.00  0.00    -0.323 N 
ATOM     13  C   UNL A   1      34.029  27.254  26.111  1.00  0.00     0.008 C 
ATOM     14  C   UNL A   1      32.986  26.338  25.471  1.00  0.00    -0.011 C 
ATOM     15  C   UNL A   1      31.781  26.102  26.394  1.00  0.00     0.025 C 
ATOM     16  C   UNL A   1      33.630  24.996  25.125  1.00  0.00     0.025 C 
ATOM     17  C   UNL A   1      30.819  25.039  25.833  1.00  0.00     0.121 C 
ATOM     18  C   UNL A   1      32.600  24.042  24.524  1.00  0.00     0.121 C 
ATOM     19  N   UNL A   1      31.536  23.802  25.483  1.00  0.00    -0.325 N 
ATOM     20  C   UNL A   1      31.160  22.648  26.107  1.00  0.00     0.318 C 
ATOM     21  O   UNL A   1      30.110  22.583  26.759  1.00  0.00    -0.249 OA
ATOM     22  H   UNL A   1      31.463  20.858  26.738  1.00  0.00     0.166 HD
ENDBRANCH   7  12
ENDBRANCH   4   7
ENDBRANCH   2   3
ENDBRANCH   1   2
BRANCH   1  23
ATOM     23  C   UNL A   1      38.661  20.486  25.666  1.00  0.00     0.118 C 
BRANCH  23  24
ATOM     24  N   UNL A   1      39.666  19.453  25.799  1.00  0.00    -0.352 N 
ATOM     25  C   UNL A   1      40.996  19.573  26.126  1.00  0.00     0.251 C 
ATOM     26  H   UNL A   1      39.353  18.535  25.632  1.00  0.00     0.163 HD
ATOM     27  O   UNL A   1      41.727  18.595  26.110  1.00  0.00    -0.269 OA
BRANCH  25  28
ATOM     28  C   UNL A   1      41.552  20.904  26.460  1.00  0.00     0.039 A 
ATOM     29  C   UNL A   1      41.888  21.766  25.415  1.00  0.00     0.014 A 
ATOM     30  C   UNL A   1      41.732  21.301  27.788  1.00  0.00     0.014 A 
ATOM     31  C   UNL A   1      42.344  23.055  25.701  1.00  0.00     0.010 A 
ATOM     32  C   UNL A   1      42.126  22.609  28.071  1.00  0.00     0.010 A 
ATOM     33  C   UNL A   1      42.435  23.499  27.031  1.00  0.00    -0.014 A 
BRANCH  33  34
ATOM     34  C   UNL A   1      42.843  24.895  27.341  1.00  0.00     0.031 A 
ATOM     35  C   UNL A   1      44.252  25.351  27.084  1.00  0.00     0.074 A 
ATOM     36  C   UNL A   1      41.953  25.742  27.896  1.00  0.00     0.049 A 
ATOM     37  N   UNL A   1      44.803  26.515  27.321  1.00  0.00    -0.248 NA
ATOM     38  C   UNL A   1      45.172  24.359  26.505  1.00  0.00     0.031 C 
ATOM     39  C   UNL A   1      40.569  25.410  28.234  1.00  0.00     0.029 A 
ATOM     40  N   UNL A   1      42.083  27.054  28.280  1.00  0.00    -0.354 N 
ATOM     41  C   UNL A   1      46.129  26.393  26.929  1.00  0.00     0.074 A 
ATOM     42  C   UNL A   1      46.316  25.028  26.491  1.00  0.00     0.031 C 
ATOM     43  C   UNL A   1      39.972  26.494  28.753  1.00  0.00     0.029 A 
ATOM     44  C   UNL A   1      40.937  27.586  28.820  1.00  0.00     0.049 A 
ATOM     45  H   UNL A   1      42.919  27.565  28.178  1.00  0.00     0.167 HD
ATOM     46  C   UNL A   1      47.097  27.342  26.913  1.00  0.00     0.037 A 
ATOM     47  C   UNL A   1      40.695  28.813  29.321  1.00  0.00     0.037 A 
ATOM     48  C   UNL A   1      46.904  28.706  27.333  1.00  0.00     0.049 A 
ATOM     49  C   UNL A   1      41.793  29.843  29.307  1.00  0.00     0.074 A 
ATOM     50  C   UNL A   1      47.806  29.755  27.300  1.00  0.00     0.029 A 
ATOM     51  N   UNL A   1      45.727  29.209  27.870  1.00  0.00    -0.354 N 
ATOM     52  N   UNL A   1      43.023  29.737  28.865  1.00  0.00    -0.248 NA
ATOM     53  C   UNL A   1      41.466  31.166  29.857  1.00  0.00     0.031 C 
ATOM     54  C   UNL A   1      47.194  30.878  27.867  1.00  0.00     0.029 A 
ATOM     55  C   UNL A   1      45.890  30.546  28.197  1.00  0.00     0.049 A 
ATOM     56  H   UNL A   1      44.898  28.693  27.998  1.00  0.00     0.167 HD
ATOM     57  C   UNL A   1      43.606  30.983  29.054  1.00  0.00     0.074 A 
ATOM     58  C   UNL A   1      42.589  31.835  29.636  1.00  0.00     0.031 C 
ATOM     59  C   UNL A   1      44.868  31.385  28.770  1.00  0.00     0.037 A 
BRANCH  46  60
ATOM     60  C   UNL A   1      48.458  26.938  26.425  1.00  0.00     0.064 A 
ATOM     61  C   UNL A   1      49.427  26.410  27.292  1.00  0.00     0.173 A 
ATOM     62  C   UNL A   1      48.788  27.043  25.065  1.00  0.00     0.173 A 
ATOM     63  F   UNL A   1      49.168  26.298  28.605  1.00  0.00    -0.203 F 
ATOM     64  C   UNL A   1      50.681  26.030  26.823  1.00  0.00     0.198 A 
ATOM     65  C   UNL A   1      50.031  26.631  24.593  1.00  0.00     0.198 A 
ATOM     66  F   UNL A   1      47.898  27.535  24.189  1.00  0.00    -0.203 F 
ATOM     67  F   UNL A   1      51.606  25.576  27.680  1.00  0.00    -0.200 F 
ATOM     68  C   UNL A   1      50.980  26.133  25.473  1.00  0.00     0.200 A 
ATOM     69  F   UNL A   1      50.312  26.717  23.285  1.00  0.00    -0.200 F 
ATOM     70  F   UNL A   1      52.184  25.759  25.020  1.00  0.00    -0.200 F 
ENDBRANCH  46  60
BRANCH  47  71
ATOM     71  C   UNL A   1      39.350  29.145  29.859  1.00  0.00     0.064 A 
ATOM     72  C   UNL A   1      38.374  29.742  29.049  1.00  0.00     0.173 A 
ATOM     73  C   UNL A   1      39.014  28.882  31.196  1.00  0.00     0.173 A 
ATOM     74  F   UNL A   1      38.654  30.032  27.769  1.00  0.00    -0.203 F 
ATOM     75  C   UNL A   1      37.124  30.085  29.559  1.00  0.00     0.198 A 
ATOM     76  C   UNL A   1      37.752  29.197  31.697  1.00  0.00     0.198 A 
ATOM     77  F   UNL A   1      39.908  28.306  32.013  1.00  0.00    -0.203 F 
ATOM     78  F   UNL A   1      36.229  30.700  28.775  1.00  0.00    -0.200 F 
ATOM     79  C   UNL A   1      36.812  29.807  30.881  1.00  0.00     0.200 A 
ATOM     80  F   UNL A   1      37.450  28.911  32.971  1.00  0.00    -0.200 F 
ATOM     81  F   UNL A   1      35.609  30.134  31.371  1.00  0.00    -0.200 F 
ENDBRANCH  47  71
BRANCH  59  82
ATOM     82  C   UNL A   1      45.215  32.821  29.048  1.00  0.00     0.064 A 
ATOM     83  C   UNL A   1      45.805  33.217  30.257  1.00  0.00     0.173 A 
ATOM     84  C   UNL A   1      44.991  33.806  28.074  1.00  0.00     0.173 A 
ATOM     85  F   UNL A   1      46.027  32.318  31.227  1.00  0.00    -0.203 F 
ATOM     86  C   UNL A   1      46.130  34.551  30.491  1.00  0.00     0.198 A 
ATOM     87  C   UNL A   1      45.348  35.133  28.298  1.00  0.00     0.198 A 
ATOM     88  F   UNL A   1      44.435  33.479  26.897  1.00  0.00    -0.203 F 
ATOM     89  F   UNL A   1      46.646  34.915  31.674  1.00  0.00    -0.200 F 
ATOM     90  C   UNL A   1      45.910  35.505  29.510  1.00  0.00     0.200 A 
ATOM     91  F   UNL A   1      45.147  36.050  27.343  1.00  0.00    -0.200 F 
ATOM     92  F   UNL A   1      46.231  36.787  29.734  1.00  0.00    -0.200 F 
ENDBRANCH  59  82
ENDBRANCH  33  34
ENDBRANCH  25  28
ENDBRANCH  23  24
ENDBRANCH   1  23
TORSDOF 11
ENDMDL
MODEL 3
REMARK VINA RESULT:     -12.4      5.218      8.981
REMARK SMILES CC1CCN(C(=O)N[C@]2(C(=O)NCCCNC(=O)c3ccc(-c4c5nc(c(-c6c(F)c(F)c(F)c(F)c6F)c6ccc([nH]6)c(-c6c(F)c(F)c(F)c(F)c6F)c6nc(c(-c7c(F)c(F)c(F)c(F)c7F)c7ccc4[nH]7)C=C6)C=C5)cc3)CCSC2)CC1
REMARK SMILES IDX 14 1 13 2 12 3 10 4 11 5 9 7 82 8 85 9 83 10 84 11 8 12 1 13
REMARK SMILES IDX 2 14 3 15 87 16 4 17 86 18 5 19 6 20 7 21 15 23 16 24 17 25
REMARK SMILES IDX 18 27 19 28 20 29 81 30 21 31 80 32 22 33 23 34 24 35 74 36
REMARK SMILES IDX 25 37 79 38 73 39 75 40 26 41 78 42 72 43 71 44 27 46 59 47
REMARK SMILES IDX 39 48 58 49 40 50 43 51 57 52 76 53 41 54 42 55 56 57 77 58
REMARK SMILES IDX 44 59 28 60 29 61 37 62 30 63 31 64 35 65 38 66 32 67 33 68
REMARK SMILES IDX 36 69 34 70 60 71 61 72 69 73 62 74 63 75 67 76 70 77 64 78
REMARK SMILES IDX 65 79 68 80 66 81 45 82 46 83 54 84 47 85 48 86 52 87 55 88
REMARK SMILES IDX 49 89 50 90 53 91 51 92
REMARK H PARENT 12 6 8 22 16 26 75 45 43 56
REMARK Flexibility Score: inf
ROOT
ATOM      1  C   UNL A   1      37.271  20.572  24.944  1.00  0.00     0.042 C 
ENDROOT
BRANCH   1   2
ATOM      2  C   UNL A   1      36.386  21.758  24.548  1.00  0.00     0.117 C 
BRANCH   2   3
ATOM      3  N   UNL A   1      35.761  22.498  25.626  1.00  0.00    -0.354 N 
ATOM      4  C   UNL A   1      34.562  22.391  26.264  1.00  0.00     0.246 C 
ATOM      5  O   UNL A   1      34.557  22.846  27.418  1.00  0.00    -0.272 OA
ATOM      6  H   UNL A   1      36.320  23.231  25.971  1.00  0.00     0.163 HD
BRANCH   4   7
ATOM      7  C   UNL A   1      33.274  21.727  25.688  1.00  0.00     0.130 C 
ATOM      8  C   UNL A   1      32.937  21.783  24.187  1.00  0.00     0.050 C 
ATOM      9  C   UNL A   1      33.459  20.226  26.082  1.00  0.00     0.108 C 
ATOM     10  C   UNL A   1      32.464  20.429  23.682  1.00  0.00     0.072 C 
ATOM     11  S   UNL A   1      33.520  19.270  24.549  1.00  0.00    -0.159 SA
BRANCH   7  12
ATOM     12  N   UNL A   1      32.110  22.291  26.445  1.00  0.00    -0.323 N 
ATOM     13  C   UNL A   1      34.183  28.061  26.218  1.00  0.00     0.008 C 
ATOM     14  C   UNL A   1      33.089  27.133  25.691  1.00  0.00    -0.011 C 
ATOM     15  C   UNL A   1      31.992  26.882  26.737  1.00  0.00     0.025 C 
ATOM     16  C   UNL A   1      33.707  25.800  25.273  1.00  0.00     0.025 C 
ATOM     17  C   UNL A   1      30.989  25.808  26.279  1.00  0.00     0.121 C 
ATOM     18  C   UNL A   1      32.629  24.835  24.783  1.00  0.00     0.121 C 
ATOM     19  N   UNL A   1      31.677  24.580  25.850  1.00  0.00    -0.325 N 
ATOM     20  C   UNL A   1      31.384  23.421  26.507  1.00  0.00     0.318 C 
ATOM     21  O   UNL A   1      30.411  23.342  27.267  1.00  0.00    -0.249 OA
ATOM     22  H   UNL A   1      31.774  21.633  27.096  1.00  0.00     0.166 HD
ENDBRANCH   7  12
ENDBRANCH   4   7
ENDBRANCH   2   3
ENDBRANCH   1   2
BRANCH   1  23
ATOM     23  C   UNL A   1      38.550  20.837  25.723  1.00  0.00     0.118 C 
BRANCH  23  24
ATOM     24  N   UNL A   1      39.515  19.759  25.721  1.00  0.00    -0.352 N 
ATOM     25  C   UNL A   1      40.852  19.790  26.040  1.00  0.00     0.251 C 
ATOM     26  H   UNL A   1      39.165  18.879  25.454  1.00  0.00     0.163 HD
ATOM     27  O   UNL A   1      41.544  18.793  25.900  1.00  0.00    -0.269 OA
BRANCH  25  28
ATOM     28  C   UNL A   1      41.463  21.051  26.517  1.00  0.00     0.039 A 
ATOM     29  C   UNL A   1      41.933  21.963  25.570  1.00  0.00     0.014 A 
ATOM     30  C   UNL A   1      41.564  21.336  27.882  1.00  0.00     0.014 A 
ATOM     31  C   UNL A   1      42.447  23.192  25.989  1.00  0.00     0.010 A 
ATOM     32  C   UNL A   1      42.016  22.589  28.295  1.00  0.00     0.010 A 
ATOM     33  C   UNL A   1      42.462  23.530  27.353  1.00  0.00    -0.014 A 
BRANCH  33  34
ATOM     34  C   UNL A   1      42.931  24.867  27.800  1.00  0.00     0.031 A 
ATOM     35  C   UNL A   1      41.941  25.945  28.146  1.00  0.00     0.074 A 
ATOM     36  C   UNL A   1      44.252  25.127  27.853  1.00  0.00     0.049 A 
ATOM     37  N   UNL A   1      42.158  27.181  28.520  1.00  0.00    -0.248 NA
ATOM     38  C   UNL A   1      40.517  25.594  28.034  1.00  0.00     0.031 C 
ATOM     39  C   UNL A   1      45.313  24.183  27.503  1.00  0.00     0.029 A 
ATOM     40  N   UNL A   1      44.929  26.266  28.215  1.00  0.00    -0.354 N 
ATOM     41  C   UNL A   1      40.903  27.754  28.679  1.00  0.00     0.074 A 
ATOM     42  C   UNL A   1      39.930  26.751  28.309  1.00  0.00     0.031 C 
ATOM     43  C   UNL A   1      46.505  24.772  27.689  1.00  0.00     0.029 A 
ATOM     44  C   UNL A   1      46.295  26.145  28.134  1.00  0.00     0.049 A 
ATOM     45  H   UNL A   1      44.477  27.092  28.506  1.00  0.00     0.167 HD
ATOM     46  C   UNL A   1      40.592  28.998  29.118  1.00  0.00     0.037 A 
ATOM     47  C   UNL A   1      47.268  27.043  28.383  1.00  0.00     0.037 A 
ATOM     48  C   UNL A   1      41.562  29.990  29.504  1.00  0.00     0.049 A 
ATOM     49  C   UNL A   1      46.893  28.423  28.853  1.00  0.00     0.074 A 
ATOM     50  C   UNL A   1      41.343  31.257  30.016  1.00  0.00     0.029 A 
ATOM     51  N   UNL A   1      42.937  29.829  29.413  1.00  0.00    -0.354 N 
ATOM     52  N   UNL A   1      45.704  28.929  29.071  1.00  0.00    -0.248 NA
ATOM     53  C   UNL A   1      47.999  29.355  29.119  1.00  0.00     0.031 C 
ATOM     54  C   UNL A   1      42.583  31.882  30.183  1.00  0.00     0.029 A 
ATOM     55  C   UNL A   1      43.577  30.983  29.834  1.00  0.00     0.049 A 
ATOM     56  H   UNL A   1      43.390  29.013  29.097  1.00  0.00     0.167 HD
ATOM     57  C   UNL A   1      45.917  30.224  29.527  1.00  0.00     0.074 A 
ATOM     58  C   UNL A   1      47.351  30.420  29.570  1.00  0.00     0.031 C 
ATOM     59  C   UNL A   1      45.006  31.165  29.878  1.00  0.00     0.037 A 
BRANCH  46  60
ATOM     60  C   UNL A   1      39.137  29.360  29.206  1.00  0.00     0.064 A 
ATOM     61  C   UNL A   1      38.460  29.403  30.435  1.00  0.00     0.173 A 
ATOM     62  C   UNL A   1      38.417  29.707  28.053  1.00  0.00     0.173 A 
ATOM     63  F   UNL A   1      39.098  29.070  31.569  1.00  0.00    -0.203 F 
ATOM     64  C   UNL A   1      37.114  29.750  30.503  1.00  0.00     0.198 A 
ATOM     65  C   UNL A   1      37.080  30.086  28.127  1.00  0.00     0.198 A 
ATOM     66  F   UNL A   1      39.015  29.689  26.852  1.00  0.00    -0.203 F 
ATOM     67  F   UNL A   1      36.477  29.734  31.682  1.00  0.00    -0.200 F 
ATOM     68  C   UNL A   1      36.426  30.099  29.350  1.00  0.00     0.200 A 
ATOM     69  F   UNL A   1      36.421  30.437  27.014  1.00  0.00    -0.200 F 
ATOM     70  F   UNL A   1      35.133  30.442  29.417  1.00  0.00    -0.200 F 
ENDBRANCH  46  60
BRANCH  47  71
ATOM     71  C   UNL A   1      48.695  26.660  28.213  1.00  0.00     0.064 A 
ATOM     72  C   UNL A   1      49.311  26.709  26.955  1.00  0.00     0.173 A 
ATOM     73  C   UNL A   1      49.469  26.230  29.301  1.00  0.00     0.173 A 
ATOM     74  F   UNL A   1      48.607  27.094  25.881  1.00  0.00    -0.203 F 
ATOM     75  C   UNL A   1      50.638  26.318  26.787  1.00  0.00     0.198 A 
ATOM     76  C   UNL A   1      50.805  25.870  29.137  1.00  0.00     0.198 A 
ATOM     77  F   UNL A   1      48.930  26.171  30.528  1.00  0.00    -0.203 F 
ATOM     78  F   UNL A   1      51.186  26.327  25.564  1.00  0.00    -0.200 F 
ATOM     79  C   UNL A   1      51.385  25.905  27.879  1.00  0.00     0.200 A 
ATOM     80  F   UNL A   1      51.528  25.487  30.198  1.00  0.00    -0.200 F 
ATOM     81  F   UNL A   1      52.663  25.533  27.717  1.00  0.00    -0.200 F 
ENDBRANCH  47  71
BRANCH  59  82
ATOM     82  C   UNL A   1      45.531  32.481  30.378  1.00  0.00     0.064 A 
ATOM     83  C   UNL A   1      45.826  32.692  31.733  1.00  0.00     0.173 A 
ATOM     84  C   UNL A   1      45.781  33.531  29.481  1.00  0.00     0.173 A 
ATOM     85  F   UNL A   1      45.591  31.726  32.634  1.00  0.00    -0.203 F 
ATOM     86  C   UNL A   1      46.323  33.915  32.175  1.00  0.00     0.198 A 
ATOM     87  C   UNL A   1      46.310  34.742  29.922  1.00  0.00     0.198 A 
ATOM     88  F   UNL A   1      45.523  33.379  28.173  1.00  0.00    -0.203 F 
ATOM     89  F   UNL A   1      46.549  34.111  33.482  1.00  0.00    -0.200 F 
ATOM     90  C   UNL A   1      46.573  34.935  31.269  1.00  0.00     0.200 A 
ATOM     91  F   UNL A   1      46.564  35.720  29.043  1.00  0.00    -0.200 F 
ATOM     92  F   UNL A   1      47.059  36.108  31.696  1.00  0.00    -0.200 F 
ENDBRANCH  59  82
ENDBRANCH  33  34
ENDBRANCH  25  28
ENDBRANCH  23  24
ENDBRANCH   1  23
TORSDOF 11
ENDMDL
