MODEL 1
REMARK VINA RESULT:     -11.3      0.000      0.000
REMARK SMILES COc1ccc(C(C)(C)C)cc1CC(=O)NCCCNC(=O)c1ccc(-c2c3nc(c(-c4c(F)c(F)c(F)c(F)c4F)c4ccc([nH]4)c(-c4c(F)c(F)c(F)c(F)c4F)c4nc(c(-c5c(F)c(F)c(F)c(F)c5F)c5ccc2[nH]5)C=C4)C=C3)cc1
REMARK SMILES IDX 18 1 17 2 16 3 14 4 15 5 13 7 12 8 3 9 4 10 5 11 11 12 6 13
REMARK SMILES IDX 2 14 1 15 7 16 8 17 9 18 10 19 19 20 20 21 21 22 22 24 23 25
REMARK SMILES IDX 24 26 85 27 25 28 84 29 26 30 27 31 28 32 78 33 29 34 83 35
REMARK SMILES IDX 77 36 79 37 30 38 82 39 76 40 75 41 31 43 63 44 43 45 62 46
REMARK SMILES IDX 44 47 47 48 61 49 80 50 45 51 46 52 60 54 81 55 48 56 32 57
REMARK SMILES IDX 33 58 41 59 34 60 35 61 39 62 42 63 36 64 37 65 40 66 38 67
REMARK SMILES IDX 64 68 65 69 73 70 66 71 67 72 71 73 74 74 68 75 69 76 72 77
REMARK SMILES IDX 70 78 49 79 50 80 58 81 51 82 52 83 56 84 59 85 53 86 54 87
REMARK SMILES IDX 57 88 55 89
REMARK H PARENT 16 6 20 23 79 42 47 53
REMARK Flexibility Score: inf
ROOT
ATOM      1  C   UNL A   1      31.423  32.069  26.848  1.00  0.00     0.042 C 
ENDROOT
BRANCH   1   2
ATOM      2  C   UNL A   1      31.751  30.587  26.678  1.00  0.00     0.117 C 
BRANCH   2   3
ATOM      3  N   UNL A   1      33.163  30.316  26.858  1.00  0.00    -0.356 N 
ATOM      4  C   UNL A   1      33.788  29.109  26.981  1.00  0.00     0.224 C 
ATOM      5  O   UNL A   1      34.999  29.093  27.208  1.00  0.00    -0.275 OA
ATOM      6  H   UNL A   1      33.749  31.107  26.897  1.00  0.00     0.163 HD
BRANCH   4   7
ATOM      7  C   UNL A   1      32.997  27.825  26.796  1.00  0.00     0.139 C 
BRANCH   7   8
ATOM      8  C   UNL A   1      33.374  27.046  25.557  1.00  0.00     0.004 A 
ATOM      9  C   UNL A   1      33.031  27.417  24.250  1.00  0.00     0.122 A 
ATOM     10  C   UNL A   1      33.345  26.567  23.188  1.00  0.00     0.047 A 
ATOM     11  C   UNL A   1      34.020  25.363  23.404  1.00  0.00     0.008 A 
ATOM     12  C   UNL A   1      34.077  25.832  25.750  1.00  0.00     0.012 A 
ATOM     13  C   UNL A   1      34.399  24.963  24.695  1.00  0.00    -0.042 A 
BRANCH   9  14
ATOM     14  O   UNL A   1      32.248  28.484  23.902  1.00  0.00    -0.496 OA
ATOM     15  C   UNL A   1      30.853  28.225  23.783  1.00  0.00     0.278 C 
ENDBRANCH   9  14
BRANCH  13  16
ATOM     16  C   UNL A   1      35.107  23.614  24.915  1.00  0.00    -0.013 C 
ATOM     17  C   UNL A   1      35.451  22.976  23.550  1.00  0.00     0.016 C 
ATOM     18  C   UNL A   1      36.409  23.836  25.713  1.00  0.00     0.016 C 
ATOM     19  C   UNL A   1      34.260  22.581  25.694  1.00  0.00     0.016 C 
ENDBRANCH  13  16
ENDBRANCH   7   8
ENDBRANCH   4   7
ENDBRANCH   2   3
ENDBRANCH   1   2
BRANCH   1  20
ATOM     20  C   UNL A   1      32.654  32.970  26.881  1.00  0.00     0.118 C 
BRANCH  20  21
ATOM     21  N   UNL A   1      32.420  34.205  27.614  1.00  0.00    -0.352 N 
ATOM     22  C   UNL A   1      33.013  34.698  28.747  1.00  0.00     0.251 C 
ATOM     23  H   UNL A   1      31.720  34.782  27.233  1.00  0.00     0.163 HD
ATOM     24  O   UNL A   1      32.534  35.692  29.287  1.00  0.00    -0.269 OA
BRANCH  22  25
ATOM     25  C   UNL A   1      34.207  34.054  29.336  1.00  0.00     0.039 A 
ATOM     26  C   UNL A   1      34.010  33.042  30.282  1.00  0.00     0.014 A 
ATOM     27  C   UNL A   1      35.504  34.471  29.024  1.00  0.00     0.014 A 
ATOM     28  C   UNL A   1      35.108  32.422  30.880  1.00  0.00     0.010 A 
ATOM     29  C   UNL A   1      36.601  33.807  29.573  1.00  0.00     0.010 A 
ATOM     30  C   UNL A   1      36.413  32.783  30.512  1.00  0.00    -0.014 A 
BRANCH  30  31
ATOM     31  C   UNL A   1      37.584  32.089  31.104  1.00  0.00     0.031 A 
ATOM     32  C   UNL A   1      38.073  32.452  32.479  1.00  0.00     0.074 A 
ATOM     33  C   UNL A   1      38.233  31.156  30.383  1.00  0.00     0.049 A 
ATOM     34  N   UNL A   1      39.088  31.969  33.150  1.00  0.00    -0.248 NA
ATOM     35  C   UNL A   1      37.339  33.514  33.184  1.00  0.00     0.031 C 
ATOM     36  C   UNL A   1      37.888  30.754  29.018  1.00  0.00     0.029 A 
ATOM     37  N   UNL A   1      39.321  30.380  30.694  1.00  0.00    -0.354 N 
ATOM     38  C   UNL A   1      39.123  32.675  34.345  1.00  0.00     0.074 A 
ATOM     39  C   UNL A   1      38.056  33.650  34.290  1.00  0.00     0.031 C 
ATOM     40  C   UNL A   1      38.731  29.790  28.618  1.00  0.00     0.029 A 
ATOM     41  C   UNL A   1      39.693  29.526  29.684  1.00  0.00     0.049 A 
ATOM     42  H   UNL A   1      39.791  30.431  31.556  1.00  0.00     0.167 HD
ATOM     43  C   UNL A   1      39.956  32.509  35.400  1.00  0.00     0.037 A 
ATOM     44  C   UNL A   1      40.695  28.629  29.627  1.00  0.00     0.037 A 
ATOM     45  C   UNL A   1      40.998  31.518  35.466  1.00  0.00     0.049 A 
ATOM     46  C   UNL A   1      41.590  28.449  30.821  1.00  0.00     0.074 A 
ATOM     47  C   UNL A   1      41.851  31.229  36.516  1.00  0.00     0.029 A 
ATOM     48  N   UNL A   1      41.328  30.653  34.433  1.00  0.00    -0.354 N 
ATOM     49  N   UNL A   1      41.567  29.073  31.974  1.00  0.00    -0.248 NA
ATOM     50  C   UNL A   1      42.646  27.433  30.709  1.00  0.00     0.031 C 
ATOM     51  C   UNL A   1      42.722  30.214  36.106  1.00  0.00     0.029 A 
ATOM     52  C   UNL A   1      42.384  29.841  34.815  1.00  0.00     0.049 A 
ATOM     53  H   UNL A   1      40.879  30.620  33.557  1.00  0.00     0.167 HD
ATOM     54  C   UNL A   1      42.585  28.512  32.731  1.00  0.00     0.074 A 
ATOM     55  C   UNL A   1      43.196  27.484  31.914  1.00  0.00     0.031 C 
ATOM     56  C   UNL A   1      42.979  28.821  33.990  1.00  0.00     0.037 A 
BRANCH  43  57
ATOM     57  C   UNL A   1      39.770  33.419  36.580  1.00  0.00     0.064 A 
ATOM     58  C   UNL A   1      40.445  34.645  36.676  1.00  0.00     0.173 A 
ATOM     59  C   UNL A   1      38.874  33.081  37.606  1.00  0.00     0.173 A 
ATOM     60  F   UNL A   1      41.321  35.009  35.727  1.00  0.00    -0.203 F 
ATOM     61  C   UNL A   1      40.252  35.486  37.768  1.00  0.00     0.198 A 
ATOM     62  C   UNL A   1      38.662  33.937  38.683  1.00  0.00     0.198 A 
ATOM     63  F   UNL A   1      38.197  31.924  37.560  1.00  0.00    -0.203 F 
ATOM     64  F   UNL A   1      40.941  36.632  37.860  1.00  0.00    -0.200 F 
ATOM     65  C   UNL A   1      39.355  35.136  38.767  1.00  0.00     0.200 A 
ATOM     66  F   UNL A   1      37.786  33.603  39.641  1.00  0.00    -0.200 F 
ATOM     67  F   UNL A   1      39.164  35.951  39.813  1.00  0.00    -0.200 F 
ENDBRANCH  43  57
BRANCH  44  68
ATOM     68  C   UNL A   1      40.879  27.805  28.406  1.00  0.00     0.064 A 
ATOM     69  C   UNL A   1      40.227  26.571  28.266  1.00  0.00     0.173 A 
ATOM     70  C   UNL A   1      41.702  28.233  27.354  1.00  0.00     0.173 A 
ATOM     71  F   UNL A   1      39.446  26.112  29.255  1.00  0.00    -0.203 F 
ATOM     72  C   UNL A   1      40.407  25.788  27.129  1.00  0.00     0.198 A 
ATOM     73  C   UNL A   1      41.860  27.461  26.206  1.00  0.00     0.198 A 
ATOM     74  F   UNL A   1      42.342  29.409  27.437  1.00  0.00    -0.203 F 
ATOM     75  F   UNL A   1      39.806  24.595  27.039  1.00  0.00    -0.200 F 
ATOM     76  C   UNL A   1      41.219  26.236  26.097  1.00  0.00     0.200 A 
ATOM     77  F   UNL A   1      42.635  27.902  25.206  1.00  0.00    -0.200 F 
ATOM     78  F   UNL A   1      41.387  25.484  25.001  1.00  0.00    -0.200 F 
ENDBRANCH  44  68
BRANCH  56  79
ATOM     79  C   UNL A   1      44.108  28.022  34.569  1.00  0.00     0.064 A 
ATOM     80  C   UNL A   1      45.440  28.448  34.461  1.00  0.00     0.173 A 
ATOM     81  C   UNL A   1      43.852  26.829  35.262  1.00  0.00     0.173 A 
ATOM     82  F   UNL A   1      45.737  29.573  33.793  1.00  0.00    -0.203 F 
ATOM     83  C   UNL A   1      46.477  27.695  35.004  1.00  0.00     0.198 A 
ATOM     84  C   UNL A   1      44.891  26.093  35.827  1.00  0.00     0.198 A 
ATOM     85  F   UNL A   1      42.595  26.381  35.397  1.00  0.00    -0.203 F 
ATOM     86  F   UNL A   1      47.747  28.097  34.848  1.00  0.00    -0.200 F 
ATOM     87  C   UNL A   1      46.202  26.522  35.691  1.00  0.00     0.200 A 
ATOM     88  F   UNL A   1      44.622  24.965  36.499  1.00  0.00    -0.200 F 
ATOM     89  F   UNL A   1      47.203  25.800  36.215  1.00  0.00    -0.200 F 
ENDBRANCH  56  79
ENDBRANCH  30  31
ENDBRANCH  22  25
ENDBRANCH  20  21
ENDBRANCH   1  20
TORSDOF 13
ENDMDL
MODEL 2
REMARK VINA RESULT:     -11.2      5.468      9.698
REMARK SMILES COc1ccc(C(C)(C)C)cc1CC(=O)NCCCNC(=O)c1ccc(-c2c3nc(c(-c4c(F)c(F)c(F)c(F)c4F)c4ccc([nH]4)c(-c4c(F)c(F)c(F)c(F)c4F)c4nc(c(-c5c(F)c(F)c(F)c(F)c5F)c5ccc2[nH]5)C=C4)C=C3)cc1
REMARK SMILES IDX 18 1 17 2 16 3 14 4 15 5 13 7 12 8 3 9 4 10 5 11 11 12 6 13
REMARK SMILES IDX 2 14 1 15 7 16 8 17 9 18 10 19 19 20 20 21 21 22 22 24 23 25
REMARK SMILES IDX 24 26 85 27 25 28 84 29 26 30 27 31 28 32 78 33 29 34 83 35
REMARK SMILES IDX 77 36 79 37 30 38 82 39 76 40 75 41 31 43 63 44 43 45 62 46
REMARK SMILES IDX 44 47 47 48 61 49 80 50 45 51 46 52 60 54 81 55 48 56 32 57
REMARK SMILES IDX 33 58 41 59 34 60 35 61 39 62 42 63 36 64 37 65 40 66 38 67
REMARK SMILES IDX 64 68 65 69 73 70 66 71 67 72 71 73 74 74 68 75 69 76 72 77
REMARK SMILES IDX 70 78 49 79 50 80 58 81 51 82 52 83 56 84 59 85 53 86 54 87
REMARK SMILES IDX 57 88 55 89
REMARK H PARENT 16 6 20 23 79 42 47 53
REMARK Flexibility Score: inf
ROOT
ATOM      1  C   UNL A   1      38.240  19.612  24.932  1.00  0.00     0.042 C 
ENDROOT
BRANCH   1   2
ATOM      2  C   UNL A   1      37.433  20.872  24.625  1.00  0.00     0.117 C 
BRANCH   2   3
ATOM      3  N   UNL A   1      37.790  21.974  25.497  1.00  0.00    -0.356 N 
ATOM      4  C   UNL A   1      37.305  23.250  25.494  1.00  0.00     0.224 C 
ATOM      5  O   UNL A   1      37.798  24.068  26.273  1.00  0.00    -0.275 OA
ATOM      6  H   UNL A   1      38.471  21.775  26.180  1.00  0.00     0.163 HD
BRANCH   4   7
ATOM      7  C   UNL A   1      36.156  23.622  24.575  1.00  0.00     0.139 C 
BRANCH   7   8
ATOM      8  C   UNL A   1      34.866  23.932  25.299  1.00  0.00     0.004 A 
ATOM      9  C   UNL A   1      34.018  22.969  25.862  1.00  0.00     0.122 A 
ATOM     10  C   UNL A   1      32.801  23.364  26.419  1.00  0.00     0.047 A 
ATOM     11  C   UNL A   1      32.426  24.710  26.450  1.00  0.00     0.008 A 
ATOM     12  C   UNL A   1      34.476  25.292  25.361  1.00  0.00     0.012 A 
ATOM     13  C   UNL A   1      33.254  25.709  25.916  1.00  0.00    -0.042 A 
BRANCH   9  14
ATOM     14  O   UNL A   1      34.182  21.614  25.777  1.00  0.00    -0.496 OA
ATOM     15  C   UNL A   1      33.533  20.971  24.683  1.00  0.00     0.278 C 
ENDBRANCH   9  14
BRANCH  13  16
ATOM     16  C   UNL A   1      32.803  27.180  25.924  1.00  0.00    -0.013 C 
ATOM     17  C   UNL A   1      33.941  28.071  26.470  1.00  0.00     0.016 C 
ATOM     18  C   UNL A   1      32.457  27.624  24.487  1.00  0.00     0.016 C 
ATOM     19  C   UNL A   1      31.558  27.450  26.801  1.00  0.00     0.016 C 
ENDBRANCH  13  16
ENDBRANCH   7   8
ENDBRANCH   4   7
ENDBRANCH   2   3
ENDBRANCH   1   2
BRANCH   1  20
ATOM     20  C   UNL A   1      39.176  19.758  26.128  1.00  0.00     0.118 C 
BRANCH  20  21
ATOM     21  N   UNL A   1      40.367  18.931  26.007  1.00  0.00    -0.352 N 
ATOM     22  C   UNL A   1      41.695  19.259  26.081  1.00  0.00     0.251 C 
ATOM     23  H   UNL A   1      40.189  17.976  25.844  1.00  0.00     0.163 HD
ATOM     24  O   UNL A   1      42.536  18.417  25.778  1.00  0.00    -0.269 OA
BRANCH  22  25
ATOM     25  C   UNL A   1      42.134  20.606  26.507  1.00  0.00     0.039 A 
ATOM     26  C   UNL A   1      42.544  21.508  25.520  1.00  0.00     0.014 A 
ATOM     27  C   UNL A   1      42.210  20.970  27.854  1.00  0.00     0.014 A 
ATOM     28  C   UNL A   1      42.987  22.782  25.877  1.00  0.00     0.010 A 
ATOM     29  C   UNL A   1      42.590  22.264  28.207  1.00  0.00     0.010 A 
ATOM     30  C   UNL A   1      42.991  23.179  27.223  1.00  0.00    -0.014 A 
BRANCH  30  31
ATOM     31  C   UNL A   1      43.409  24.551  27.605  1.00  0.00     0.031 A 
ATOM     32  C   UNL A   1      42.382  25.593  27.954  1.00  0.00     0.074 A 
ATOM     33  C   UNL A   1      44.716  24.869  27.598  1.00  0.00     0.049 A 
ATOM     34  N   UNL A   1      42.558  26.846  28.292  1.00  0.00    -0.248 NA
ATOM     35  C   UNL A   1      40.972  25.181  27.893  1.00  0.00     0.031 C 
ATOM     36  C   UNL A   1      45.803  23.962  27.227  1.00  0.00     0.029 A 
ATOM     37  N   UNL A   1      45.355  26.044  27.907  1.00  0.00    -0.354 N 
ATOM     38  C   UNL A   1      41.285  27.373  28.469  1.00  0.00     0.074 A 
ATOM     39  C   UNL A   1      40.345  26.318  28.158  1.00  0.00     0.031 C 
ATOM     40  C   UNL A   1      46.974  24.604  27.352  1.00  0.00     0.029 A 
ATOM     41  C   UNL A   1      46.721  25.975  27.785  1.00  0.00     0.049 A 
ATOM     42  H   UNL A   1      44.879  26.858  28.188  1.00  0.00     0.167 HD
ATOM     43  C   UNL A   1      40.935  28.617  28.875  1.00  0.00     0.037 A 
ATOM     44  C   UNL A   1      47.663  26.913  28.000  1.00  0.00     0.037 A 
ATOM     45  C   UNL A   1      41.872  29.656  29.214  1.00  0.00     0.049 A 
ATOM     46  C   UNL A   1      47.247  28.278  28.473  1.00  0.00     0.074 A 
ATOM     47  C   UNL A   1      41.616  30.927  29.698  1.00  0.00     0.029 A 
ATOM     48  N   UNL A   1      43.250  29.541  29.102  1.00  0.00    -0.354 N 
ATOM     49  N   UNL A   1      46.043  28.741  28.707  1.00  0.00    -0.248 NA
ATOM     50  C   UNL A   1      48.323  29.248  28.721  1.00  0.00     0.031 C 
ATOM     51  C   UNL A   1      42.837  31.594  29.844  1.00  0.00     0.029 A 
ATOM     52  C   UNL A   1      43.856  30.725  29.491  1.00  0.00     0.049 A 
ATOM     53  H   UNL A   1      43.727  28.737  28.792  1.00  0.00     0.167 HD
ATOM     54  C   UNL A   1      46.217  30.045  29.150  1.00  0.00     0.074 A 
ATOM     55  C   UNL A   1      47.643  30.294  29.170  1.00  0.00     0.031 C 
ATOM     56  C   UNL A   1      45.278  30.954  29.507  1.00  0.00     0.037 A 
BRANCH  43  57
ATOM     57  C   UNL A   1      39.469  28.923  28.985  1.00  0.00     0.064 A 
ATOM     58  C   UNL A   1      38.783  28.807  30.203  1.00  0.00     0.173 A 
ATOM     59  C   UNL A   1      38.751  29.377  27.868  1.00  0.00     0.173 A 
ATOM     60  F   UNL A   1      39.422  28.367  31.298  1.00  0.00    -0.203 F 
ATOM     61  C   UNL A   1      37.427  29.109  30.294  1.00  0.00     0.198 A 
ATOM     62  C   UNL A   1      37.402  29.704  27.968  1.00  0.00     0.198 A 
ATOM     63  F   UNL A   1      39.360  29.512  26.681  1.00  0.00    -0.203 F 
ATOM     64  F   UNL A   1      36.783  28.949  31.459  1.00  0.00    -0.200 F 
ATOM     65  C   UNL A   1      36.739  29.564  29.179  1.00  0.00     0.200 A 
ATOM     66  F   UNL A   1      36.741  30.155  26.893  1.00  0.00    -0.200 F 
ATOM     67  F   UNL A   1      35.436  29.862  29.270  1.00  0.00    -0.200 F 
ENDBRANCH  43  57
BRANCH  44  68
ATOM     68  C   UNL A   1      49.095  26.577  27.807  1.00  0.00     0.064 A 
ATOM     69  C   UNL A   1      49.666  26.572  26.526  1.00  0.00     0.173 A 
ATOM     70  C   UNL A   1      49.923  26.258  28.893  1.00  0.00     0.173 A 
ATOM     71  F   UNL A   1      48.908  26.850  25.455  1.00  0.00    -0.203 F 
ATOM     72  C   UNL A   1      51.006  26.244  26.337  1.00  0.00     0.198 A 
ATOM     73  C   UNL A   1      51.269  25.955  28.705  1.00  0.00     0.198 A 
ATOM     74  F   UNL A   1      49.426  26.254  30.138  1.00  0.00    -0.203 F 
ATOM     75  F   UNL A   1      51.516  26.207  25.099  1.00  0.00    -0.200 F 
ATOM     76  C   UNL A   1      51.809  25.941  27.428  1.00  0.00     0.200 A 
ATOM     77  F   UNL A   1      52.045  25.676  29.762  1.00  0.00    -0.200 F 
ATOM     78  F   UNL A   1      53.100  25.630  27.245  1.00  0.00    -0.200 F 
ENDBRANCH  44  68
BRANCH  56  79
ATOM     79  C   UNL A   1      45.767  32.294  29.973  1.00  0.00     0.064 A 
ATOM     80  C   UNL A   1      45.930  33.366  29.083  1.00  0.00     0.173 A 
ATOM     81  C   UNL A   1      46.048  32.515  31.329  1.00  0.00     0.173 A 
ATOM     82  F   UNL A   1      45.690  33.198  27.774  1.00  0.00    -0.203 F 
ATOM     83  C   UNL A   1      46.384  34.603  29.531  1.00  0.00     0.198 A 
ATOM     84  C   UNL A   1      46.476  33.762  31.777  1.00  0.00     0.198 A 
ATOM     85  F   UNL A   1      45.902  31.524  32.221  1.00  0.00    -0.203 F 
ATOM     86  F   UNL A   1      46.580  35.599  28.655  1.00  0.00    -0.200 F 
ATOM     87  C   UNL A   1      46.651  34.802  30.877  1.00  0.00     0.200 A 
ATOM     88  F   UNL A   1      46.723  33.956  33.080  1.00  0.00    -0.200 F 
ATOM     89  F   UNL A   1      47.086  35.995  31.306  1.00  0.00    -0.200 F 
ENDBRANCH  56  79
ENDBRANCH  30  31
ENDBRANCH  22  25
ENDBRANCH  20  21
ENDBRANCH   1  20
TORSDOF 13
ENDMDL
MODEL 3
REMARK VINA RESULT:     -11.2      5.514      9.710
REMARK SMILES COc1ccc(C(C)(C)C)cc1CC(=O)NCCCNC(=O)c1ccc(-c2c3nc(c(-c4c(F)c(F)c(F)c(F)c4F)c4ccc([nH]4)c(-c4c(F)c(F)c(F)c(F)c4F)c4nc(c(-c5c(F)c(F)c(F)c(F)c5F)c5ccc2[nH]5)C=C4)C=C3)cc1
REMARK SMILES IDX 18 1 17 2 16 3 14 4 15 5 13 7 12 8 3 9 4 10 5 11 11 12 6 13
REMARK SMILES IDX 2 14 1 15 7 16 8 17 9 18 10 19 19 20 20 21 21 22 22 24 23 25
REMARK SMILES IDX 24 26 85 27 25 28 84 29 26 30 27 31 28 32 78 33 29 34 83 35
REMARK SMILES IDX 77 36 79 37 30 38 82 39 76 40 75 41 31 43 63 44 43 45 62 46
REMARK SMILES IDX 44 47 47 48 61 49 80 50 45 51 46 52 60 54 81 55 48 56 32 57
REMARK SMILES IDX 33 58 41 59 34 60 35 61 39 62 42 63 36 64 37 65 40 66 38 67
REMARK SMILES IDX 64 68 65 69 73 70 66 71 67 72 71 73 74 74 68 75 69 76 72 77
REMARK SMILES IDX 70 78 49 79 50 80 58 81 51 82 52 83 56 84 59 85 53 86 54 87
REMARK SMILES IDX 57 88 55 89
REMARK H PARENT 16 6 20 23 79 42 47 53
REMARK Flexibility Score: inf
ROOT
ATOM      1  C   UNL A   1      38.203  19.700  24.936  1.00  0.00     0.042 C 
ENDROOT
BRANCH   1   2
ATOM      2  C   UNL A   1      37.193  20.841  24.829  1.00  0.00     0.117 C 
BRANCH   2   3
ATOM      3  N   UNL A   1      37.520  21.943  25.711  1.00  0.00    -0.356 N 
ATOM      4  C   UNL A   1      37.060  23.228  25.672  1.00  0.00     0.224 C 
ATOM      5  O   UNL A   1      37.524  24.044  26.471  1.00  0.00    -0.275 OA
ATOM      6  H   UNL A   1      38.158  21.738  26.434  1.00  0.00     0.163 HD
BRANCH   4   7
ATOM      7  C   UNL A   1      35.971  23.612  24.687  1.00  0.00     0.139 C 
BRANCH   7   8
ATOM      8  C   UNL A   1      34.729  24.179  25.336  1.00  0.00     0.004 A 
ATOM      9  C   UNL A   1      33.721  23.409  25.933  1.00  0.00     0.122 A 
ATOM     10  C   UNL A   1      32.569  24.033  26.412  1.00  0.00     0.047 A 
ATOM     11  C   UNL A   1      32.414  25.420  26.330  1.00  0.00     0.008 A 
ATOM     12  C   UNL A   1      34.560  25.584  25.284  1.00  0.00     0.012 A 
ATOM     13  C   UNL A   1      33.407  26.231  25.758  1.00  0.00    -0.042 A 
BRANCH   9  14
ATOM     14  O   UNL A   1      33.668  22.042  25.953  1.00  0.00    -0.496 OA
ATOM     15  C   UNL A   1      33.990  21.421  27.194  1.00  0.00     0.278 C 
ENDBRANCH   9  14
BRANCH  13  16
ATOM     16  C   UNL A   1      33.198  27.751  25.641  1.00  0.00    -0.013 C 
ATOM     17  C   UNL A   1      31.703  28.089  25.831  1.00  0.00     0.016 C 
ATOM     18  C   UNL A   1      34.022  28.472  26.729  1.00  0.00     0.016 C 
ATOM     19  C   UNL A   1      33.624  28.340  24.276  1.00  0.00     0.016 C 
ENDBRANCH  13  16
ENDBRANCH   7   8
ENDBRANCH   4   7
ENDBRANCH   2   3
ENDBRANCH   1   2
BRANCH   1  20
ATOM     20  C   UNL A   1      39.160  19.835  26.117  1.00  0.00     0.118 C 
BRANCH  20  21
ATOM     21  N   UNL A   1      40.339  18.995  25.976  1.00  0.00    -0.352 N 
ATOM     22  C   UNL A   1      41.671  19.315  25.983  1.00  0.00     0.251 C 
ATOM     23  H   UNL A   1      40.149  18.036  25.856  1.00  0.00     0.163 HD
ATOM     24  O   UNL A   1      42.494  18.457  25.676  1.00  0.00    -0.269 OA
BRANCH  22  25
ATOM     25  C   UNL A   1      42.135  20.673  26.342  1.00  0.00     0.039 A 
ATOM     26  C   UNL A   1      42.378  21.582  25.306  1.00  0.00     0.014 A 
ATOM     27  C   UNL A   1      42.398  21.043  27.664  1.00  0.00     0.014 A 
ATOM     28  C   UNL A   1      42.838  22.867  25.596  1.00  0.00     0.010 A 
ATOM     29  C   UNL A   1      42.795  22.346  27.959  1.00  0.00     0.010 A 
ATOM     30  C   UNL A   1      43.027  23.267  26.928  1.00  0.00    -0.014 A 
BRANCH  30  31
ATOM     31  C   UNL A   1      43.464  24.650  27.246  1.00  0.00     0.031 A 
ATOM     32  C   UNL A   1      42.488  25.652  27.796  1.00  0.00     0.074 A 
ATOM     33  C   UNL A   1      44.737  25.013  26.999  1.00  0.00     0.049 A 
ATOM     34  N   UNL A   1      42.683  26.907  28.115  1.00  0.00    -0.248 NA
ATOM     35  C   UNL A   1      41.106  25.191  27.993  1.00  0.00     0.031 C 
ATOM     36  C   UNL A   1      45.764  24.148  26.418  1.00  0.00     0.029 A 
ATOM     37  N   UNL A   1      45.383  26.207  27.202  1.00  0.00    -0.354 N 
ATOM     38  C   UNL A   1      41.449  27.387  28.535  1.00  0.00     0.074 A 
ATOM     39  C   UNL A   1      40.502  26.303  28.389  1.00  0.00     0.031 C 
ATOM     40  C   UNL A   1      46.916  24.830  26.331  1.00  0.00     0.029 A 
ATOM     41  C   UNL A   1      46.704  26.187  26.825  1.00  0.00     0.049 A 
ATOM     42  H   UNL A   1      44.942  27.001  27.580  1.00  0.00     0.167 HD
ATOM     43  C   UNL A   1      41.141  28.614  29.019  1.00  0.00     0.037 A 
ATOM     44  C   UNL A   1      47.638  27.155  26.875  1.00  0.00     0.037 A 
ATOM     45  C   UNL A   1      42.090  29.683  29.192  1.00  0.00     0.049 A 
ATOM     46  C   UNL A   1      47.274  28.501  27.438  1.00  0.00     0.074 A 
ATOM     47  C   UNL A   1      41.888  30.940  29.734  1.00  0.00     0.029 A 
ATOM     48  N   UNL A   1      43.425  29.617  28.823  1.00  0.00    -0.354 N 
ATOM     49  N   UNL A   1      46.120  28.919  27.900  1.00  0.00    -0.248 NA
ATOM     50  C   UNL A   1      48.345  29.505  27.496  1.00  0.00     0.031 C 
ATOM     51  C   UNL A   1      43.092  31.648  29.660  1.00  0.00     0.029 A 
ATOM     52  C   UNL A   1      44.055  30.818  29.110  1.00  0.00     0.049 A 
ATOM     53  H   UNL A   1      43.862  28.833  28.416  1.00  0.00     0.167 HD
ATOM     54  C   UNL A   1      46.331  30.224  28.323  1.00  0.00     0.074 A 
ATOM     55  C   UNL A   1      47.727  30.523  28.080  1.00  0.00     0.031 C 
ATOM     56  C   UNL A   1      45.446  31.097  28.863  1.00  0.00     0.037 A 
BRANCH  43  57
ATOM     57  C   UNL A   1      39.712  28.868  29.404  1.00  0.00     0.064 A 
ATOM     58  C   UNL A   1      39.247  28.621  30.705  1.00  0.00     0.173 A 
ATOM     59  C   UNL A   1      38.807  29.403  28.475  1.00  0.00     0.173 A 
ATOM     60  F   UNL A   1      40.070  28.100  31.628  1.00  0.00    -0.203 F 
ATOM     61  C   UNL A   1      37.924  28.876  31.054  1.00  0.00     0.198 A 
ATOM     62  C   UNL A   1      37.492  29.682  28.834  1.00  0.00     0.198 A 
ATOM     63  F   UNL A   1      39.201  29.664  27.220  1.00  0.00    -0.203 F 
ATOM     64  F   UNL A   1      37.492  28.591  32.291  1.00  0.00    -0.200 F 
ATOM     65  C   UNL A   1      37.049  29.412  30.121  1.00  0.00     0.200 A 
ATOM     66  F   UNL A   1      36.650  30.211  27.936  1.00  0.00    -0.200 F 
ATOM     67  F   UNL A   1      35.777  29.663  30.461  1.00  0.00    -0.200 F 
ENDBRANCH  43  57
BRANCH  44  68
ATOM     68  C   UNL A   1      49.019  26.871  26.412  1.00  0.00     0.064 A 
ATOM     69  C   UNL A   1      49.984  26.367  27.296  1.00  0.00     0.173 A 
ATOM     70  C   UNL A   1      49.402  27.092  25.081  1.00  0.00     0.173 A 
ATOM     71  F   UNL A   1      49.669  26.160  28.582  1.00  0.00    -0.203 F 
ATOM     72  C   UNL A   1      51.285  26.112  26.870  1.00  0.00     0.198 A 
ATOM     73  C   UNL A   1      50.696  26.812  24.651  1.00  0.00     0.198 A 
ATOM     74  F   UNL A   1      48.514  27.567  24.196  1.00  0.00    -0.203 F 
ATOM     75  F   UNL A   1      52.199  25.670  27.744  1.00  0.00    -0.200 F 
ATOM     76  C   UNL A   1      51.639  26.329  25.546  1.00  0.00     0.200 A 
ATOM     77  F   UNL A   1      51.032  27.011  23.368  1.00  0.00    -0.200 F 
ATOM     78  F   UNL A   1      52.890  26.078  25.136  1.00  0.00    -0.200 F 
ENDBRANCH  44  68
BRANCH  56  79
ATOM     79  C   UNL A   1      45.969  32.448  29.250  1.00  0.00     0.064 A 
ATOM     80  C   UNL A   1      46.514  32.689  30.521  1.00  0.00     0.173 A 
ATOM     81  C   UNL A   1      45.951  33.507  28.330  1.00  0.00     0.173 A 
ATOM     82  F   UNL A   1      46.538  31.713  31.440  1.00  0.00    -0.203 F 
ATOM     83  C   UNL A   1      46.995  33.949  30.864  1.00  0.00     0.198 A 
ATOM     84  C   UNL A   1      46.458  34.759  28.669  1.00  0.00     0.198 A 
ATOM     85  F   UNL A   1      45.446  33.327  27.101  1.00  0.00    -0.203 F 
ATOM     86  F   UNL A   1      47.467  34.170  32.099  1.00  0.00    -0.200 F 
ATOM     87  C   UNL A   1      46.973  34.981  29.937  1.00  0.00     0.200 A 
ATOM     88  F   UNL A   1      46.446  35.751  27.769  1.00  0.00    -0.200 F 
ATOM     89  F   UNL A   1      47.440  36.192  30.270  1.00  0.00    -0.200 F 
ENDBRANCH  56  79
ENDBRANCH  30  31
ENDBRANCH  22  25
ENDBRANCH  20  21
ENDBRANCH   1  20
TORSDOF 13
ENDMDL
