MODEL 1
REMARK VINA RESULT:     -12.1      0.000      0.000
REMARK SMILES COc1cccc(S(=O)(=O)N[C@H](CC(C)C)C(=O)NCCCNC(=O)c2ccc(-c3c4nc(c(-c5c(F)c(F)c(F)c(F)c5F)c5ccc([nH]5)c(-c5c(F)c(F)c(F)c(F)c5F)c5nc(c(-c6c(F)c(F)c(F)c(F)c6F)c6ccc3[nH]6)C=C5)C=C4)cc2)c1
REMARK SMILES IDX 20 1 19 2 17 3 18 4 12 6 11 7 8 9 9 10 10 11 7 12 3 13 4 14
REMARK SMILES IDX 89 15 5 16 6 17 2 18 1 19 13 20 14 21 15 22 16 23 21 24
REMARK SMILES IDX 22 25 23 26 24 27 25 29 26 30 27 31 88 32 28 33 87 34 29 35
REMARK SMILES IDX 30 36 31 37 81 38 32 39 86 40 80 41 82 42 33 43 85 44 79 45
REMARK SMILES IDX 78 46 34 48 66 49 46 50 65 51 47 52 50 53 64 54 83 55 48 56
REMARK SMILES IDX 49 57 63 59 84 60 51 61 35 62 36 63 44 64 37 65 38 66 42 67
REMARK SMILES IDX 45 68 39 69 40 70 43 71 41 72 67 73 68 74 76 75 69 76 70 77
REMARK SMILES IDX 74 78 77 79 71 80 72 81 75 82 73 83 52 84 53 85 61 86 54 87
REMARK SMILES IDX 55 88 59 89 62 90 56 91 57 92 60 93 58 94
REMARK H PARENT 19 5 11 8 23 28 82 47 50 58
REMARK Flexibility Score: inf
ROOT
ATOM      1  C   UNL A   1      32.501  30.350  26.452  1.00  0.00     0.117 C 
ENDROOT
BRANCH   1   2
ATOM      2  N   UNL A   1      31.786  29.279  27.126  1.00  0.00    -0.355 N 
ATOM      3  C   UNL A   1      31.627  27.982  26.750  1.00  0.00     0.238 C 
ATOM      4  O   UNL A   1      31.175  27.186  27.577  1.00  0.00    -0.273 OA
ATOM      5  H   UNL A   1      31.355  29.528  27.976  1.00  0.00     0.163 HD
BRANCH   3   6
ATOM      6  C   UNL A   1      31.991  27.522  25.342  1.00  0.00     0.159 C 
BRANCH   6   7
ATOM      7  N   UNL A   1      30.891  27.729  24.366  1.00  0.00    -0.199 NA
ATOM      8  H   UNL A   1      30.487  26.806  24.208  1.00  0.00     0.142 HD
BRANCH   7   9
ATOM      9  S   UNL A   1      31.086  28.405  22.838  1.00  0.00     0.241 S 
ATOM     10  O   UNL A   1      30.693  27.443  21.832  1.00  0.00    -0.207 OA
ATOM     11  O   UNL A   1      32.418  28.963  22.843  1.00  0.00    -0.207 OA
BRANCH   9  12
ATOM     12  C   UNL A   1      29.957  29.759  22.782  1.00  0.00     0.086 A 
ATOM     13  C   UNL A   1      28.359  31.052  21.531  1.00  0.00     0.120 A 
ATOM     14  C   UNL A   1      28.129  31.833  22.668  1.00  0.00     0.046 A 
ATOM     15  C   UNL A   1      29.284  30.012  21.587  1.00  0.00     0.068 A 
ATOM     16  C   UNL A   1      28.796  31.566  23.866  1.00  0.00     0.005 A 
ATOM     17  C   UNL A   1      29.717  30.523  23.927  1.00  0.00     0.022 A 
BRANCH  13  18
ATOM     18  O   UNL A   1      27.646  31.401  20.418  1.00  0.00    -0.497 OA
ATOM     19  C   UNL A   1      27.627  32.793  20.116  1.00  0.00     0.278 C 
ENDBRANCH  13  18
ENDBRANCH   9  12
ENDBRANCH   7   9
ENDBRANCH   6   7
BRANCH   6  20
ATOM     20  C   UNL A   1      32.436  26.039  25.260  1.00  0.00     0.033 C 
BRANCH  20  21
ATOM     21  C   UNL A   1      33.895  25.713  24.855  1.00  0.00    -0.015 C 
ATOM     22  C   UNL A   1      34.512  24.493  25.534  1.00  0.00     0.007 C 
ATOM     23  C   UNL A   1      33.943  25.492  23.333  1.00  0.00     0.007 C 
ENDBRANCH  20  21
ENDBRANCH   6  20
ENDBRANCH   3   6
ENDBRANCH   1   2
BRANCH   1  24
ATOM     24  C   UNL A   1      31.972  31.713  26.848  1.00  0.00     0.042 C 
BRANCH  24  25
ATOM     25  C   UNL A   1      33.045  32.586  27.475  1.00  0.00     0.118 C 
BRANCH  25  26
ATOM     26  N   UNL A   1      32.602  33.963  27.675  1.00  0.00    -0.352 N 
ATOM     27  C   UNL A   1      33.029  34.869  28.613  1.00  0.00     0.251 C 
ATOM     28  H   UNL A   1      31.908  34.284  27.054  1.00  0.00     0.163 HD
ATOM     29  O   UNL A   1      32.449  35.933  28.787  1.00  0.00    -0.269 OA
BRANCH  27  30
ATOM     30  C   UNL A   1      34.196  34.511  29.434  1.00  0.00     0.039 A 
ATOM     31  C   UNL A   1      34.002  33.903  30.675  1.00  0.00     0.014 A 
ATOM     32  C   UNL A   1      35.478  34.687  28.908  1.00  0.00     0.014 A 
ATOM     33  C   UNL A   1      35.104  33.393  31.360  1.00  0.00     0.010 A 
ATOM     34  C   UNL A   1      36.556  34.093  29.542  1.00  0.00     0.010 A 
ATOM     35  C   UNL A   1      36.379  33.444  30.775  1.00  0.00    -0.014 A 
BRANCH  35  36
ATOM     36  C   UNL A   1      37.567  32.842  31.425  1.00  0.00     0.031 A 
ATOM     37  C   UNL A   1      38.249  31.678  30.767  1.00  0.00     0.074 A 
ATOM     38  C   UNL A   1      37.943  33.254  32.650  1.00  0.00     0.049 A 
ATOM     39  N   UNL A   1      39.180  30.889  31.237  1.00  0.00    -0.248 NA
ATOM     40  C   UNL A   1      37.785  31.325  29.416  1.00  0.00     0.031 C 
ATOM     41  C   UNL A   1      37.318  34.338  33.411  1.00  0.00     0.029 A 
ATOM     42  N   UNL A   1      38.929  32.788  33.484  1.00  0.00    -0.354 N 
ATOM     43  C   UNL A   1      39.380  29.926  30.257  1.00  0.00     0.074 A 
ATOM     44  C   UNL A   1      38.441  30.198  29.192  1.00  0.00     0.031 C 
ATOM     45  C   UNL A   1      37.936  34.455  34.597  1.00  0.00     0.029 A 
ATOM     46  C   UNL A   1      38.970  33.429  34.697  1.00  0.00     0.049 A 
ATOM     47  H   UNL A   1      39.546  32.063  33.235  1.00  0.00     0.167 HD
ATOM     48  C   UNL A   1      40.283  28.918  30.242  1.00  0.00     0.037 A 
ATOM     49  C   UNL A   1      39.740  33.199  35.778  1.00  0.00     0.037 A 
ATOM     50  C   UNL A   1      41.241  28.686  31.288  1.00  0.00     0.049 A 
ATOM     51  C   UNL A   1      40.759  32.092  35.726  1.00  0.00     0.074 A 
ATOM     52  C   UNL A   1      42.262  27.754  31.331  1.00  0.00     0.029 A 
ATOM     53  N   UNL A   1      41.294  29.397  32.479  1.00  0.00    -0.354 N 
ATOM     54  N   UNL A   1      40.997  31.234  34.764  1.00  0.00    -0.248 NA
ATOM     55  C   UNL A   1      41.618  31.926  36.906  1.00  0.00     0.031 C 
ATOM     56  C   UNL A   1      42.902  27.867  32.570  1.00  0.00     0.029 A 
ATOM     57  C   UNL A   1      42.316  28.906  33.276  1.00  0.00     0.049 A 
ATOM     58  H   UNL A   1      40.696  30.140  32.721  1.00  0.00     0.167 HD
ATOM     59  C   UNL A   1      42.049  30.444  35.207  1.00  0.00     0.074 A 
ATOM     60  C   UNL A   1      42.408  30.931  36.524  1.00  0.00     0.031 C 
ATOM     61  C   UNL A   1      42.664  29.413  34.579  1.00  0.00     0.037 A 
BRANCH  48  62
ATOM     62  C   UNL A   1      40.265  27.990  29.062  1.00  0.00     0.064 A 
ATOM     63  C   UNL A   1      39.518  26.802  29.062  1.00  0.00     0.173 A 
ATOM     64  C   UNL A   1      41.000  28.301  27.907  1.00  0.00     0.173 A 
ATOM     65  F   UNL A   1      38.809  26.451  30.145  1.00  0.00    -0.203 F 
ATOM     66  C   UNL A   1      39.542  25.940  27.969  1.00  0.00     0.198 A 
ATOM     67  C   UNL A   1      40.993  27.454  26.802  1.00  0.00     0.198 A 
ATOM     68  F   UNL A   1      41.729  29.426  27.850  1.00  0.00    -0.203 F 
ATOM     69  F   UNL A   1      38.872  24.780  28.019  1.00  0.00    -0.200 F 
ATOM     70  C   UNL A   1      40.273  26.270  26.838  1.00  0.00     0.200 A 
ATOM     71  F   UNL A   1      41.690  27.780  25.706  1.00  0.00    -0.200 F 
ATOM     72  F   UNL A   1      40.292  25.441  25.786  1.00  0.00    -0.200 F 
ENDBRANCH  48  62
BRANCH  49  73
ATOM     73  C   UNL A   1      39.583  34.048  36.986  1.00  0.00     0.064 A 
ATOM     74  C   UNL A   1      38.788  33.630  38.062  1.00  0.00     0.173 A 
ATOM     75  C   UNL A   1      40.245  35.280  37.103  1.00  0.00     0.173 A 
ATOM     76  F   UNL A   1      38.122  32.468  37.989  1.00  0.00    -0.203 F 
ATOM     77  C   UNL A   1      38.651  34.416  39.205  1.00  0.00     0.198 A 
ATOM     78  C   UNL A   1      40.128  36.052  38.258  1.00  0.00     0.198 A 
ATOM     79  F   UNL A   1      41.024  35.721  36.106  1.00  0.00    -0.203 F 
ATOM     80  F   UNL A   1      37.858  34.008  40.205  1.00  0.00    -0.200 F 
ATOM     81  C   UNL A   1      39.327  35.623  39.304  1.00  0.00     0.200 A 
ATOM     82  F   UNL A   1      40.797  37.209  38.357  1.00  0.00    -0.200 F 
ATOM     83  F   UNL A   1      39.205  36.372  40.408  1.00  0.00    -0.200 F 
ENDBRANCH  49  73
BRANCH  61  84
ATOM     84  C   UNL A   1      43.818  28.762  35.283  1.00  0.00     0.064 A 
ATOM     85  C   UNL A   1      43.636  27.670  36.144  1.00  0.00     0.173 A 
ATOM     86  C   UNL A   1      45.130  29.193  35.034  1.00  0.00     0.173 A 
ATOM     87  F   UNL A   1      42.400  27.231  36.424  1.00  0.00    -0.203 F 
ATOM     88  C   UNL A   1      44.726  27.042  36.740  1.00  0.00     0.198 A 
ATOM     89  C   UNL A   1      46.218  28.544  35.608  1.00  0.00     0.198 A 
ATOM     90  F   UNL A   1      45.356  30.229  34.212  1.00  0.00    -0.203 F 
ATOM     91  F   UNL A   1      44.528  26.022  37.586  1.00  0.00    -0.200 F 
ATOM     92  C   UNL A   1      46.015  27.472  36.463  1.00  0.00     0.200 A 
ATOM     93  F   UNL A   1      47.464  28.952  35.328  1.00  0.00    -0.200 F 
ATOM     94  F   UNL A   1      47.064  26.854  37.026  1.00  0.00    -0.200 F 
ENDBRANCH  61  84
ENDBRANCH  35  36
ENDBRANCH  27  30
ENDBRANCH  25  26
ENDBRANCH  24  25
ENDBRANCH   1  24
TORSDOF 16
ENDMDL
MODEL 2
REMARK VINA RESULT:     -12.0      1.436      3.526
REMARK SMILES COc1cccc(S(=O)(=O)N[C@H](CC(C)C)C(=O)NCCCNC(=O)c2ccc(-c3c4nc(c(-c5c(F)c(F)c(F)c(F)c5F)c5ccc([nH]5)c(-c5c(F)c(F)c(F)c(F)c5F)c5nc(c(-c6c(F)c(F)c(F)c(F)c6F)c6ccc3[nH]6)C=C5)C=C4)cc2)c1
REMARK SMILES IDX 20 1 19 2 17 3 18 4 12 6 11 7 8 9 9 10 10 11 7 12 3 13 4 14
REMARK SMILES IDX 89 15 5 16 6 17 2 18 1 19 13 20 14 21 15 22 16 23 21 24
REMARK SMILES IDX 22 25 23 26 24 27 25 29 26 30 27 31 88 32 28 33 87 34 29 35
REMARK SMILES IDX 30 36 31 37 81 38 32 39 86 40 80 41 82 42 33 43 85 44 79 45
REMARK SMILES IDX 78 46 34 48 66 49 46 50 65 51 47 52 50 53 64 54 83 55 48 56
REMARK SMILES IDX 49 57 63 59 84 60 51 61 35 62 36 63 44 64 37 65 38 66 42 67
REMARK SMILES IDX 45 68 39 69 40 70 43 71 41 72 67 73 68 74 76 75 69 76 70 77
REMARK SMILES IDX 74 78 77 79 71 80 72 81 75 82 73 83 52 84 53 85 61 86 54 87
REMARK SMILES IDX 55 88 59 89 62 90 56 91 57 92 60 93 58 94
REMARK H PARENT 19 5 11 8 23 28 82 47 50 58
REMARK Flexibility Score: inf
ROOT
ATOM      1  C   UNL A   1      32.216  30.117  25.723  1.00  0.00     0.117 C 
ENDROOT
BRANCH   1   2
ATOM      2  N   UNL A   1      31.222  30.240  24.670  1.00  0.00    -0.355 N 
ATOM      3  C   UNL A   1      30.613  29.263  23.945  1.00  0.00     0.238 C 
ATOM      4  O   UNL A   1      29.636  29.571  23.258  1.00  0.00    -0.273 OA
ATOM      5  H   UNL A   1      30.950  31.161  24.451  1.00  0.00     0.163 HD
BRANCH   3   6
ATOM      6  C   UNL A   1      31.126  27.827  23.974  1.00  0.00     0.159 C 
BRANCH   6   7
ATOM      7  N   UNL A   1      31.818  27.439  22.719  1.00  0.00    -0.199 NA
ATOM      8  H   UNL A   1      31.330  26.609  22.381  1.00  0.00     0.142 HD
BRANCH   7   9
ATOM      9  S   UNL A   1      33.457  27.076  22.607  1.00  0.00     0.241 S 
ATOM     10  O   UNL A   1      34.232  28.178  23.133  1.00  0.00    -0.207 OA
ATOM     11  O   UNL A   1      33.648  26.623  21.249  1.00  0.00    -0.207 OA
BRANCH   9  12
ATOM     12  C   UNL A   1      33.696  25.678  23.657  1.00  0.00     0.086 A 
ATOM     13  C   UNL A   1      33.738  23.287  23.917  1.00  0.00     0.120 A 
ATOM     14  C   UNL A   1      34.121  23.457  25.250  1.00  0.00     0.046 A 
ATOM     15  C   UNL A   1      33.517  24.404  23.116  1.00  0.00     0.068 A 
ATOM     16  C   UNL A   1      34.312  24.735  25.782  1.00  0.00     0.005 A 
ATOM     17  C   UNL A   1      34.098  25.855  24.983  1.00  0.00     0.022 A 
BRANCH  13  18
ATOM     18  O   UNL A   1      33.588  21.992  23.504  1.00  0.00    -0.497 OA
ATOM     19  C   UNL A   1      32.606  21.237  24.206  1.00  0.00     0.278 C 
ENDBRANCH  13  18
ENDBRANCH   9  12
ENDBRANCH   7   9
ENDBRANCH   6   7
BRANCH   6  20
ATOM     20  C   UNL A   1      30.028  26.772  24.265  1.00  0.00     0.033 C 
BRANCH  20  21
ATOM     21  C   UNL A   1      30.095  25.962  25.583  1.00  0.00    -0.015 C 
ATOM     22  C   UNL A   1      30.581  24.521  25.448  1.00  0.00     0.007 C 
ATOM     23  C   UNL A   1      31.029  26.694  26.562  1.00  0.00     0.007 C 
ENDBRANCH  20  21
ENDBRANCH   6  20
ENDBRANCH   3   6
ENDBRANCH   1   2
BRANCH   1  24
ATOM     24  C   UNL A   1      31.897  31.010  26.904  1.00  0.00     0.042 C 
BRANCH  24  25
ATOM     25  C   UNL A   1      33.053  31.928  27.259  1.00  0.00     0.118 C 
BRANCH  25  26
ATOM     26  N   UNL A   1      32.644  33.325  27.376  1.00  0.00    -0.352 N 
ATOM     27  C   UNL A   1      33.080  34.270  28.271  1.00  0.00     0.251 C 
ATOM     28  H   UNL A   1      31.968  33.629  26.728  1.00  0.00     0.163 HD
ATOM     29  O   UNL A   1      32.527  35.357  28.376  1.00  0.00    -0.269 OA
BRANCH  27  30
ATOM     30  C   UNL A   1      34.225  33.928  29.128  1.00  0.00     0.039 A 
ATOM     31  C   UNL A   1      34.028  33.111  30.242  1.00  0.00     0.014 A 
ATOM     32  C   UNL A   1      35.506  34.338  28.751  1.00  0.00     0.014 A 
ATOM     33  C   UNL A   1      35.138  32.633  30.938  1.00  0.00     0.010 A 
ATOM     34  C   UNL A   1      36.607  33.783  29.382  1.00  0.00     0.010 A 
ATOM     35  C   UNL A   1      36.433  32.929  30.483  1.00  0.00    -0.014 A 
BRANCH  35  36
ATOM     36  C   UNL A   1      37.642  32.377  31.138  1.00  0.00     0.031 A 
ATOM     37  C   UNL A   1      38.363  31.228  30.494  1.00  0.00     0.074 A 
ATOM     38  C   UNL A   1      38.006  32.819  32.356  1.00  0.00     0.049 A 
ATOM     39  N   UNL A   1      39.321  30.478  30.972  1.00  0.00    -0.248 NA
ATOM     40  C   UNL A   1      37.908  30.842  29.149  1.00  0.00     0.031 C 
ATOM     41  C   UNL A   1      37.345  33.890  33.104  1.00  0.00     0.029 A 
ATOM     42  N   UNL A   1      39.009  32.399  33.194  1.00  0.00    -0.354 N 
ATOM     43  C   UNL A   1      39.552  29.510  30.006  1.00  0.00     0.074 A 
ATOM     44  C   UNL A   1      38.602  29.735  28.939  1.00  0.00     0.031 C 
ATOM     45  C   UNL A   1      37.962  34.045  34.286  1.00  0.00     0.029 A 
ATOM     46  C   UNL A   1      39.030  33.057  34.398  1.00  0.00     0.049 A 
ATOM     47  H   UNL A   1      39.650  31.692  32.954  1.00  0.00     0.167 HD
ATOM     48  C   UNL A   1      40.489  28.533  30.002  1.00  0.00     0.037 A 
ATOM     49  C   UNL A   1      39.810  32.868  35.480  1.00  0.00     0.037 A 
ATOM     50  C   UNL A   1      41.457  28.349  31.048  1.00  0.00     0.049 A 
ATOM     51  C   UNL A   1      40.866  31.797  35.441  1.00  0.00     0.074 A 
ATOM     52  C   UNL A   1      42.509  27.453  31.101  1.00  0.00     0.029 A 
ATOM     53  N   UNL A   1      41.488  29.077  32.229  1.00  0.00    -0.354 N 
ATOM     54  N   UNL A   1      41.132  30.934  34.490  1.00  0.00    -0.248 NA
ATOM     55  C   UNL A   1      41.733  31.676  36.621  1.00  0.00     0.031 C 
ATOM     56  C   UNL A   1      43.147  27.605  32.337  1.00  0.00     0.029 A 
ATOM     57  C   UNL A   1      42.528  28.633  33.030  1.00  0.00     0.049 A 
ATOM     58  H   UNL A   1      40.864  29.803  32.462  1.00  0.00     0.167 HD
ATOM     59  C   UNL A   1      42.212  30.187  34.941  1.00  0.00     0.074 A 
ATOM     60  C   UNL A   1      42.557  30.704  36.251  1.00  0.00     0.031 C 
ATOM     61  C   UNL A   1      42.861  29.169  34.325  1.00  0.00     0.037 A 
BRANCH  48  62
ATOM     62  C   UNL A   1      40.501  27.589  28.834  1.00  0.00     0.064 A 
ATOM     63  C   UNL A   1      39.698  26.439  28.801  1.00  0.00     0.173 A 
ATOM     64  C   UNL A   1      41.323  27.846  27.726  1.00  0.00     0.173 A 
ATOM     65  F   UNL A   1      38.904  26.140  29.839  1.00  0.00    -0.203 F 
ATOM     66  C   UNL A   1      39.748  25.560  27.722  1.00  0.00     0.198 A 
ATOM     67  C   UNL A   1      41.344  26.983  26.633  1.00  0.00     0.198 A 
ATOM     68  F   UNL A   1      42.108  28.934  27.702  1.00  0.00    -0.203 F 
ATOM     69  F   UNL A   1      39.020  24.435  27.743  1.00  0.00    -0.200 F 
ATOM     70  C   UNL A   1      40.565  25.837  26.637  1.00  0.00     0.200 A 
ATOM     71  F   UNL A   1      42.125  27.259  25.580  1.00  0.00    -0.200 F 
ATOM     72  F   UNL A   1      40.611  24.991  25.598  1.00  0.00    -0.200 F 
ENDBRANCH  48  62
BRANCH  49  73
ATOM     73  C   UNL A   1      39.626  33.728  36.677  1.00  0.00     0.064 A 
ATOM     74  C   UNL A   1      40.253  34.979  36.768  1.00  0.00     0.173 A 
ATOM     75  C   UNL A   1      38.801  33.332  37.740  1.00  0.00     0.173 A 
ATOM     76  F   UNL A   1      41.065  35.393  35.785  1.00  0.00    -0.203 F 
ATOM     77  C   UNL A   1      40.069  35.796  37.883  1.00  0.00     0.198 A 
ATOM     78  C   UNL A   1      38.598  34.162  38.841  1.00  0.00     0.198 A 
ATOM     79  F   UNL A   1      38.172  32.149  37.697  1.00  0.00    -0.203 F 
ATOM     80  F   UNL A   1      40.706  36.973  37.959  1.00  0.00    -0.200 F 
ATOM     81  C   UNL A   1      39.237  35.390  38.914  1.00  0.00     0.200 A 
ATOM     82  F   UNL A   1      37.778  33.773  39.827  1.00  0.00    -0.200 F 
ATOM     83  F   UNL A   1      39.051  36.181  39.979  1.00  0.00    -0.200 F 
ENDBRANCH  49  73
BRANCH  61  84
ATOM     84  C   UNL A   1      44.037  28.568  35.035  1.00  0.00     0.064 A 
ATOM     85  C   UNL A   1      45.329  29.096  34.901  1.00  0.00     0.173 A 
ATOM     86  C   UNL A   1      43.853  27.494  35.919  1.00  0.00     0.173 A 
ATOM     87  F   UNL A   1      45.558  30.114  34.058  1.00  0.00    -0.203 F 
ATOM     88  C   UNL A   1      46.397  28.562  35.617  1.00  0.00     0.198 A 
ATOM     89  C   UNL A   1      44.917  26.981  36.655  1.00  0.00     0.198 A 
ATOM     90  F   UNL A   1      42.634  26.958  36.088  1.00  0.00    -0.203 F 
ATOM     91  F   UNL A   1      47.629  29.059  35.448  1.00  0.00    -0.200 F 
ATOM     92  C   UNL A   1      46.188  27.513  36.501  1.00  0.00     0.200 A 
ATOM     93  F   UNL A   1      44.710  25.977  37.519  1.00  0.00    -0.200 F 
ATOM     94  F   UNL A   1      47.215  27.011  37.201  1.00  0.00    -0.200 F 
ENDBRANCH  61  84
ENDBRANCH  35  36
ENDBRANCH  27  30
ENDBRANCH  25  26
ENDBRANCH  24  25
ENDBRANCH   1  24
TORSDOF 16
ENDMDL
MODEL 3
REMARK VINA RESULT:     -11.9      0.487      2.081
REMARK SMILES COc1cccc(S(=O)(=O)N[C@H](CC(C)C)C(=O)NCCCNC(=O)c2ccc(-c3c4nc(c(-c5c(F)c(F)c(F)c(F)c5F)c5ccc([nH]5)c(-c5c(F)c(F)c(F)c(F)c5F)c5nc(c(-c6c(F)c(F)c(F)c(F)c6F)c6ccc3[nH]6)C=C5)C=C4)cc2)c1
REMARK SMILES IDX 20 1 19 2 17 3 18 4 12 6 11 7 8 9 9 10 10 11 7 12 3 13 4 14
REMARK SMILES IDX 89 15 5 16 6 17 2 18 1 19 13 20 14 21 15 22 16 23 21 24
REMARK SMILES IDX 22 25 23 26 24 27 25 29 26 30 27 31 88 32 28 33 87 34 29 35
REMARK SMILES IDX 30 36 31 37 81 38 32 39 86 40 80 41 82 42 33 43 85 44 79 45
REMARK SMILES IDX 78 46 34 48 66 49 46 50 65 51 47 52 50 53 64 54 83 55 48 56
REMARK SMILES IDX 49 57 63 59 84 60 51 61 35 62 36 63 44 64 37 65 38 66 42 67
REMARK SMILES IDX 45 68 39 69 40 70 43 71 41 72 67 73 68 74 76 75 69 76 70 77
REMARK SMILES IDX 74 78 77 79 71 80 72 81 75 82 73 83 52 84 53 85 61 86 54 87
REMARK SMILES IDX 55 88 59 89 62 90 56 91 57 92 60 93 58 94
REMARK H PARENT 19 5 11 8 23 28 82 47 50 58
REMARK Flexibility Score: inf
ROOT
ATOM      1  C   UNL A   1      32.560  30.224  26.408  1.00  0.00     0.117 C 
ENDROOT
BRANCH   1   2
ATOM      2  N   UNL A   1      31.807  29.204  27.118  1.00  0.00    -0.355 N 
ATOM      3  C   UNL A   1      31.558  27.916  26.760  1.00  0.00     0.238 C 
ATOM      4  O   UNL A   1      31.089  27.156  27.611  1.00  0.00    -0.273 OA
ATOM      5  H   UNL A   1      31.423  29.486  27.980  1.00  0.00     0.163 HD
BRANCH   3   6
ATOM      6  C   UNL A   1      31.843  27.423  25.345  1.00  0.00     0.159 C 
BRANCH   6   7
ATOM      7  N   UNL A   1      30.758  27.760  24.389  1.00  0.00    -0.199 NA
ATOM      8  H   UNL A   1      30.262  26.885  24.217  1.00  0.00     0.142 HD
BRANCH   7   9
ATOM      9  S   UNL A   1      31.001  28.447  22.873  1.00  0.00     0.241 S 
ATOM     10  O   UNL A   1      30.627  27.498  21.848  1.00  0.00    -0.207 OA
ATOM     11  O   UNL A   1      32.338  28.992  22.920  1.00  0.00    -0.207 OA
BRANCH   9  12
ATOM     12  C   UNL A   1      29.887  29.813  22.799  1.00  0.00     0.086 A 
ATOM     13  C   UNL A   1      28.323  31.121  21.522  1.00  0.00     0.120 A 
ATOM     14  C   UNL A   1      28.083  31.906  22.654  1.00  0.00     0.046 A 
ATOM     15  C   UNL A   1      29.236  30.073  21.593  1.00  0.00     0.068 A 
ATOM     16  C   UNL A   1      28.728  31.633  23.863  1.00  0.00     0.005 A 
ATOM     17  C   UNL A   1      29.637  30.580  23.939  1.00  0.00     0.022 A 
BRANCH  13  18
ATOM     18  O   UNL A   1      27.631  31.477  20.398  1.00  0.00    -0.497 OA
ATOM     19  C   UNL A   1      27.632  32.869  20.094  1.00  0.00     0.278 C 
ENDBRANCH  13  18
ENDBRANCH   9  12
ENDBRANCH   7   9
ENDBRANCH   6   7
BRANCH   6  20
ATOM     20  C   UNL A   1      32.113  25.899  25.252  1.00  0.00     0.033 C 
BRANCH  20  21
ATOM     21  C   UNL A   1      30.931  24.944  24.955  1.00  0.00    -0.015 C 
ATOM     22  C   UNL A   1      30.921  24.321  23.560  1.00  0.00     0.007 C 
ATOM     23  C   UNL A   1      30.947  23.806  25.989  1.00  0.00     0.007 C 
ENDBRANCH  20  21
ENDBRANCH   6  20
ENDBRANCH   3   6
ENDBRANCH   1   2
BRANCH   1  24
ATOM     24  C   UNL A   1      32.045  31.616  26.712  1.00  0.00     0.042 C 
BRANCH  24  25
ATOM     25  C   UNL A   1      33.075  32.464  27.436  1.00  0.00     0.118 C 
BRANCH  25  26
ATOM     26  N   UNL A   1      32.634  33.844  27.624  1.00  0.00    -0.352 N 
ATOM     27  C   UNL A   1      33.066  34.760  28.550  1.00  0.00     0.251 C 
ATOM     28  H   UNL A   1      31.937  34.158  27.004  1.00  0.00     0.163 HD
ATOM     29  O   UNL A   1      32.489  35.826  28.715  1.00  0.00    -0.269 OA
BRANCH  27  30
ATOM     30  C   UNL A   1      34.239  34.411  29.367  1.00  0.00     0.039 A 
ATOM     31  C   UNL A   1      34.052  33.805  30.610  1.00  0.00     0.014 A 
ATOM     32  C   UNL A   1      35.518  34.592  28.836  1.00  0.00     0.014 A 
ATOM     33  C   UNL A   1      35.159  33.302  31.293  1.00  0.00     0.010 A 
ATOM     34  C   UNL A   1      36.601  34.005  29.468  1.00  0.00     0.010 A 
ATOM     35  C   UNL A   1      36.432  33.359  30.703  1.00  0.00    -0.014 A 
BRANCH  35  36
ATOM     36  C   UNL A   1      37.625  32.765  31.350  1.00  0.00     0.031 A 
ATOM     37  C   UNL A   1      38.320  31.612  30.687  1.00  0.00     0.074 A 
ATOM     38  C   UNL A   1      37.997  33.174  32.578  1.00  0.00     0.049 A 
ATOM     39  N   UNL A   1      39.258  30.829  31.152  1.00  0.00    -0.248 NA
ATOM     40  C   UNL A   1      37.861  31.263  29.333  1.00  0.00     0.031 C 
ATOM     41  C   UNL A   1      37.359  34.246  33.346  1.00  0.00     0.029 A 
ATOM     42  N   UNL A   1      38.986  32.712  33.411  1.00  0.00    -0.354 N 
ATOM     43  C   UNL A   1      39.470  29.875  30.167  1.00  0.00     0.074 A 
ATOM     44  C   UNL A   1      38.529  30.144  29.102  1.00  0.00     0.031 C 
ATOM     45  C   UNL A   1      37.975  34.362  34.533  1.00  0.00     0.029 A 
ATOM     46  C   UNL A   1      39.019  33.346  34.628  1.00  0.00     0.049 A 
ATOM     47  H   UNL A   1      39.611  31.995  33.158  1.00  0.00     0.167 HD
ATOM     48  C   UNL A   1      40.382  28.876  30.146  1.00  0.00     0.037 A 
ATOM     49  C   UNL A   1      39.791  33.117  35.708  1.00  0.00     0.037 A 
ATOM     50  C   UNL A   1      41.342  28.648  31.192  1.00  0.00     0.049 A 
ATOM     51  C   UNL A   1      40.821  32.021  35.651  1.00  0.00     0.074 A 
ATOM     52  C   UNL A   1      42.372  27.725  31.230  1.00  0.00     0.029 A 
ATOM     53  N   UNL A   1      41.387  29.351  32.387  1.00  0.00    -0.354 N 
ATOM     54  N   UNL A   1      41.068  31.171  34.684  1.00  0.00    -0.248 NA
ATOM     55  C   UNL A   1      41.680  31.856  36.830  1.00  0.00     0.031 C 
ATOM     56  C   UNL A   1      43.010  27.837  32.470  1.00  0.00     0.029 A 
ATOM     57  C   UNL A   1      42.413  28.866  33.181  1.00  0.00     0.049 A 
ATOM     58  H   UNL A   1      40.780  30.087  32.633  1.00  0.00     0.167 HD
ATOM     59  C   UNL A   1      42.128  30.390  35.123  1.00  0.00     0.074 A 
ATOM     60  C   UNL A   1      42.481  30.872  36.443  1.00  0.00     0.031 C 
ATOM     61  C   UNL A   1      42.755  29.368  34.488  1.00  0.00     0.037 A 
BRANCH  48  62
ATOM     62  C   UNL A   1      40.375  27.956  28.960  1.00  0.00     0.064 A 
ATOM     63  C   UNL A   1      41.116  28.232  27.801  1.00  0.00     0.173 A 
ATOM     64  C   UNL A   1      39.622  26.772  28.989  1.00  0.00     0.173 A 
ATOM     65  F   UNL A   1      41.842  29.357  27.716  1.00  0.00    -0.203 F 
ATOM     66  C   UNL A   1      41.069  27.382  26.699  1.00  0.00     0.198 A 
ATOM     67  C   UNL A   1      39.606  25.905  27.898  1.00  0.00     0.198 A 
ATOM     68  F   UNL A   1      38.898  26.455  30.073  1.00  0.00    -0.203 F 
ATOM     69  F   UNL A   1      41.733  27.701  25.581  1.00  0.00    -0.200 F 
ATOM     70  C   UNL A   1      40.320  26.216  26.752  1.00  0.00     0.200 A 
ATOM     71  F   UNL A   1      38.892  24.773  27.956  1.00  0.00    -0.200 F 
ATOM     72  F   UNL A   1      40.279  25.397  25.693  1.00  0.00    -0.200 F 
ENDBRANCH  48  62
BRANCH  49  73
ATOM     73  C   UNL A   1      39.624  33.957  36.921  1.00  0.00     0.064 A 
ATOM     74  C   UNL A   1      40.230  35.218  37.013  1.00  0.00     0.173 A 
ATOM     75  C   UNL A   1      38.835  33.532  38.000  1.00  0.00     0.173 A 
ATOM     76  F   UNL A   1      41.008  35.660  36.014  1.00  0.00    -0.203 F 
ATOM     77  C   UNL A   1      40.062  36.016  38.143  1.00  0.00     0.198 A 
ATOM     78  C   UNL A   1      38.647  34.343  39.118  1.00  0.00     0.198 A 
ATOM     79  F   UNL A   1      38.226  32.338  37.958  1.00  0.00    -0.203 F 
ATOM     80  F   UNL A   1      40.680  37.203  38.219  1.00  0.00    -0.200 F 
ATOM     81  C   UNL A   1      39.265  35.581  39.191  1.00  0.00     0.200 A 
ATOM     82  F   UNL A   1      37.860  33.926  40.120  1.00  0.00    -0.200 F 
ATOM     83  F   UNL A   1      39.094  36.354  40.271  1.00  0.00    -0.200 F 
ENDBRANCH  49  73
BRANCH  61  84
ATOM     84  C   UNL A   1      43.914  28.725  35.190  1.00  0.00     0.064 A 
ATOM     85  C   UNL A   1      45.225  29.193  35.030  1.00  0.00     0.173 A 
ATOM     86  C   UNL A   1      43.695  27.672  36.091  1.00  0.00     0.173 A 
ATOM     87  F   UNL A   1      45.487  30.188  34.169  1.00  0.00    -0.203 F 
ATOM     88  C   UNL A   1      46.279  28.621  35.737  1.00  0.00     0.198 A 
ATOM     89  C   UNL A   1      44.746  27.122  36.818  1.00  0.00     0.198 A 
ATOM     90  F   UNL A   1      42.457  27.193  36.285  1.00  0.00    -0.203 F 
ATOM     91  F   UNL A   1      47.530  29.060  35.544  1.00  0.00    -0.200 F 
ATOM     92  C   UNL A   1      46.038  27.594  36.638  1.00  0.00     0.200 A 
ATOM     93  F   UNL A   1      44.508  26.140  37.699  1.00  0.00    -0.200 F 
ATOM     94  F   UNL A   1      47.052  27.056  37.330  1.00  0.00    -0.200 F 
ENDBRANCH  61  84
ENDBRANCH  35  36
ENDBRANCH  27  30
ENDBRANCH  25  26
ENDBRANCH  24  25
ENDBRANCH   1  24
TORSDOF 16
ENDMDL
