MODEL 1
REMARK VINA RESULT:     -13.0      0.000      0.000
REMARK SMILES CCNC(=O)c1cccc(-c2ccc(Cl)c(C(=O)NCCCNC(=O)c3ccc(-c4c5nc(c(-c6c(F)c(F)c(F)c(F)c6F)c6ccc([nH]6)c(-c6c(F)c(F)c(F)c(F)c6F)c6nc(c(-c7c(F)c(F)c(F)c(F)c7F)c7ccc4[nH]7)C=C6)C=C5)cc3)c2)c1
REMARK SMILES IDX 20 1 19 2 17 3 18 4 16 6 11 7 12 8 89 9 13 10 14 11 15 12
REMARK SMILES IDX 10 13 6 14 7 15 90 16 8 17 9 18 4 19 3 20 5 22 2 23 1 24
REMARK SMILES IDX 21 25 22 26 23 27 24 28 25 30 26 31 27 32 88 33 28 34 87 35
REMARK SMILES IDX 29 36 30 37 31 38 81 39 32 40 86 41 80 42 82 43 33 44 85 45
REMARK SMILES IDX 79 46 78 47 34 49 66 50 46 51 65 52 47 53 50 54 64 55 83 56
REMARK SMILES IDX 48 57 49 58 63 60 84 61 51 62 35 63 36 64 44 65 37 66 38 67
REMARK SMILES IDX 42 68 45 69 39 70 40 71 43 72 41 73 67 74 68 75 76 76 69 77
REMARK SMILES IDX 70 78 74 79 77 80 71 81 72 82 75 83 73 84 52 85 53 86 61 87
REMARK SMILES IDX 54 88 55 89 59 90 62 91 56 92 57 93 60 94 58 95
REMARK H PARENT 19 5 3 21 23 29 82 48 50 59
REMARK Flexibility Score: inf
ROOT
ATOM      1  C   UNL A   1      36.866  20.811  25.005  1.00  0.00     0.118 C 
ENDROOT
BRANCH   1   2
ATOM      2  N   UNL A   1      37.265  22.094  25.583  1.00  0.00    -0.352 N 
ATOM      3  C   UNL A   1      36.682  23.277  25.986  1.00  0.00     0.252 C 
ATOM      4  O   UNL A   1      37.469  24.076  26.494  1.00  0.00    -0.269 OA
ATOM      5  H   UNL A   1      38.238  22.122  25.727  1.00  0.00     0.163 HD
BRANCH   3   6
ATOM      6  C   UNL A   1      35.235  23.639  25.829  1.00  0.00     0.059 A 
ATOM      7  C   UNL A   1      33.573  25.246  24.938  1.00  0.00    -0.017 A 
ATOM      8  C   UNL A   1      32.561  24.570  25.613  1.00  0.00     0.010 A 
ATOM      9  C   UNL A   1      34.862  24.692  24.997  1.00  0.00     0.024 A 
ATOM     10  C   UNL A   1      32.863  23.423  26.353  1.00  0.00     0.022 A 
ATOM     11  C   UNL A   1      34.191  22.974  26.492  1.00  0.00     0.053 A 
ATOM     12  Cl  UNL A   1      34.395  21.591  27.510  1.00  0.00    -0.083 Cl
BRANCH   7  13
ATOM     13  C   UNL A   1      33.379  26.530  24.234  1.00  0.00    -0.018 A 
ATOM     14  C   UNL A   1      32.281  28.716  24.080  1.00  0.00     0.040 A 
ATOM     15  C   UNL A   1      32.791  28.892  22.793  1.00  0.00     0.014 A 
ATOM     16  C   UNL A   1      32.542  27.526  24.767  1.00  0.00     0.022 A 
ATOM     17  C   UNL A   1      33.608  27.910  22.233  1.00  0.00     0.001 A 
ATOM     18  C   UNL A   1      33.910  26.749  22.953  1.00  0.00     0.009 A 
BRANCH  14  19
ATOM     19  C   UNL A   1      31.390  29.752  24.651  1.00  0.00     0.251 C 
ATOM     20  N   UNL A   1      30.253  30.153  23.994  1.00  0.00    -0.352 N 
ATOM     21  H   UNL A   1      29.809  30.940  24.387  1.00  0.00     0.163 HD
ATOM     22  O   UNL A   1      31.679  30.261  25.731  1.00  0.00    -0.269 OA
BRANCH  20  23
ATOM     23  C   UNL A   1      29.594  29.612  22.816  1.00  0.00     0.112 C 
ATOM     24  C   UNL A   1      28.893  28.305  23.123  1.00  0.00     0.027 C 
ENDBRANCH  20  23
ENDBRANCH  14  19
ENDBRANCH   7  13
ENDBRANCH   3   6
ENDBRANCH   1   2
BRANCH   1  25
ATOM     25  C   UNL A   1      37.977  19.775  25.008  1.00  0.00     0.042 C 
BRANCH  25  26
ATOM     26  C   UNL A   1      39.212  20.249  25.756  1.00  0.00     0.118 C 
BRANCH  26  27
ATOM     27  N   UNL A   1      40.208  19.188  25.911  1.00  0.00    -0.352 N 
ATOM     28  C   UNL A   1      41.572  19.257  26.068  1.00  0.00     0.251 C 
ATOM     29  H   UNL A   1      39.841  18.275  25.899  1.00  0.00     0.163 HD
ATOM     30  O   UNL A   1      42.259  18.251  25.941  1.00  0.00    -0.269 OA
BRANCH  28  31
ATOM     31  C   UNL A   1      42.206  20.550  26.390  1.00  0.00     0.039 A 
ATOM     32  C   UNL A   1      42.755  21.328  25.368  1.00  0.00     0.014 A 
ATOM     33  C   UNL A   1      42.264  20.986  27.714  1.00  0.00     0.014 A 
ATOM     34  C   UNL A   1      43.289  22.584  25.669  1.00  0.00     0.010 A 
ATOM     35  C   UNL A   1      42.691  22.273  27.996  1.00  0.00     0.010 A 
ATOM     36  C   UNL A   1      43.221  23.082  26.979  1.00  0.00    -0.014 A 
BRANCH  36  37
ATOM     37  C   UNL A   1      43.725  24.429  27.350  1.00  0.00     0.031 A 
ATOM     38  C   UNL A   1      42.748  25.468  27.830  1.00  0.00     0.074 A 
ATOM     39  C   UNL A   1      45.017  24.747  27.143  1.00  0.00     0.049 A 
ATOM     40  N   UNL A   1      42.925  26.751  28.014  1.00  0.00    -0.248 NA
ATOM     41  C   UNL A   1      41.373  25.010  28.097  1.00  0.00     0.031 C 
ATOM     42  C   UNL A   1      46.050  23.835  26.647  1.00  0.00     0.029 A 
ATOM     43  N   UNL A   1      45.679  25.940  27.299  1.00  0.00    -0.354 N 
ATOM     44  C   UNL A   1      41.682  27.254  28.375  1.00  0.00     0.074 A 
ATOM     45  C   UNL A   1      40.747  26.152  28.341  1.00  0.00     0.031 C 
ATOM     46  C   UNL A   1      47.214  24.497  26.553  1.00  0.00     0.029 A 
ATOM     47  C   UNL A   1      47.001  25.892  26.928  1.00  0.00     0.049 A 
ATOM     48  H   UNL A   1      45.245  26.754  27.643  1.00  0.00     0.167 HD
ATOM     49  C   UNL A   1      41.355  28.520  28.722  1.00  0.00     0.037 A 
ATOM     50  C   UNL A   1      47.926  26.869  26.878  1.00  0.00     0.037 A 
ATOM     51  C   UNL A   1      42.304  29.597  28.809  1.00  0.00     0.049 A 
ATOM     52  C   UNL A   1      47.532  28.269  27.275  1.00  0.00     0.074 A 
ATOM     53  C   UNL A   1      42.093  30.897  29.233  1.00  0.00     0.029 A 
ATOM     54  N   UNL A   1      43.645  29.494  28.472  1.00  0.00    -0.354 N 
ATOM     55  N   UNL A   1      46.369  28.719  27.679  1.00  0.00    -0.248 NA
ATOM     56  C   UNL A   1      48.580  29.298  27.207  1.00  0.00     0.031 C 
ATOM     57  C   UNL A   1      43.294  31.596  29.100  1.00  0.00     0.029 A 
ATOM     58  C   UNL A   1      44.268  30.716  28.656  1.00  0.00     0.049 A 
ATOM     59  H   UNL A   1      44.087  28.676  28.149  1.00  0.00     0.167 HD
ATOM     60  C   UNL A   1      46.559  30.065  27.964  1.00  0.00     0.074 A 
ATOM     61  C   UNL A   1      47.948  30.360  27.686  1.00  0.00     0.031 C 
ATOM     62  C   UNL A   1      45.664  30.976  28.416  1.00  0.00     0.037 A 
BRANCH  49  63
ATOM     63  C   UNL A   1      39.921  28.818  29.042  1.00  0.00     0.064 A 
ATOM     64  C   UNL A   1      39.012  29.231  28.056  1.00  0.00     0.173 A 
ATOM     65  C   UNL A   1      39.431  28.618  30.342  1.00  0.00     0.173 A 
ATOM     66  F   UNL A   1      39.432  29.448  26.800  1.00  0.00    -0.203 F 
ATOM     67  C   UNL A   1      37.671  29.448  28.363  1.00  0.00     0.198 A 
ATOM     68  C   UNL A   1      38.084  28.805  30.639  1.00  0.00     0.198 A 
ATOM     69  F   UNL A   1      40.256  28.220  31.322  1.00  0.00    -0.203 F 
ATOM     70  F   UNL A   1      36.831  29.878  27.412  1.00  0.00    -0.200 F 
ATOM     71  C   UNL A   1      37.206  29.224  29.649  1.00  0.00     0.200 A 
ATOM     72  F   UNL A   1      37.633  28.573  31.879  1.00  0.00    -0.200 F 
ATOM     73  F   UNL A   1      35.911  29.413  29.937  1.00  0.00    -0.200 F 
ENDBRANCH  49  63
BRANCH  50  74
ATOM     74  C   UNL A   1      49.320  26.572  26.446  1.00  0.00     0.064 A 
ATOM     75  C   UNL A   1      50.282  26.145  27.372  1.00  0.00     0.173 A 
ATOM     76  C   UNL A   1      49.732  26.752  25.118  1.00  0.00     0.173 A 
ATOM     77  F   UNL A   1      49.942  25.976  28.659  1.00  0.00    -0.203 F 
ATOM     78  C   UNL A   1      51.610  25.952  26.998  1.00  0.00     0.198 A 
ATOM     79  C   UNL A   1      51.054  26.525  24.737  1.00  0.00     0.198 A 
ATOM     80  F   UNL A   1      48.853  27.152  24.188  1.00  0.00    -0.203 F 
ATOM     81  F   UNL A   1      52.521  25.614  27.921  1.00  0.00    -0.200 F 
ATOM     82  C   UNL A   1      51.994  26.139  25.680  1.00  0.00     0.200 A 
ATOM     83  F   UNL A   1      51.418  26.693  23.458  1.00  0.00    -0.200 F 
ATOM     84  F   UNL A   1      53.274  25.963  25.322  1.00  0.00    -0.200 F 
ENDBRANCH  50  74
BRANCH  62  85
ATOM     85  C   UNL A   1      46.165  32.357  28.720  1.00  0.00     0.064 A 
ATOM     86  C   UNL A   1      46.703  32.693  29.969  1.00  0.00     0.173 A 
ATOM     87  C   UNL A   1      46.173  33.336  27.713  1.00  0.00     0.173 A 
ATOM     88  F   UNL A   1      46.706  31.797  30.967  1.00  0.00    -0.203 F 
ATOM     89  C   UNL A   1      47.218  33.965  30.205  1.00  0.00     0.198 A 
ATOM     90  C   UNL A   1      46.719  34.594  27.942  1.00  0.00     0.198 A 
ATOM     91  F   UNL A   1      45.677  33.061  26.498  1.00  0.00    -0.203 F 
ATOM     92  F   UNL A   1      47.694  34.278  31.418  1.00  0.00    -0.200 F 
ATOM     93  C   UNL A   1      47.237  34.910  29.189  1.00  0.00     0.200 A 
ATOM     94  F   UNL A   1      46.752  35.499  26.954  1.00  0.00    -0.200 F 
ATOM     95  F   UNL A   1      47.751  36.127  29.413  1.00  0.00    -0.200 F 
ENDBRANCH  62  85
ENDBRANCH  36  37
ENDBRANCH  28  31
ENDBRANCH  26  27
ENDBRANCH  25  26
ENDBRANCH   1  25
TORSDOF 13
ENDMDL
MODEL 2
REMARK VINA RESULT:     -12.9      1.549      2.448
REMARK SMILES CCNC(=O)c1cccc(-c2ccc(Cl)c(C(=O)NCCCNC(=O)c3ccc(-c4c5nc(c(-c6c(F)c(F)c(F)c(F)c6F)c6ccc([nH]6)c(-c6c(F)c(F)c(F)c(F)c6F)c6nc(c(-c7c(F)c(F)c(F)c(F)c7F)c7ccc4[nH]7)C=C6)C=C5)cc3)c2)c1
REMARK SMILES IDX 20 1 19 2 17 3 18 4 16 6 11 7 12 8 89 9 13 10 14 11 15 12
REMARK SMILES IDX 10 13 6 14 7 15 90 16 8 17 9 18 4 19 3 20 5 22 2 23 1 24
REMARK SMILES IDX 21 25 22 26 23 27 24 28 25 30 26 31 27 32 88 33 28 34 87 35
REMARK SMILES IDX 29 36 30 37 31 38 81 39 32 40 86 41 80 42 82 43 33 44 85 45
REMARK SMILES IDX 79 46 78 47 34 49 66 50 46 51 65 52 47 53 50 54 64 55 83 56
REMARK SMILES IDX 48 57 49 58 63 60 84 61 51 62 35 63 36 64 44 65 37 66 38 67
REMARK SMILES IDX 42 68 45 69 39 70 40 71 43 72 41 73 67 74 68 75 76 76 69 77
REMARK SMILES IDX 70 78 74 79 77 80 71 81 72 82 75 83 73 84 52 85 53 86 61 87
REMARK SMILES IDX 54 88 55 89 59 90 62 91 56 92 57 93 60 94 58 95
REMARK H PARENT 19 5 3 21 23 29 82 48 50 59
REMARK Flexibility Score: inf
ROOT
ATOM      1  C   UNL A   1      37.048  20.977  24.730  1.00  0.00     0.118 C 
ENDROOT
BRANCH   1   2
ATOM      2  N   UNL A   1      36.135  21.245  25.841  1.00  0.00    -0.352 N 
ATOM      3  C   UNL A   1      34.813  21.581  26.041  1.00  0.00     0.252 C 
ATOM      4  O   UNL A   1      34.483  21.636  27.226  1.00  0.00    -0.269 OA
ATOM      5  H   UNL A   1      36.604  21.160  26.702  1.00  0.00     0.163 HD
BRANCH   3   6
ATOM      6  C   UNL A   1      33.815  21.891  24.964  1.00  0.00     0.059 A 
ATOM      7  C   UNL A   1      32.424  23.606  23.841  1.00  0.00    -0.017 A 
ATOM      8  C   UNL A   1      31.786  22.608  23.111  1.00  0.00     0.010 A 
ATOM      9  C   UNL A   1      33.485  23.211  24.672  1.00  0.00     0.024 A 
ATOM     10  C   UNL A   1      32.176  21.274  23.267  1.00  0.00     0.022 A 
ATOM     11  C   UNL A   1      33.158  20.907  24.207  1.00  0.00     0.053 A 
ATOM     12  Cl  UNL A   1      33.458  19.208  24.329  1.00  0.00    -0.083 Cl
BRANCH   7  13
ATOM     13  C   UNL A   1      32.007  25.022  23.841  1.00  0.00    -0.018 A 
ATOM     14  C   UNL A   1      32.585  27.402  23.968  1.00  0.00     0.040 A 
ATOM     15  C   UNL A   1      31.235  27.732  24.091  1.00  0.00     0.014 A 
ATOM     16  C   UNL A   1      32.959  26.056  23.888  1.00  0.00     0.022 A 
ATOM     17  C   UNL A   1      30.271  26.725  24.067  1.00  0.00     0.001 A 
ATOM     18  C   UNL A   1      30.653  25.386  23.928  1.00  0.00     0.009 A 
BRANCH  14  19
ATOM     19  C   UNL A   1      33.601  28.477  24.027  1.00  0.00     0.251 C 
ATOM     20  N   UNL A   1      34.056  28.961  25.229  1.00  0.00    -0.352 N 
ATOM     21  H   UNL A   1      34.621  29.765  25.159  1.00  0.00     0.163 HD
ATOM     22  O   UNL A   1      34.038  28.946  22.979  1.00  0.00    -0.269 OA
BRANCH  20  23
ATOM     23  C   UNL A   1      33.845  28.485  26.587  1.00  0.00     0.112 C 
ATOM     24  C   UNL A   1      32.685  29.198  27.251  1.00  0.00     0.027 C 
ENDBRANCH  20  23
ENDBRANCH  14  19
ENDBRANCH   7  13
ENDBRANCH   3   6
ENDBRANCH   1   2
BRANCH   1  25
ATOM     25  C   UNL A   1      38.003  19.827  24.995  1.00  0.00     0.042 C 
BRANCH  25  26
ATOM     26  C   UNL A   1      39.154  20.224  25.904  1.00  0.00     0.118 C 
BRANCH  26  27
ATOM     27  N   UNL A   1      40.212  19.213  25.934  1.00  0.00    -0.352 N 
ATOM     28  C   UNL A   1      41.574  19.347  26.068  1.00  0.00     0.251 C 
ATOM     29  H   UNL A   1      39.896  18.285  25.843  1.00  0.00     0.163 HD
ATOM     30  O   UNL A   1      42.311  18.399  25.830  1.00  0.00    -0.269 OA
BRANCH  28  31
ATOM     31  C   UNL A   1      42.143  20.637  26.498  1.00  0.00     0.039 A 
ATOM     32  C   UNL A   1      42.596  21.550  25.543  1.00  0.00     0.014 A 
ATOM     33  C   UNL A   1      42.236  20.938  27.857  1.00  0.00     0.014 A 
ATOM     34  C   UNL A   1      43.067  22.800  25.952  1.00  0.00     0.010 A 
ATOM     35  C   UNL A   1      42.598  22.215  28.255  1.00  0.00     0.010 A 
ATOM     36  C   UNL A   1      43.030  23.157  27.309  1.00  0.00    -0.014 A 
BRANCH  36  37
ATOM     37  C   UNL A   1      43.468  24.488  27.799  1.00  0.00     0.031 A 
ATOM     38  C   UNL A   1      42.428  25.518  28.148  1.00  0.00     0.074 A 
ATOM     39  C   UNL A   1      44.777  24.805  27.812  1.00  0.00     0.049 A 
ATOM     40  N   UNL A   1      42.574  26.793  28.400  1.00  0.00    -0.248 NA
ATOM     41  C   UNL A   1      41.028  25.059  28.177  1.00  0.00     0.031 C 
ATOM     42  C   UNL A   1      45.876  23.903  27.461  1.00  0.00     0.029 A 
ATOM     43  N   UNL A   1      45.406  25.988  28.111  1.00  0.00    -0.354 N 
ATOM     44  C   UNL A   1      41.290  27.291  28.571  1.00  0.00     0.074 A 
ATOM     45  C   UNL A   1      40.372  26.196  28.352  1.00  0.00     0.031 C 
ATOM     46  C   UNL A   1      47.041  24.561  27.576  1.00  0.00     0.029 A 
ATOM     47  C   UNL A   1      46.771  25.944  27.957  1.00  0.00     0.049 A 
ATOM     48  H   UNL A   1      44.923  26.794  28.406  1.00  0.00     0.167 HD
ATOM     49  C   UNL A   1      40.913  28.548  28.901  1.00  0.00     0.037 A 
ATOM     50  C   UNL A   1      47.693  26.917  28.086  1.00  0.00     0.037 A 
ATOM     51  C   UNL A   1      41.835  29.616  29.175  1.00  0.00     0.049 A 
ATOM     52  C   UNL A   1      47.241  28.305  28.459  1.00  0.00     0.074 A 
ATOM     53  C   UNL A   1      41.561  30.903  29.600  1.00  0.00     0.029 A 
ATOM     54  N   UNL A   1      43.214  29.516  29.054  1.00  0.00    -0.354 N 
ATOM     55  N   UNL A   1      46.029  28.750  28.685  1.00  0.00    -0.248 NA
ATOM     56  C   UNL A   1      48.287  29.330  28.594  1.00  0.00     0.031 C 
ATOM     57  C   UNL A   1      42.768  31.599  29.685  1.00  0.00     0.029 A 
ATOM     58  C   UNL A   1      43.800  30.728  29.375  1.00  0.00     0.049 A 
ATOM     59  H   UNL A   1      43.701  28.706  28.781  1.00  0.00     0.167 HD
ATOM     60  C   UNL A   1      46.171  30.085  29.040  1.00  0.00     0.074 A 
ATOM     61  C   UNL A   1      47.587  30.381  28.998  1.00  0.00     0.031 C 
ATOM     62  C   UNL A   1      45.216  30.987  29.371  1.00  0.00     0.037 A 
BRANCH  49  63
ATOM     63  C   UNL A   1      39.446  28.845  28.997  1.00  0.00     0.064 A 
ATOM     64  C   UNL A   1      38.747  28.746  30.210  1.00  0.00     0.173 A 
ATOM     65  C   UNL A   1      38.743  29.306  27.872  1.00  0.00     0.173 A 
ATOM     66  F   UNL A   1      39.369  28.299  31.312  1.00  0.00    -0.203 F 
ATOM     67  C   UNL A   1      37.398  29.080  30.289  1.00  0.00     0.198 A 
ATOM     68  C   UNL A   1      37.403  29.670  27.962  1.00  0.00     0.198 A 
ATOM     69  F   UNL A   1      39.364  29.423  26.689  1.00  0.00    -0.203 F 
ATOM     70  F   UNL A   1      36.744  28.941  31.450  1.00  0.00    -0.200 F 
ATOM     71  C   UNL A   1      36.731  29.553  29.170  1.00  0.00     0.200 A 
ATOM     72  F   UNL A   1      36.763  30.142  26.883  1.00  0.00    -0.200 F 
ATOM     73  F   UNL A   1      35.438  29.895  29.254  1.00  0.00    -0.200 F 
ENDBRANCH  49  63
BRANCH  50  74
ATOM     74  C   UNL A   1      49.138  26.625  27.875  1.00  0.00     0.064 A 
ATOM     75  C   UNL A   1      49.675  26.566  26.581  1.00  0.00     0.173 A 
ATOM     76  C   UNL A   1      49.998  26.352  28.948  1.00  0.00     0.173 A 
ATOM     77  F   UNL A   1      48.889  26.801  25.519  1.00  0.00    -0.203 F 
ATOM     78  C   UNL A   1      51.003  26.204  26.365  1.00  0.00     0.198 A 
ATOM     79  C   UNL A   1      51.336  26.024  28.733  1.00  0.00     0.198 A 
ATOM     80  F   UNL A   1      49.539  26.400  30.207  1.00  0.00    -0.203 F 
ATOM     81  F   UNL A   1      51.469  26.087  25.115  1.00  0.00    -0.200 F 
ATOM     82  C   UNL A   1      51.833  25.936  27.442  1.00  0.00     0.200 A 
ATOM     83  F   UNL A   1      52.139  25.779  29.778  1.00  0.00    -0.200 F 
ATOM     84  F   UNL A   1      53.108  25.578  27.235  1.00  0.00    -0.200 F 
ENDBRANCH  50  74
BRANCH  62  85
ATOM     85  C   UNL A   1      45.663  32.355  29.796  1.00  0.00     0.064 A 
ATOM     86  C   UNL A   1      45.993  32.648  31.125  1.00  0.00     0.173 A 
ATOM     87  C   UNL A   1      45.834  33.364  28.835  1.00  0.00     0.173 A 
ATOM     88  F   UNL A   1      45.835  31.721  32.081  1.00  0.00    -0.203 F 
ATOM     89  C   UNL A   1      46.465  33.909  31.481  1.00  0.00     0.198 A 
ATOM     90  C   UNL A   1      46.337  34.612  29.189  1.00  0.00     0.198 A 
ATOM     91  F   UNL A   1      45.540  33.131  27.547  1.00  0.00    -0.203 F 
ATOM     92  F   UNL A   1      46.739  34.181  32.764  1.00  0.00    -0.200 F 
ATOM     93  C   UNL A   1      46.647  34.885  30.512  1.00  0.00     0.200 A 
ATOM     94  F   UNL A   1      46.529  35.547  28.248  1.00  0.00    -0.200 F 
ATOM     95  F   UNL A   1      47.120  36.091  30.855  1.00  0.00    -0.200 F 
ENDBRANCH  62  85
ENDBRANCH  36  37
ENDBRANCH  28  31
ENDBRANCH  26  27
ENDBRANCH  25  26
ENDBRANCH   1  25
TORSDOF 13
ENDMDL
MODEL 3
REMARK VINA RESULT:     -12.7      4.577     10.302
REMARK SMILES CCNC(=O)c1cccc(-c2ccc(Cl)c(C(=O)NCCCNC(=O)c3ccc(-c4c5nc(c(-c6c(F)c(F)c(F)c(F)c6F)c6ccc([nH]6)c(-c6c(F)c(F)c(F)c(F)c6F)c6nc(c(-c7c(F)c(F)c(F)c(F)c7F)c7ccc4[nH]7)C=C6)C=C5)cc3)c2)c1
REMARK SMILES IDX 20 1 19 2 17 3 18 4 16 6 11 7 12 8 89 9 13 10 14 11 15 12
REMARK SMILES IDX 10 13 6 14 7 15 90 16 8 17 9 18 4 19 3 20 5 22 2 23 1 24
REMARK SMILES IDX 21 25 22 26 23 27 24 28 25 30 26 31 27 32 88 33 28 34 87 35
REMARK SMILES IDX 29 36 30 37 31 38 81 39 32 40 86 41 80 42 82 43 33 44 85 45
REMARK SMILES IDX 79 46 78 47 34 49 66 50 46 51 65 52 47 53 50 54 64 55 83 56
REMARK SMILES IDX 48 57 49 58 63 60 84 61 51 62 35 63 36 64 44 65 37 66 38 67
REMARK SMILES IDX 42 68 45 69 39 70 40 71 43 72 41 73 67 74 68 75 76 76 69 77
REMARK SMILES IDX 70 78 74 79 77 80 71 81 72 82 75 83 73 84 52 85 53 86 61 87
REMARK SMILES IDX 54 88 55 89 59 90 62 91 56 92 57 93 60 94 58 95
REMARK H PARENT 19 5 3 21 23 29 82 48 50 59
REMARK Flexibility Score: inf
ROOT
ATOM      1  C   UNL A   1      33.248  28.562  22.649  1.00  0.00     0.118 C 
ENDROOT
BRANCH   1   2
ATOM      2  N   UNL A   1      33.183  27.388  21.778  1.00  0.00    -0.352 N 
ATOM      3  C   UNL A   1      33.091  26.018  21.889  1.00  0.00     0.252 C 
ATOM      4  O   UNL A   1      32.999  25.432  20.810  1.00  0.00    -0.269 OA
ATOM      5  H   UNL A   1      33.214  27.657  20.832  1.00  0.00     0.163 HD
BRANCH   3   6
ATOM      6  C   UNL A   1      33.120  25.238  23.170  1.00  0.00     0.059 A 
ATOM      7  C   UNL A   1      34.455  23.881  24.756  1.00  0.00    -0.017 A 
ATOM      8  C   UNL A   1      33.297  23.568  25.461  1.00  0.00     0.010 A 
ATOM      9  C   UNL A   1      34.330  24.787  23.690  1.00  0.00     0.024 A 
ATOM     10  C   UNL A   1      32.072  24.109  25.060  1.00  0.00     0.022 A 
ATOM     11  C   UNL A   1      31.970  24.911  23.907  1.00  0.00     0.053 A 
ATOM     12  Cl  UNL A   1      30.367  25.425  23.510  1.00  0.00    -0.083 Cl
BRANCH   7  13
ATOM     13  C   UNL A   1      35.773  23.269  25.021  1.00  0.00    -0.018 A 
ATOM     14  C   UNL A   1      37.194  21.275  25.155  1.00  0.00     0.040 A 
ATOM     15  C   UNL A   1      38.204  22.025  25.757  1.00  0.00     0.014 A 
ATOM     16  C   UNL A   1      35.979  21.890  24.835  1.00  0.00     0.022 A 
ATOM     17  C   UNL A   1      38.019  23.390  25.972  1.00  0.00     0.001 A 
ATOM     18  C   UNL A   1      36.821  24.007  25.594  1.00  0.00     0.009 A 
BRANCH  14  19
ATOM     19  C   UNL A   1      37.391  19.820  24.961  1.00  0.00     0.251 C 
ATOM     20  N   UNL A   1      36.323  18.958  24.911  1.00  0.00    -0.352 N 
ATOM     21  H   UNL A   1      36.567  18.004  24.920  1.00  0.00     0.163 HD
ATOM     22  O   UNL A   1      38.532  19.381  24.846  1.00  0.00    -0.269 OA
BRANCH  20  23
ATOM     23  C   UNL A   1      34.893  19.218  24.847  1.00  0.00     0.112 C 
ATOM     24  C   UNL A   1      34.152  18.079  24.178  1.00  0.00     0.027 C 
ENDBRANCH  20  23
ENDBRANCH  14  19
ENDBRANCH   7  13
ENDBRANCH   3   6
ENDBRANCH   1   2
BRANCH   1  25
ATOM     25  C   UNL A   1      32.574  28.356  23.994  1.00  0.00     0.042 C 
BRANCH  25  26
ATOM     26  C   UNL A   1      33.371  28.955  25.141  1.00  0.00     0.118 C 
BRANCH  26  27
ATOM     27  N   UNL A   1      32.730  30.147  25.700  1.00  0.00    -0.352 N 
ATOM     28  C   UNL A   1      33.048  30.899  26.805  1.00  0.00     0.251 C 
ATOM     29  H   UNL A   1      31.940  30.460  25.202  1.00  0.00     0.163 HD
ATOM     30  O   UNL A   1      32.249  31.717  27.244  1.00  0.00    -0.269 OA
BRANCH  28  31
ATOM     31  C   UNL A   1      34.356  30.716  27.462  1.00  0.00     0.039 A 
ATOM     32  C   UNL A   1      35.223  31.803  27.598  1.00  0.00     0.014 A 
ATOM     33  C   UNL A   1      34.726  29.458  27.938  1.00  0.00     0.014 A 
ATOM     34  C   UNL A   1      36.429  31.641  28.285  1.00  0.00     0.010 A 
ATOM     35  C   UNL A   1      35.866  29.324  28.713  1.00  0.00     0.010 A 
ATOM     36  C   UNL A   1      36.738  30.410  28.885  1.00  0.00    -0.014 A 
BRANCH  36  37
ATOM     37  C   UNL A   1      37.978  30.192  29.670  1.00  0.00     0.031 A 
ATOM     38  C   UNL A   1      39.025  29.251  29.137  1.00  0.00     0.074 A 
ATOM     39  C   UNL A   1      38.106  30.734  30.897  1.00  0.00     0.049 A 
ATOM     40  N   UNL A   1      40.079  28.758  29.734  1.00  0.00    -0.248 NA
ATOM     41  C   UNL A   1      38.837  28.765  27.759  1.00  0.00     0.031 C 
ATOM     42  C   UNL A   1      37.142  31.632  31.535  1.00  0.00     0.029 A 
ATOM     43  N   UNL A   1      39.092  30.585  31.840  1.00  0.00    -0.354 N 
ATOM     44  C   UNL A   1      40.649  27.878  28.824  1.00  0.00     0.074 A 
ATOM     45  C   UNL A   1      39.803  27.867  27.651  1.00  0.00     0.031 C 
ATOM     46  C   UNL A   1      37.590  31.964  32.757  1.00  0.00     0.029 A 
ATOM     47  C   UNL A   1      38.844  31.262  33.011  1.00  0.00     0.049 A 
ATOM     48  H   UNL A   1      39.901  30.044  31.692  1.00  0.00     0.167 HD
ATOM     49  C   UNL A   1      41.788  27.158  28.949  1.00  0.00     0.037 A 
ATOM     50  C   UNL A   1      39.541  31.290  34.163  1.00  0.00     0.037 A 
ATOM     51  C   UNL A   1      42.653  27.221  30.096  1.00  0.00     0.049 A 
ATOM     52  C   UNL A   1      40.807  30.480  34.270  1.00  0.00     0.074 A 
ATOM     53  C   UNL A   1      43.873  26.598  30.289  1.00  0.00     0.029 A 
ATOM     54  N   UNL A   1      42.389  27.956  31.242  1.00  0.00    -0.354 N 
ATOM     55  N   UNL A   1      41.373  29.704  33.378  1.00  0.00    -0.248 NA
ATOM     56  C   UNL A   1      41.534  30.549  35.547  1.00  0.00     0.031 C 
ATOM     57  C   UNL A   1      44.323  26.912  31.573  1.00  0.00     0.029 A 
ATOM     58  C   UNL A   1      43.415  27.783  32.155  1.00  0.00     0.049 A 
ATOM     59  H   UNL A   1      41.592  28.516  31.385  1.00  0.00     0.167 HD
ATOM     60  C   UNL A   1      42.543  29.238  33.964  1.00  0.00     0.074 A 
ATOM     61  C   UNL A   1      42.608  29.817  35.288  1.00  0.00     0.031 C 
ATOM     62  C   UNL A   1      43.481  28.406  33.451  1.00  0.00     0.037 A 
BRANCH  49  63
ATOM     63  C   UNL A   1      42.177  26.246  27.824  1.00  0.00     0.064 A 
ATOM     64  C   UNL A   1      41.594  24.981  27.661  1.00  0.00     0.173 A 
ATOM     65  C   UNL A   1      43.094  26.676  26.852  1.00  0.00     0.173 A 
ATOM     66  F   UNL A   1      40.720  24.518  28.569  1.00  0.00    -0.203 F 
ATOM     67  C   UNL A   1      41.927  24.172  26.578  1.00  0.00     0.198 A 
ATOM     68  C   UNL A   1      43.401  25.878  25.753  1.00  0.00     0.198 A 
ATOM     69  F   UNL A   1      43.678  27.879  26.957  1.00  0.00    -0.203 F 
ATOM     70  F   UNL A   1      41.385  22.952  26.465  1.00  0.00    -0.200 F 
ATOM     71  C   UNL A   1      42.820  24.626  25.619  1.00  0.00     0.200 A 
ATOM     72  F   UNL A   1      44.252  26.324  24.818  1.00  0.00    -0.200 F 
ATOM     73  F   UNL A   1      43.122  23.855  24.565  1.00  0.00    -0.200 F 
ENDBRANCH  49  63
BRANCH  50  74
ATOM     74  C   UNL A   1      39.074  32.115  35.311  1.00  0.00     0.064 A 
ATOM     75  C   UNL A   1      39.417  33.471  35.405  1.00  0.00     0.173 A 
ATOM     76  C   UNL A   1      38.320  31.562  36.356  1.00  0.00     0.173 A 
ATOM     77  F   UNL A   1      40.153  34.043  34.440  1.00  0.00    -0.203 F 
ATOM     78  C   UNL A   1      39.064  34.230  36.519  1.00  0.00     0.198 A 
ATOM     79  C   UNL A   1      37.937  32.331  37.454  1.00  0.00     0.198 A 
ATOM     80  F   UNL A   1      37.958  30.271  36.315  1.00  0.00    -0.203 F 
ATOM     81  F   UNL A   1      39.468  35.504  36.614  1.00  0.00    -0.200 F 
ATOM     82  C   UNL A   1      38.322  33.661  37.541  1.00  0.00     0.200 A 
ATOM     83  F   UNL A   1      37.207  31.780  38.433  1.00  0.00    -0.200 F 
ATOM     84  F   UNL A   1      37.989  34.388  38.617  1.00  0.00    -0.200 F 
ENDBRANCH  50  74
BRANCH  62  85
ATOM     85  C   UNL A   1      44.700  28.130  34.281  1.00  0.00     0.064 A 
ATOM     86  C   UNL A   1      44.776  27.032  35.147  1.00  0.00     0.173 A 
ATOM     87  C   UNL A   1      45.838  28.943  34.145  1.00  0.00     0.173 A 
ATOM     88  F   UNL A   1      43.711  26.234  35.321  1.00  0.00    -0.203 F 
ATOM     89  C   UNL A   1      45.942  26.764  35.859  1.00  0.00     0.198 A 
ATOM     90  C   UNL A   1      47.011  28.653  34.832  1.00  0.00     0.198 A 
ATOM     91  F   UNL A   1      45.818  30.002  33.322  1.00  0.00    -0.203 F 
ATOM     92  F   UNL A   1      45.981  25.730  36.711  1.00  0.00    -0.200 F 
ATOM     93  C   UNL A   1      47.061  27.567  35.693  1.00  0.00     0.200 A 
ATOM     94  F   UNL A   1      48.096  29.419  34.656  1.00  0.00    -0.200 F 
ATOM     95  F   UNL A   1      48.188  27.295  36.365  1.00  0.00    -0.200 F 
ENDBRANCH  62  85
ENDBRANCH  36  37
ENDBRANCH  28  31
ENDBRANCH  26  27
ENDBRANCH  25  26
ENDBRANCH   1  25
TORSDOF 13
ENDMDL
