MODEL 1
REMARK VINA RESULT:     -10.5      0.000      0.000
REMARK SMILES CCCCCCNC(=O)Oc1cccc(-c2ccc([C@@H](C)C(=O)NCCCNC(=O)c3ccc(-c4c5nc(c(-c6c(F)c(F)c(F)c(F)c6F)c6ccc([nH]6)c(-c6c(F)c(F)c(F)c(F)c6F)c6nc(c(-c7c(F)c(F)c(F)c(F)c7F)c7ccc4[nH]7)C=C6)C=C5)cc3)cc2O)c1
REMARK SMILES IDX 16 1 17 2 18 3 19 4 94 5 95 6 15 7 11 8 12 9 97 10 13 11
REMARK SMILES IDX 14 12 10 13 8 14 7 15 9 17 6 18 5 19 4 20 3 21 2 22 1 23
REMARK SMILES IDX 96 24 20 26 21 27 22 28 23 29 24 30 25 32 26 33 27 34 28 35
REMARK SMILES IDX 29 36 30 38 31 39 32 40 93 41 33 42 92 43 34 44 35 45 36 46
REMARK SMILES IDX 86 47 37 48 91 49 85 50 87 51 38 52 90 53 84 54 83 55 39 57
REMARK SMILES IDX 71 58 51 59 70 60 52 61 55 62 69 63 88 64 53 65 54 66 68 68
REMARK SMILES IDX 89 69 56 70 40 71 41 72 49 73 42 74 43 75 47 76 50 77 44 78
REMARK SMILES IDX 45 79 48 80 46 81 72 82 73 83 81 84 74 85 75 86 79 87 82 88
REMARK SMILES IDX 76 89 77 90 80 91 78 92 57 93 58 94 66 95 59 96 60 97 64 98
REMARK SMILES IDX 67 99 61 100 62 101 65 102 63 103
REMARK H PARENT 7 16 96 25 24 31 28 37 87 56 55 67
REMARK Flexibility Score: inf
ROOT
ATOM      1  C   UNL A   1      39.450  34.086  30.302  1.00  0.00     0.024 A 
ATOM      2  C   UNL A   1      38.555  33.682  29.296  1.00  0.00     0.013 A 
ATOM      3  C   UNL A   1      37.180  33.553  29.533  1.00  0.00     0.005 A 
ATOM      4  C   UNL A   1      36.649  33.730  30.810  1.00  0.00    -0.032 A 
ATOM      5  C   UNL A   1      37.524  34.152  31.820  1.00  0.00     0.051 A 
ATOM      6  C   UNL A   1      38.883  34.367  31.557  1.00  0.00     0.123 A 
ENDROOT
BRANCH   1   7
ATOM      7  C   UNL A   1      40.900  34.181  30.002  1.00  0.00    -0.011 A 
ATOM      8  C   UNL A   1      42.793  35.257  28.914  1.00  0.00     0.133 A 
ATOM      9  C   UNL A   1      43.674  34.318  29.440  1.00  0.00     0.047 A 
ATOM     10  C   UNL A   1      41.426  35.209  29.199  1.00  0.00     0.056 A 
ATOM     11  C   UNL A   1      43.181  33.315  30.264  1.00  0.00     0.004 A 
ATOM     12  C   UNL A   1      41.810  33.239  30.526  1.00  0.00     0.009 A 
BRANCH   8  13
ATOM     13  O   UNL A   1      43.326  36.136  27.954  1.00  0.00    -0.410 OA
BRANCH  13  14
ATOM     14  C   UNL A   1      42.835  36.152  26.657  1.00  0.00     0.412 C 
ATOM     15  N   UNL A   1      42.315  37.368  26.306  1.00  0.00    -0.321 N 
ATOM     16  H   UNL A   1      41.920  37.436  25.406  1.00  0.00     0.167 HD
ATOM     17  O   UNL A   1      42.837  35.208  25.878  1.00  0.00    -0.224 OA
BRANCH  15  18
ATOM     18  C   UNL A   1      42.284  38.565  27.124  1.00  0.00     0.119 C 
BRANCH  18  19
ATOM     19  C   UNL A   1      41.454  39.676  26.482  1.00  0.00     0.021 C 
BRANCH  19  20
ATOM     20  C   UNL A   1      42.274  40.803  25.840  1.00  0.00     0.002 C 
BRANCH  20  21
ATOM     21  C   UNL A   1      41.521  41.672  24.827  1.00  0.00    -0.000 C 
BRANCH  21  22
ATOM     22  C   UNL A   1      42.326  42.097  23.597  1.00  0.00    -0.003 C 
ATOM     23  C   UNL A   1      41.468  42.697  22.494  1.00  0.00     0.004 C 
ENDBRANCH  21  22
ENDBRANCH  20  21
ENDBRANCH  19  20
ENDBRANCH  18  19
ENDBRANCH  15  18
ENDBRANCH  13  14
ENDBRANCH   8  13
ENDBRANCH   1   7
BRANCH   6  24
ATOM     24  O   UNL A   1      39.598  34.902  32.597  1.00  0.00    -0.507 OA
ATOM     25  H   UNL A   1      40.116  34.345  33.145  1.00  0.00     0.293 HD
ENDBRANCH   6  24
BRANCH   4  26
ATOM     26  C   UNL A   1      35.188  33.474  31.140  1.00  0.00     0.105 C 
ATOM     27  C   UNL A   1      34.931  32.393  32.190  1.00  0.00     0.023 C 
BRANCH  26  28
ATOM     28  C   UNL A   1      34.360  34.755  31.328  1.00  0.00     0.227 C 
ATOM     29  O   UNL A   1      34.090  35.153  32.469  1.00  0.00    -0.274 OA
ATOM     30  N   UNL A   1      33.892  35.522  30.307  1.00  0.00    -0.356 N 
ATOM     31  H   UNL A   1      33.431  36.341  30.601  1.00  0.00     0.163 HD
BRANCH  30  32
ATOM     32  C   UNL A   1      33.942  35.362  28.867  1.00  0.00     0.117 C 
BRANCH  32  33
ATOM     33  C   UNL A   1      33.334  34.038  28.410  1.00  0.00     0.042 C 
BRANCH  33  34
ATOM     34  C   UNL A   1      34.362  33.006  27.968  1.00  0.00     0.118 C 
BRANCH  34  35
ATOM     35  N   UNL A   1      33.739  31.778  27.490  1.00  0.00    -0.352 N 
ATOM     36  C   UNL A   1      34.231  30.500  27.394  1.00  0.00     0.251 C 
ATOM     37  H   UNL A   1      32.808  31.883  27.186  1.00  0.00     0.163 HD
ATOM     38  O   UNL A   1      33.594  29.662  26.760  1.00  0.00    -0.269 OA
BRANCH  36  39
ATOM     39  C   UNL A   1      35.515  30.114  28.025  1.00  0.00     0.039 A 
ATOM     40  C   UNL A   1      35.509  29.705  29.363  1.00  0.00     0.014 A 
ATOM     41  C   UNL A   1      36.730  30.210  27.340  1.00  0.00     0.014 A 
ATOM     42  C   UNL A   1      36.703  29.346  29.994  1.00  0.00     0.010 A 
ATOM     43  C   UNL A   1      37.908  29.773  27.942  1.00  0.00     0.010 A 
ATOM     44  C   UNL A   1      37.911  29.350  29.278  1.00  0.00    -0.014 A 
BRANCH  44  45
ATOM     45  C   UNL A   1      39.186  28.932  29.915  1.00  0.00     0.031 A 
ATOM     46  C   UNL A   1      39.691  29.647  31.138  1.00  0.00     0.074 A 
ATOM     47  C   UNL A   1      39.925  27.956  29.353  1.00  0.00     0.049 A 
ATOM     48  N   UNL A   1      40.817  29.486  31.789  1.00  0.00    -0.248 NA
ATOM     49  C   UNL A   1      38.828  30.704  31.688  1.00  0.00     0.031 C 
ATOM     50  C   UNL A   1      39.570  27.222  28.138  1.00  0.00     0.029 A 
ATOM     51  N   UNL A   1      41.136  27.425  29.720  1.00  0.00    -0.354 N 
ATOM     52  C   UNL A   1      40.807  30.435  32.803  1.00  0.00     0.074 A 
ATOM     53  C   UNL A   1      39.587  31.198  32.655  1.00  0.00     0.031 C 
ATOM     54  C   UNL A   1      40.531  26.324  27.869  1.00  0.00     0.029 A 
ATOM     55  C   UNL A   1      41.587  26.445  28.869  1.00  0.00     0.049 A 
ATOM     56  H   UNL A   1      41.634  27.718  30.517  1.00  0.00     0.167 HD
ATOM     57  C   UNL A   1      41.722  30.638  33.780  1.00  0.00     0.037 A 
ATOM     58  C   UNL A   1      42.729  25.732  28.889  1.00  0.00     0.037 A 
ATOM     59  C   UNL A   1      42.918  29.855  33.944  1.00  0.00     0.049 A 
ATOM     60  C   UNL A   1      43.723  25.964  29.994  1.00  0.00     0.074 A 
ATOM     61  C   UNL A   1      43.872  29.932  34.944  1.00  0.00     0.029 A 
ATOM     62  N   UNL A   1      43.326  28.848  33.080  1.00  0.00    -0.354 N 
ATOM     63  N   UNL A   1      43.669  26.815  30.989  1.00  0.00    -0.248 NA
ATOM     64  C   UNL A   1      44.934  25.132  29.982  1.00  0.00     0.031 C 
ATOM     65  C   UNL A   1      44.878  29.002  34.661  1.00  0.00     0.029 A 
ATOM     66  C   UNL A   1      44.528  28.311  33.513  1.00  0.00     0.049 A 
ATOM     67  H   UNL A   1      42.834  28.559  32.277  1.00  0.00     0.167 HD
ATOM     68  C   UNL A   1      44.820  26.605  31.736  1.00  0.00     0.074 A 
ATOM     69  C   UNL A   1      45.549  25.536  31.084  1.00  0.00     0.031 C 
ATOM     70  C   UNL A   1      45.236  27.241  32.858  1.00  0.00     0.037 A 
BRANCH  57  71
ATOM     71  C   UNL A   1      41.463  31.751  34.754  1.00  0.00     0.064 A 
ATOM     72  C   UNL A   1      40.581  31.596  35.834  1.00  0.00     0.173 A 
ATOM     73  C   UNL A   1      42.129  32.980  34.625  1.00  0.00     0.173 A 
ATOM     74  F   UNL A   1      39.912  30.445  36.000  1.00  0.00    -0.203 F 
ATOM     75  C   UNL A   1      40.351  32.639  36.728  1.00  0.00     0.198 A 
ATOM     76  C   UNL A   1      41.919  34.010  35.538  1.00  0.00     0.198 A 
ATOM     77  F   UNL A   1      42.989  33.181  33.615  1.00  0.00    -0.203 F 
ATOM     78  F   UNL A   1      39.464  32.484  37.721  1.00  0.00    -0.200 F 
ATOM     79  C   UNL A   1      41.024  33.842  36.583  1.00  0.00     0.200 A 
ATOM     80  F   UNL A   1      42.582  35.168  35.404  1.00  0.00    -0.200 F 
ATOM     81  F   UNL A   1      40.805  34.843  37.447  1.00  0.00    -0.200 F 
ENDBRANCH  57  71
BRANCH  58  82
ATOM     82  C   UNL A   1      42.977  24.708  27.841  1.00  0.00     0.064 A 
ATOM     83  C   UNL A   1      43.577  25.058  26.623  1.00  0.00     0.173 A 
ATOM     84  C   UNL A   1      42.634  23.362  28.037  1.00  0.00     0.173 A 
ATOM     85  F   UNL A   1      43.904  26.336  26.382  1.00  0.00    -0.203 F 
ATOM     86  C   UNL A   1      43.809  24.104  25.635  1.00  0.00     0.198 A 
ATOM     87  C   UNL A   1      42.893  22.405  27.059  1.00  0.00     0.198 A 
ATOM     88  F   UNL A   1      42.062  22.976  29.186  1.00  0.00    -0.203 F 
ATOM     89  F   UNL A   1      44.349  24.473  24.465  1.00  0.00    -0.200 F 
ATOM     90  C   UNL A   1      43.474  22.777  25.857  1.00  0.00     0.200 A 
ATOM     91  F   UNL A   1      42.581  21.120  27.282  1.00  0.00    -0.200 F 
ATOM     92  F   UNL A   1      43.705  21.859  24.909  1.00  0.00    -0.200 F 
ENDBRANCH  58  82
BRANCH  70  93
ATOM     93  C   UNL A   1      46.522  26.776  33.475  1.00  0.00     0.064 A 
ATOM     94  C   UNL A   1      46.552  25.741  34.421  1.00  0.00     0.173 A 
ATOM     95  C   UNL A   1      47.744  27.343  33.081  1.00  0.00     0.173 A 
ATOM     96  F   UNL A   1      45.410  25.178  34.842  1.00  0.00    -0.203 F 
ATOM     97  C   UNL A   1      47.758  25.308  34.968  1.00  0.00     0.198 A 
ATOM     98  C   UNL A   1      48.948  26.887  33.608  1.00  0.00     0.198 A 
ATOM     99  F   UNL A   1      47.769  28.332  32.174  1.00  0.00    -0.203 F 
ATOM    100  F   UNL A   1      47.759  24.349  35.904  1.00  0.00    -0.200 F 
ATOM    101  C   UNL A   1      48.954  25.875  34.556  1.00  0.00     0.200 A 
ATOM    102  F   UNL A   1      50.104  27.428  33.200  1.00  0.00    -0.200 F 
ATOM    103  F   UNL A   1      50.113  25.450  35.076  1.00  0.00    -0.200 F 
ENDBRANCH  70  93
ENDBRANCH  44  45
ENDBRANCH  36  39
ENDBRANCH  34  35
ENDBRANCH  33  34
ENDBRANCH  32  33
ENDBRANCH  30  32
ENDBRANCH  26  28
ENDBRANCH   4  26
TORSDOF 20
ENDMDL
MODEL 2
REMARK VINA RESULT:     -10.3      3.329      5.890
REMARK SMILES CCCCCCNC(=O)Oc1cccc(-c2ccc([C@@H](C)C(=O)NCCCNC(=O)c3ccc(-c4c5nc(c(-c6c(F)c(F)c(F)c(F)c6F)c6ccc([nH]6)c(-c6c(F)c(F)c(F)c(F)c6F)c6nc(c(-c7c(F)c(F)c(F)c(F)c7F)c7ccc4[nH]7)C=C6)C=C5)cc3)cc2O)c1
REMARK SMILES IDX 16 1 17 2 18 3 19 4 94 5 95 6 15 7 11 8 12 9 97 10 13 11
REMARK SMILES IDX 14 12 10 13 8 14 7 15 9 17 6 18 5 19 4 20 3 21 2 22 1 23
REMARK SMILES IDX 96 24 20 26 21 27 22 28 23 29 24 30 25 32 26 33 27 34 28 35
REMARK SMILES IDX 29 36 30 38 31 39 32 40 93 41 33 42 92 43 34 44 35 45 36 46
REMARK SMILES IDX 86 47 37 48 91 49 85 50 87 51 38 52 90 53 84 54 83 55 39 57
REMARK SMILES IDX 71 58 51 59 70 60 52 61 55 62 69 63 88 64 53 65 54 66 68 68
REMARK SMILES IDX 89 69 56 70 40 71 41 72 49 73 42 74 43 75 47 76 50 77 44 78
REMARK SMILES IDX 45 79 48 80 46 81 72 82 73 83 81 84 74 85 75 86 79 87 82 88
REMARK SMILES IDX 76 89 77 90 80 91 78 92 57 93 58 94 66 95 59 96 60 97 64 98
REMARK SMILES IDX 67 99 61 100 62 101 65 102 63 103
REMARK H PARENT 7 16 96 25 24 31 28 37 87 56 55 67
REMARK Flexibility Score: inf
ROOT
ATOM      1  C   UNL A   1      36.274  33.630  33.484  1.00  0.00     0.024 A 
ATOM      2  C   UNL A   1      34.988  33.213  33.870  1.00  0.00     0.013 A 
ATOM      3  C   UNL A   1      33.829  33.751  33.295  1.00  0.00     0.005 A 
ATOM      4  C   UNL A   1      33.900  34.798  32.377  1.00  0.00    -0.032 A 
ATOM      5  C   UNL A   1      35.174  35.213  31.967  1.00  0.00     0.051 A 
ATOM      6  C   UNL A   1      36.330  34.610  32.477  1.00  0.00     0.123 A 
ENDROOT
BRANCH   1   7
ATOM      7  C   UNL A   1      37.466  33.045  34.145  1.00  0.00    -0.011 A 
ATOM      8  C   UNL A   1      38.904  31.154  34.677  1.00  0.00     0.133 A 
ATOM      9  C   UNL A   1      39.745  31.962  35.436  1.00  0.00     0.047 A 
ATOM     10  C   UNL A   1      37.789  31.680  34.021  1.00  0.00     0.056 A 
ATOM     11  C   UNL A   1      39.466  33.317  35.543  1.00  0.00     0.004 A 
ATOM     12  C   UNL A   1      38.331  33.847  34.919  1.00  0.00     0.009 A 
BRANCH   8  13
ATOM     13  O   UNL A   1      39.143  29.769  34.751  1.00  0.00    -0.410 OA
BRANCH  13  14
ATOM     14  C   UNL A   1      39.295  29.014  33.597  1.00  0.00     0.412 C 
ATOM     15  N   UNL A   1      40.604  28.708  33.338  1.00  0.00    -0.321 N 
ATOM     16  H   UNL A   1      40.784  28.200  32.514  1.00  0.00     0.167 HD
ATOM     17  O   UNL A   1      38.394  28.646  32.857  1.00  0.00    -0.224 OA
BRANCH  15  18
ATOM     18  C   UNL A   1      41.752  29.058  34.152  1.00  0.00     0.119 C 
BRANCH  18  19
ATOM     19  C   UNL A   1      42.580  27.831  34.531  1.00  0.00     0.021 C 
BRANCH  19  20
ATOM     20  C   UNL A   1      42.960  26.923  33.355  1.00  0.00     0.002 C 
BRANCH  20  21
ATOM     21  C   UNL A   1      44.267  26.140  33.521  1.00  0.00    -0.000 C 
BRANCH  21  22
ATOM     22  C   UNL A   1      44.115  24.621  33.632  1.00  0.00    -0.003 C 
ATOM     23  C   UNL A   1      44.390  23.891  32.326  1.00  0.00     0.004 C 
ENDBRANCH  21  22
ENDBRANCH  20  21
ENDBRANCH  19  20
ENDBRANCH  18  19
ENDBRANCH  15  18
ENDBRANCH  13  14
ENDBRANCH   8  13
ENDBRANCH   1   7
BRANCH   6  24
ATOM     24  O   UNL A   1      37.503  35.019  31.898  1.00  0.00    -0.507 OA
ATOM     25  H   UNL A   1      38.229  35.269  32.435  1.00  0.00     0.293 HD
ENDBRANCH   6  24
BRANCH   4  26
ATOM     26  C   UNL A   1      32.668  35.499  31.827  1.00  0.00     0.105 C 
ATOM     27  C   UNL A   1      31.735  36.106  32.875  1.00  0.00     0.023 C 
BRANCH  26  28
ATOM     28  C   UNL A   1      32.957  36.411  30.625  1.00  0.00     0.227 C 
ATOM     29  O   UNL A   1      33.031  37.637  30.784  1.00  0.00    -0.274 OA
ATOM     30  N   UNL A   1      33.159  35.966  29.355  1.00  0.00    -0.356 N 
ATOM     31  H   UNL A   1      33.392  36.677  28.715  1.00  0.00     0.163 HD
BRANCH  30  32
ATOM     32  C   UNL A   1      33.094  34.643  28.766  1.00  0.00     0.117 C 
BRANCH  32  33
ATOM     33  C   UNL A   1      34.337  33.811  29.071  1.00  0.00     0.042 C 
BRANCH  33  34
ATOM     34  C   UNL A   1      34.795  32.937  27.911  1.00  0.00     0.118 C 
BRANCH  34  35
ATOM     35  N   UNL A   1      34.034  31.697  27.821  1.00  0.00    -0.352 N 
ATOM     36  C   UNL A   1      34.443  30.388  27.854  1.00  0.00     0.251 C 
ATOM     37  H   UNL A   1      33.062  31.821  27.720  1.00  0.00     0.163 HD
ATOM     38  O   UNL A   1      33.645  29.505  27.546  1.00  0.00    -0.269 OA
BRANCH  36  39
ATOM     39  C   UNL A   1      35.825  30.017  28.240  1.00  0.00     0.039 A 
ATOM     40  C   UNL A   1      36.838  30.118  27.280  1.00  0.00     0.014 A 
ATOM     41  C   UNL A   1      36.126  29.511  29.507  1.00  0.00     0.014 A 
ATOM     42  C   UNL A   1      38.151  29.764  27.604  1.00  0.00     0.010 A 
ATOM     43  C   UNL A   1      37.446  29.238  29.856  1.00  0.00     0.010 A 
ATOM     44  C   UNL A   1      38.471  29.348  28.906  1.00  0.00    -0.014 A 
BRANCH  44  45
ATOM     45  C   UNL A   1      39.866  29.008  29.286  1.00  0.00     0.031 A 
ATOM     46  C   UNL A   1      40.683  29.970  30.105  1.00  0.00     0.074 A 
ATOM     47  C   UNL A   1      40.421  27.866  28.838  1.00  0.00     0.049 A 
ATOM     48  N   UNL A   1      41.940  29.893  30.468  1.00  0.00    -0.248 NA
ATOM     49  C   UNL A   1      40.006  31.197  30.552  1.00  0.00     0.031 C 
ATOM     50  C   UNL A   1      39.750  26.876  27.994  1.00  0.00     0.029 A 
ATOM     51  N   UNL A   1      41.682  27.352  29.015  1.00  0.00    -0.354 N 
ATOM     52  C   UNL A   1      42.207  31.067  31.160  1.00  0.00     0.074 A 
ATOM     53  C   UNL A   1      40.998  31.860  31.128  1.00  0.00     0.031 C 
ATOM     54  C   UNL A   1      40.599  25.866  27.741  1.00  0.00     0.029 A 
ATOM     55  C   UNL A   1      41.883  26.155  28.372  1.00  0.00     0.049 A 
ATOM     56  H   UNL A   1      42.375  27.799  29.552  1.00  0.00     0.167 HD
ATOM     57  C   UNL A   1      43.350  31.440  31.783  1.00  0.00     0.037 A 
ATOM     58  C   UNL A   1      42.983  25.383  28.292  1.00  0.00     0.037 A 
ATOM     59  C   UNL A   1      44.540  30.633  31.841  1.00  0.00     0.049 A 
ATOM     60  C   UNL A   1      44.237  25.811  29.005  1.00  0.00     0.074 A 
ATOM     61  C   UNL A   1      45.726  30.888  32.509  1.00  0.00     0.029 A 
ATOM     62  N   UNL A   1      44.695  29.410  31.204  1.00  0.00    -0.354 N 
ATOM     63  N   UNL A   1      44.455  26.890  29.717  1.00  0.00    -0.248 NA
ATOM     64  C   UNL A   1      45.394  24.911  28.910  1.00  0.00     0.031 C 
ATOM     65  C   UNL A   1      46.613  29.840  32.241  1.00  0.00     0.029 A 
ATOM     66  C   UNL A   1      45.965  28.908  31.446  1.00  0.00     0.049 A 
ATOM     67  H   UNL A   1      44.006  28.965  30.660  1.00  0.00     0.167 HD
ATOM     68  C   UNL A   1      45.761  26.787  30.176  1.00  0.00     0.074 A 
ATOM     69  C   UNL A   1      46.282  25.533  29.672  1.00  0.00     0.031 C 
ATOM     70  C   UNL A   1      46.465  27.654  30.944  1.00  0.00     0.037 A 
BRANCH  57  71
ATOM     71  C   UNL A   1      43.368  32.782  32.456  1.00  0.00     0.064 A 
ATOM     72  C   UNL A   1      43.609  33.964  31.738  1.00  0.00     0.173 A 
ATOM     73  C   UNL A   1      43.111  32.893  33.831  1.00  0.00     0.173 A 
ATOM     74  F   UNL A   1      43.869  33.914  30.423  1.00  0.00    -0.203 F 
ATOM     75  C   UNL A   1      43.624  35.201  32.377  1.00  0.00     0.198 A 
ATOM     76  C   UNL A   1      43.097  34.135  34.461  1.00  0.00     0.198 A 
ATOM     77  F   UNL A   1      42.867  31.796  34.565  1.00  0.00    -0.203 F 
ATOM     78  F   UNL A   1      43.908  36.310  31.680  1.00  0.00    -0.200 F 
ATOM     79  C   UNL A   1      43.362  35.286  33.736  1.00  0.00     0.200 A 
ATOM     80  F   UNL A   1      42.829  34.216  35.772  1.00  0.00    -0.200 F 
ATOM     81  F   UNL A   1      43.371  36.478  34.349  1.00  0.00    -0.200 F 
ENDBRANCH  57  71
BRANCH  58  82
ATOM     82  C   UNL A   1      42.936  24.109  27.528  1.00  0.00     0.064 A 
ATOM     83  C   UNL A   1      42.546  22.914  28.149  1.00  0.00     0.173 A 
ATOM     84  C   UNL A   1      43.266  24.060  26.166  1.00  0.00     0.173 A 
ATOM     85  F   UNL A   1      42.240  22.908  29.455  1.00  0.00    -0.203 F 
ATOM     86  C   UNL A   1      42.503  21.716  27.440  1.00  0.00     0.198 A 
ATOM     87  C   UNL A   1      43.196  22.866  25.452  1.00  0.00     0.198 A 
ATOM     88  F   UNL A   1      43.642  25.176  25.525  1.00  0.00    -0.203 F 
ATOM     89  F   UNL A   1      42.164  20.581  28.067  1.00  0.00    -0.200 F 
ATOM     90  C   UNL A   1      42.821  21.694  26.090  1.00  0.00     0.200 A 
ATOM     91  F   UNL A   1      43.490  22.851  24.144  1.00  0.00    -0.200 F 
ATOM     92  F   UNL A   1      42.772  20.542  25.408  1.00  0.00    -0.200 F 
ENDBRANCH  58  82
BRANCH  70  93
ATOM     93  C   UNL A   1      47.864  27.262  31.317  1.00  0.00     0.064 A 
ATOM     94  C   UNL A   1      48.974  27.718  30.592  1.00  0.00     0.173 A 
ATOM     95  C   UNL A   1      48.098  26.455  32.441  1.00  0.00     0.173 A 
ATOM     96  F   UNL A   1      48.802  28.478  29.501  1.00  0.00    -0.203 F 
ATOM     97  C   UNL A   1      50.268  27.361  30.966  1.00  0.00     0.198 A 
ATOM     98  C   UNL A   1      49.394  26.125  32.829  1.00  0.00     0.198 A 
ATOM     99  F   UNL A   1      47.070  25.998  33.172  1.00  0.00    -0.203 F 
ATOM    100  F   UNL A   1      51.312  27.771  30.232  1.00  0.00    -0.200 F 
ATOM    101  C   UNL A   1      50.476  26.572  32.087  1.00  0.00     0.200 A 
ATOM    102  F   UNL A   1      49.594  25.373  33.919  1.00  0.00    -0.200 F 
ATOM    103  F   UNL A   1      51.722  26.238  32.450  1.00  0.00    -0.200 F 
ENDBRANCH  70  93
ENDBRANCH  44  45
ENDBRANCH  36  39
ENDBRANCH  34  35
ENDBRANCH  33  34
ENDBRANCH  32  33
ENDBRANCH  30  32
ENDBRANCH  26  28
ENDBRANCH   4  26
TORSDOF 20
ENDMDL
MODEL 3
REMARK VINA RESULT:     -10.2      1.428      3.011
REMARK SMILES CCCCCCNC(=O)Oc1cccc(-c2ccc([C@@H](C)C(=O)NCCCNC(=O)c3ccc(-c4c5nc(c(-c6c(F)c(F)c(F)c(F)c6F)c6ccc([nH]6)c(-c6c(F)c(F)c(F)c(F)c6F)c6nc(c(-c7c(F)c(F)c(F)c(F)c7F)c7ccc4[nH]7)C=C6)C=C5)cc3)cc2O)c1
REMARK SMILES IDX 16 1 17 2 18 3 19 4 94 5 95 6 15 7 11 8 12 9 97 10 13 11
REMARK SMILES IDX 14 12 10 13 8 14 7 15 9 17 6 18 5 19 4 20 3 21 2 22 1 23
REMARK SMILES IDX 96 24 20 26 21 27 22 28 23 29 24 30 25 32 26 33 27 34 28 35
REMARK SMILES IDX 29 36 30 38 31 39 32 40 93 41 33 42 92 43 34 44 35 45 36 46
REMARK SMILES IDX 86 47 37 48 91 49 85 50 87 51 38 52 90 53 84 54 83 55 39 57
REMARK SMILES IDX 71 58 51 59 70 60 52 61 55 62 69 63 88 64 53 65 54 66 68 68
REMARK SMILES IDX 89 69 56 70 40 71 41 72 49 73 42 74 43 75 47 76 50 77 44 78
REMARK SMILES IDX 45 79 48 80 46 81 72 82 73 83 81 84 74 85 75 86 79 87 82 88
REMARK SMILES IDX 76 89 77 90 80 91 78 92 57 93 58 94 66 95 59 96 60 97 64 98
REMARK SMILES IDX 67 99 61 100 62 101 65 102 63 103
REMARK H PARENT 7 16 96 25 24 31 28 37 87 56 55 67
REMARK Flexibility Score: inf
ROOT
ATOM      1  C   UNL A   1      39.535  34.068  30.341  1.00  0.00     0.024 A 
ATOM      2  C   UNL A   1      38.655  33.652  29.326  1.00  0.00     0.013 A 
ATOM      3  C   UNL A   1      37.275  33.543  29.538  1.00  0.00     0.005 A 
ATOM      4  C   UNL A   1      36.721  33.754  30.799  1.00  0.00    -0.032 A 
ATOM      5  C   UNL A   1      37.580  34.187  31.818  1.00  0.00     0.051 A 
ATOM      6  C   UNL A   1      38.946  34.381  31.578  1.00  0.00     0.123 A 
ENDROOT
BRANCH   1   7
ATOM      7  C   UNL A   1      40.991  34.140  30.068  1.00  0.00    -0.011 A 
ATOM      8  C   UNL A   1      42.943  35.275  29.160  1.00  0.00     0.133 A 
ATOM      9  C   UNL A   1      43.777  34.232  29.553  1.00  0.00     0.047 A 
ATOM     10  C   UNL A   1      41.572  35.249  29.426  1.00  0.00     0.056 A 
ATOM     11  C   UNL A   1      43.230  33.144  30.220  1.00  0.00     0.004 A 
ATOM     12  C   UNL A   1      41.853  33.093  30.458  1.00  0.00     0.009 A 
BRANCH   8  13
ATOM     13  O   UNL A   1      43.527  36.259  28.342  1.00  0.00    -0.410 OA
BRANCH  13  14
ATOM     14  C   UNL A   1      43.186  36.359  27.001  1.00  0.00     0.412 C 
ATOM     15  N   UNL A   1      44.124  35.798  26.177  1.00  0.00    -0.321 N 
ATOM     16  H   UNL A   1      43.957  35.863  25.208  1.00  0.00     0.167 HD
ATOM     17  O   UNL A   1      42.177  36.887  26.555  1.00  0.00    -0.224 OA
BRANCH  15  18
ATOM     18  C   UNL A   1      45.339  35.118  26.585  1.00  0.00     0.119 C 
BRANCH  18  19
ATOM     19  C   UNL A   1      45.435  33.713  25.991  1.00  0.00     0.021 C 
BRANCH  19  20
ATOM     20  C   UNL A   1      44.212  32.822  26.244  1.00  0.00     0.002 C 
BRANCH  20  21
ATOM     21  C   UNL A   1      44.460  31.601  27.137  1.00  0.00    -0.000 C 
BRANCH  21  22
ATOM     22  C   UNL A   1      43.584  30.381  26.840  1.00  0.00    -0.003 C 
ATOM     23  C   UNL A   1      43.659  29.310  27.918  1.00  0.00     0.004 C 
ENDBRANCH  21  22
ENDBRANCH  20  21
ENDBRANCH  19  20
ENDBRANCH  18  19
ENDBRANCH  15  18
ENDBRANCH  13  14
ENDBRANCH   8  13
ENDBRANCH   1   7
BRANCH   6  24
ATOM     24  O   UNL A   1      39.647  34.930  32.621  1.00  0.00    -0.507 OA
ATOM     25  H   UNL A   1      40.169  35.696  32.482  1.00  0.00     0.293 HD
ENDBRANCH   6  24
BRANCH   4  26
ATOM     26  C   UNL A   1      35.250  33.521  31.105  1.00  0.00     0.105 C 
ATOM     27  C   UNL A   1      34.959  32.439  32.146  1.00  0.00     0.023 C 
BRANCH  26  28
ATOM     28  C   UNL A   1      34.441  34.815  31.287  1.00  0.00     0.227 C 
ATOM     29  O   UNL A   1      34.172  35.220  32.425  1.00  0.00    -0.274 OA
ATOM     30  N   UNL A   1      33.990  35.587  30.261  1.00  0.00    -0.356 N 
ATOM     31  H   UNL A   1      33.540  36.413  30.552  1.00  0.00     0.163 HD
BRANCH  30  32
ATOM     32  C   UNL A   1      34.044  35.422  28.822  1.00  0.00     0.117 C 
BRANCH  32  33
ATOM     33  C   UNL A   1      33.388  34.123  28.362  1.00  0.00     0.042 C 
BRANCH  33  34
ATOM     34  C   UNL A   1      34.378  33.030  27.983  1.00  0.00     0.118 C 
BRANCH  34  35
ATOM     35  N   UNL A   1      33.712  31.819  27.521  1.00  0.00    -0.352 N 
ATOM     36  C   UNL A   1      34.155  30.523  27.448  1.00  0.00     0.251 C 
ATOM     37  H   UNL A   1      32.787  31.955  27.208  1.00  0.00     0.163 HD
ATOM     38  O   UNL A   1      33.490  29.699  26.823  1.00  0.00    -0.269 OA
BRANCH  36  39
ATOM     39  C   UNL A   1      35.420  30.098  28.093  1.00  0.00     0.039 A 
ATOM     40  C   UNL A   1      36.592  30.091  27.329  1.00  0.00     0.014 A 
ATOM     41  C   UNL A   1      35.457  29.648  29.415  1.00  0.00     0.014 A 
ATOM     42  C   UNL A   1      37.801  29.684  27.900  1.00  0.00     0.010 A 
ATOM     43  C   UNL A   1      36.674  29.322  30.009  1.00  0.00     0.010 A 
ATOM     44  C   UNL A   1      37.857  29.323  29.256  1.00  0.00    -0.014 A 
BRANCH  44  45
ATOM     45  C   UNL A   1      39.137  28.928  29.897  1.00  0.00     0.031 A 
ATOM     46  C   UNL A   1      39.627  29.655  31.120  1.00  0.00     0.074 A 
ATOM     47  C   UNL A   1      39.894  27.964  29.340  1.00  0.00     0.049 A 
ATOM     48  N   UNL A   1      40.754  29.515  31.774  1.00  0.00    -0.248 NA
ATOM     49  C   UNL A   1      38.745  30.700  31.664  1.00  0.00     0.031 C 
ATOM     50  C   UNL A   1      39.555  27.220  28.126  1.00  0.00     0.029 A 
ATOM     51  N   UNL A   1      41.113  27.454  29.712  1.00  0.00    -0.354 N 
ATOM     52  C   UNL A   1      40.724  30.466  32.786  1.00  0.00     0.074 A 
ATOM     53  C   UNL A   1      39.492  31.208  32.632  1.00  0.00     0.031 C 
ATOM     54  C   UNL A   1      40.532  26.338  27.862  1.00  0.00     0.029 A 
ATOM     55  C   UNL A   1      41.583  26.479  28.866  1.00  0.00     0.049 A 
ATOM     56  H   UNL A   1      41.603  27.757  30.510  1.00  0.00     0.167 HD
ATOM     57  C   UNL A   1      41.633  30.687  33.765  1.00  0.00     0.037 A 
ATOM     58  C   UNL A   1      42.736  25.785  28.891  1.00  0.00     0.037 A 
ATOM     59  C   UNL A   1      42.842  29.924  33.934  1.00  0.00     0.049 A 
ATOM     60  C   UNL A   1      43.723  26.037  29.998  1.00  0.00     0.074 A 
ATOM     61  C   UNL A   1      43.791  30.020  34.937  1.00  0.00     0.029 A 
ATOM     62  N   UNL A   1      43.268  28.922  33.074  1.00  0.00    -0.354 N 
ATOM     63  N   UNL A   1      43.651  26.889  30.991  1.00  0.00    -0.248 NA
ATOM     64  C   UNL A   1      44.947  25.225  29.991  1.00  0.00     0.031 C 
ATOM     65  C   UNL A   1      44.814  29.106  34.660  1.00  0.00     0.029 A 
ATOM     66  C   UNL A   1      44.478  28.406  33.512  1.00  0.00     0.049 A 
ATOM     67  H   UNL A   1      42.784  28.622  32.271  1.00  0.00     0.167 HD
ATOM     68  C   UNL A   1      44.804  26.700  31.741  1.00  0.00     0.074 A 
ATOM     69  C   UNL A   1      45.552  25.641  31.095  1.00  0.00     0.031 C 
ATOM     70  C   UNL A   1      45.206  27.346  32.862  1.00  0.00     0.037 A 
BRANCH  57  71
ATOM     71  C   UNL A   1      41.353  31.799  34.735  1.00  0.00     0.064 A 
ATOM     72  C   UNL A   1      41.903  33.079  34.568  1.00  0.00     0.173 A 
ATOM     73  C   UNL A   1      40.499  31.591  35.829  1.00  0.00     0.173 A 
ATOM     74  F   UNL A   1      42.733  33.329  33.545  1.00  0.00    -0.203 F 
ATOM     75  C   UNL A   1      41.635  34.099  35.477  1.00  0.00     0.198 A 
ATOM     76  C   UNL A   1      40.209  32.622  36.719  1.00  0.00     0.198 A 
ATOM     77  F   UNL A   1      39.939  30.389  36.033  1.00  0.00    -0.203 F 
ATOM     78  F   UNL A   1      42.214  35.298  35.326  1.00  0.00    -0.200 F 
ATOM     79  C   UNL A   1      40.784  33.872  36.548  1.00  0.00     0.200 A 
ATOM     80  F   UNL A   1      39.375  32.404  37.746  1.00  0.00    -0.200 F 
ATOM     81  F   UNL A   1      40.523  34.856  37.420  1.00  0.00    -0.200 F 
ENDBRANCH  57  71
BRANCH  58  82
ATOM     82  C   UNL A   1      43.004  24.762  27.846  1.00  0.00     0.064 A 
ATOM     83  C   UNL A   1      42.653  23.420  28.048  1.00  0.00     0.173 A 
ATOM     84  C   UNL A   1      43.603  25.104  26.625  1.00  0.00     0.173 A 
ATOM     85  F   UNL A   1      42.097  23.042  29.209  1.00  0.00    -0.203 F 
ATOM     86  C   UNL A   1      42.905  22.456  27.075  1.00  0.00     0.198 A 
ATOM     87  C   UNL A   1      43.829  24.144  25.641  1.00  0.00     0.198 A 
ATOM     88  F   UNL A   1      43.954  26.375  26.381  1.00  0.00    -0.203 F 
ATOM     89  F   UNL A   1      42.595  21.174  27.310  1.00  0.00    -0.200 F 
ATOM     90  C   UNL A   1      43.486  22.820  25.869  1.00  0.00     0.200 A 
ATOM     91  F   UNL A   1      44.377  24.500  24.471  1.00  0.00    -0.200 F 
ATOM     92  F   UNL A   1      43.720  21.893  24.931  1.00  0.00    -0.200 F 
ENDBRANCH  58  82
BRANCH  70  93
ATOM     93  C   UNL A   1      46.497  26.904  33.485  1.00  0.00     0.064 A 
ATOM     94  C   UNL A   1      46.544  25.859  34.419  1.00  0.00     0.173 A 
ATOM     95  C   UNL A   1      47.708  27.505  33.108  1.00  0.00     0.173 A 
ATOM     96  F   UNL A   1      45.413  25.263  34.823  1.00  0.00    -0.203 F 
ATOM     97  C   UNL A   1      47.755  25.448  34.970  1.00  0.00     0.198 A 
ATOM     98  C   UNL A   1      48.919  27.071  33.639  1.00  0.00     0.198 A 
ATOM     99  F   UNL A   1      47.718  28.505  32.213  1.00  0.00    -0.203 F 
ATOM    100  F   UNL A   1      47.772  24.477  35.895  1.00  0.00    -0.200 F 
ATOM    101  C   UNL A   1      48.941  26.048  34.575  1.00  0.00     0.200 A 
ATOM    102  F   UNL A   1      50.065  27.644  33.247  1.00  0.00    -0.200 F 
ATOM    103  F   UNL A   1      50.106  25.644  35.100  1.00  0.00    -0.200 F 
ENDBRANCH  70  93
ENDBRANCH  44  45
ENDBRANCH  36  39
ENDBRANCH  34  35
ENDBRANCH  33  34
ENDBRANCH  32  33
ENDBRANCH  30  32
ENDBRANCH  26  28
ENDBRANCH   4  26
TORSDOF 20
ENDMDL
