MODEL 1
REMARK VINA RESULT:     -11.9      0.000      0.000
REMARK SMILES O=C(NCCCNC(=O)[C@@H]1CCCN(C(=O)CCCc2ccc(Br)s2)C1)c1ccc(-c2c3nc(c(-c4c(F)c(F)c(F)c(F)c4F)c4ccc([nH]4)c(-c4c(F)c(F)c(F)c(F)c4F)c4nc(c(-c5c(F)c(F)c(F)c(F)c5F)c5ccc2[nH]5)C=C4)C=C3)cc1
REMARK SMILES IDX 7 1 8 2 9 3 6 5 5 6 4 7 3 8 1 9 2 10 27 12 28 13 89 14 29 15
REMARK SMILES IDX 88 16 30 17 31 18 32 19 82 20 33 21 87 22 81 23 83 24 34 25
REMARK SMILES IDX 86 26 80 27 79 28 35 30 67 31 47 32 66 33 48 34 51 35 65 36
REMARK SMILES IDX 84 37 49 38 50 39 64 41 85 42 52 43 36 44 37 45 45 46 38 47
REMARK SMILES IDX 39 48 43 49 46 50 40 51 41 52 44 53 42 54 68 55 69 56 77 57
REMARK SMILES IDX 70 58 71 59 75 60 78 61 72 62 73 63 76 64 74 65 53 66 54 67
REMARK SMILES IDX 62 68 55 69 56 70 60 71 63 72 57 73 58 74 61 75 59 76 10 77
REMARK SMILES IDX 11 78 26 79 12 80 14 81 13 82 15 83 16 84 17 85 18 86 19 87
REMARK SMILES IDX 20 88 21 89 25 90 22 91 23 92 24 93
REMARK H PARENT 7 4 3 11 83 29 51 40
REMARK Flexibility Score: inf
ROOT
ATOM      1  N   UNL A   1      31.313  30.093  25.217  1.00  0.00    -0.356 N 
ATOM      2  C   UNL A   1      31.927  29.324  24.283  1.00  0.00     0.224 C 
ATOM      3  O   UNL A   1      31.285  29.084  23.257  1.00  0.00    -0.275 OA
ATOM      4  H   UNL A   1      30.402  30.378  24.976  1.00  0.00     0.163 HD
ENDROOT
BRANCH   1   5
ATOM      5  C   UNL A   1      31.767  30.569  26.510  1.00  0.00     0.117 C 
BRANCH   5   6
ATOM      6  C   UNL A   1      31.530  32.056  26.691  1.00  0.00     0.042 C 
BRANCH   6   7
ATOM      7  C   UNL A   1      32.778  32.821  27.096  1.00  0.00     0.118 C 
BRANCH   7   8
ATOM      8  N   UNL A   1      32.495  34.149  27.626  1.00  0.00    -0.352 N 
ATOM      9  O   UNL A   1      32.544  35.900  29.044  1.00  0.00    -0.269 OA
ATOM     10  C   UNL A   1      33.048  34.847  28.677  1.00  0.00     0.251 C 
ATOM     11  H   UNL A   1      31.782  34.632  27.149  1.00  0.00     0.163 HD
BRANCH  10  12
ATOM     12  C   UNL A   1      34.220  34.305  29.401  1.00  0.00     0.039 A 
ATOM     13  C   UNL A   1      35.515  34.601  28.990  1.00  0.00     0.014 A 
ATOM     14  C   UNL A   1      34.021  33.487  30.518  1.00  0.00     0.014 A 
ATOM     15  C   UNL A   1      36.584  33.893  29.517  1.00  0.00     0.010 A 
ATOM     16  C   UNL A   1      35.119  32.893  31.152  1.00  0.00     0.010 A 
ATOM     17  C   UNL A   1      36.407  33.044  30.619  1.00  0.00    -0.014 A 
BRANCH  17  18
ATOM     18  C   UNL A   1      37.600  32.368  31.198  1.00  0.00     0.031 A 
ATOM     19  C   UNL A   1      38.050  32.650  32.606  1.00  0.00     0.074 A 
ATOM     20  C   UNL A   1      38.238  31.439  30.458  1.00  0.00     0.049 A 
ATOM     21  N   UNL A   1      39.038  32.110  33.278  1.00  0.00    -0.248 NA
ATOM     22  C   UNL A   1      37.311  33.675  33.356  1.00  0.00     0.031 C 
ATOM     23  C   UNL A   1      37.902  31.087  29.075  1.00  0.00     0.029 A 
ATOM     24  N   UNL A   1      39.270  30.591  30.770  1.00  0.00    -0.354 N 
ATOM     25  C   UNL A   1      39.062  32.755  34.508  1.00  0.00     0.074 A 
ATOM     26  C   UNL A   1      38.002  33.741  34.486  1.00  0.00     0.031 C 
ATOM     27  C   UNL A   1      38.650  30.046  28.689  1.00  0.00     0.029 A 
ATOM     28  C   UNL A   1      39.577  29.709  29.762  1.00  0.00     0.049 A 
ATOM     29  H   UNL A   1      39.745  30.613  31.632  1.00  0.00     0.167 HD
ATOM     30  C   UNL A   1      39.888  32.539  35.560  1.00  0.00     0.037 A 
ATOM     31  C   UNL A   1      40.510  28.742  29.700  1.00  0.00     0.037 A 
ATOM     32  C   UNL A   1      40.916  31.529  35.590  1.00  0.00     0.049 A 
ATOM     33  C   UNL A   1      41.405  28.522  30.884  1.00  0.00     0.074 A 
ATOM     34  C   UNL A   1      41.779  31.206  36.622  1.00  0.00     0.029 A 
ATOM     35  N   UNL A   1      41.216  30.676  34.538  1.00  0.00    -0.354 N 
ATOM     36  N   UNL A   1      41.400  29.126  32.047  1.00  0.00    -0.248 NA
ATOM     37  C   UNL A   1      42.439  27.490  30.743  1.00  0.00     0.031 C 
ATOM     38  C   UNL A   1      42.632  30.188  36.181  1.00  0.00     0.029 A 
ATOM     39  C   UNL A   1      42.264  29.839  34.891  1.00  0.00     0.049 A 
ATOM     40  H   UNL A   1      40.754  30.666  33.669  1.00  0.00     0.167 HD
ATOM     41  C   UNL A   1      42.414  28.534  32.785  1.00  0.00     0.074 A 
ATOM     42  C   UNL A   1      42.999  27.508  31.944  1.00  0.00     0.031 C 
ATOM     43  C   UNL A   1      42.827  28.817  34.045  1.00  0.00     0.037 A 
BRANCH  30  44
ATOM     44  C   UNL A   1      39.736  33.427  36.763  1.00  0.00     0.064 A 
ATOM     45  C   UNL A   1      40.435  34.637  36.887  1.00  0.00     0.173 A 
ATOM     46  C   UNL A   1      38.841  33.081  37.788  1.00  0.00     0.173 A 
ATOM     47  F   UNL A   1      41.311  35.010  35.943  1.00  0.00    -0.203 F 
ATOM     48  C   UNL A   1      40.264  35.452  38.004  1.00  0.00     0.198 A 
ATOM     49  C   UNL A   1      38.652  33.912  38.889  1.00  0.00     0.198 A 
ATOM     50  F   UNL A   1      38.141  31.939  37.718  1.00  0.00    -0.203 F 
ATOM     51  F   UNL A   1      40.978  36.581  38.122  1.00  0.00    -0.200 F 
ATOM     52  C   UNL A   1      39.368  35.093  39.000  1.00  0.00     0.200 A 
ATOM     53  F   UNL A   1      37.775  33.570  39.843  1.00  0.00    -0.200 F 
ATOM     54  F   UNL A   1      39.201  35.883  40.069  1.00  0.00    -0.200 F 
ENDBRANCH  30  44
BRANCH  31  55
ATOM     55  C   UNL A   1      40.636  27.913  28.473  1.00  0.00     0.064 A 
ATOM     56  C   UNL A   1      41.440  28.327  27.403  1.00  0.00     0.173 A 
ATOM     57  C   UNL A   1      39.967  26.686  28.352  1.00  0.00     0.173 A 
ATOM     58  F   UNL A   1      42.085  29.501  27.464  1.00  0.00    -0.203 F 
ATOM     59  C   UNL A   1      41.559  27.551  26.252  1.00  0.00     0.198 A 
ATOM     60  C   UNL A   1      40.112  25.896  27.215  1.00  0.00     0.198 A 
ATOM     61  F   UNL A   1      39.191  26.241  29.351  1.00  0.00    -0.203 F 
ATOM     62  F   UNL A   1      42.300  27.989  25.226  1.00  0.00    -0.200 F 
ATOM     63  C   UNL A   1      40.901  26.332  26.162  1.00  0.00     0.200 A 
ATOM     64  F   UNL A   1      39.492  24.711  27.141  1.00  0.00    -0.200 F 
ATOM     65  F   UNL A   1      41.024  25.582  25.059  1.00  0.00    -0.200 F 
ENDBRANCH  31  55
BRANCH  43  66
ATOM     66  C   UNL A   1      43.934  27.972  34.602  1.00  0.00     0.064 A 
ATOM     67  C   UNL A   1      45.282  28.325  34.442  1.00  0.00     0.173 A 
ATOM     68  C   UNL A   1      43.640  26.801  35.315  1.00  0.00     0.173 A 
ATOM     69  F   UNL A   1      45.615  29.426  33.753  1.00  0.00    -0.203 F 
ATOM     70  C   UNL A   1      46.297  27.516  34.947  1.00  0.00     0.198 A 
ATOM     71  C   UNL A   1      44.655  26.011  35.844  1.00  0.00     0.198 A 
ATOM     72  F   UNL A   1      42.365  26.424  35.499  1.00  0.00    -0.203 F 
ATOM     73  F   UNL A   1      47.579  27.840  34.733  1.00  0.00    -0.200 F 
ATOM     74  C   UNL A   1      45.982  26.364  35.652  1.00  0.00     0.200 A 
ATOM     75  F   UNL A   1      44.348  24.904  36.536  1.00  0.00    -0.200 F 
ATOM     76  F   UNL A   1      46.960  25.586  36.137  1.00  0.00    -0.200 F 
ENDBRANCH  43  66
ENDBRANCH  17  18
ENDBRANCH  10  12
ENDBRANCH   7   8
ENDBRANCH   6   7
ENDBRANCH   5   6
ENDBRANCH   1   5
BRANCH   2  77
ATOM     77  C   UNL A   1      33.364  28.849  24.482  1.00  0.00     0.098 C 
ATOM     78  C   UNL A   1      33.911  28.206  23.183  1.00  0.00     0.017 C 
ATOM     79  C   UNL A   1      33.516  27.843  25.625  1.00  0.00     0.132 C 
ATOM     80  C   UNL A   1      33.333  26.802  22.927  1.00  0.00     0.022 C 
ATOM     81  N   UNL A   1      32.854  26.591  25.307  1.00  0.00    -0.342 N 
ATOM     82  C   UNL A   1      33.438  25.912  24.165  1.00  0.00     0.119 C 
BRANCH  81  83
ATOM     83  C   UNL A   1      31.651  26.288  25.925  1.00  0.00     0.222 C 
ATOM     84  O   UNL A   1      31.227  26.946  26.880  1.00  0.00    -0.275 OA
BRANCH  83  85
ATOM     85  C   UNL A   1      30.865  25.075  25.466  1.00  0.00     0.100 C 
BRANCH  85  86
ATOM     86  C   UNL A   1      30.843  23.907  26.459  1.00  0.00     0.015 C 
BRANCH  86  87
ATOM     87  C   UNL A   1      31.473  22.583  25.990  1.00  0.00     0.047 C 
BRANCH  87  88
ATOM     88  C   UNL A   1      32.971  22.636  25.851  1.00  0.00     0.006 A 
ATOM     89  C   UNL A   1      33.914  23.163  26.717  1.00  0.00     0.016 A 
ATOM     90  S   UNL A   1      33.727  22.017  24.433  1.00  0.00    -0.133 S 
ATOM     91  C   UNL A   1      35.201  23.274  26.108  1.00  0.00     0.028 A 
ATOM     92  C   UNL A   1      35.198  22.746  24.843  1.00  0.00     0.070 A 
ATOM     93  Br  UNL A   1      36.661  22.826  23.678  1.00  0.00    -0.039 Br
ENDBRANCH  87  88
ENDBRANCH  86  87
ENDBRANCH  85  86
ENDBRANCH  83  85
ENDBRANCH  81  83
ENDBRANCH   2  77
TORSDOF 15
ENDMDL
MODEL 2
REMARK VINA RESULT:     -11.9      2.591      4.151
REMARK SMILES O=C(NCCCNC(=O)[C@@H]1CCCN(C(=O)CCCc2ccc(Br)s2)C1)c1ccc(-c2c3nc(c(-c4c(F)c(F)c(F)c(F)c4F)c4ccc([nH]4)c(-c4c(F)c(F)c(F)c(F)c4F)c4nc(c(-c5c(F)c(F)c(F)c(F)c5F)c5ccc2[nH]5)C=C4)C=C3)cc1
REMARK SMILES IDX 7 1 8 2 9 3 6 5 5 6 4 7 3 8 1 9 2 10 27 12 28 13 89 14 29 15
REMARK SMILES IDX 88 16 30 17 31 18 32 19 82 20 33 21 87 22 81 23 83 24 34 25
REMARK SMILES IDX 86 26 80 27 79 28 35 30 67 31 47 32 66 33 48 34 51 35 65 36
REMARK SMILES IDX 84 37 49 38 50 39 64 41 85 42 52 43 36 44 37 45 45 46 38 47
REMARK SMILES IDX 39 48 43 49 46 50 40 51 41 52 44 53 42 54 68 55 69 56 77 57
REMARK SMILES IDX 70 58 71 59 75 60 78 61 72 62 73 63 76 64 74 65 53 66 54 67
REMARK SMILES IDX 62 68 55 69 56 70 60 71 63 72 57 73 58 74 61 75 59 76 10 77
REMARK SMILES IDX 11 78 26 79 12 80 14 81 13 82 15 83 16 84 17 85 18 86 19 87
REMARK SMILES IDX 20 88 21 89 25 90 22 91 23 92 24 93
REMARK H PARENT 7 4 3 11 83 29 51 40
REMARK Flexibility Score: inf
ROOT
ATOM      1  N   UNL A   1      33.618  26.419  24.222  1.00  0.00    -0.356 N 
ATOM      2  C   UNL A   1      33.879  25.218  23.646  1.00  0.00     0.224 C 
ATOM      3  O   UNL A   1      33.796  25.166  22.416  1.00  0.00    -0.275 OA
ATOM      4  H   UNL A   1      33.380  27.132  23.587  1.00  0.00     0.163 HD
ENDROOT
BRANCH   1   5
ATOM      5  C   UNL A   1      33.629  26.834  25.613  1.00  0.00     0.117 C 
BRANCH   5   6
ATOM      6  C   UNL A   1      32.734  28.032  25.862  1.00  0.00     0.042 C 
BRANCH   6   7
ATOM      7  C   UNL A   1      33.282  29.325  25.284  1.00  0.00     0.118 C 
BRANCH   7   8
ATOM      8  N   UNL A   1      32.776  30.517  25.953  1.00  0.00    -0.352 N 
ATOM      9  O   UNL A   1      32.578  32.122  27.522  1.00  0.00    -0.269 OA
ATOM     10  C   UNL A   1      33.256  31.232  27.027  1.00  0.00     0.251 C 
ATOM     11  H   UNL A   1      31.942  30.874  25.568  1.00  0.00     0.163 HD
BRANCH  10  12
ATOM     12  C   UNL A   1      34.569  30.896  27.622  1.00  0.00     0.039 A 
ATOM     13  C   UNL A   1      34.868  29.595  28.011  1.00  0.00     0.014 A 
ATOM     14  C   UNL A   1      35.526  31.903  27.793  1.00  0.00     0.014 A 
ATOM     15  C   UNL A   1      35.989  29.347  28.788  1.00  0.00     0.010 A 
ATOM     16  C   UNL A   1      36.733  31.616  28.441  1.00  0.00     0.010 A 
ATOM     17  C   UNL A   1      36.949  30.347  28.998  1.00  0.00    -0.014 A 
BRANCH  17  18
ATOM     18  C   UNL A   1      38.175  30.009  29.772  1.00  0.00     0.031 A 
ATOM     19  C   UNL A   1      38.348  30.460  31.198  1.00  0.00     0.074 A 
ATOM     20  C   UNL A   1      39.108  29.226  29.195  1.00  0.00     0.049 A 
ATOM     21  N   UNL A   1      39.330  30.209  32.028  1.00  0.00    -0.248 NA
ATOM     22  C   UNL A   1      37.293  31.313  31.766  1.00  0.00     0.031 C 
ATOM     23  C   UNL A   1      39.057  28.735  27.814  1.00  0.00     0.029 A 
ATOM     24  N   UNL A   1      40.255  28.669  29.699  1.00  0.00    -0.354 N 
ATOM     25  C   UNL A   1      39.033  30.901  33.195  1.00  0.00     0.074 A 
ATOM     26  C   UNL A   1      37.786  31.599  32.963  1.00  0.00     0.031 C 
ATOM     27  C   UNL A   1      40.074  27.888  27.609  1.00  0.00     0.029 A 
ATOM     28  C   UNL A   1      40.896  27.838  28.811  1.00  0.00     0.049 A 
ATOM     29  H   UNL A   1      40.587  28.847  30.608  1.00  0.00     0.167 HD
ATOM     30  C   UNL A   1      39.732  30.943  34.355  1.00  0.00     0.037 A 
ATOM     31  C   UNL A   1      42.027  27.123  28.942  1.00  0.00     0.037 A 
ATOM     32  C   UNL A   1      40.952  30.213  34.592  1.00  0.00     0.049 A 
ATOM     33  C   UNL A   1      42.776  27.184  30.242  1.00  0.00     0.074 A 
ATOM     34  C   UNL A   1      41.716  30.160  35.746  1.00  0.00     0.029 A 
ATOM     35  N   UNL A   1      41.586  29.407  33.658  1.00  0.00    -0.354 N 
ATOM     36  N   UNL A   1      42.469  27.826  31.342  1.00  0.00    -0.248 NA
ATOM     37  C   UNL A   1      44.031  26.426  30.313  1.00  0.00     0.031 C 
ATOM     38  C   UNL A   1      42.834  29.357  35.496  1.00  0.00     0.029 A 
ATOM     39  C   UNL A   1      42.741  28.866  34.204  1.00  0.00     0.049 A 
ATOM     40  H   UNL A   1      41.264  29.243  32.742  1.00  0.00     0.167 HD
ATOM     41  C   UNL A   1      43.480  27.533  32.245  1.00  0.00     0.074 A 
ATOM     42  C   UNL A   1      44.398  26.639  31.568  1.00  0.00     0.031 C 
ATOM     43  C   UNL A   1      43.637  27.970  33.519  1.00  0.00     0.037 A 
BRANCH  30  44
ATOM     44  C   UNL A   1      39.212  31.827  35.454  1.00  0.00     0.064 A 
ATOM     45  C   UNL A   1      38.346  31.346  36.447  1.00  0.00     0.173 A 
ATOM     46  C   UNL A   1      39.624  33.166  35.536  1.00  0.00     0.173 A 
ATOM     47  F   UNL A   1      37.912  30.078  36.409  1.00  0.00    -0.203 F 
ATOM     48  C   UNL A   1      37.891  32.181  37.466  1.00  0.00     0.198 A 
ATOM     49  C   UNL A   1      39.190  33.989  36.573  1.00  0.00     0.198 A 
ATOM     50  F   UNL A   1      40.458  33.676  34.617  1.00  0.00    -0.203 F 
ATOM     51  F   UNL A   1      37.028  31.712  38.378  1.00  0.00    -0.200 F 
ATOM     52  C   UNL A   1      38.319  33.499  37.532  1.00  0.00     0.200 A 
ATOM     53  F   UNL A   1      39.616  35.258  36.643  1.00  0.00    -0.200 F 
ATOM     54  F   UNL A   1      37.886  34.297  38.518  1.00  0.00    -0.200 F 
ENDBRANCH  30  44
BRANCH  31  55
ATOM     55  C   UNL A   1      42.511  26.289  27.812  1.00  0.00     0.064 A 
ATOM     56  C   UNL A   1      43.466  26.780  26.912  1.00  0.00     0.173 A 
ATOM     57  C   UNL A   1      42.040  24.982  27.616  1.00  0.00     0.173 A 
ATOM     58  F   UNL A   1      43.934  28.029  27.047  1.00  0.00    -0.203 F 
ATOM     59  C   UNL A   1      43.922  25.999  25.851  1.00  0.00     0.198 A 
ATOM     60  C   UNL A   1      42.518  24.192  26.576  1.00  0.00     0.198 A 
ATOM     61  F   UNL A   1      41.130  24.463  28.455  1.00  0.00    -0.203 F 
ATOM     62  F   UNL A   1      44.804  26.506  24.981  1.00  0.00    -0.200 F 
ATOM     63  C   UNL A   1      43.453  24.703  25.689  1.00  0.00     0.200 A 
ATOM     64  F   UNL A   1      42.079  22.935  26.435  1.00  0.00    -0.200 F 
ATOM     65  F   UNL A   1      43.898  23.950  24.674  1.00  0.00    -0.200 F 
ENDBRANCH  31  55
BRANCH  43  66
ATOM     66  C   UNL A   1      44.822  27.446  34.274  1.00  0.00     0.064 A 
ATOM     67  C   UNL A   1      44.763  26.247  35.000  1.00  0.00     0.173 A 
ATOM     68  C   UNL A   1      46.036  28.148  34.261  1.00  0.00     0.173 A 
ATOM     69  F   UNL A   1      43.619  25.548  35.057  1.00  0.00    -0.203 F 
ATOM     70  C   UNL A   1      45.867  25.788  35.713  1.00  0.00     0.198 A 
ATOM     71  C   UNL A   1      47.146  27.671  34.950  1.00  0.00     0.198 A 
ATOM     72  F   UNL A   1      46.145  29.298  33.577  1.00  0.00    -0.203 F 
ATOM     73  F   UNL A   1      45.772  24.671  36.447  1.00  0.00    -0.200 F 
ATOM     74  C   UNL A   1      47.059  26.497  35.683  1.00  0.00     0.200 A 
ATOM     75  F   UNL A   1      48.301  28.352  34.910  1.00  0.00    -0.200 F 
ATOM     76  F   UNL A   1      48.120  26.055  36.371  1.00  0.00    -0.200 F 
ENDBRANCH  43  66
ENDBRANCH  17  18
ENDBRANCH  10  12
ENDBRANCH   7   8
ENDBRANCH   6   7
ENDBRANCH   5   6
ENDBRANCH   1   5
BRANCH   2  77
ATOM     77  C   UNL A   1      34.318  24.025  24.490  1.00  0.00     0.098 C 
ATOM     78  C   UNL A   1      34.319  22.728  23.643  1.00  0.00     0.017 C 
ATOM     79  C   UNL A   1      33.440  23.800  25.724  1.00  0.00     0.132 C 
ATOM     80  C   UNL A   1      32.902  22.194  23.373  1.00  0.00     0.022 C 
ATOM     81  N   UNL A   1      32.102  23.389  25.341  1.00  0.00    -0.342 N 
ATOM     82  C   UNL A   1      32.074  22.110  24.655  1.00  0.00     0.119 C 
BRANCH  81  83
ATOM     83  C   UNL A   1      31.063  24.300  25.439  1.00  0.00     0.222 C 
ATOM     84  O   UNL A   1      30.604  24.648  26.531  1.00  0.00    -0.275 OA
BRANCH  83  85
ATOM     85  C   UNL A   1      30.421  24.833  24.173  1.00  0.00     0.100 C 
BRANCH  85  86
ATOM     86  C   UNL A   1      29.878  26.263  24.275  1.00  0.00     0.015 C 
BRANCH  86  87
ATOM     87  C   UNL A   1      30.081  27.174  23.051  1.00  0.00     0.047 C 
BRANCH  87  88
ATOM     88  C   UNL A   1      29.296  28.457  23.108  1.00  0.00     0.006 A 
ATOM     89  C   UNL A   1      27.954  28.675  22.851  1.00  0.00     0.016 A 
ATOM     90  S   UNL A   1      30.088  29.934  23.501  1.00  0.00    -0.133 S 
ATOM     91  C   UNL A   1      27.647  30.066  22.740  1.00  0.00     0.028 A 
ATOM     92  C   UNL A   1      28.748  30.839  23.004  1.00  0.00     0.070 A 
ATOM     93  Br  UNL A   1      28.778  32.702  22.829  1.00  0.00    -0.039 Br
ENDBRANCH  87  88
ENDBRANCH  86  87
ENDBRANCH  85  86
ENDBRANCH  83  85
ENDBRANCH  81  83
ENDBRANCH   2  77
TORSDOF 15
ENDMDL
MODEL 3
REMARK VINA RESULT:     -11.7      0.436      1.649
REMARK SMILES O=C(NCCCNC(=O)[C@@H]1CCCN(C(=O)CCCc2ccc(Br)s2)C1)c1ccc(-c2c3nc(c(-c4c(F)c(F)c(F)c(F)c4F)c4ccc([nH]4)c(-c4c(F)c(F)c(F)c(F)c4F)c4nc(c(-c5c(F)c(F)c(F)c(F)c5F)c5ccc2[nH]5)C=C4)C=C3)cc1
REMARK SMILES IDX 7 1 8 2 9 3 6 5 5 6 4 7 3 8 1 9 2 10 27 12 28 13 89 14 29 15
REMARK SMILES IDX 88 16 30 17 31 18 32 19 82 20 33 21 87 22 81 23 83 24 34 25
REMARK SMILES IDX 86 26 80 27 79 28 35 30 67 31 47 32 66 33 48 34 51 35 65 36
REMARK SMILES IDX 84 37 49 38 50 39 64 41 85 42 52 43 36 44 37 45 45 46 38 47
REMARK SMILES IDX 39 48 43 49 46 50 40 51 41 52 44 53 42 54 68 55 69 56 77 57
REMARK SMILES IDX 70 58 71 59 75 60 78 61 72 62 73 63 76 64 74 65 53 66 54 67
REMARK SMILES IDX 62 68 55 69 56 70 60 71 63 72 57 73 58 74 61 75 59 76 10 77
REMARK SMILES IDX 11 78 26 79 12 80 14 81 13 82 15 83 16 84 17 85 18 86 19 87
REMARK SMILES IDX 20 88 21 89 25 90 22 91 23 92 24 93
REMARK H PARENT 7 4 3 11 83 29 51 40
REMARK Flexibility Score: inf
ROOT
ATOM      1  N   UNL A   1      31.274  30.057  24.861  1.00  0.00    -0.356 N 
ATOM      2  C   UNL A   1      31.914  29.325  23.915  1.00  0.00     0.224 C 
ATOM      3  O   UNL A   1      31.334  29.192  22.834  1.00  0.00    -0.275 OA
ATOM      4  H   UNL A   1      30.396  30.405  24.583  1.00  0.00     0.163 HD
ENDROOT
BRANCH   1   5
ATOM      5  C   UNL A   1      31.659  30.416  26.214  1.00  0.00     0.117 C 
BRANCH   5   6
ATOM      6  C   UNL A   1      31.465  31.894  26.494  1.00  0.00     0.042 C 
BRANCH   6   7
ATOM      7  C   UNL A   1      32.650  32.536  27.192  1.00  0.00     0.118 C 
BRANCH   7   8
ATOM      8  N   UNL A   1      32.413  33.924  27.573  1.00  0.00    -0.352 N 
ATOM      9  O   UNL A   1      32.550  35.825  28.774  1.00  0.00    -0.269 OA
ATOM     10  C   UNL A   1      33.020  34.726  28.514  1.00  0.00     0.251 C 
ATOM     11  H   UNL A   1      31.691  34.364  27.069  1.00  0.00     0.163 HD
BRANCH  10  12
ATOM     12  C   UNL A   1      34.209  34.245  29.252  1.00  0.00     0.039 A 
ATOM     13  C   UNL A   1      35.492  34.467  28.766  1.00  0.00     0.014 A 
ATOM     14  C   UNL A   1      34.039  33.560  30.460  1.00  0.00     0.014 A 
ATOM     15  C   UNL A   1      36.569  33.801  29.330  1.00  0.00     0.010 A 
ATOM     16  C   UNL A   1      35.150  33.019  31.118  1.00  0.00     0.010 A 
ATOM     17  C   UNL A   1      36.419  33.083  30.526  1.00  0.00    -0.014 A 
BRANCH  17  18
ATOM     18  C   UNL A   1      37.622  32.452  31.135  1.00  0.00     0.031 A 
ATOM     19  C   UNL A   1      38.051  32.782  32.539  1.00  0.00     0.074 A 
ATOM     20  C   UNL A   1      38.290  31.520  30.427  1.00  0.00     0.049 A 
ATOM     21  N   UNL A   1      39.043  32.285  33.235  1.00  0.00    -0.248 NA
ATOM     22  C   UNL A   1      37.279  33.809  33.255  1.00  0.00     0.031 C 
ATOM     23  C   UNL A   1      37.978  31.123  29.050  1.00  0.00     0.029 A 
ATOM     24  N   UNL A   1      39.339  30.706  30.772  1.00  0.00    -0.354 N 
ATOM     25  C   UNL A   1      39.038  32.962  34.448  1.00  0.00     0.074 A 
ATOM     26  C   UNL A   1      37.956  33.921  34.389  1.00  0.00     0.031 C 
ATOM     27  C   UNL A   1      38.755  30.091  28.700  1.00  0.00     0.029 A 
ATOM     28  C   UNL A   1      39.678  29.805  29.791  1.00  0.00     0.049 A 
ATOM     29  H   UNL A   1      39.804  30.762  31.638  1.00  0.00     0.167 HD
ATOM     30  C   UNL A   1      39.858  32.795  35.514  1.00  0.00     0.037 A 
ATOM     31  C   UNL A   1      40.635  28.860  29.764  1.00  0.00     0.037 A 
ATOM     32  C   UNL A   1      40.910  31.811  35.581  1.00  0.00     0.049 A 
ATOM     33  C   UNL A   1      41.522  28.693  30.962  1.00  0.00     0.074 A 
ATOM     34  C   UNL A   1      41.770  31.537  36.630  1.00  0.00     0.029 A 
ATOM     35  N   UNL A   1      41.242  30.938  34.555  1.00  0.00    -0.354 N 
ATOM     36  N   UNL A   1      41.490  29.327  32.109  1.00  0.00    -0.248 NA
ATOM     37  C   UNL A   1      42.582  27.684  30.859  1.00  0.00     0.031 C 
ATOM     38  C   UNL A   1      42.651  30.528  36.225  1.00  0.00     0.029 A 
ATOM     39  C   UNL A   1      42.306  30.137  34.941  1.00  0.00     0.049 A 
ATOM     40  H   UNL A   1      40.789  30.894  33.682  1.00  0.00     0.167 HD
ATOM     41  C   UNL A   1      42.510  28.780  32.872  1.00  0.00     0.074 A 
ATOM     42  C   UNL A   1      43.129  27.748  32.065  1.00  0.00     0.031 C 
ATOM     43  C   UNL A   1      42.902  29.107  34.128  1.00  0.00     0.037 A 
BRANCH  30  44
ATOM     44  C   UNL A   1      39.672  33.710  36.691  1.00  0.00     0.064 A 
ATOM     45  C   UNL A   1      38.874  33.357  37.789  1.00  0.00     0.173 A 
ATOM     46  C   UNL A   1      40.339  34.945  36.737  1.00  0.00     0.173 A 
ATOM     47  F   UNL A   1      38.205  32.195  37.791  1.00  0.00    -0.203 F 
ATOM     48  C   UNL A   1      38.730  34.216  38.877  1.00  0.00     0.198 A 
ATOM     49  C   UNL A   1      40.216  35.788  37.839  1.00  0.00     0.198 A 
ATOM     50  F   UNL A   1      41.121  35.331  35.718  1.00  0.00    -0.203 F 
ATOM     51  F   UNL A   1      37.926  33.876  39.894  1.00  0.00    -0.200 F 
ATOM     52  C   UNL A   1      39.406  35.427  38.904  1.00  0.00     0.200 A 
ATOM     53  F   UNL A   1      40.881  36.951  37.870  1.00  0.00    -0.200 F 
ATOM     54  F   UNL A   1      39.272  36.247  39.955  1.00  0.00    -0.200 F 
ENDBRANCH  30  44
BRANCH  31  55
ATOM     55  C   UNL A   1      40.794  28.003  28.561  1.00  0.00     0.064 A 
ATOM     56  C   UNL A   1      41.601  28.406  27.490  1.00  0.00     0.173 A 
ATOM     57  C   UNL A   1      40.154  26.758  28.464  1.00  0.00     0.173 A 
ATOM     58  F   UNL A   1      42.219  29.596  27.527  1.00  0.00    -0.203 F 
ATOM     59  C   UNL A   1      41.752  27.603  26.361  1.00  0.00     0.198 A 
ATOM     60  C   UNL A   1      40.331  25.942  27.351  1.00  0.00     0.198 A 
ATOM     61  F   UNL A   1      39.376  26.322  29.466  1.00  0.00    -0.203 F 
ATOM     62  F   UNL A   1      42.496  28.031  25.332  1.00  0.00    -0.200 F 
ATOM     63  C   UNL A   1      41.122  26.368  26.296  1.00  0.00     0.200 A 
ATOM     64  F   UNL A   1      39.738  24.742  27.301  1.00  0.00    -0.200 F 
ATOM     65  F   UNL A   1      41.275  25.593  25.214  1.00  0.00    -0.200 F 
ENDBRANCH  31  55
BRANCH  43  66
ATOM     66  C   UNL A   1      44.024  28.305  34.719  1.00  0.00     0.064 A 
ATOM     67  C   UNL A   1      43.793  27.089  35.379  1.00  0.00     0.173 A 
ATOM     68  C   UNL A   1      45.348  28.754  34.611  1.00  0.00     0.173 A 
ATOM     69  F   UNL A   1      42.542  26.625  35.522  1.00  0.00    -0.203 F 
ATOM     70  C   UNL A   1      44.844  26.369  35.940  1.00  0.00     0.198 A 
ATOM     71  C   UNL A   1      46.399  28.018  35.147  1.00  0.00     0.198 A 
ATOM     72  F   UNL A   1      45.621  29.909  33.984  1.00  0.00    -0.203 F 
ATOM     73  F   UNL A   1      44.595  25.240  36.616  1.00  0.00    -0.200 F 
ATOM     74  C   UNL A   1      46.146  26.831  35.819  1.00  0.00     0.200 A 
ATOM     75  F   UNL A   1      47.659  28.460  35.018  1.00  0.00    -0.200 F 
ATOM     76  F   UNL A   1      47.157  26.138  36.360  1.00  0.00    -0.200 F 
ENDBRANCH  43  66
ENDBRANCH  17  18
ENDBRANCH  10  12
ENDBRANCH   7   8
ENDBRANCH   6   7
ENDBRANCH   5   6
ENDBRANCH   1   5
BRANCH   2  77
ATOM     77  C   UNL A   1      33.309  28.763  24.172  1.00  0.00     0.098 C 
ATOM     78  C   UNL A   1      34.006  28.401  22.837  1.00  0.00     0.017 C 
ATOM     79  C   UNL A   1      33.307  27.525  25.072  1.00  0.00     0.132 C 
ATOM     80  C   UNL A   1      33.450  27.111  22.208  1.00  0.00     0.022 C 
ATOM     81  N   UNL A   1      32.676  26.400  24.407  1.00  0.00    -0.342 N 
ATOM     82  C   UNL A   1      33.390  25.967  23.220  1.00  0.00     0.119 C 
BRANCH  81  83
ATOM     83  C   UNL A   1      31.402  26.016  24.795  1.00  0.00     0.222 C 
ATOM     84  O   UNL A   1      30.616  26.809  25.321  1.00  0.00    -0.275 OA
BRANCH  83  85
ATOM     85  C   UNL A   1      30.984  24.567  24.637  1.00  0.00     0.100 C 
BRANCH  85  86
ATOM     86  C   UNL A   1      30.769  23.809  25.952  1.00  0.00     0.015 C 
BRANCH  86  87
ATOM     87  C   UNL A   1      31.668  22.585  26.203  1.00  0.00     0.047 C 
BRANCH  87  88
ATOM     88  C   UNL A   1      33.120  22.816  25.879  1.00  0.00     0.006 A 
ATOM     89  C   UNL A   1      34.015  23.701  26.453  1.00  0.00     0.016 A 
ATOM     90  S   UNL A   1      33.868  21.936  24.602  1.00  0.00    -0.133 S 
ATOM     91  C   UNL A   1      35.216  23.822  25.690  1.00  0.00     0.028 A 
ATOM     92  C   UNL A   1      35.214  22.960  24.623  1.00  0.00     0.070 A 
ATOM     93  Br  UNL A   1      36.553  22.918  23.315  1.00  0.00    -0.039 Br
ENDBRANCH  87  88
ENDBRANCH  86  87
ENDBRANCH  85  86
ENDBRANCH  83  85
ENDBRANCH  81  83
ENDBRANCH   2  77
TORSDOF 15
ENDMDL
