MODEL 1
REMARK VINA RESULT:     -14.4      0.000      0.000
REMARK SMILES CC1(C)S[C@@H]2c3ccccc3C(=O)N2[C@H]1C(=O)N[C@H](Cc1c[nH]c2ccccc12)C(=O)NCCCNC(=O)c1ccc(-c2c3nc(c(-c4c(F)c(F)c(F)c(F)c4F)c4ccc([nH]4)c(-c4c(F)c(F)c(F)c(F)c4F)c4nc(c(-c5c(F)c(F)c(F)c(F)c5F)c5ccc2[nH]5)C=C4)C=C3)cc1
REMARK SMILES IDX 34 1 33 2 32 3 30 4 31 5 19 7 18 8 16 9 17 10 15 12 1 13
REMARK SMILES IDX 2 14 3 15 4 16 5 17 14 18 6 19 12 20 7 21 11 22 13 23 8 24
REMARK SMILES IDX 10 25 9 26 20 27 21 28 22 29 29 30 23 31 24 32 28 33 25 35
REMARK SMILES IDX 27 36 26 37 35 38 36 39 37 40 38 42 39 43 40 44 101 45 41 46
REMARK SMILES IDX 100 47 42 48 43 49 44 50 94 51 45 52 99 53 93 54 95 55 46 56
REMARK SMILES IDX 98 57 92 58 91 59 47 61 79 62 59 63 78 64 60 65 63 66 77 67
REMARK SMILES IDX 96 68 61 69 62 70 76 72 97 73 64 74 48 75 49 76 57 77 50 78
REMARK SMILES IDX 51 79 55 80 58 81 52 82 53 83 56 84 54 85 80 86 81 87 89 88
REMARK SMILES IDX 82 89 83 90 87 91 90 92 84 93 85 94 88 95 86 96 65 97 66 98
REMARK SMILES IDX 74 99 67 100 68 101 72 102 75 103 69 104 70 105 73 106
REMARK SMILES IDX 71 107
REMARK H PARENT 32 6 18 11 23 34 36 41 95 60 63 71
REMARK Flexibility Score: inf
ROOT
ATOM      1  C   UNL A   1      35.470  21.914  24.298  1.00  0.00     0.042 C 
ENDROOT
BRANCH   1   2
ATOM      2  C   UNL A   1      36.268  22.887  23.391  1.00  0.00     0.117 C 
BRANCH   2   3
ATOM      3  N   UNL A   1      35.203  23.682  22.371  1.00  0.00    -0.354 N 
ATOM      4  C   UNL A   1      33.750  24.913  21.971  1.00  0.00     0.242 C 
ATOM      5  O   UNL A   1      33.402  25.267  20.823  1.00  0.00    -0.273 OA
ATOM      6  H   UNL A   1      35.449  23.336  21.483  1.00  0.00     0.163 HD
BRANCH   4   7
ATOM      7  C   UNL A   1      32.904  26.020  23.061  1.00  0.00     0.175 C 
BRANCH   7   8
ATOM      8  N   UNL A   1      31.486  26.034  22.946  1.00  0.00    -0.342 N 
ATOM      9  C   UNL A   1      30.855  25.017  23.546  1.00  0.00     0.244 C 
ATOM     10  O   UNL A   1      29.651  24.825  23.460  1.00  0.00    -0.273 OA
ATOM     11  H   UNL A   1      31.003  26.741  22.461  1.00  0.00     0.164 HD
BRANCH   9  12
ATOM     12  C   UNL A   1      31.851  24.033  24.079  1.00  0.00     0.191 C 
ATOM     13  C   UNL A   1      31.531  25.557  26.683  1.00  0.00     0.026 C 
ATOM     14  C   UNL A   1      32.478  24.576  25.942  1.00  0.00     0.042 C 
ATOM     15  C   UNL A   1      33.839  25.310  25.899  1.00  0.00     0.026 C 
ATOM     16  S   UNL A   1      32.725  22.628  27.349  1.00  0.00    -0.123 SA
ATOM     17  C   UNL A   1      31.727  21.170  25.698  1.00  0.00     0.176 C 
ATOM     18  N   UNL A   1      31.412  22.121  24.073  1.00  0.00    -0.309 N 
ATOM     19  C   UNL A   1      32.527  20.049  25.107  1.00  0.00    -0.002 A 
ATOM     20  C   UNL A   1      31.683  21.223  23.062  1.00  0.00     0.256 C 
ATOM     21  C   UNL A   1      33.217  19.045  25.766  1.00  0.00     0.007 A 
ATOM     22  C   UNL A   1      32.357  20.011  23.688  1.00  0.00     0.046 A 
ATOM     23  O   UNL A   1      31.617  21.430  21.863  1.00  0.00    -0.269 OA
ATOM     24  C   UNL A   1      33.803  18.033  24.997  1.00  0.00     0.000 A 
ATOM     25  C   UNL A   1      32.954  19.010  22.932  1.00  0.00     0.014 A 
ATOM     26  C   UNL A   1      33.681  18.019  23.596  1.00  0.00     0.001 A 
ENDBRANCH   9  12
ENDBRANCH   7   8
BRANCH   7  27
ATOM     27  C   UNL A   1      33.434  27.496  22.901  1.00  0.00     0.072 C 
BRANCH  27  28
ATOM     28  C   UNL A   1      32.746  28.554  23.738  1.00  0.00    -0.020 A 
ATOM     29  C   UNL A   1      31.651  29.308  23.363  1.00  0.00     0.087 A 
ATOM     30  C   UNL A   1      33.127  29.033  25.041  1.00  0.00     0.003 A 
ATOM     31  N   UNL A   1      31.260  30.078  24.423  1.00  0.00    -0.361 N 
ATOM     32  C   UNL A   1      32.161  29.954  25.452  1.00  0.00     0.046 A 
ATOM     33  C   UNL A   1      34.205  28.774  25.914  1.00  0.00     0.010 A 
ATOM     34  H   UNL A   1      30.451  30.639  24.446  1.00  0.00     0.166 HD
ATOM     35  C   UNL A   1      32.194  30.594  26.698  1.00  0.00     0.026 A 
ATOM     36  C   UNL A   1      34.273  29.434  27.149  1.00  0.00     0.001 A 
ATOM     37  C   UNL A   1      33.275  30.323  27.538  1.00  0.00     0.002 A 
ENDBRANCH  27  28
ENDBRANCH   7  27
ENDBRANCH   4   7
ENDBRANCH   2   3
ENDBRANCH   1   2
BRANCH   1  38
ATOM     38  C   UNL A   1      36.101  21.728  25.674  1.00  0.00     0.118 C 
BRANCH  38  39
ATOM     39  N   UNL A   1      37.305  20.915  25.669  1.00  0.00    -0.352 N 
ATOM     40  C   UNL A   1      38.633  21.113  25.949  1.00  0.00     0.251 C 
ATOM     41  H   UNL A   1      37.121  19.987  25.397  1.00  0.00     0.163 HD
ATOM     42  O   UNL A   1      39.366  20.131  25.808  1.00  0.00    -0.269 OA
BRANCH  40  43
ATOM     43  C   UNL A   1      39.258  22.402  26.372  1.00  0.00     0.039 A 
ATOM     44  C   UNL A   1      38.790  23.668  26.042  1.00  0.00     0.014 A 
ATOM     45  C   UNL A   1      40.379  22.320  27.224  1.00  0.00     0.014 A 
ATOM     46  C   UNL A   1      39.469  24.817  26.473  1.00  0.00     0.010 A 
ATOM     47  C   UNL A   1      41.018  23.471  27.715  1.00  0.00     0.010 A 
ATOM     48  C   UNL A   1      40.583  24.740  27.324  1.00  0.00    -0.014 A 
BRANCH  48  49
ATOM     49  C   UNL A   1      41.259  25.992  27.777  1.00  0.00     0.031 A 
ATOM     50  C   UNL A   1      42.661  26.326  27.335  1.00  0.00     0.074 A 
ATOM     51  C   UNL A   1      40.579  26.882  28.530  1.00  0.00     0.049 A 
ATOM     52  N   UNL A   1      43.387  27.381  27.617  1.00  0.00    -0.248 NA
ATOM     53  C   UNL A   1      43.344  25.347  26.477  1.00  0.00     0.031 C 
ATOM     54  C   UNL A   1      39.221  26.686  29.039  1.00  0.00     0.029 A 
ATOM     55  N   UNL A   1      40.907  28.149  28.949  1.00  0.00    -0.354 N 
ATOM     56  C   UNL A   1      44.620  27.171  27.013  1.00  0.00     0.074 A 
ATOM     57  C   UNL A   1      44.549  25.887  26.348  1.00  0.00     0.031 C 
ATOM     58  C   UNL A   1      38.790  27.827  29.598  1.00  0.00     0.029 A 
ATOM     59  C   UNL A   1      39.865  28.814  29.554  1.00  0.00     0.049 A 
ATOM     60  H   UNL A   1      41.801  28.543  28.829  1.00  0.00     0.167 HD
ATOM     61  C   UNL A   1      45.710  27.975  27.008  1.00  0.00     0.037 A 
ATOM     62  C   UNL A   1      39.780  30.076  30.016  1.00  0.00     0.037 A 
ATOM     63  C   UNL A   1      45.769  29.278  27.615  1.00  0.00     0.049 A 
ATOM     64  C   UNL A   1      40.988  30.965  29.961  1.00  0.00     0.074 A 
ATOM     65  C   UNL A   1      46.833  30.164  27.661  1.00  0.00     0.029 A 
ATOM     66  N   UNL A   1      44.710  29.894  28.264  1.00  0.00    -0.354 N 
ATOM     67  N   UNL A   1      42.164  30.725  29.438  1.00  0.00    -0.248 NA
ATOM     68  C   UNL A   1      40.868  32.288  30.593  1.00  0.00     0.031 C 
ATOM     69  C   UNL A   1      46.422  31.310  28.351  1.00  0.00     0.029 A 
ATOM     70  C   UNL A   1      45.095  31.148  28.713  1.00  0.00     0.049 A 
ATOM     71  H   UNL A   1      43.817  29.500  28.387  1.00  0.00     0.167 HD
ATOM     72  C   UNL A   1      42.933  31.849  29.700  1.00  0.00     0.074 A 
ATOM     73  C   UNL A   1      42.077  32.793  30.389  1.00  0.00     0.031 C 
ATOM     74  C   UNL A   1      44.238  32.067  29.414  1.00  0.00     0.037 A 
BRANCH  61  75
ATOM     75  C   UNL A   1      46.950  27.463  26.335  1.00  0.00     0.064 A 
ATOM     76  C   UNL A   1      47.179  27.655  24.966  1.00  0.00     0.173 A 
ATOM     77  C   UNL A   1      47.946  26.819  27.086  1.00  0.00     0.173 A 
ATOM     78  F   UNL A   1      46.250  28.255  24.205  1.00  0.00    -0.203 F 
ATOM     79  C   UNL A   1      48.354  27.208  24.367  1.00  0.00     0.198 A 
ATOM     80  C   UNL A   1      49.130  26.392  26.488  1.00  0.00     0.198 A 
ATOM     81  F   UNL A   1      47.778  26.616  28.400  1.00  0.00    -0.203 F 
ATOM     82  F   UNL A   1      48.540  27.374  23.051  1.00  0.00    -0.200 F 
ATOM     83  C   UNL A   1      49.331  26.583  25.130  1.00  0.00     0.200 A 
ATOM     84  F   UNL A   1      50.077  25.797  27.227  1.00  0.00    -0.200 F 
ATOM     85  F   UNL A   1      50.465  26.161  24.553  1.00  0.00    -0.200 F 
ENDBRANCH  61  75
BRANCH  62  86
ATOM     86  C   UNL A   1      38.490  30.572  30.563  1.00  0.00     0.064 A 
ATOM     87  C   UNL A   1      38.271  30.620  31.947  1.00  0.00     0.173 A 
ATOM     88  C   UNL A   1      37.471  31.044  29.724  1.00  0.00     0.173 A 
ATOM     89  F   UNL A   1      39.207  30.155  32.789  1.00  0.00    -0.203 F 
ATOM     90  C   UNL A   1      37.086  31.130  32.471  1.00  0.00     0.198 A 
ATOM     91  C   UNL A   1      36.297  31.578  30.249  1.00  0.00     0.198 A 
ATOM     92  F   UNL A   1      37.632  31.018  28.393  1.00  0.00    -0.203 F 
ATOM     93  F   UNL A   1      36.894  31.150  33.796  1.00  0.00    -0.200 F 
ATOM     94  C   UNL A   1      36.104  31.620  31.621  1.00  0.00     0.200 A 
ATOM     95  F   UNL A   1      35.358  32.065  29.426  1.00  0.00    -0.200 F 
ATOM     96  F   UNL A   1      34.974  32.133  32.127  1.00  0.00    -0.200 F 
ENDBRANCH  62  86
BRANCH  74  97
ATOM     97  C   UNL A   1      44.831  33.362  29.875  1.00  0.00     0.064 A 
ATOM     98  C   UNL A   1      44.775  34.508  29.069  1.00  0.00     0.173 A 
ATOM     99  C   UNL A   1      45.411  33.475  31.146  1.00  0.00     0.173 A 
ATOM    100  F   UNL A   1      44.240  34.441  27.840  1.00  0.00    -0.203 F 
ATOM    101  C   UNL A   1      45.291  35.720  29.514  1.00  0.00     0.198 A 
ATOM    102  C   UNL A   1      45.912  34.694  31.595  1.00  0.00     0.198 A 
ATOM    103  F   UNL A   1      45.485  32.406  31.954  1.00  0.00    -0.203 F 
ATOM    104  F   UNL A   1      45.252  36.797  28.718  1.00  0.00    -0.200 F 
ATOM    105  C   UNL A   1      45.853  35.814  30.778  1.00  0.00     0.200 A 
ATOM    106  F   UNL A   1      46.451  34.786  32.819  1.00  0.00    -0.200 F 
ATOM    107  F   UNL A   1      46.346  36.984  31.209  1.00  0.00    -0.200 F 
ENDBRANCH  74  97
ENDBRANCH  48  49
ENDBRANCH  40  43
ENDBRANCH  38  39
ENDBRANCH   1  38
TORSDOF 14
ENDMDL
MODEL 2
REMARK VINA RESULT:     -14.0     10.186     14.890
REMARK SMILES CC1(C)S[C@@H]2c3ccccc3C(=O)N2[C@H]1C(=O)N[C@H](Cc1c[nH]c2ccccc12)C(=O)NCCCNC(=O)c1ccc(-c2c3nc(c(-c4c(F)c(F)c(F)c(F)c4F)c4ccc([nH]4)c(-c4c(F)c(F)c(F)c(F)c4F)c4nc(c(-c5c(F)c(F)c(F)c(F)c5F)c5ccc2[nH]5)C=C4)C=C3)cc1
REMARK SMILES IDX 34 1 33 2 32 3 30 4 31 5 19 7 18 8 16 9 17 10 15 12 1 13
REMARK SMILES IDX 2 14 3 15 4 16 5 17 14 18 6 19 12 20 7 21 11 22 13 23 8 24
REMARK SMILES IDX 10 25 9 26 20 27 21 28 22 29 29 30 23 31 24 32 28 33 25 35
REMARK SMILES IDX 27 36 26 37 35 38 36 39 37 40 38 42 39 43 40 44 101 45 41 46
REMARK SMILES IDX 100 47 42 48 43 49 44 50 94 51 45 52 99 53 93 54 95 55 46 56
REMARK SMILES IDX 98 57 92 58 91 59 47 61 79 62 59 63 78 64 60 65 63 66 77 67
REMARK SMILES IDX 96 68 61 69 62 70 76 72 97 73 64 74 48 75 49 76 57 77 50 78
REMARK SMILES IDX 51 79 55 80 58 81 52 82 53 83 56 84 54 85 80 86 81 87 89 88
REMARK SMILES IDX 82 89 83 90 87 91 90 92 84 93 85 94 88 95 86 96 65 97 66 98
REMARK SMILES IDX 74 99 67 100 68 101 72 102 75 103 69 104 70 105 73 106
REMARK SMILES IDX 71 107
REMARK H PARENT 32 6 18 11 23 34 36 41 95 60 63 71
REMARK Flexibility Score: inf
ROOT
ATOM      1  C   UNL A   1      47.050  22.333  36.887  1.00  0.00     0.042 C 
ENDROOT
BRANCH   1   2
ATOM      2  C   UNL A   1      47.674  20.984  36.440  1.00  0.00     0.117 C 
BRANCH   2   3
ATOM      3  N   UNL A   1      46.669  19.732  36.918  1.00  0.00    -0.354 N 
ATOM      4  C   UNL A   1      45.950  18.454  38.197  1.00  0.00     0.242 C 
ATOM      5  O   UNL A   1      44.955  17.723  38.002  1.00  0.00    -0.273 OA
ATOM      6  H   UNL A   1      46.162  19.532  36.099  1.00  0.00     0.163 HD
BRANCH   4   7
ATOM      7  C   UNL A   1      46.279  18.318  39.930  1.00  0.00     0.175 C 
BRANCH   7   8
ATOM      8  N   UNL A   1      45.956  19.464  40.711  1.00  0.00    -0.342 N 
ATOM      9  C   UNL A   1      45.470  19.205  41.930  1.00  0.00     0.244 C 
ATOM     10  O   UNL A   1      45.052  20.068  42.688  1.00  0.00    -0.273 OA
ATOM     11  H   UNL A   1      46.081  20.382  40.377  1.00  0.00     0.164 HD
BRANCH   9  12
ATOM     12  C   UNL A   1      45.262  17.731  42.102  1.00  0.00     0.191 C 
ATOM     13  C   UNL A   1      46.410  18.184  44.875  1.00  0.00     0.026 C 
ATOM     14  C   UNL A   1      46.133  17.074  43.826  1.00  0.00     0.042 C 
ATOM     15  C   UNL A   1      47.516  16.434  43.564  1.00  0.00     0.026 C 
ATOM     16  S   UNL A   1      44.736  15.419  44.897  1.00  0.00    -0.123 SA
ATOM     17  C   UNL A   1      42.914  15.794  43.353  1.00  0.00     0.176 C 
ATOM     18  N   UNL A   1      43.450  16.993  41.967  1.00  0.00    -0.309 N 
ATOM     19  C   UNL A   1      42.441  14.682  42.466  1.00  0.00    -0.002 A 
ATOM     20  C   UNL A   1      42.839  16.528  40.821  1.00  0.00     0.256 C 
ATOM     21  C   UNL A   1      42.045  13.404  42.826  1.00  0.00     0.007 A 
ATOM     22  C   UNL A   1      42.263  15.153  41.129  1.00  0.00     0.046 A 
ATOM     23  O   UNL A   1      42.929  17.001  39.702  1.00  0.00    -0.269 OA
ATOM     24  C   UNL A   1      41.533  12.567  41.830  1.00  0.00     0.000 A 
ATOM     25  C   UNL A   1      41.766  14.310  40.143  1.00  0.00     0.014 A 
ATOM     26  C   UNL A   1      41.402  13.011  40.502  1.00  0.00     0.001 A 
ENDBRANCH   9  12
ENDBRANCH   7   8
BRANCH   7  27
ATOM     27  C   UNL A   1      47.785  17.938  40.199  1.00  0.00     0.072 C 
BRANCH  27  28
ATOM     28  C   UNL A   1      48.757  19.090  40.334  1.00  0.00    -0.020 A 
ATOM     29  C   UNL A   1      49.218  19.896  39.311  1.00  0.00     0.087 A 
ATOM     30  C   UNL A   1      49.443  19.530  41.521  1.00  0.00     0.003 A 
ATOM     31  N   UNL A   1      49.997  20.886  39.843  1.00  0.00    -0.361 N 
ATOM     32  C   UNL A   1      50.178  20.670  41.187  1.00  0.00     0.046 A 
ATOM     33  C   UNL A   1      49.514  19.066  42.852  1.00  0.00     0.010 A 
ATOM     34  H   UNL A   1      50.373  21.642  39.337  1.00  0.00     0.166 HD
ATOM     35  C   UNL A   1      50.941  21.389  42.115  1.00  0.00     0.026 A 
ATOM     36  C   UNL A   1      50.303  19.753  43.786  1.00  0.00     0.001 A 
ATOM     37  C   UNL A   1      50.997  20.904  43.423  1.00  0.00     0.002 A 
ENDBRANCH  27  28
ENDBRANCH   7  27
ENDBRANCH   4   7
ENDBRANCH   2   3
ENDBRANCH   1   2
BRANCH   1  38
ATOM     38  C   UNL A   1      47.318  23.468  35.905  1.00  0.00     0.118 C 
BRANCH  38  39
ATOM     39  N   UNL A   1      47.808  24.687  36.526  1.00  0.00    -0.352 N 
ATOM     40  C   UNL A   1      47.443  26.008  36.535  1.00  0.00     0.251 C 
ATOM     41  H   UNL A   1      48.603  24.522  37.083  1.00  0.00     0.163 HD
ATOM     42  O   UNL A   1      48.154  26.760  37.207  1.00  0.00    -0.269 OA
BRANCH  40  43
ATOM     43  C   UNL A   1      46.297  26.607  35.787  1.00  0.00     0.039 A 
ATOM     44  C   UNL A   1      44.965  26.232  35.922  1.00  0.00     0.014 A 
ATOM     45  C   UNL A   1      46.590  27.678  34.917  1.00  0.00     0.014 A 
ATOM     46  C   UNL A   1      43.968  26.846  35.151  1.00  0.00     0.010 A 
ATOM     47  C   UNL A   1      45.583  28.341  34.197  1.00  0.00     0.010 A 
ATOM     48  C   UNL A   1      44.255  27.915  34.287  1.00  0.00    -0.014 A 
BRANCH  48  49
ATOM     49  C   UNL A   1      43.155  28.553  33.504  1.00  0.00     0.031 A 
ATOM     50  C   UNL A   1      42.855  28.126  32.090  1.00  0.00     0.074 A 
ATOM     51  C   UNL A   1      42.362  29.471  34.095  1.00  0.00     0.049 A 
ATOM     52  N   UNL A   1      41.923  28.559  31.276  1.00  0.00    -0.248 NA
ATOM     53  C   UNL A   1      43.717  27.088  31.506  1.00  0.00     0.031 C 
ATOM     54  C   UNL A   1      42.542  29.987  35.452  1.00  0.00     0.029 A 
ATOM     55  N   UNL A   1      41.215  30.091  33.657  1.00  0.00    -0.354 N 
ATOM     56  C   UNL A   1      42.115  27.884  30.077  1.00  0.00     0.074 A 
ATOM     57  C   UNL A   1      43.255  27.012  30.265  1.00  0.00     0.031 C 
ATOM     58  C   UNL A   1      41.487  30.748  35.778  1.00  0.00     0.029 A 
ATOM     59  C   UNL A   1      40.591  30.838  34.629  1.00  0.00     0.049 A 
ATOM     60  H   UNL A   1      40.875  30.009  32.738  1.00  0.00     0.167 HD
ATOM     61  C   UNL A   1      41.407  27.980  28.927  1.00  0.00     0.037 A 
ATOM     62  C   UNL A   1      39.426  31.513  34.603  1.00  0.00     0.037 A 
ATOM     63  C   UNL A   1      40.237  28.800  28.750  1.00  0.00     0.049 A 
ATOM     64  C   UNL A   1      38.633  31.569  33.330  1.00  0.00     0.074 A 
ATOM     65  C   UNL A   1      39.455  28.960  27.619  1.00  0.00     0.029 A 
ATOM     66  N   UNL A   1      39.667  29.582  29.743  1.00  0.00    -0.354 N 
ATOM     67  N   UNL A   1      38.866  30.971  32.189  1.00  0.00    -0.248 NA
ATOM     68  C   UNL A   1      37.436  32.424  33.330  1.00  0.00     0.031 C 
ATOM     69  C   UNL A   1      38.420  29.851  27.922  1.00  0.00     0.029 A 
ATOM     70  C   UNL A   1      38.543  30.226  29.249  1.00  0.00     0.049 A 
ATOM     71  H   UNL A   1      40.009  29.667  30.662  1.00  0.00     0.167 HD
ATOM     72  C   UNL A   1      37.865  31.395  31.327  1.00  0.00     0.074 A 
ATOM     73  C   UNL A   1      36.994  32.266  32.089  1.00  0.00     0.031 C 
ATOM     74  C   UNL A   1      37.699  31.105  30.015  1.00  0.00     0.037 A 
BRANCH  61  75
ATOM     75  C   UNL A   1      41.885  27.186  27.747  1.00  0.00     0.064 A 
ATOM     76  C   UNL A   1      42.829  27.698  26.847  1.00  0.00     0.173 A 
ATOM     77  C   UNL A   1      41.431  25.872  27.548  1.00  0.00     0.173 A 
ATOM     78  F   UNL A   1      43.284  28.953  26.989  1.00  0.00    -0.203 F 
ATOM     79  C   UNL A   1      43.291  26.931  25.780  1.00  0.00     0.198 A 
ATOM     80  C   UNL A   1      41.911  25.100  26.493  1.00  0.00     0.198 A 
ATOM     81  F   UNL A   1      40.533  25.334  28.385  1.00  0.00    -0.203 F 
ATOM     82  F   UNL A   1      44.170  27.451  24.913  1.00  0.00    -0.200 F 
ATOM     83  C   UNL A   1      42.837  25.631  25.609  1.00  0.00     0.200 A 
ATOM     84  F   UNL A   1      41.479  23.841  26.333  1.00  0.00    -0.200 F 
ATOM     85  F   UNL A   1      43.290  24.892  24.586  1.00  0.00    -0.200 F 
ENDBRANCH  61  75
BRANCH  62  86
ATOM     86  C   UNL A   1      38.938  32.182  35.837  1.00  0.00     0.064 A 
ATOM     87  C   UNL A   1      38.151  31.484  36.765  1.00  0.00     0.173 A 
ATOM     88  C   UNL A   1      39.277  33.509  36.136  1.00  0.00     0.173 A 
ATOM     89  F   UNL A   1      37.779  30.221  36.511  1.00  0.00    -0.203 F 
ATOM     90  C   UNL A   1      37.731  32.086  37.949  1.00  0.00     0.198 A 
ATOM     91  C   UNL A   1      38.878  34.101  37.332  1.00  0.00     0.198 A 
ATOM     92  F   UNL A   1      40.026  34.218  35.280  1.00  0.00    -0.203 F 
ATOM     93  F   UNL A   1      36.966  31.404  38.812  1.00  0.00    -0.200 F 
ATOM     94  C   UNL A   1      38.105  33.391  38.237  1.00  0.00     0.200 A 
ATOM     95  F   UNL A   1      39.255  35.356  37.612  1.00  0.00    -0.200 F 
ATOM     96  F   UNL A   1      37.721  33.962  39.387  1.00  0.00    -0.200 F 
ENDBRANCH  62  86
BRANCH  74  97
ATOM     97  C   UNL A   1      36.552  31.761  29.310  1.00  0.00     0.064 A 
ATOM     98  C   UNL A   1      35.434  31.018  28.907  1.00  0.00     0.173 A 
ATOM     99  C   UNL A   1      36.544  33.144  29.083  1.00  0.00     0.173 A 
ATOM    100  F   UNL A   1      35.405  29.689  29.094  1.00  0.00    -0.203 F 
ATOM    101  C   UNL A   1      34.352  31.634  28.288  1.00  0.00     0.198 A 
ATOM    102  C   UNL A   1      35.453  33.761  28.478  1.00  0.00     0.198 A 
ATOM    103  F   UNL A   1      37.592  33.897  29.454  1.00  0.00    -0.203 F 
ATOM    104  F   UNL A   1      33.304  30.902  27.886  1.00  0.00    -0.200 F 
ATOM    105  C   UNL A   1      34.359  33.006  28.080  1.00  0.00     0.200 A 
ATOM    106  F   UNL A   1      35.458  35.086  28.281  1.00  0.00    -0.200 F 
ATOM    107  F   UNL A   1      33.314  33.600  27.487  1.00  0.00    -0.200 F 
ENDBRANCH  74  97
ENDBRANCH  48  49
ENDBRANCH  40  43
ENDBRANCH  38  39
ENDBRANCH   1  38
TORSDOF 14
ENDMDL
MODEL 3
REMARK VINA RESULT:     -14.0      7.909     16.614
REMARK SMILES CC1(C)S[C@@H]2c3ccccc3C(=O)N2[C@H]1C(=O)N[C@H](Cc1c[nH]c2ccccc12)C(=O)NCCCNC(=O)c1ccc(-c2c3nc(c(-c4c(F)c(F)c(F)c(F)c4F)c4ccc([nH]4)c(-c4c(F)c(F)c(F)c(F)c4F)c4nc(c(-c5c(F)c(F)c(F)c(F)c5F)c5ccc2[nH]5)C=C4)C=C3)cc1
REMARK SMILES IDX 34 1 33 2 32 3 30 4 31 5 19 7 18 8 16 9 17 10 15 12 1 13
REMARK SMILES IDX 2 14 3 15 4 16 5 17 14 18 6 19 12 20 7 21 11 22 13 23 8 24
REMARK SMILES IDX 10 25 9 26 20 27 21 28 22 29 29 30 23 31 24 32 28 33 25 35
REMARK SMILES IDX 27 36 26 37 35 38 36 39 37 40 38 42 39 43 40 44 101 45 41 46
REMARK SMILES IDX 100 47 42 48 43 49 44 50 94 51 45 52 99 53 93 54 95 55 46 56
REMARK SMILES IDX 98 57 92 58 91 59 47 61 79 62 59 63 78 64 60 65 63 66 77 67
REMARK SMILES IDX 96 68 61 69 62 70 76 72 97 73 64 74 48 75 49 76 57 77 50 78
REMARK SMILES IDX 51 79 55 80 58 81 52 82 53 83 56 84 54 85 80 86 81 87 89 88
REMARK SMILES IDX 82 89 83 90 87 91 90 92 84 93 85 94 88 95 86 96 65 97 66 98
REMARK SMILES IDX 74 99 67 100 68 101 72 102 75 103 69 104 70 105 73 106
REMARK SMILES IDX 71 107
REMARK H PARENT 32 6 18 11 23 34 36 41 95 60 63 71
REMARK Flexibility Score: inf
ROOT
ATOM      1  C   UNL A   1      44.329  39.667  27.845  1.00  0.00     0.042 C 
ENDROOT
BRANCH   1   2
ATOM      2  C   UNL A   1      43.035  40.510  27.987  1.00  0.00     0.117 C 
BRANCH   2   3
ATOM      3  N   UNL A   1      42.775  41.357  26.565  1.00  0.00    -0.354 N 
ATOM      4  C   UNL A   1      43.326  42.438  25.045  1.00  0.00     0.242 C 
ATOM      5  O   UNL A   1      42.606  42.719  24.062  1.00  0.00    -0.273 OA
ATOM      6  H   UNL A   1      41.808  41.245  26.416  1.00  0.00     0.163 HD
BRANCH   4   7
ATOM      7  C   UNL A   1      44.959  42.916  24.560  1.00  0.00     0.175 C 
BRANCH   7   8
ATOM      8  N   UNL A   1      45.811  41.857  24.138  1.00  0.00    -0.342 N 
ATOM      9  C   UNL A   1      46.243  41.940  22.874  1.00  0.00     0.244 C 
ATOM     10  O   UNL A   1      46.898  41.067  22.326  1.00  0.00    -0.273 OA
ATOM     11  H   UNL A   1      46.065  41.115  24.734  1.00  0.00     0.164 HD
BRANCH   9  12
ATOM     12  C   UNL A   1      45.584  43.092  22.178  1.00  0.00     0.191 C 
ATOM     13  C   UNL A   1      48.415  44.127  21.827  1.00  0.00     0.026 C 
ATOM     14  C   UNL A   1      46.931  44.578  21.806  1.00  0.00     0.042 C 
ATOM     15  C   UNL A   1      46.852  45.704  22.864  1.00  0.00     0.026 C 
ATOM     16  S   UNL A   1      46.520  45.563  19.639  1.00  0.00    -0.123 SA
ATOM     17  C   UNL A   1      44.870  43.892  19.066  1.00  0.00     0.176 C 
ATOM     18  N   UNL A   1      44.521  42.759  20.564  1.00  0.00    -0.309 N 
ATOM     19  C   UNL A   1      43.451  44.298  18.804  1.00  0.00    -0.002 A 
ATOM     20  C   UNL A   1      43.169  42.491  20.515  1.00  0.00     0.256 C 
ATOM     21  C   UNL A   1      42.980  45.253  17.918  1.00  0.00     0.007 A 
ATOM     22  C   UNL A   1      42.549  43.421  19.482  1.00  0.00     0.046 A 
ATOM     23  O   UNL A   1      42.530  41.810  21.299  1.00  0.00    -0.269 OA
ATOM     24  C   UNL A   1      41.596  45.382  17.762  1.00  0.00     0.000 A 
ATOM     25  C   UNL A   1      41.176  43.566  19.331  1.00  0.00     0.014 A 
ATOM     26  C   UNL A   1      40.703  44.554  18.465  1.00  0.00     0.001 A 
ENDBRANCH   9  12
ENDBRANCH   7   8
BRANCH   7  27
ATOM     27  C   UNL A   1      45.686  43.716  25.708  1.00  0.00     0.072 C 
BRANCH  27  28
ATOM     28  C   UNL A   1      46.286  42.893  26.826  1.00  0.00    -0.020 A 
ATOM     29  C   UNL A   1      47.264  41.925  26.695  1.00  0.00     0.087 A 
ATOM     30  C   UNL A   1      45.920  42.896  28.219  1.00  0.00     0.003 A 
ATOM     31  N   UNL A   1      47.617  41.480  27.940  1.00  0.00    -0.361 N 
ATOM     32  C   UNL A   1      46.791  42.033  28.888  1.00  0.00     0.046 A 
ATOM     33  C   UNL A   1      44.927  43.549  28.978  1.00  0.00     0.010 A 
ATOM     34  H   UNL A   1      48.354  40.855  28.128  1.00  0.00     0.166 HD
ATOM     35  C   UNL A   1      46.748  41.821  30.272  1.00  0.00     0.026 A 
ATOM     36  C   UNL A   1      44.846  43.321  30.360  1.00  0.00     0.001 A 
ATOM     37  C   UNL A   1      45.751  42.477  30.997  1.00  0.00     0.002 A 
ENDBRANCH  27  28
ENDBRANCH   7  27
ENDBRANCH   4   7
ENDBRANCH   2   3
ENDBRANCH   1   2
BRANCH   1  38
ATOM     38  C   UNL A   1      44.573  38.744  29.034  1.00  0.00     0.118 C 
BRANCH  38  39
ATOM     39  N   UNL A   1      45.964  38.363  29.214  1.00  0.00    -0.352 N 
ATOM     40  C   UNL A   1      46.675  37.191  29.216  1.00  0.00     0.251 C 
ATOM     41  H   UNL A   1      46.541  39.144  29.374  1.00  0.00     0.163 HD
ATOM     42  O   UNL A   1      47.887  37.295  29.424  1.00  0.00    -0.269 OA
BRANCH  40  43
ATOM     43  C   UNL A   1      46.111  35.821  29.022  1.00  0.00     0.039 A 
ATOM     44  C   UNL A   1      45.476  35.369  27.871  1.00  0.00     0.014 A 
ATOM     45  C   UNL A   1      46.293  34.899  30.074  1.00  0.00     0.014 A 
ATOM     46  C   UNL A   1      44.961  34.067  27.803  1.00  0.00     0.010 A 
ATOM     47  C   UNL A   1      45.840  33.573  29.979  1.00  0.00     0.010 A 
ATOM     48  C   UNL A   1      45.143  33.145  28.847  1.00  0.00    -0.014 A 
BRANCH  48  49
ATOM     49  C   UNL A   1      44.596  31.762  28.718  1.00  0.00     0.031 A 
ATOM     50  C   UNL A   1      43.204  31.426  29.188  1.00  0.00     0.074 A 
ATOM     51  C   UNL A   1      45.327  30.811  28.100  1.00  0.00     0.049 A 
ATOM     52  N   UNL A   1      42.566  30.282  29.132  1.00  0.00    -0.248 NA
ATOM     53  C   UNL A   1      42.429  32.508  29.812  1.00  0.00     0.031 C 
ATOM     54  C   UNL A   1      46.693  30.990  27.606  1.00  0.00     0.029 A 
ATOM     55  N   UNL A   1      45.010  29.526  27.727  1.00  0.00    -0.354 N 
ATOM     56  C   UNL A   1      41.341  30.494  29.751  1.00  0.00     0.074 A 
ATOM     57  C   UNL A   1      41.321  31.877  30.181  1.00  0.00     0.031 C 
ATOM     58  C   UNL A   1      47.052  29.909  26.898  1.00  0.00     0.029 A 
ATOM     59  C   UNL A   1      45.973  28.927  26.949  1.00  0.00     0.049 A 
ATOM     60  H   UNL A   1      44.175  29.078  27.992  1.00  0.00     0.167 HD
ATOM     61  C   UNL A   1      40.325  29.620  29.944  1.00  0.00     0.037 A 
ATOM     62  C   UNL A   1      45.987  27.726  26.339  1.00  0.00     0.037 A 
ATOM     63  C   UNL A   1      40.312  28.261  29.468  1.00  0.00     0.049 A 
ATOM     64  C   UNL A   1      44.829  26.789  26.529  1.00  0.00     0.074 A 
ATOM     65  C   UNL A   1      39.324  27.301  29.617  1.00  0.00     0.029 A 
ATOM     66  N   UNL A   1      41.329  27.675  28.730  1.00  0.00    -0.354 N 
ATOM     67  N   UNL A   1      43.705  26.988  27.170  1.00  0.00    -0.248 NA
ATOM     68  C   UNL A   1      44.958  25.447  25.941  1.00  0.00     0.031 C 
ATOM     69  C   UNL A   1      39.751  26.129  28.981  1.00  0.00     0.029 A 
ATOM     70  C   UNL A   1      40.992  26.368  28.415  1.00  0.00     0.049 A 
ATOM     71  H   UNL A   1      42.165  28.122  28.467  1.00  0.00     0.167 HD
ATOM     72  C   UNL A   1      43.005  25.794  27.089  1.00  0.00     0.074 A 
ATOM     73  C   UNL A   1      43.810  24.887  26.296  1.00  0.00     0.031 C 
ATOM     74  C   UNL A   1      41.812  25.473  27.643  1.00  0.00     0.037 A 
BRANCH  61  75
ATOM     75  C   UNL A   1      39.133  30.097  30.721  1.00  0.00     0.064 A 
ATOM     76  C   UNL A   1      39.055  29.953  32.113  1.00  0.00     0.173 A 
ATOM     77  C   UNL A   1      38.081  30.757  30.067  1.00  0.00     0.173 A 
ATOM     78  F   UNL A   1      40.032  29.318  32.781  1.00  0.00    -0.203 F 
ATOM     79  C   UNL A   1      37.959  30.437  32.822  1.00  0.00     0.198 A 
ATOM     80  C   UNL A   1      36.997  31.259  30.782  1.00  0.00     0.198 A 
ATOM     81  F   UNL A   1      38.111  30.926  28.738  1.00  0.00    -0.203 F 
ATOM     82  F   UNL A   1      37.890  30.262  34.148  1.00  0.00    -0.200 F 
ATOM     83  C   UNL A   1      36.935  31.096  32.158  1.00  0.00     0.200 A 
ATOM     84  F   UNL A   1      36.012  31.904  30.140  1.00  0.00    -0.200 F 
ATOM     85  F   UNL A   1      35.885  31.570  32.844  1.00  0.00    -0.200 F 
ENDBRANCH  61  75
BRANCH  62  86
ATOM     86  C   UNL A   1      47.140  27.352  25.480  1.00  0.00     0.064 A 
ATOM     87  C   UNL A   1      47.169  27.712  24.126  1.00  0.00     0.173 A 
ATOM     88  C   UNL A   1      48.249  26.668  25.998  1.00  0.00     0.173 A 
ATOM     89  F   UNL A   1      46.119  28.345  23.579  1.00  0.00    -0.203 F 
ATOM     90  C   UNL A   1      48.268  27.411  23.324  1.00  0.00     0.198 A 
ATOM     91  C   UNL A   1      49.358  26.390  25.202  1.00  0.00     0.198 A 
ATOM     92  F   UNL A   1      48.268  26.300  27.287  1.00  0.00    -0.203 F 
ATOM     93  F   UNL A   1      48.264  27.752  22.028  1.00  0.00    -0.200 F 
ATOM     94  C   UNL A   1      49.366  26.761  23.866  1.00  0.00     0.200 A 
ATOM     95  F   UNL A   1      50.423  25.775  25.733  1.00  0.00    -0.200 F 
ATOM     96  F   UNL A   1      50.433  26.492  23.101  1.00  0.00    -0.200 F 
ENDBRANCH  62  86
BRANCH  74  97
ATOM     97  C   UNL A   1      41.319  24.074  27.440  1.00  0.00     0.064 A 
ATOM     98  C   UNL A   1      40.222  23.809  26.609  1.00  0.00     0.173 A 
ATOM     99  C   UNL A   1      41.975  22.987  28.035  1.00  0.00     0.173 A 
ATOM    100  F   UNL A   1      39.557  24.821  26.029  1.00  0.00    -0.203 F 
ATOM    101  C   UNL A   1      39.789  22.506  26.390  1.00  0.00     0.198 A 
ATOM    102  C   UNL A   1      41.550  21.682  27.801  1.00  0.00     0.198 A 
ATOM    103  F   UNL A   1      43.032  23.191  28.837  1.00  0.00    -0.203 F 
ATOM    104  F   UNL A   1      38.722  22.276  25.613  1.00  0.00    -0.200 F 
ATOM    105  C   UNL A   1      40.457  21.443  26.981  1.00  0.00     0.200 A 
ATOM    106  F   UNL A   1      42.198  20.655  28.368  1.00  0.00    -0.200 F 
ATOM    107  F   UNL A   1      40.043  20.187  26.765  1.00  0.00    -0.200 F 
ENDBRANCH  74  97
ENDBRANCH  48  49
ENDBRANCH  40  43
ENDBRANCH  38  39
ENDBRANCH   1  38
TORSDOF 14
ENDMDL
