MODEL 1
REMARK VINA RESULT:     -11.5      0.000      0.000
REMARK SMILES CCN(CC(C)(C)O)C(=O)N[C@@H](C(=O)NCCCNC(=O)c1ccc(-c2c3nc(c(-c4c(F)c(F)c(F)c(F)c4F)c4ccc([nH]4)c(-c4c(F)c(F)c(F)c(F)c4F)c4nc(c(-c5c(F)c(F)c(F)c(F)c5F)c5ccc2[nH]5)C=C4)C=C3)cc1)C(C)(C)C
REMARK SMILES IDX 13 1 14 2 15 3 12 5 11 6 9 7 10 8 3 10 2 11 1 12 4 13 5 14
REMARK SMILES IDX 6 15 7 16 8 17 85 19 86 20 87 21 88 22 16 23 17 24 18 25
REMARK SMILES IDX 19 26 20 27 21 29 22 30 23 31 84 32 24 33 83 34 25 35 26 36
REMARK SMILES IDX 27 37 77 38 28 39 82 40 76 41 78 42 29 43 81 44 75 45 74 46
REMARK SMILES IDX 30 48 62 49 42 50 61 51 43 52 46 53 60 54 79 55 44 56 45 57
REMARK SMILES IDX 59 59 80 60 47 61 31 62 32 63 40 64 33 65 34 66 38 67 41 68
REMARK SMILES IDX 35 69 36 70 39 71 37 72 63 73 64 74 72 75 65 76 66 77 70 78
REMARK SMILES IDX 73 79 67 80 68 81 71 82 69 83 48 84 49 85 57 86 50 87 51 88
REMARK SMILES IDX 55 89 58 90 52 91 53 92 56 93 54 94
REMARK H PARENT 15 4 11 9 8 18 19 28 78 47 46 58
REMARK Flexibility Score: inf
ROOT
ATOM      1  C   UNL A   1      30.971  26.039  25.722  1.00  0.00     0.243 C 
ATOM      2  O   UNL A   1      30.021  25.248  25.736  1.00  0.00    -0.273 OA
ATOM      3  N   UNL A   1      30.932  26.985  26.709  1.00  0.00    -0.354 N 
ATOM      4  H   UNL A   1      30.039  27.124  27.099  1.00  0.00     0.163 HD
ENDROOT
BRANCH   1   5
ATOM      5  C   UNL A   1      32.213  25.823  24.794  1.00  0.00     0.178 C 
BRANCH   5   6
ATOM      6  N   UNL A   1      31.880  25.991  23.390  1.00  0.00    -0.326 N 
ATOM      7  C   UNL A   1      31.507  27.021  22.617  1.00  0.00     0.318 C 
ATOM      8  O   UNL A   1      31.035  26.673  21.529  1.00  0.00    -0.249 OA
ATOM      9  H   UNL A   1      31.941  25.147  22.888  1.00  0.00     0.166 HD
BRANCH   7  10
ATOM     10  N   UNL A   1      31.557  28.337  23.006  1.00  0.00    -0.322 N 
BRANCH  10  11
ATOM     11  C   UNL A   1      32.921  28.888  23.106  1.00  0.00     0.118 C 
ATOM     12  C   UNL A   1      33.882  28.293  22.078  1.00  0.00     0.027 C 
ENDBRANCH  10  11
BRANCH  10  13
ATOM     13  C   UNL A   1      30.496  29.214  23.556  1.00  0.00     0.155 C 
BRANCH  13  14
ATOM     14  C   UNL A   1      29.502  29.917  22.552  1.00  0.00     0.077 C 
ATOM     15  C   UNL A   1      28.169  29.192  22.345  1.00  0.00     0.043 C 
ATOM     16  C   UNL A   1      29.151  31.312  23.095  1.00  0.00     0.043 C 
BRANCH  14  17
ATOM     17  O   UNL A   1      30.107  30.087  21.266  1.00  0.00    -0.389 OA
ATOM     18  H   UNL A   1      30.687  30.864  21.282  1.00  0.00     0.211 HD
ENDBRANCH  14  17
ENDBRANCH  13  14
ENDBRANCH  10  13
ENDBRANCH   7  10
ENDBRANCH   5   6
BRANCH   5  19
ATOM     19  C   UNL A   1      33.018  24.491  25.027  1.00  0.00    -0.009 C 
ATOM     20  C   UNL A   1      32.570  23.378  24.044  1.00  0.00     0.013 C 
ATOM     21  C   UNL A   1      34.515  24.750  24.761  1.00  0.00     0.013 C 
ATOM     22  C   UNL A   1      32.839  23.919  26.446  1.00  0.00     0.013 C 
ENDBRANCH   5  19
ENDBRANCH   1   5
BRANCH   3  23
ATOM     23  C   UNL A   1      31.972  27.823  27.287  1.00  0.00     0.117 C 
BRANCH  23  24
ATOM     24  C   UNL A   1      31.617  29.295  27.304  1.00  0.00     0.042 C 
BRANCH  24  25
ATOM     25  C   UNL A   1      32.610  30.145  26.533  1.00  0.00     0.118 C 
BRANCH  25  26
ATOM     26  N   UNL A   1      32.569  31.562  26.889  1.00  0.00    -0.352 N 
ATOM     27  C   UNL A   1      33.487  32.329  27.575  1.00  0.00     0.251 C 
ATOM     28  H   UNL A   1      31.763  32.043  26.593  1.00  0.00     0.163 HD
ATOM     29  O   UNL A   1      33.231  33.486  27.880  1.00  0.00    -0.269 OA
BRANCH  27  30
ATOM     30  C   UNL A   1      34.771  31.719  27.979  1.00  0.00     0.039 A 
ATOM     31  C   UNL A   1      35.877  32.539  28.209  1.00  0.00     0.014 A 
ATOM     32  C   UNL A   1      34.848  30.348  28.220  1.00  0.00     0.014 A 
ATOM     33  C   UNL A   1      37.022  31.997  28.799  1.00  0.00     0.010 A 
ATOM     34  C   UNL A   1      35.930  29.842  28.924  1.00  0.00     0.010 A 
ATOM     35  C   UNL A   1      37.031  30.659  29.224  1.00  0.00    -0.014 A 
BRANCH  35  36
ATOM     36  C   UNL A   1      38.167  30.075  29.982  1.00  0.00     0.031 A 
ATOM     37  C   UNL A   1      38.394  30.481  31.413  1.00  0.00     0.074 A 
ATOM     38  C   UNL A   1      39.056  29.275  29.359  1.00  0.00     0.049 A 
ATOM     39  N   UNL A   1      39.404  30.215  32.203  1.00  0.00    -0.248 NA
ATOM     40  C   UNL A   1      37.371  31.348  32.021  1.00  0.00     0.031 C 
ATOM     41  C   UNL A   1      38.995  28.864  27.954  1.00  0.00     0.029 A 
ATOM     42  N   UNL A   1      40.199  28.673  29.826  1.00  0.00    -0.354 N 
ATOM     43  C   UNL A   1      39.158  30.921  33.373  1.00  0.00     0.074 A 
ATOM     44  C   UNL A   1      37.940  31.672  33.171  1.00  0.00     0.031 C 
ATOM     45  C   UNL A   1      40.027  28.049  27.686  1.00  0.00     0.029 A 
ATOM     46  C   UNL A   1      40.848  27.912  28.885  1.00  0.00     0.049 A 
ATOM     47  H   UNL A   1      40.522  28.779  30.750  1.00  0.00     0.167 HD
ATOM     48  C   UNL A   1      39.867  30.919  34.528  1.00  0.00     0.037 A 
ATOM     49  C   UNL A   1      41.978  27.187  28.980  1.00  0.00     0.037 A 
ATOM     50  C   UNL A   1      41.037  30.113  34.749  1.00  0.00     0.049 A 
ATOM     51  C   UNL A   1      42.720  27.158  30.289  1.00  0.00     0.074 A 
ATOM     52  C   UNL A   1      41.773  29.960  35.910  1.00  0.00     0.029 A 
ATOM     53  N   UNL A   1      41.632  29.311  33.786  1.00  0.00    -0.354 N 
ATOM     54  N   UNL A   1      42.440  27.771  31.414  1.00  0.00    -0.248 NA
ATOM     55  C   UNL A   1      43.934  26.332  30.343  1.00  0.00     0.031 C 
ATOM     56  C   UNL A   1      42.833  29.088  35.642  1.00  0.00     0.029 A 
ATOM     57  C   UNL A   1      42.734  28.668  34.325  1.00  0.00     0.049 A 
ATOM     58  H   UNL A   1      41.318  29.212  32.859  1.00  0.00     0.167 HD
ATOM     59  C   UNL A   1      43.422  27.384  32.315  1.00  0.00     0.074 A 
ATOM     60  C   UNL A   1      44.299  26.473  31.609  1.00  0.00     0.031 C 
ATOM     61  C   UNL A   1      43.583  27.751  33.610  1.00  0.00     0.037 A 
BRANCH  48  62
ATOM     62  C   UNL A   1      39.381  31.802  35.639  1.00  0.00     0.064 A 
ATOM     63  C   UNL A   1      39.845  33.118  35.792  1.00  0.00     0.173 A 
ATOM     64  C   UNL A   1      38.432  31.333  36.559  1.00  0.00     0.173 A 
ATOM     65  F   UNL A   1      40.764  33.611  34.947  1.00  0.00    -0.203 F 
ATOM     66  C   UNL A   1      39.410  33.915  36.847  1.00  0.00     0.198 A 
ATOM     67  C   UNL A   1      37.974  32.143  37.593  1.00  0.00     0.198 A 
ATOM     68  F   UNL A   1      37.951  30.084  36.457  1.00  0.00    -0.203 F 
ATOM     69  F   UNL A   1      39.917  35.145  37.007  1.00  0.00    -0.200 F 
ATOM     70  C   UNL A   1      38.471  33.430  37.742  1.00  0.00     0.200 A 
ATOM     71  F   UNL A   1      37.057  31.678  38.452  1.00  0.00    -0.200 F 
ATOM     72  F   UNL A   1      38.052  34.199  38.758  1.00  0.00    -0.200 F 
ENDBRANCH  48  62
BRANCH  49  73
ATOM     73  C   UNL A   1      42.452  26.388  27.821  1.00  0.00     0.064 A 
ATOM     74  C   UNL A   1      41.944  25.102  27.588  1.00  0.00     0.173 A 
ATOM     75  C   UNL A   1      43.416  26.880  26.929  1.00  0.00     0.173 A 
ATOM     76  F   UNL A   1      41.036  24.580  28.427  1.00  0.00    -0.203 F 
ATOM     77  C   UNL A   1      42.395  24.331  26.520  1.00  0.00     0.198 A 
ATOM     78  C   UNL A   1      43.848  26.117  25.846  1.00  0.00     0.198 A 
ATOM     79  F   UNL A   1      43.930  28.106  27.106  1.00  0.00    -0.203 F 
ATOM     80  F   UNL A   1      41.924  23.088  26.347  1.00  0.00    -0.200 F 
ATOM     81  C   UNL A   1      43.343  24.841  25.646  1.00  0.00     0.200 A 
ATOM     82  F   UNL A   1      44.757  26.616  24.998  1.00  0.00    -0.200 F 
ATOM     83  F   UNL A   1      43.777  24.099  24.618  1.00  0.00    -0.200 F 
ENDBRANCH  49  73
BRANCH  61  84
ATOM     84  C   UNL A   1      44.726  27.135  34.359  1.00  0.00     0.064 A 
ATOM     85  C   UNL A   1      44.569  25.951  35.093  1.00  0.00     0.173 A 
ATOM     86  C   UNL A   1      46.003  27.712  34.300  1.00  0.00     0.173 A 
ATOM     87  F   UNL A   1      43.364  25.371  35.191  1.00  0.00    -0.203 F 
ATOM     88  C   UNL A   1      45.648  25.377  35.760  1.00  0.00     0.198 A 
ATOM     89  C   UNL A   1      47.085  27.122  34.945  1.00  0.00     0.198 A 
ATOM     90  F   UNL A   1      46.204  28.842  33.604  1.00  0.00    -0.203 F 
ATOM     91  F   UNL A   1      45.470  24.268  36.490  1.00  0.00    -0.200 F 
ATOM     92  C   UNL A   1      46.906  25.958  35.679  1.00  0.00     0.200 A 
ATOM     93  F   UNL A   1      48.301  27.677  34.856  1.00  0.00    -0.200 F 
ATOM     94  F   UNL A   1      47.945  25.400  36.314  1.00  0.00    -0.200 F 
ENDBRANCH  61  84
ENDBRANCH  35  36
ENDBRANCH  27  30
ENDBRANCH  25  26
ENDBRANCH  24  25
ENDBRANCH  23  24
ENDBRANCH   3  23
TORSDOF 17
ENDMDL
MODEL 2
REMARK VINA RESULT:     -11.4      4.501      9.716
REMARK SMILES CCN(CC(C)(C)O)C(=O)N[C@@H](C(=O)NCCCNC(=O)c1ccc(-c2c3nc(c(-c4c(F)c(F)c(F)c(F)c4F)c4ccc([nH]4)c(-c4c(F)c(F)c(F)c(F)c4F)c4nc(c(-c5c(F)c(F)c(F)c(F)c5F)c5ccc2[nH]5)C=C4)C=C3)cc1)C(C)(C)C
REMARK SMILES IDX 13 1 14 2 15 3 12 5 11 6 9 7 10 8 3 10 2 11 1 12 4 13 5 14
REMARK SMILES IDX 6 15 7 16 8 17 85 19 86 20 87 21 88 22 16 23 17 24 18 25
REMARK SMILES IDX 19 26 20 27 21 29 22 30 23 31 84 32 24 33 83 34 25 35 26 36
REMARK SMILES IDX 27 37 77 38 28 39 82 40 76 41 78 42 29 43 81 44 75 45 74 46
REMARK SMILES IDX 30 48 62 49 42 50 61 51 43 52 46 53 60 54 79 55 44 56 45 57
REMARK SMILES IDX 59 59 80 60 47 61 31 62 32 63 40 64 33 65 34 66 38 67 41 68
REMARK SMILES IDX 35 69 36 70 39 71 37 72 63 73 64 74 72 75 65 76 66 77 70 78
REMARK SMILES IDX 73 79 67 80 68 81 71 82 69 83 48 84 49 85 57 86 50 87 51 88
REMARK SMILES IDX 55 89 58 90 52 91 53 92 56 93 54 94
REMARK H PARENT 15 4 11 9 8 18 19 28 78 47 46 58
REMARK Flexibility Score: inf
ROOT
ATOM      1  C   UNL A   1      33.460  23.058  26.991  1.00  0.00     0.243 C 
ATOM      2  O   UNL A   1      32.759  22.543  27.869  1.00  0.00    -0.273 OA
ATOM      3  N   UNL A   1      34.795  22.778  27.099  1.00  0.00    -0.354 N 
ATOM      4  H   UNL A   1      35.074  22.483  27.995  1.00  0.00     0.163 HD
ENDROOT
BRANCH   1   5
ATOM      5  C   UNL A   1      32.836  23.774  25.746  1.00  0.00     0.178 C 
BRANCH   5   6
ATOM      6  N   UNL A   1      31.788  24.706  26.123  1.00  0.00    -0.326 N 
ATOM      7  C   UNL A   1      31.658  26.041  26.130  1.00  0.00     0.318 C 
ATOM      8  O   UNL A   1      30.703  26.438  26.808  1.00  0.00    -0.249 OA
ATOM      9  H   UNL A   1      30.981  24.249  26.453  1.00  0.00     0.166 HD
BRANCH   7  10
ATOM     10  N   UNL A   1      32.534  26.905  25.522  1.00  0.00    -0.322 N 
BRANCH  10  11
ATOM     11  C   UNL A   1      32.330  27.054  24.070  1.00  0.00     0.118 C 
ATOM     12  C   UNL A   1      33.453  26.428  23.244  1.00  0.00     0.027 C 
ENDBRANCH  10  11
BRANCH  10  13
ATOM     13  C   UNL A   1      33.779  27.527  26.037  1.00  0.00     0.155 C 
BRANCH  13  14
ATOM     14  C   UNL A   1      33.659  28.806  26.954  1.00  0.00     0.077 C 
ATOM     15  C   UNL A   1      34.978  29.293  27.560  1.00  0.00     0.043 C 
ATOM     16  C   UNL A   1      33.119  29.972  26.110  1.00  0.00     0.043 C 
BRANCH  14  17
ATOM     17  O   UNL A   1      32.743  28.582  28.030  1.00  0.00    -0.389 OA
ATOM     18  H   UNL A   1      31.900  29.018  27.832  1.00  0.00     0.211 HD
ENDBRANCH  14  17
ENDBRANCH  13  14
ENDBRANCH  10  13
ENDBRANCH   7  10
ENDBRANCH   5   6
BRANCH   5  19
ATOM     19  C   UNL A   1      32.357  22.828  24.582  1.00  0.00    -0.009 C 
ATOM     20  C   UNL A   1      33.454  22.658  23.500  1.00  0.00     0.013 C 
ATOM     21  C   UNL A   1      32.069  21.425  25.156  1.00  0.00     0.013 C 
ATOM     22  C   UNL A   1      31.104  23.354  23.856  1.00  0.00     0.013 C 
ENDBRANCH   5  19
ENDBRANCH   1   5
BRANCH   3  23
ATOM     23  C   UNL A   1      35.877  22.837  26.127  1.00  0.00     0.117 C 
BRANCH  23  24
ATOM     24  C   UNL A   1      36.412  21.474  25.739  1.00  0.00     0.042 C 
BRANCH  24  25
ATOM     25  C   UNL A   1      37.774  21.550  25.073  1.00  0.00     0.118 C 
BRANCH  25  26
ATOM     26  N   UNL A   1      38.737  20.582  25.597  1.00  0.00    -0.352 N 
ATOM     27  C   UNL A   1      39.844  20.779  26.394  1.00  0.00     0.251 C 
ATOM     28  H   UNL A   1      38.568  19.647  25.342  1.00  0.00     0.163 HD
ATOM     29  O   UNL A   1      40.605  19.855  26.647  1.00  0.00    -0.269 OA
BRANCH  27  30
ATOM     30  C   UNL A   1      40.127  22.137  26.905  1.00  0.00     0.039 A 
ATOM     31  C   UNL A   1      41.097  22.308  27.895  1.00  0.00     0.014 A 
ATOM     32  C   UNL A   1      39.499  23.242  26.335  1.00  0.00     0.014 A 
ATOM     33  C   UNL A   1      41.522  23.598  28.222  1.00  0.00     0.010 A 
ATOM     34  C   UNL A   1      40.014  24.510  26.563  1.00  0.00     0.010 A 
ATOM     35  C   UNL A   1      41.033  24.705  27.509  1.00  0.00    -0.014 A 
BRANCH  35  36
ATOM     36  C   UNL A   1      41.556  26.079  27.721  1.00  0.00     0.031 A 
ATOM     37  C   UNL A   1      42.931  26.436  27.225  1.00  0.00     0.074 A 
ATOM     38  C   UNL A   1      40.851  26.966  28.451  1.00  0.00     0.049 A 
ATOM     39  N   UNL A   1      43.637  27.518  27.437  1.00  0.00    -0.248 NA
ATOM     40  C   UNL A   1      43.628  25.414  26.426  1.00  0.00     0.031 C 
ATOM     41  C   UNL A   1      39.538  26.723  29.054  1.00  0.00     0.029 A 
ATOM     42  N   UNL A   1      41.149  28.253  28.825  1.00  0.00    -0.354 N 
ATOM     43  C   UNL A   1      44.870  27.282  26.842  1.00  0.00     0.074 A 
ATOM     44  C   UNL A   1      44.839  25.937  26.315  1.00  0.00     0.031 C 
ATOM     45  C   UNL A   1      39.128  27.834  29.685  1.00  0.00     0.029 A 
ATOM     46  C   UNL A   1      40.164  28.855  29.571  1.00  0.00     0.049 A 
ATOM     47  H   UNL A   1      41.991  28.702  28.582  1.00  0.00     0.167 HD
ATOM     48  C   UNL A   1      45.924  28.124  26.718  1.00  0.00     0.037 A 
ATOM     49  C   UNL A   1      40.107  30.091  30.102  1.00  0.00     0.037 A 
ATOM     50  C   UNL A   1      45.922  29.486  27.178  1.00  0.00     0.049 A 
ATOM     51  C   UNL A   1      41.269  31.026  29.905  1.00  0.00     0.074 A 
ATOM     52  C   UNL A   1      46.897  30.454  27.017  1.00  0.00     0.029 A 
ATOM     53  N   UNL A   1      44.882  30.076  27.881  1.00  0.00    -0.354 N 
ATOM     54  N   UNL A   1      42.402  30.819  29.278  1.00  0.00    -0.248 NA
ATOM     55  C   UNL A   1      41.142  32.370  30.487  1.00  0.00     0.031 C 
ATOM     56  C   UNL A   1      46.459  31.622  27.649  1.00  0.00     0.029 A 
ATOM     57  C   UNL A   1      45.196  31.393  28.171  1.00  0.00     0.049 A 
ATOM     58  H   UNL A   1      44.044  29.626  28.137  1.00  0.00     0.167 HD
ATOM     59  C   UNL A   1      43.109  32.010  29.364  1.00  0.00     0.074 A 
ATOM     60  C   UNL A   1      42.272  32.940  30.093  1.00  0.00     0.031 C 
ATOM     61  C   UNL A   1      44.341  32.307  28.882  1.00  0.00     0.037 A 
BRANCH  48  62
ATOM     62  C   UNL A   1      47.154  27.595  26.041  1.00  0.00     0.064 A 
ATOM     63  C   UNL A   1      48.172  26.950  26.761  1.00  0.00     0.173 A 
ATOM     64  C   UNL A   1      47.316  27.726  24.654  1.00  0.00     0.173 A 
ATOM     65  F   UNL A   1      48.073  26.811  28.092  1.00  0.00    -0.203 F 
ATOM     66  C   UNL A   1      49.322  26.494  26.124  1.00  0.00     0.198 A 
ATOM     67  C   UNL A   1      48.453  27.239  24.016  1.00  0.00     0.198 A 
ATOM     68  F   UNL A   1      46.371  28.330  23.916  1.00  0.00    -0.203 F 
ATOM     69  F   UNL A   1      50.308  25.938  26.844  1.00  0.00    -0.200 F 
ATOM     70  C   UNL A   1      49.459  26.633  24.752  1.00  0.00     0.200 A 
ATOM     71  F   UNL A   1      48.579  27.363  22.687  1.00  0.00    -0.200 F 
ATOM     72  F   UNL A   1      50.568  26.192  24.140  1.00  0.00    -0.200 F 
ENDBRANCH  48  62
BRANCH  49  73
ATOM     73  C   UNL A   1      38.889  30.535  30.827  1.00  0.00     0.064 A 
ATOM     74  C   UNL A   1      38.819  30.443  32.224  1.00  0.00     0.173 A 
ATOM     75  C   UNL A   1      37.774  31.052  30.151  1.00  0.00     0.173 A 
ATOM     76  F   UNL A   1      39.852  29.934  32.913  1.00  0.00    -0.203 F 
ATOM     77  C   UNL A   1      37.676  30.833  32.917  1.00  0.00     0.198 A 
ATOM     78  C   UNL A   1      36.639  31.465  30.847  1.00  0.00     0.198 A 
ATOM     79  F   UNL A   1      37.791  31.164  28.815  1.00  0.00    -0.203 F 
ATOM     80  F   UNL A   1      37.621  30.693  34.248  1.00  0.00    -0.200 F 
ATOM     81  C   UNL A   1      36.588  31.349  32.228  1.00  0.00     0.200 A 
ATOM     82  F   UNL A   1      35.595  31.972  30.180  1.00  0.00    -0.200 F 
ATOM     83  F   UNL A   1      35.489  31.724  32.895  1.00  0.00    -0.200 F 
ENDBRANCH  49  73
BRANCH  61  84
ATOM     84  C   UNL A   1      44.840  33.705  29.092  1.00  0.00     0.064 A 
ATOM     85  C   UNL A   1      45.621  34.046  30.204  1.00  0.00     0.173 A 
ATOM     86  C   UNL A   1      44.572  34.701  28.141  1.00  0.00     0.173 A 
ATOM     87  F   UNL A   1      45.891  33.131  31.147  1.00  0.00    -0.203 F 
ATOM     88  C   UNL A   1      46.100  35.343  30.369  1.00  0.00     0.198 A 
ATOM     89  C   UNL A   1      45.074  35.989  28.294  1.00  0.00     0.198 A 
ATOM     90  F   UNL A   1      43.834  34.420  27.056  1.00  0.00    -0.203 F 
ATOM     91  F   UNL A   1      46.811  35.660  31.459  1.00  0.00    -0.200 F 
ATOM     92  C   UNL A   1      45.833  36.311  29.411  1.00  0.00     0.200 A 
ATOM     93  F   UNL A   1      44.827  36.920  27.363  1.00  0.00    -0.200 F 
ATOM     94  F   UNL A   1      46.302  37.556  29.566  1.00  0.00    -0.200 F 
ENDBRANCH  61  84
ENDBRANCH  35  36
ENDBRANCH  27  30
ENDBRANCH  25  26
ENDBRANCH  24  25
ENDBRANCH  23  24
ENDBRANCH   3  23
TORSDOF 17
ENDMDL
MODEL 3
REMARK VINA RESULT:     -11.2      0.427      2.026
REMARK SMILES CCN(CC(C)(C)O)C(=O)N[C@@H](C(=O)NCCCNC(=O)c1ccc(-c2c3nc(c(-c4c(F)c(F)c(F)c(F)c4F)c4ccc([nH]4)c(-c4c(F)c(F)c(F)c(F)c4F)c4nc(c(-c5c(F)c(F)c(F)c(F)c5F)c5ccc2[nH]5)C=C4)C=C3)cc1)C(C)(C)C
REMARK SMILES IDX 13 1 14 2 15 3 12 5 11 6 9 7 10 8 3 10 2 11 1 12 4 13 5 14
REMARK SMILES IDX 6 15 7 16 8 17 85 19 86 20 87 21 88 22 16 23 17 24 18 25
REMARK SMILES IDX 19 26 20 27 21 29 22 30 23 31 84 32 24 33 83 34 25 35 26 36
REMARK SMILES IDX 27 37 77 38 28 39 82 40 76 41 78 42 29 43 81 44 75 45 74 46
REMARK SMILES IDX 30 48 62 49 42 50 61 51 43 52 46 53 60 54 79 55 44 56 45 57
REMARK SMILES IDX 59 59 80 60 47 61 31 62 32 63 40 64 33 65 34 66 38 67 41 68
REMARK SMILES IDX 35 69 36 70 39 71 37 72 63 73 64 74 72 75 65 76 66 77 70 78
REMARK SMILES IDX 73 79 67 80 68 81 71 82 69 83 48 84 49 85 57 86 50 87 51 88
REMARK SMILES IDX 55 89 58 90 52 91 53 92 56 93 54 94
REMARK H PARENT 15 4 11 9 8 18 19 28 78 47 46 58
REMARK Flexibility Score: inf
ROOT
ATOM      1  C   UNL A   1      31.105  25.958  25.766  1.00  0.00     0.243 C 
ATOM      2  O   UNL A   1      30.185  25.134  25.816  1.00  0.00    -0.273 OA
ATOM      3  N   UNL A   1      31.055  26.918  26.741  1.00  0.00    -0.354 N 
ATOM      4  H   UNL A   1      30.167  27.031  27.150  1.00  0.00     0.163 HD
ENDROOT
BRANCH   1   5
ATOM      5  C   UNL A   1      32.332  25.773  24.812  1.00  0.00     0.178 C 
BRANCH   5   6
ATOM      6  N   UNL A   1      31.957  25.894  23.414  1.00  0.00    -0.326 N 
ATOM      7  C   UNL A   1      31.550  26.896  22.621  1.00  0.00     0.318 C 
ATOM      8  O   UNL A   1      31.052  26.508  21.558  1.00  0.00    -0.249 OA
ATOM      9  H   UNL A   1      32.016  25.036  22.935  1.00  0.00     0.166 HD
BRANCH   7  10
ATOM     10  N   UNL A   1      31.593  28.223  22.969  1.00  0.00    -0.322 N 
BRANCH  10  11
ATOM     11  C   UNL A   1      32.866  28.893  22.646  1.00  0.00     0.118 C 
ATOM     12  C   UNL A   1      34.001  28.503  23.592  1.00  0.00     0.027 C 
ENDBRANCH  10  11
BRANCH  10  13
ATOM     13  C   UNL A   1      30.672  29.023  23.811  1.00  0.00     0.155 C 
BRANCH  13  14
ATOM     14  C   UNL A   1      29.555  29.883  23.100  1.00  0.00     0.077 C 
ATOM     15  C   UNL A   1      29.761  30.097  21.598  1.00  0.00     0.043 C 
ATOM     16  C   UNL A   1      28.205  29.163  23.250  1.00  0.00     0.043 C 
BRANCH  14  17
ATOM     17  O   UNL A   1      29.434  31.172  23.710  1.00  0.00    -0.389 OA
ATOM     18  H   UNL A   1      29.108  31.810  23.056  1.00  0.00     0.211 HD
ENDBRANCH  14  17
ENDBRANCH  13  14
ENDBRANCH  10  13
ENDBRANCH   7  10
ENDBRANCH   5   6
BRANCH   5  19
ATOM     19  C   UNL A   1      33.197  24.481  25.054  1.00  0.00    -0.009 C 
ATOM     20  C   UNL A   1      32.725  23.305  24.159  1.00  0.00     0.013 C 
ATOM     21  C   UNL A   1      34.664  24.774  24.674  1.00  0.00     0.013 C 
ATOM     22  C   UNL A   1      33.134  23.976  26.508  1.00  0.00     0.013 C 
ENDBRANCH   5  19
ENDBRANCH   1   5
BRANCH   3  23
ATOM     23  C   UNL A   1      32.078  27.801  27.281  1.00  0.00     0.117 C 
BRANCH  23  24
ATOM     24  C   UNL A   1      31.687  29.264  27.248  1.00  0.00     0.042 C 
BRANCH  24  25
ATOM     25  C   UNL A   1      32.690  30.120  26.496  1.00  0.00     0.118 C 
BRANCH  25  26
ATOM     26  N   UNL A   1      32.649  31.533  26.868  1.00  0.00    -0.352 N 
ATOM     27  C   UNL A   1      33.568  32.294  27.559  1.00  0.00     0.251 C 
ATOM     28  H   UNL A   1      31.841  32.016  26.580  1.00  0.00     0.163 HD
ATOM     29  O   UNL A   1      33.312  33.447  27.878  1.00  0.00    -0.269 OA
BRANCH  27  30
ATOM     30  C   UNL A   1      34.854  31.681  27.951  1.00  0.00     0.039 A 
ATOM     31  C   UNL A   1      35.980  32.492  28.110  1.00  0.00     0.014 A 
ATOM     32  C   UNL A   1      34.918  30.322  28.252  1.00  0.00     0.014 A 
ATOM     33  C   UNL A   1      37.134  31.959  28.689  1.00  0.00     0.010 A 
ATOM     34  C   UNL A   1      36.013  29.830  28.946  1.00  0.00     0.010 A 
ATOM     35  C   UNL A   1      37.136  30.641  29.174  1.00  0.00    -0.014 A 
BRANCH  35  36
ATOM     36  C   UNL A   1      38.286  30.073  29.923  1.00  0.00     0.031 A 
ATOM     37  C   UNL A   1      38.528  30.495  31.347  1.00  0.00     0.074 A 
ATOM     38  C   UNL A   1      39.172  29.273  29.297  1.00  0.00     0.049 A 
ATOM     39  N   UNL A   1      39.550  30.246  32.126  1.00  0.00    -0.248 NA
ATOM     40  C   UNL A   1      37.507  31.362  31.959  1.00  0.00     0.031 C 
ATOM     41  C   UNL A   1      39.095  28.847  27.897  1.00  0.00     0.029 A 
ATOM     42  N   UNL A   1      40.325  28.684  29.755  1.00  0.00    -0.354 N 
ATOM     43  C   UNL A   1      39.315  30.962  33.292  1.00  0.00     0.074 A 
ATOM     44  C   UNL A   1      38.088  31.702  33.098  1.00  0.00     0.031 C 
ATOM     45  C   UNL A   1      40.130  28.036  27.625  1.00  0.00     0.029 A 
ATOM     46  C   UNL A   1      40.967  27.917  28.814  1.00  0.00     0.049 A 
ATOM     47  H   UNL A   1      40.660  28.802  30.674  1.00  0.00     0.167 HD
ATOM     48  C   UNL A   1      40.039  30.977  34.437  1.00  0.00     0.037 A 
ATOM     49  C   UNL A   1      42.104  27.201  28.902  1.00  0.00     0.037 A 
ATOM     50  C   UNL A   1      41.217  30.182  34.652  1.00  0.00     0.049 A 
ATOM     51  C   UNL A   1      42.863  27.191  30.201  1.00  0.00     0.074 A 
ATOM     52  C   UNL A   1      41.969  30.046  35.804  1.00  0.00     0.029 A 
ATOM     53  N   UNL A   1      41.805  29.374  33.689  1.00  0.00    -0.354 N 
ATOM     54  N   UNL A   1      42.593  27.814  31.323  1.00  0.00    -0.248 NA
ATOM     55  C   UNL A   1      44.084  26.374  30.247  1.00  0.00     0.031 C 
ATOM     56  C   UNL A   1      43.032  29.178  35.531  1.00  0.00     0.029 A 
ATOM     57  C   UNL A   1      42.919  28.744  34.220  1.00  0.00     0.049 A 
ATOM     58  H   UNL A   1      41.480  29.263  32.767  1.00  0.00     0.167 HD
ATOM     59  C   UNL A   1      43.589  27.444  32.215  1.00  0.00     0.074 A 
ATOM     60  C   UNL A   1      44.464  26.532  31.508  1.00  0.00     0.031 C 
ATOM     61  C   UNL A   1      43.765  27.825  33.504  1.00  0.00     0.037 A 
BRANCH  48  62
ATOM     62  C   UNL A   1      39.561  31.869  35.545  1.00  0.00     0.064 A 
ATOM     63  C   UNL A   1      38.602  31.440  36.476  1.00  0.00     0.173 A 
ATOM     64  C   UNL A   1      40.074  33.167  35.685  1.00  0.00     0.173 A 
ATOM     65  F   UNL A   1      38.069  30.212  36.378  1.00  0.00    -0.203 F 
ATOM     66  C   UNL A   1      38.145  32.290  37.479  1.00  0.00     0.198 A 
ATOM     67  C   UNL A   1      39.639  34.003  36.709  1.00  0.00     0.198 A 
ATOM     68  F   UNL A   1      40.997  33.627  34.826  1.00  0.00    -0.203 F 
ATOM     69  F   UNL A   1      37.181  31.878  38.315  1.00  0.00    -0.200 F 
ATOM     70  C   UNL A   1      38.668  33.568  37.598  1.00  0.00     0.200 A 
ATOM     71  F   UNL A   1      40.153  35.234  36.832  1.00  0.00    -0.200 F 
ATOM     72  F   UNL A   1      38.226  34.385  38.565  1.00  0.00    -0.200 F 
ENDBRANCH  48  62
BRANCH  49  73
ATOM     73  C   UNL A   1      42.568  26.393  27.745  1.00  0.00     0.064 A 
ATOM     74  C   UNL A   1      43.509  26.915  26.845  1.00  0.00     0.173 A 
ATOM     75  C   UNL A   1      42.087  25.098  27.507  1.00  0.00     0.173 A 
ATOM     76  F   UNL A   1      43.981  28.158  27.018  1.00  0.00    -0.203 F 
ATOM     77  C   UNL A   1      43.936  26.179  25.743  1.00  0.00     0.198 A 
ATOM     78  C   UNL A   1      42.534  24.353  26.418  1.00  0.00     0.198 A 
ATOM     79  F   UNL A   1      41.188  24.552  28.340  1.00  0.00    -0.203 F 
ATOM     80  F   UNL A   1      44.803  26.720  24.875  1.00  0.00    -0.200 F 
ATOM     81  C   UNL A   1      43.453  24.897  25.532  1.00  0.00     0.200 A 
ATOM     82  F   UNL A   1      42.072  23.111  26.223  1.00  0.00    -0.200 F 
ATOM     83  F   UNL A   1      43.865  24.190  24.472  1.00  0.00    -0.200 F 
ENDBRANCH  49  73
BRANCH  61  84
ATOM     84  C   UNL A   1      44.922  27.225  34.244  1.00  0.00     0.064 A 
ATOM     85  C   UNL A   1      46.168  27.864  34.302  1.00  0.00     0.173 A 
ATOM     86  C   UNL A   1      44.764  26.020  34.944  1.00  0.00     0.173 A 
ATOM     87  F   UNL A   1      46.371  29.010  33.636  1.00  0.00    -0.203 F 
ATOM     88  C   UNL A   1      47.224  27.306  35.017  1.00  0.00     0.198 A 
ATOM     89  C   UNL A   1      45.813  25.478  35.681  1.00  0.00     0.198 A 
ATOM     90  F   UNL A   1      43.588  25.375  34.925  1.00  0.00    -0.203 F 
ATOM     91  F   UNL A   1      48.419  27.911  35.027  1.00  0.00    -0.200 F 
ATOM     92  C   UNL A   1      47.043  26.119  35.713  1.00  0.00     0.200 A 
ATOM     93  F   UNL A   1      45.634  24.339  36.362  1.00  0.00    -0.200 F 
ATOM     94  F   UNL A   1      48.057  25.588  36.409  1.00  0.00    -0.200 F 
ENDBRANCH  61  84
ENDBRANCH  35  36
ENDBRANCH  27  30
ENDBRANCH  25  26
ENDBRANCH  24  25
ENDBRANCH  23  24
ENDBRANCH   3  23
TORSDOF 17
ENDMDL
