MODEL 1
REMARK VINA RESULT:     -12.6      0.000      0.000
REMARK SMILES CC(C)(C)[N@@H+](CC(=O)NCCCNC(=O)c1ccc(-c2c3nc(c(-c4c(F)c(F)c(F)c(F)c4F)c4ccc([nH]4)c(-c4c(F)c(F)c(F)c(F)c4F)c4nc(c(-c5c(F)c(F)c(F)c(F)c5F)c5ccc2[nH]5)C=C4)C=C3)cc1)C[C@@H]1Cc2cc(F)ccc2O1
REMARK SMILES IDX 10 1 9 2 7 3 8 4 6 6 5 7 2 9 1 10 3 11 4 12 79 13 80 14
REMARK SMILES IDX 81 15 89 16 82 17 88 18 83 19 87 20 84 21 86 22 85 23 11 24
REMARK SMILES IDX 12 25 13 26 14 27 15 29 16 30 17 31 78 32 18 33 77 34 19 35
REMARK SMILES IDX 20 36 21 37 71 38 22 39 76 40 70 41 72 42 23 43 75 44 69 45
REMARK SMILES IDX 68 46 24 48 56 49 36 50 55 51 37 52 40 53 54 54 73 55 38 56
REMARK SMILES IDX 39 57 53 59 74 60 41 61 25 62 26 63 34 64 27 65 28 66 32 67
REMARK SMILES IDX 35 68 29 69 30 70 33 71 31 72 57 73 58 74 66 75 59 76 60 77
REMARK SMILES IDX 64 78 67 79 61 80 62 81 65 82 63 83 42 84 43 85 51 86 44 87
REMARK SMILES IDX 45 88 49 89 52 90 46 91 47 92 50 93 48 94
REMARK H PARENT 9 5 5 8 13 28 72 47 40 58
REMARK Flexibility Score: inf
ROOT
ATOM      1  C   UNL A   1      31.401  30.888  25.933  1.00  0.00     0.118 C 
ENDROOT
BRANCH   1   2
ATOM      2  N   UNL A   1      32.519  30.105  26.438  1.00  0.00    -0.351 N 
ATOM      3  C   UNL A   1      32.811  28.770  26.385  1.00  0.00     0.275 C 
ATOM      4  O   UNL A   1      33.915  28.421  26.813  1.00  0.00    -0.269 OA
ATOM      5  H   UNL A   1      33.198  30.641  26.908  1.00  0.00     0.163 HD
BRANCH   3   6
ATOM      6  C   UNL A   1      31.826  27.754  25.803  1.00  0.00     0.364 C 
BRANCH   6   7
ATOM      7  N   UNL A   1      32.099  27.415  24.388  1.00  0.00    -0.320 N 
ATOM      8  H   UNL A   1      32.174  28.045  23.589  1.00  0.00     0.349 HD
BRANCH   7   9
ATOM      9  C   UNL A   1      31.055  27.603  23.370  1.00  0.00     0.090 C 
ATOM     10  C   UNL A   1      31.361  26.739  22.115  1.00  0.00     0.078 C 
ATOM     11  C   UNL A   1      30.923  29.093  22.984  1.00  0.00     0.078 C 
ATOM     12  C   UNL A   1      29.651  27.119  23.787  1.00  0.00     0.078 C 
ENDBRANCH   7   9
BRANCH   7  13
ATOM     13  C   UNL A   1      33.399  26.773  24.148  1.00  0.00     0.309 C 
BRANCH  13  14
ATOM     14  C   UNL A   1      33.734  25.287  24.458  1.00  0.00     0.232 C 
ATOM     15  C   UNL A   1      34.471  25.042  25.790  1.00  0.00     0.090 C 
ATOM     16  O   UNL A   1      34.415  24.612  23.376  1.00  0.00    -0.484 OA
ATOM     17  C   UNL A   1      35.467  24.039  25.354  1.00  0.00     0.001 A 
ATOM     18  C   UNL A   1      35.338  23.811  23.993  1.00  0.00     0.123 A 
ATOM     19  C   UNL A   1      36.431  23.376  26.094  1.00  0.00     0.047 A 
ATOM     20  C   UNL A   1      36.119  22.885  23.327  1.00  0.00     0.050 A 
ATOM     21  C   UNL A   1      37.234  22.449  25.431  1.00  0.00     0.123 A 
ATOM     22  C   UNL A   1      37.078  22.188  24.064  1.00  0.00     0.043 A 
ATOM     23  F   UNL A   1      38.180  21.793  26.117  1.00  0.00    -0.207 F 
ENDBRANCH  13  14
ENDBRANCH   7  13
ENDBRANCH   6   7
ENDBRANCH   3   6
ENDBRANCH   1   2
BRANCH   1  24
ATOM     24  C   UNL A   1      31.290  32.301  26.517  1.00  0.00     0.042 C 
BRANCH  24  25
ATOM     25  C   UNL A   1      32.516  32.816  27.267  1.00  0.00     0.118 C 
BRANCH  25  26
ATOM     26  N   UNL A   1      32.381  34.221  27.602  1.00  0.00    -0.352 N 
ATOM     27  C   UNL A   1      32.961  34.929  28.623  1.00  0.00     0.251 C 
ATOM     28  H   UNL A   1      31.788  34.741  27.011  1.00  0.00     0.163 HD
ATOM     29  O   UNL A   1      32.505  36.038  28.914  1.00  0.00    -0.269 OA
BRANCH  27  30
ATOM     30  C   UNL A   1      34.130  34.410  29.376  1.00  0.00     0.039 A 
ATOM     31  C   UNL A   1      35.407  34.596  28.830  1.00  0.00     0.014 A 
ATOM     32  C   UNL A   1      33.983  33.632  30.529  1.00  0.00     0.014 A 
ATOM     33  C   UNL A   1      36.523  33.996  29.423  1.00  0.00     0.010 A 
ATOM     34  C   UNL A   1      35.106  33.065  31.145  1.00  0.00     0.010 A 
ATOM     35  C   UNL A   1      36.381  33.212  30.578  1.00  0.00    -0.014 A 
BRANCH  35  36
ATOM     36  C   UNL A   1      37.549  32.484  31.143  1.00  0.00     0.031 A 
ATOM     37  C   UNL A   1      38.070  32.837  32.511  1.00  0.00     0.074 A 
ATOM     38  C   UNL A   1      38.146  31.505  30.439  1.00  0.00     0.049 A 
ATOM     39  N   UNL A   1      39.067  32.314  33.183  1.00  0.00    -0.248 NA
ATOM     40  C   UNL A   1      37.388  33.934  33.213  1.00  0.00     0.031 C 
ATOM     41  C   UNL A   1      37.755  31.074  29.099  1.00  0.00     0.029 A 
ATOM     42  N   UNL A   1      39.210  30.696  30.756  1.00  0.00    -0.354 N 
ATOM     43  C   UNL A   1      39.136  33.022  34.376  1.00  0.00     0.074 A 
ATOM     44  C   UNL A   1      38.109  34.041  34.320  1.00  0.00     0.031 C 
ATOM     45  C   UNL A   1      38.554  30.064  28.715  1.00  0.00     0.029 A 
ATOM     46  C   UNL A   1      39.526  29.793  29.772  1.00  0.00     0.049 A 
ATOM     47  H   UNL A   1      39.698  30.757  31.609  1.00  0.00     0.167 HD
ATOM     48  C   UNL A   1      39.964  32.830  35.432  1.00  0.00     0.037 A 
ATOM     49  C   UNL A   1      40.489  28.851  29.728  1.00  0.00     0.037 A 
ATOM     50  C   UNL A   1      40.973  31.805  35.504  1.00  0.00     0.049 A 
ATOM     51  C   UNL A   1      41.407  28.666  30.906  1.00  0.00     0.074 A 
ATOM     52  C   UNL A   1      41.825  31.502  36.553  1.00  0.00     0.029 A 
ATOM     53  N   UNL A   1      41.269  30.917  34.481  1.00  0.00    -0.354 N 
ATOM     54  N   UNL A   1      41.423  29.304  32.050  1.00  0.00    -0.248 NA
ATOM     55  C   UNL A   1      42.435  27.622  30.786  1.00  0.00     0.031 C 
ATOM     56  C   UNL A   1      42.662  30.456  36.150  1.00  0.00     0.029 A 
ATOM     57  C   UNL A   1      42.303  30.079  34.866  1.00  0.00     0.049 A 
ATOM     58  H   UNL A   1      40.811  30.886  33.610  1.00  0.00     0.167 HD
ATOM     59  C   UNL A   1      42.442  28.724  32.795  1.00  0.00     0.074 A 
ATOM     60  C   UNL A   1      43.014  27.675  31.977  1.00  0.00     0.031 C 
ATOM     61  C   UNL A   1      42.862  29.034  34.047  1.00  0.00     0.037 A 
BRANCH  48  62
ATOM     62  C   UNL A   1      39.813  33.759  36.602  1.00  0.00     0.064 A 
ATOM     63  C   UNL A   1      38.952  33.460  37.670  1.00  0.00     0.173 A 
ATOM     64  C   UNL A   1      40.553  34.948  36.669  1.00  0.00     0.173 A 
ATOM     65  F   UNL A   1      38.216  32.339  37.650  1.00  0.00    -0.203 F 
ATOM     66  C   UNL A   1      38.812  34.337  38.743  1.00  0.00     0.198 A 
ATOM     67  C   UNL A   1      40.430  35.809  37.757  1.00  0.00     0.198 A 
ATOM     68  F   UNL A   1      41.396  35.277  35.678  1.00  0.00    -0.203 F 
ATOM     69  F   UNL A   1      37.945  34.056  39.727  1.00  0.00    -0.200 F 
ATOM     70  C   UNL A   1      39.554  35.507  38.788  1.00  0.00     0.200 A 
ATOM     71  F   UNL A   1      41.156  36.935  37.804  1.00  0.00    -0.200 F 
ATOM     72  F   UNL A   1      39.418  36.350  39.822  1.00  0.00    -0.200 F 
ENDBRANCH  48  62
BRANCH  49  73
ATOM     73  C   UNL A   1      40.606  27.979  28.532  1.00  0.00     0.064 A 
ATOM     74  C   UNL A   1      39.948  26.743  28.481  1.00  0.00     0.173 A 
ATOM     75  C   UNL A   1      41.363  28.365  27.418  1.00  0.00     0.173 A 
ATOM     76  F   UNL A   1      39.231  26.322  29.533  1.00  0.00    -0.203 F 
ATOM     77  C   UNL A   1      40.049  25.920  27.361  1.00  0.00     0.198 A 
ATOM     78  C   UNL A   1      41.446  27.552  26.289  1.00  0.00     0.198 A 
ATOM     79  F   UNL A   1      42.011  29.539  27.419  1.00  0.00    -0.203 F 
ATOM     80  F   UNL A   1      39.436  24.729  27.349  1.00  0.00    -0.200 F 
ATOM     81  C   UNL A   1      40.793  26.329  26.264  1.00  0.00     0.200 A 
ATOM     82  F   UNL A   1      42.155  27.954  25.226  1.00  0.00    -0.200 F 
ATOM     83  F   UNL A   1      40.882  25.541  25.183  1.00  0.00    -0.200 F 
ENDBRANCH  49  73
BRANCH  61  84
ATOM     84  C   UNL A   1      43.976  28.210  34.622  1.00  0.00     0.064 A 
ATOM     85  C   UNL A   1      45.316  28.617  34.528  1.00  0.00     0.173 A 
ATOM     86  C   UNL A   1      43.698  27.019  35.308  1.00  0.00     0.173 A 
ATOM     87  F   UNL A   1      45.634  29.742  33.869  1.00  0.00    -0.203 F 
ATOM     88  C   UNL A   1      46.337  27.849  35.081  1.00  0.00     0.198 A 
ATOM     89  C   UNL A   1      44.719  26.266  35.880  1.00  0.00     0.198 A 
ATOM     90  F   UNL A   1      42.433  26.588  35.429  1.00  0.00    -0.203 F 
ATOM     91  F   UNL A   1      47.613  28.236  34.945  1.00  0.00    -0.200 F 
ATOM     92  C   UNL A   1      46.037  26.678  35.762  1.00  0.00     0.200 A 
ATOM     93  F   UNL A   1      44.428  25.139  36.546  1.00  0.00    -0.200 F 
ATOM     94  F   UNL A   1      47.022  25.943  36.298  1.00  0.00    -0.200 F 
ENDBRANCH  61  84
ENDBRANCH  35  36
ENDBRANCH  27  30
ENDBRANCH  25  26
ENDBRANCH  24  25
ENDBRANCH   1  24
TORSDOF 14
ENDMDL
MODEL 2
REMARK VINA RESULT:     -12.6      1.870      8.218
REMARK SMILES CC(C)(C)[N@@H+](CC(=O)NCCCNC(=O)c1ccc(-c2c3nc(c(-c4c(F)c(F)c(F)c(F)c4F)c4ccc([nH]4)c(-c4c(F)c(F)c(F)c(F)c4F)c4nc(c(-c5c(F)c(F)c(F)c(F)c5F)c5ccc2[nH]5)C=C4)C=C3)cc1)C[C@@H]1Cc2cc(F)ccc2O1
REMARK SMILES IDX 10 1 9 2 7 3 8 4 6 6 5 7 2 9 1 10 3 11 4 12 79 13 80 14
REMARK SMILES IDX 81 15 89 16 82 17 88 18 83 19 87 20 84 21 86 22 85 23 11 24
REMARK SMILES IDX 12 25 13 26 14 27 15 29 16 30 17 31 78 32 18 33 77 34 19 35
REMARK SMILES IDX 20 36 21 37 71 38 22 39 76 40 70 41 72 42 23 43 75 44 69 45
REMARK SMILES IDX 68 46 24 48 56 49 36 50 55 51 37 52 40 53 54 54 73 55 38 56
REMARK SMILES IDX 39 57 53 59 74 60 41 61 25 62 26 63 34 64 27 65 28 66 32 67
REMARK SMILES IDX 35 68 29 69 30 70 33 71 31 72 57 73 58 74 66 75 59 76 60 77
REMARK SMILES IDX 64 78 67 79 61 80 62 81 65 82 63 83 42 84 43 85 51 86 44 87
REMARK SMILES IDX 45 88 49 89 52 90 46 91 47 92 50 93 48 94
REMARK H PARENT 9 5 5 8 13 28 72 47 40 58
REMARK Flexibility Score: inf
ROOT
ATOM      1  C   UNL A   1      31.495  30.629  26.188  1.00  0.00     0.118 C 
ENDROOT
BRANCH   1   2
ATOM      2  N   UNL A   1      32.814  30.031  26.330  1.00  0.00    -0.351 N 
ATOM      3  C   UNL A   1      33.256  28.739  26.261  1.00  0.00     0.275 C 
ATOM      4  O   UNL A   1      34.477  28.562  26.308  1.00  0.00    -0.269 OA
ATOM      5  H   UNL A   1      33.528  30.685  26.508  1.00  0.00     0.163 HD
BRANCH   3   6
ATOM      6  C   UNL A   1      32.286  27.566  26.109  1.00  0.00     0.364 C 
BRANCH   6   7
ATOM      7  N   UNL A   1      32.649  26.642  25.010  1.00  0.00    -0.320 N 
ATOM      8  H   UNL A   1      32.125  25.838  24.661  1.00  0.00     0.349 HD
BRANCH   7   9
ATOM      9  C   UNL A   1      32.975  25.239  25.304  1.00  0.00     0.090 C 
ATOM     10  C   UNL A   1      32.136  24.728  26.508  1.00  0.00     0.078 C 
ATOM     11  C   UNL A   1      34.485  25.071  25.585  1.00  0.00     0.078 C 
ATOM     12  C   UNL A   1      32.612  24.242  24.184  1.00  0.00     0.078 C 
ENDBRANCH   7   9
BRANCH   7  13
ATOM     13  C   UNL A   1      32.779  27.275  23.691  1.00  0.00     0.309 C 
BRANCH  13  14
ATOM     14  C   UNL A   1      31.601  27.839  22.848  1.00  0.00     0.232 C 
ATOM     15  C   UNL A   1      31.474  29.375  22.839  1.00  0.00     0.090 C 
ATOM     16  O   UNL A   1      30.326  27.231  23.159  1.00  0.00    -0.484 OA
ATOM     17  C   UNL A   1      30.008  29.514  22.977  1.00  0.00     0.001 A 
ATOM     18  C   UNL A   1      29.428  28.261  23.099  1.00  0.00     0.123 A 
ATOM     19  C   UNL A   1      29.230  30.659  23.005  1.00  0.00     0.047 A 
ATOM     20  C   UNL A   1      28.059  28.094  23.201  1.00  0.00     0.050 A 
ATOM     21  C   UNL A   1      27.850  30.504  23.121  1.00  0.00     0.123 A 
ATOM     22  C   UNL A   1      27.258  29.237  23.204  1.00  0.00     0.043 A 
ATOM     23  F   UNL A   1      27.070  31.592  23.155  1.00  0.00    -0.207 F 
ENDBRANCH  13  14
ENDBRANCH   7  13
ENDBRANCH   6   7
ENDBRANCH   3   6
ENDBRANCH   1   2
BRANCH   1  24
ATOM     24  C   UNL A   1      31.426  32.123  26.521  1.00  0.00     0.042 C 
BRANCH  24  25
ATOM     25  C   UNL A   1      32.596  32.688  27.325  1.00  0.00     0.118 C 
BRANCH  25  26
ATOM     26  N   UNL A   1      32.447  34.113  27.548  1.00  0.00    -0.352 N 
ATOM     27  C   UNL A   1      32.978  34.895  28.542  1.00  0.00     0.251 C 
ATOM     28  H   UNL A   1      31.885  34.587  26.893  1.00  0.00     0.163 HD
ATOM     29  O   UNL A   1      32.511  36.021  28.728  1.00  0.00    -0.269 OA
BRANCH  27  30
ATOM     30  C   UNL A   1      34.108  34.434  29.388  1.00  0.00     0.039 A 
ATOM     31  C   UNL A   1      35.400  34.477  28.849  1.00  0.00     0.014 A 
ATOM     32  C   UNL A   1      33.903  33.839  30.637  1.00  0.00     0.014 A 
ATOM     33  C   UNL A   1      36.476  33.916  29.547  1.00  0.00     0.010 A 
ATOM     34  C   UNL A   1      34.987  33.314  31.353  1.00  0.00     0.010 A 
ATOM     35  C   UNL A   1      36.276  33.316  30.799  1.00  0.00    -0.014 A 
BRANCH  35  36
ATOM     36  C   UNL A   1      37.397  32.622  31.489  1.00  0.00     0.031 A 
ATOM     37  C   UNL A   1      38.124  31.494  30.805  1.00  0.00     0.074 A 
ATOM     38  C   UNL A   1      37.771  32.997  32.726  1.00  0.00     0.049 A 
ATOM     39  N   UNL A   1      39.132  30.773  31.232  1.00  0.00    -0.248 NA
ATOM     40  C   UNL A   1      37.646  31.119  29.466  1.00  0.00     0.031 C 
ATOM     41  C   UNL A   1      37.145  34.060  33.509  1.00  0.00     0.029 A 
ATOM     42  N   UNL A   1      38.771  32.525  33.540  1.00  0.00    -0.354 N 
ATOM     43  C   UNL A   1      39.399  29.857  30.223  1.00  0.00     0.074 A 
ATOM     44  C   UNL A   1      38.421  30.083  29.180  1.00  0.00     0.031 C 
ATOM     45  C   UNL A   1      37.787  34.175  34.683  1.00  0.00     0.029 A 
ATOM     46  C   UNL A   1      38.855  33.178  34.744  1.00  0.00     0.049 A 
ATOM     47  H   UNL A   1      39.372  31.787  33.284  1.00  0.00     0.167 HD
ATOM     48  C   UNL A   1      40.382  28.925  30.159  1.00  0.00     0.037 A 
ATOM     49  C   UNL A   1      39.699  32.998  35.779  1.00  0.00     0.037 A 
ATOM     50  C   UNL A   1      41.371  28.708  31.183  1.00  0.00     0.049 A 
ATOM     51  C   UNL A   1      40.772  31.947  35.692  1.00  0.00     0.074 A 
ATOM     52  C   UNL A   1      42.434  27.822  31.184  1.00  0.00     0.029 A 
ATOM     53  N   UNL A   1      41.415  29.385  32.392  1.00  0.00    -0.354 N 
ATOM     54  N   UNL A   1      41.050  31.127  34.709  1.00  0.00    -0.248 NA
ATOM     55  C   UNL A   1      41.654  31.804  36.860  1.00  0.00     0.031 C 
ATOM     56  C   UNL A   1      43.099  27.936  32.410  1.00  0.00     0.029 A 
ATOM     57  C   UNL A   1      42.474  28.922  33.156  1.00  0.00     0.049 A 
ATOM     58  H   UNL A   1      40.786  30.091  32.668  1.00  0.00     0.167 HD
ATOM     59  C   UNL A   1      42.151  30.390  35.126  1.00  0.00     0.074 A 
ATOM     60  C   UNL A   1      42.498  30.868  36.448  1.00  0.00     0.031 C 
ATOM     61  C   UNL A   1      42.815  29.408  34.468  1.00  0.00     0.037 A 
BRANCH  48  62
ATOM     62  C   UNL A   1      40.431  28.060  28.932  1.00  0.00     0.064 A 
ATOM     63  C   UNL A   1      41.178  28.430  27.803  1.00  0.00     0.173 A 
ATOM     64  C   UNL A   1      39.743  26.838  28.893  1.00  0.00     0.173 A 
ATOM     65  F   UNL A   1      41.846  29.592  27.787  1.00  0.00    -0.203 F 
ATOM     66  C   UNL A   1      41.204  27.624  26.667  1.00  0.00     0.198 A 
ATOM     67  C   UNL A   1      39.794  26.023  27.765  1.00  0.00     0.198 A 
ATOM     68  F   UNL A   1      39.020  26.434  29.949  1.00  0.00    -0.203 F 
ATOM     69  F   UNL A   1      41.882  28.023  25.581  1.00  0.00    -0.200 F 
ATOM     70  C   UNL A   1      40.517  26.421  26.651  1.00  0.00     0.200 A 
ATOM     71  F   UNL A   1      39.138  24.854  27.755  1.00  0.00    -0.200 F 
ATOM     72  F   UNL A   1      40.544  25.647  25.556  1.00  0.00    -0.200 F 
ENDBRANCH  48  62
BRANCH  49  73
ATOM     73  C   UNL A   1      39.585  33.867  36.978  1.00  0.00     0.064 A 
ATOM     74  C   UNL A   1      40.201  35.126  37.009  1.00  0.00     0.173 A 
ATOM     75  C   UNL A   1      38.853  33.467  38.103  1.00  0.00     0.173 A 
ATOM     76  F   UNL A   1      40.930  35.541  35.964  1.00  0.00    -0.203 F 
ATOM     77  C   UNL A   1      40.095  35.950  38.128  1.00  0.00     0.198 A 
ATOM     78  C   UNL A   1      38.730  34.301  39.213  1.00  0.00     0.198 A 
ATOM     79  F   UNL A   1      38.246  32.271  38.120  1.00  0.00    -0.203 F 
ATOM     80  F   UNL A   1      40.720  37.135  38.146  1.00  0.00    -0.200 F 
ATOM     81  C   UNL A   1      39.355  35.539  39.226  1.00  0.00     0.200 A 
ATOM     82  F   UNL A   1      38.004  33.906  40.269  1.00  0.00    -0.200 F 
ATOM     83  F   UNL A   1      39.246  36.335  40.298  1.00  0.00    -0.200 F 
ENDBRANCH  49  73
BRANCH  61  84
ATOM     84  C   UNL A   1      44.003  28.802  35.155  1.00  0.00     0.064 A 
ATOM     85  C   UNL A   1      43.878  27.677  35.985  1.00  0.00     0.173 A 
ATOM     86  C   UNL A   1      45.287  29.329  34.952  1.00  0.00     0.173 A 
ATOM     87  F   UNL A   1      42.670  27.146  36.222  1.00  0.00    -0.203 F 
ATOM     88  C   UNL A   1      44.993  27.117  36.603  1.00  0.00     0.198 A 
ATOM     89  C   UNL A   1      46.402  28.752  35.552  1.00  0.00     0.198 A 
ATOM     90  F   UNL A   1      45.460  30.402  34.164  1.00  0.00    -0.203 F 
ATOM     91  F   UNL A   1      44.846  26.068  37.423  1.00  0.00    -0.200 F 
ATOM     92  C   UNL A   1      46.255  27.650  36.380  1.00  0.00     0.200 A 
ATOM     93  F   UNL A   1      47.622  29.263  35.329  1.00  0.00    -0.200 F 
ATOM     94  F   UNL A   1      47.327  27.106  36.973  1.00  0.00    -0.200 F 
ENDBRANCH  61  84
ENDBRANCH  35  36
ENDBRANCH  27  30
ENDBRANCH  25  26
ENDBRANCH  24  25
ENDBRANCH   1  24
TORSDOF 14
ENDMDL
MODEL 3
REMARK VINA RESULT:     -12.6      5.750      9.967
REMARK SMILES CC(C)(C)[N@@H+](CC(=O)NCCCNC(=O)c1ccc(-c2c3nc(c(-c4c(F)c(F)c(F)c(F)c4F)c4ccc([nH]4)c(-c4c(F)c(F)c(F)c(F)c4F)c4nc(c(-c5c(F)c(F)c(F)c(F)c5F)c5ccc2[nH]5)C=C4)C=C3)cc1)C[C@@H]1Cc2cc(F)ccc2O1
REMARK SMILES IDX 10 1 9 2 7 3 8 4 6 6 5 7 2 9 1 10 3 11 4 12 79 13 80 14
REMARK SMILES IDX 81 15 89 16 82 17 88 18 83 19 87 20 84 21 86 22 85 23 11 24
REMARK SMILES IDX 12 25 13 26 14 27 15 29 16 30 17 31 78 32 18 33 77 34 19 35
REMARK SMILES IDX 20 36 21 37 71 38 22 39 76 40 70 41 72 42 23 43 75 44 69 45
REMARK SMILES IDX 68 46 24 48 56 49 36 50 55 51 37 52 40 53 54 54 73 55 38 56
REMARK SMILES IDX 39 57 53 59 74 60 41 61 25 62 26 63 34 64 27 65 28 66 32 67
REMARK SMILES IDX 35 68 29 69 30 70 33 71 31 72 57 73 58 74 66 75 59 76 60 77
REMARK SMILES IDX 64 78 67 79 61 80 62 81 65 82 63 83 42 84 43 85 51 86 44 87
REMARK SMILES IDX 45 88 49 89 52 90 46 91 47 92 50 93 48 94
REMARK H PARENT 9 5 5 8 13 28 72 47 40 58
REMARK Flexibility Score: inf
ROOT
ATOM      1  C   UNL A   1      36.797  20.622  24.879  1.00  0.00     0.118 C 
ENDROOT
BRANCH   1   2
ATOM      2  N   UNL A   1      36.981  21.923  25.505  1.00  0.00    -0.351 N 
ATOM      3  C   UNL A   1      36.344  23.123  25.349  1.00  0.00     0.275 C 
ATOM      4  O   UNL A   1      36.661  24.029  26.126  1.00  0.00    -0.269 OA
ATOM      5  H   UNL A   1      37.705  21.942  26.173  1.00  0.00     0.163 HD
BRANCH   3   6
ATOM      6  C   UNL A   1      35.272  23.330  24.278  1.00  0.00     0.364 C 
BRANCH   6   7
ATOM      7  N   UNL A   1      33.966  23.758  24.829  1.00  0.00    -0.320 N 
ATOM      8  H   UNL A   1      33.081  23.881  24.336  1.00  0.00     0.349 HD
BRANCH   7   9
ATOM      9  C   UNL A   1      33.396  25.058  24.447  1.00  0.00     0.090 C 
ATOM     10  C   UNL A   1      31.873  25.093  24.754  1.00  0.00     0.078 C 
ATOM     11  C   UNL A   1      33.655  25.357  22.953  1.00  0.00     0.078 C 
ATOM     12  C   UNL A   1      33.936  26.261  25.247  1.00  0.00     0.078 C 
ENDBRANCH   7   9
BRANCH   7  13
ATOM     13  C   UNL A   1      33.403  22.862  25.848  1.00  0.00     0.309 C 
BRANCH  13  14
ATOM     14  C   UNL A   1      32.714  21.499  25.561  1.00  0.00     0.232 C 
ATOM     15  C   UNL A   1      33.505  20.254  26.009  1.00  0.00     0.090 C 
ATOM     16  O   UNL A   1      32.279  21.351  24.189  1.00  0.00    -0.484 OA
ATOM     17  C   UNL A   1      33.284  19.373  24.841  1.00  0.00     0.001 A 
ATOM     18  C   UNL A   1      32.542  20.043  23.882  1.00  0.00     0.123 A 
ATOM     19  C   UNL A   1      33.712  18.074  24.624  1.00  0.00     0.047 A 
ATOM     20  C   UNL A   1      32.153  19.439  22.701  1.00  0.00     0.050 A 
ATOM     21  C   UNL A   1      33.338  17.458  23.431  1.00  0.00     0.123 A 
ATOM     22  C   UNL A   1      32.554  18.121  22.478  1.00  0.00     0.043 A 
ATOM     23  F   UNL A   1      33.739  16.203  23.188  1.00  0.00    -0.207 F 
ENDBRANCH  13  14
ENDBRANCH   7  13
ENDBRANCH   6   7
ENDBRANCH   3   6
ENDBRANCH   1   2
BRANCH   1  24
ATOM     24  C   UNL A   1      37.995  19.674  25.000  1.00  0.00     0.042 C 
BRANCH  24  25
ATOM     25  C   UNL A   1      39.209  20.217  25.751  1.00  0.00     0.118 C 
BRANCH  25  26
ATOM     26  N   UNL A   1      40.176  19.171  26.022  1.00  0.00    -0.352 N 
ATOM     27  C   UNL A   1      41.540  19.259  26.136  1.00  0.00     0.251 C 
ATOM     28  H   UNL A   1      39.800  18.269  26.142  1.00  0.00     0.163 HD
ATOM     29  O   UNL A   1      42.211  18.225  26.085  1.00  0.00    -0.269 OA
BRANCH  27  30
ATOM     30  C   UNL A   1      42.231  20.558  26.337  1.00  0.00     0.039 A 
ATOM     31  C   UNL A   1      42.293  21.083  27.634  1.00  0.00     0.014 A 
ATOM     32  C   UNL A   1      42.693  21.325  25.263  1.00  0.00     0.014 A 
ATOM     33  C   UNL A   1      42.798  22.370  27.853  1.00  0.00     0.010 A 
ATOM     34  C   UNL A   1      43.236  22.597  25.487  1.00  0.00     0.010 A 
ATOM     35  C   UNL A   1      43.261  23.145  26.778  1.00  0.00    -0.014 A 
BRANCH  35  36
ATOM     36  C   UNL A   1      43.693  24.552  26.996  1.00  0.00     0.031 A 
ATOM     37  C   UNL A   1      42.710  25.577  27.494  1.00  0.00     0.074 A 
ATOM     38  C   UNL A   1      44.966  24.917  26.751  1.00  0.00     0.049 A 
ATOM     39  N   UNL A   1      42.893  26.848  27.757  1.00  0.00    -0.248 NA
ATOM     40  C   UNL A   1      41.331  25.114  27.714  1.00  0.00     0.031 C 
ATOM     41  C   UNL A   1      46.015  24.032  26.252  1.00  0.00     0.029 A 
ATOM     42  N   UNL A   1      45.589  26.133  26.893  1.00  0.00    -0.354 N 
ATOM     43  C   UNL A   1      41.657  27.335  28.162  1.00  0.00     0.074 A 
ATOM     44  C   UNL A   1      40.721  26.235  28.069  1.00  0.00     0.031 C 
ATOM     45  C   UNL A   1      47.160  24.728  26.147  1.00  0.00     0.029 A 
ATOM     46  C   UNL A   1      46.919  26.112  26.551  1.00  0.00     0.049 A 
ATOM     47  H   UNL A   1      45.127  26.943  27.210  1.00  0.00     0.167 HD
ATOM     48  C   UNL A   1      41.333  28.580  28.592  1.00  0.00     0.037 A 
ATOM     49  C   UNL A   1      47.839  27.095  26.564  1.00  0.00     0.037 A 
ATOM     50  C   UNL A   1      42.263  29.673  28.708  1.00  0.00     0.049 A 
ATOM     51  C   UNL A   1      47.453  28.473  27.031  1.00  0.00     0.074 A 
ATOM     52  C   UNL A   1      42.038  30.954  29.181  1.00  0.00     0.029 A 
ATOM     53  N   UNL A   1      43.600  29.612  28.341  1.00  0.00    -0.354 N 
ATOM     54  N   UNL A   1      46.296  28.905  27.466  1.00  0.00    -0.248 NA
ATOM     55  C   UNL A   1      48.509  29.496  27.015  1.00  0.00     0.031 C 
ATOM     56  C   UNL A   1      43.228  31.681  29.065  1.00  0.00     0.029 A 
ATOM     57  C   UNL A   1      44.206  30.840  28.558  1.00  0.00     0.049 A 
ATOM     58  H   UNL A   1      44.051  28.815  27.980  1.00  0.00     0.167 HD
ATOM     59  C   UNL A   1      46.488  30.240  27.799  1.00  0.00     0.074 A 
ATOM     60  C   UNL A   1      47.877  30.543  27.526  1.00  0.00     0.031 C 
ATOM     61  C   UNL A   1      45.590  31.131  28.289  1.00  0.00     0.037 A 
BRANCH  48  62
ATOM     62  C   UNL A   1      39.901  28.826  28.968  1.00  0.00     0.064 A 
ATOM     63  C   UNL A   1      39.443  28.635  30.281  1.00  0.00     0.173 A 
ATOM     64  C   UNL A   1      38.980  29.279  28.012  1.00  0.00     0.173 A 
ATOM     65  F   UNL A   1      40.282  28.194  31.231  1.00  0.00    -0.203 F 
ATOM     66  C   UNL A   1      38.109  28.855  30.614  1.00  0.00     0.198 A 
ATOM     67  C   UNL A   1      37.652  29.524  28.355  1.00  0.00     0.198 A 
ATOM     68  F   UNL A   1      39.367  29.486  26.744  1.00  0.00    -0.203 F 
ATOM     69  F   UNL A   1      37.683  28.617  31.863  1.00  0.00    -0.200 F 
ATOM     70  C   UNL A   1      37.217  29.304  29.652  1.00  0.00     0.200 A 
ATOM     71  F   UNL A   1      36.794  29.969  27.427  1.00  0.00    -0.200 F 
ATOM     72  F   UNL A   1      35.932  29.515  29.974  1.00  0.00    -0.200 F 
ENDBRANCH  48  62
BRANCH  49  73
ATOM     73  C   UNL A   1      49.235  26.797  26.156  1.00  0.00     0.064 A 
ATOM     74  C   UNL A   1      49.647  26.979  24.828  1.00  0.00     0.173 A 
ATOM     75  C   UNL A   1      50.185  26.341  27.080  1.00  0.00     0.173 A 
ATOM     76  F   UNL A   1      48.767  27.392  23.905  1.00  0.00    -0.203 F 
ATOM     77  C   UNL A   1      50.956  26.707  24.439  1.00  0.00     0.198 A 
ATOM     78  C   UNL A   1      51.500  26.090  26.694  1.00  0.00     0.198 A 
ATOM     79  F   UNL A   1      49.839  26.153  28.362  1.00  0.00    -0.203 F 
ATOM     80  F   UNL A   1      51.317  26.858  23.157  1.00  0.00    -0.200 F 
ATOM     81  C   UNL A   1      51.883  26.268  25.373  1.00  0.00     0.200 A 
ATOM     82  F   UNL A   1      52.396  25.678  27.601  1.00  0.00    -0.200 F 
ATOM     83  F   UNL A   1      53.145  26.015  24.999  1.00  0.00    -0.200 F 
ENDBRANCH  49  73
BRANCH  61  84
ATOM     84  C   UNL A   1      46.090  32.513  28.592  1.00  0.00     0.064 A 
ATOM     85  C   UNL A   1      46.644  32.837  29.839  1.00  0.00     0.173 A 
ATOM     86  C   UNL A   1      46.047  33.514  27.611  1.00  0.00     0.173 A 
ATOM     87  F   UNL A   1      46.693  31.918  30.815  1.00  0.00    -0.203 F 
ATOM     88  C   UNL A   1      47.118  34.121  30.099  1.00  0.00     0.198 A 
ATOM     89  C   UNL A   1      46.543  34.790  27.866  1.00  0.00     0.198 A 
ATOM     90  F   UNL A   1      45.530  33.254  26.400  1.00  0.00    -0.203 F 
ATOM     91  F   UNL A   1      47.606  34.420  31.311  1.00  0.00    -0.200 F 
ATOM     92  C   UNL A   1      47.073  35.093  29.111  1.00  0.00     0.200 A 
ATOM     93  F   UNL A   1      46.508  35.726  26.908  1.00  0.00    -0.200 F 
ATOM     94  F   UNL A   1      47.534  36.327  29.362  1.00  0.00    -0.200 F 
ENDBRANCH  61  84
ENDBRANCH  35  36
ENDBRANCH  27  30
ENDBRANCH  25  26
ENDBRANCH  24  25
ENDBRANCH   1  24
TORSDOF 14
ENDMDL
