MODEL 1
REMARK VINA RESULT:      -8.9      0.000      0.000
REMARK SMILES C=C[C@@H]1[C@@H](O)C[C@@H]2[C@@]3(CC[C@@]4(C)[C@@H]([C@H](C)CCC=C(C)C)CC[C@@]24C)C[C@@]13CCC(=O)NCCCNC(=O)c1ccc(-c2c3nc(c(-c4c(F)c(F)c(F)c(F)c4F)c4ccc([nH]4)c(-c4c(F)c(F)c(F)c(F)c4F)c4nc(c(-c5c(F)c(F)c(F)c(F)c5F)c5ccc2[nH]5)C=C4)C=C3)cc1
REMARK SMILES IDX 30 1 31 2 32 3 29 5 28 6 27 7 3 8 4 9 6 10 8 11 26 12 7 13
REMARK SMILES IDX 9 14 24 15 10 16 11 17 23 18 25 19 12 20 13 21 22 22 2 23
REMARK SMILES IDX 1 24 5 25 14 27 15 28 16 29 17 30 18 31 19 32 20 33 21 34
REMARK SMILES IDX 33 35 34 36 35 37 36 38 37 39 38 41 39 42 40 43 101 44 41 45
REMARK SMILES IDX 100 46 42 47 43 48 44 49 94 50 45 51 99 52 93 53 95 54 46 55
REMARK SMILES IDX 98 56 92 57 91 58 47 60 79 61 59 62 78 63 60 64 63 65 77 66
REMARK SMILES IDX 96 67 61 68 62 69 76 71 97 72 64 73 48 74 49 75 57 76 50 77
REMARK SMILES IDX 51 78 55 79 58 80 52 81 53 82 56 83 54 84 80 85 81 86 89 87
REMARK SMILES IDX 82 88 83 89 87 90 90 91 84 92 85 93 88 94 86 95 65 96 66 97
REMARK SMILES IDX 74 98 67 99 68 100 72 101 75 102 69 103 70 104 73 105 71 106
REMARK H PARENT 32 4 5 26 36 40 95 59 63 70
REMARK Flexibility Score: inf
ROOT
ATOM      1  C   UNL A   1      44.667  30.580  26.248  1.00  0.00     0.220 C 
ATOM      2  O   UNL A   1      45.370  29.568  26.129  1.00  0.00    -0.275 OA
ATOM      3  N   UNL A   1      45.222  31.731  25.780  1.00  0.00    -0.356 N 
ATOM      4  H   UNL A   1      46.110  31.602  25.373  1.00  0.00     0.163 HD
ENDROOT
BRANCH   1   5
ATOM      5  C   UNL A   1      43.313  30.461  26.932  1.00  0.00     0.100 C 
BRANCH   5   6
ATOM      6  C   UNL A   1      42.871  29.342  27.891  1.00  0.00     0.018 C 
BRANCH   6   7
ATOM      7  C   UNL A   1      41.514  28.737  27.626  1.00  0.00    -0.014 C 
ATOM      8  C   UNL A   1      40.454  28.907  28.780  1.00  0.00     0.047 C 
ATOM      9  C   UNL A   1      40.073  27.585  29.500  1.00  0.00     0.122 C 
ATOM     10  C   UNL A   1      39.947  26.372  28.545  1.00  0.00     0.037 C 
ATOM     11  C   UNL A   1      41.631  27.482  26.674  1.00  0.00    -0.019 C 
ATOM     12  C   UNL A   1      40.782  28.669  26.321  1.00  0.00     0.016 C 
ATOM     13  C   UNL A   1      41.349  26.104  27.935  1.00  0.00     0.005 C 
ATOM     14  C   UNL A   1      42.877  27.322  25.210  1.00  0.00     0.008 C 
ATOM     15  C   UNL A   1      42.160  24.356  27.630  1.00  0.00    -0.023 C 
ATOM     16  C   UNL A   1      43.875  25.685  25.000  1.00  0.00     0.008 C 
ATOM     17  C   UNL A   1      43.684  24.227  26.301  1.00  0.00    -0.024 C 
ATOM     18  C   UNL A   1      42.789  23.567  28.814  1.00  0.00     0.008 C 
ATOM     19  C   UNL A   1      40.600  23.767  27.720  1.00  0.00     0.012 C 
ATOM     20  C   UNL A   1      44.112  23.049  25.273  1.00  0.00     0.012 C 
ATOM     21  C   UNL A   1      44.947  23.938  27.376  1.00  0.00    -0.002 C 
ATOM     22  C   UNL A   1      44.234  23.124  28.505  1.00  0.00     0.005 C 
BRANCH   8  23
ATOM     23  C   UNL A   1      40.726  30.094  29.700  1.00  0.00    -0.028 C 
ATOM     24  C   UNL A   1      39.910  31.116  29.999  1.00  0.00     0.004 C 
ENDBRANCH   8  23
BRANCH   9  25
ATOM     25  O   UNL A   1      38.826  27.716  30.195  1.00  0.00    -0.392 OA
ATOM     26  H   UNL A   1      38.995  27.817  31.145  1.00  0.00     0.210 HD
ENDBRANCH   9  25
BRANCH  21  27
ATOM     27  C   UNL A   1      46.277  24.817  27.738  1.00  0.00    -0.010 C 
ATOM     28  C   UNL A   1      47.192  25.090  26.528  1.00  0.00     0.008 C 
BRANCH  27  29
ATOM     29  C   UNL A   1      47.099  24.826  29.104  1.00  0.00     0.008 C 
BRANCH  29  30
ATOM     30  C   UNL A   1      46.604  25.704  30.287  1.00  0.00     0.027 C 
BRANCH  30  31
ATOM     31  C   UNL A   1      45.223  26.332  30.258  1.00  0.00    -0.028 C 
ATOM     32  C   UNL A   1      44.218  26.151  31.151  1.00  0.00    -0.080 C 
ATOM     33  C   UNL A   1      43.034  27.086  31.197  1.00  0.00     0.039 C 
ATOM     34  C   UNL A   1      44.153  25.123  32.249  1.00  0.00     0.039 C 
ENDBRANCH  30  31
ENDBRANCH  29  30
ENDBRANCH  27  29
ENDBRANCH  21  27
ENDBRANCH   6   7
ENDBRANCH   5   6
ENDBRANCH   1   5
BRANCH   3  35
ATOM     35  C   UNL A   1      44.754  33.162  25.763  1.00  0.00     0.117 C 
BRANCH  35  36
ATOM     36  C   UNL A   1      45.579  35.056  25.406  1.00  0.00     0.042 C 
BRANCH  36  37
ATOM     37  C   UNL A   1      46.033  36.498  26.389  1.00  0.00     0.118 C 
BRANCH  37  38
ATOM     38  N   UNL A   1      45.170  37.745  26.561  1.00  0.00    -0.352 N 
ATOM     39  C   UNL A   1      43.836  37.890  26.912  1.00  0.00     0.251 C 
ATOM     40  H   UNL A   1      45.642  38.593  26.395  1.00  0.00     0.163 HD
ATOM     41  O   UNL A   1      43.133  38.817  26.580  1.00  0.00    -0.269 OA
BRANCH  39  42
ATOM     42  C   UNL A   1      43.391  36.865  27.813  1.00  0.00     0.039 A 
ATOM     43  C   UNL A   1      42.651  35.766  27.390  1.00  0.00     0.014 A 
ATOM     44  C   UNL A   1      44.123  36.934  28.991  1.00  0.00     0.014 A 
ATOM     45  C   UNL A   1      42.682  34.658  28.212  1.00  0.00     0.010 A 
ATOM     46  C   UNL A   1      44.362  35.767  29.633  1.00  0.00     0.010 A 
ATOM     47  C   UNL A   1      43.558  34.669  29.311  1.00  0.00    -0.014 A 
BRANCH  47  48
ATOM     48  C   UNL A   1      43.549  33.624  30.322  1.00  0.00     0.031 A 
ATOM     49  C   UNL A   1      44.704  32.667  30.293  1.00  0.00     0.074 A 
ATOM     50  C   UNL A   1      42.481  33.509  31.118  1.00  0.00     0.049 A 
ATOM     51  N   UNL A   1      44.857  31.545  30.930  1.00  0.00    -0.248 NA
ATOM     52  C   UNL A   1      45.789  32.952  29.323  1.00  0.00     0.031 C 
ATOM     53  C   UNL A   1      41.303  34.381  31.106  1.00  0.00     0.029 A 
ATOM     54  N   UNL A   1      42.230  32.612  32.107  1.00  0.00    -0.354 N 
ATOM     55  C   UNL A   1      46.015  30.994  30.404  1.00  0.00     0.074 A 
ATOM     56  C   UNL A   1      46.423  31.796  29.283  1.00  0.00     0.031 C 
ATOM     57  C   UNL A   1      40.489  34.022  32.112  1.00  0.00     0.029 A 
ATOM     58  C   UNL A   1      41.076  32.875  32.794  1.00  0.00     0.049 A 
ATOM     59  H   UNL A   1      42.818  31.849  32.309  1.00  0.00     0.167 HD
ATOM     60  C   UNL A   1      46.730  29.959  30.890  1.00  0.00     0.037 A 
ATOM     61  C   UNL A   1      40.594  32.246  33.877  1.00  0.00     0.037 A 
ATOM     62  C   UNL A   1      46.326  29.267  32.076  1.00  0.00     0.049 A 
ATOM     63  C   UNL A   1      41.418  31.112  34.427  1.00  0.00     0.074 A 
ATOM     64  C   UNL A   1      46.955  28.241  32.741  1.00  0.00     0.029 A 
ATOM     65  N   UNL A   1      45.166  29.574  32.784  1.00  0.00    -0.354 N 
ATOM     66  N   UNL A   1      42.555  30.621  33.983  1.00  0.00    -0.248 NA
ATOM     67  C   UNL A   1      40.906  30.454  35.629  1.00  0.00     0.031 C 
ATOM     68  C   UNL A   1      46.144  27.885  33.825  1.00  0.00     0.029 A 
ATOM     69  C   UNL A   1      45.044  28.735  33.871  1.00  0.00     0.049 A 
ATOM     70  H   UNL A   1      44.528  30.284  32.544  1.00  0.00     0.167 HD
ATOM     71  C   UNL A   1      42.908  29.610  34.861  1.00  0.00     0.074 A 
ATOM     72  C   UNL A   1      41.870  29.578  35.878  1.00  0.00     0.031 C 
ATOM     73  C   UNL A   1      43.978  28.774  34.843  1.00  0.00     0.037 A 
BRANCH  60  74
ATOM     74  C   UNL A   1      47.978  29.577  30.150  1.00  0.00     0.064 A 
ATOM     75  C   UNL A   1      49.254  30.007  30.560  1.00  0.00     0.173 A 
ATOM     76  C   UNL A   1      47.892  28.835  28.964  1.00  0.00     0.173 A 
ATOM     77  F   UNL A   1      49.395  30.749  31.669  1.00  0.00    -0.203 F 
ATOM     78  C   UNL A   1      50.382  29.759  29.782  1.00  0.00     0.198 A 
ATOM     79  C   UNL A   1      49.030  28.552  28.212  1.00  0.00     0.198 A 
ATOM     80  F   UNL A   1      46.701  28.412  28.517  1.00  0.00    -0.203 F 
ATOM     81  F   UNL A   1      51.569  30.267  30.143  1.00  0.00    -0.200 F 
ATOM     82  C   UNL A   1      50.270  29.026  28.611  1.00  0.00     0.200 A 
ATOM     83  F   UNL A   1      48.921  27.839  27.082  1.00  0.00    -0.200 F 
ATOM     84  F   UNL A   1      51.354  28.795  27.858  1.00  0.00    -0.200 F 
ENDBRANCH  60  74
BRANCH  61  85
ATOM     85  C   UNL A   1      39.350  32.730  34.524  1.00  0.00     0.064 A 
ATOM     86  C   UNL A   1      38.095  32.452  33.966  1.00  0.00     0.173 A 
ATOM     87  C   UNL A   1      39.382  33.439  35.734  1.00  0.00     0.173 A 
ATOM     88  F   UNL A   1      38.009  31.770  32.815  1.00  0.00    -0.203 F 
ATOM     89  C   UNL A   1      36.920  32.888  34.578  1.00  0.00     0.198 A 
ATOM     90  C   UNL A   1      38.207  33.850  36.360  1.00  0.00     0.198 A 
ATOM     91  F   UNL A   1      40.556  33.709  36.325  1.00  0.00    -0.203 F 
ATOM     92  F   UNL A   1      35.736  32.640  34.004  1.00  0.00    -0.200 F 
ATOM     93  C   UNL A   1      36.978  33.583  35.777  1.00  0.00     0.200 A 
ATOM     94  F   UNL A   1      38.266  34.498  37.532  1.00  0.00    -0.200 F 
ATOM     95  F   UNL A   1      35.849  33.995  36.370  1.00  0.00    -0.200 F 
ENDBRANCH  61  85
BRANCH  73  96
ATOM     96  C   UNL A   1      44.075  27.789  35.965  1.00  0.00     0.064 A 
ATOM     97  C   UNL A   1      43.444  26.541  35.896  1.00  0.00     0.173 A 
ATOM     98  C   UNL A   1      44.869  28.075  37.085  1.00  0.00     0.173 A 
ATOM     99  F   UNL A   1      42.669  26.231  34.845  1.00  0.00    -0.203 F 
ATOM    100  C   UNL A   1      43.581  25.620  36.928  1.00  0.00     0.198 A 
ATOM    101  C   UNL A   1      45.037  27.137  38.094  1.00  0.00     0.198 A 
ATOM    102  F   UNL A   1      45.505  29.253  37.182  1.00  0.00    -0.203 F 
ATOM    103  F   UNL A   1      42.926  24.453  36.871  1.00  0.00    -0.200 F 
ATOM    104  C   UNL A   1      44.385  25.914  38.020  1.00  0.00     0.200 A 
ATOM    105  F   UNL A   1      45.835  27.411  39.135  1.00  0.00    -0.200 F 
ATOM    106  F   UNL A   1      44.529  25.019  39.005  1.00  0.00    -0.200 F 
ENDBRANCH  73  96
ENDBRANCH  47  48
ENDBRANCH  39  42
ENDBRANCH  37  38
ENDBRANCH  36  37
ENDBRANCH  35  36
ENDBRANCH   3  35
TORSDOF 18
ENDMDL
MODEL 2
REMARK VINA RESULT:      -8.6      3.059      9.456
REMARK SMILES C=C[C@@H]1[C@@H](O)C[C@@H]2[C@@]3(CC[C@@]4(C)[C@@H]([C@H](C)CCC=C(C)C)CC[C@@]24C)C[C@@]13CCC(=O)NCCCNC(=O)c1ccc(-c2c3nc(c(-c4c(F)c(F)c(F)c(F)c4F)c4ccc([nH]4)c(-c4c(F)c(F)c(F)c(F)c4F)c4nc(c(-c5c(F)c(F)c(F)c(F)c5F)c5ccc2[nH]5)C=C4)C=C3)cc1
REMARK SMILES IDX 30 1 31 2 32 3 29 5 28 6 27 7 3 8 4 9 6 10 8 11 26 12 7 13
REMARK SMILES IDX 9 14 24 15 10 16 11 17 23 18 25 19 12 20 13 21 22 22 2 23
REMARK SMILES IDX 1 24 5 25 14 27 15 28 16 29 17 30 18 31 19 32 20 33 21 34
REMARK SMILES IDX 33 35 34 36 35 37 36 38 37 39 38 41 39 42 40 43 101 44 41 45
REMARK SMILES IDX 100 46 42 47 43 48 44 49 94 50 45 51 99 52 93 53 95 54 46 55
REMARK SMILES IDX 98 56 92 57 91 58 47 60 79 61 59 62 78 63 60 64 63 65 77 66
REMARK SMILES IDX 96 67 61 68 62 69 76 71 97 72 64 73 48 74 49 75 57 76 50 77
REMARK SMILES IDX 51 78 55 79 58 80 52 81 53 82 56 83 54 84 80 85 81 86 89 87
REMARK SMILES IDX 82 88 83 89 87 90 90 91 84 92 85 93 88 94 86 95 65 96 66 97
REMARK SMILES IDX 74 98 67 99 68 100 72 101 75 102 69 103 70 104 73 105 71 106
REMARK H PARENT 32 4 5 26 36 40 95 59 63 70
REMARK Flexibility Score: inf
ROOT
ATOM      1  C   UNL A   1      39.397  34.481  31.818  1.00  0.00     0.220 C 
ATOM      2  O   UNL A   1      39.523  34.916  32.970  1.00  0.00    -0.275 OA
ATOM      3  N   UNL A   1      38.172  34.672  31.256  1.00  0.00    -0.356 N 
ATOM      4  H   UNL A   1      37.547  35.168  31.834  1.00  0.00     0.163 HD
ENDROOT
BRANCH   1   5
ATOM      5  C   UNL A   1      40.565  33.748  31.175  1.00  0.00     0.100 C 
BRANCH   5   6
ATOM      6  C   UNL A   1      42.006  34.268  31.042  1.00  0.00     0.018 C 
BRANCH   6   7
ATOM      7  C   UNL A   1      43.047  33.561  31.875  1.00  0.00    -0.014 C 
ATOM      8  C   UNL A   1      43.785  34.452  32.946  1.00  0.00     0.047 C 
ATOM      9  C   UNL A   1      45.286  34.709  32.641  1.00  0.00     0.122 C 
ATOM     10  C   UNL A   1      46.022  33.475  32.063  1.00  0.00     0.037 C 
ATOM     11  C   UNL A   1      43.706  32.373  31.069  1.00  0.00    -0.019 C 
ATOM     12  C   UNL A   1      43.011  32.152  32.382  1.00  0.00     0.016 C 
ATOM     13  C   UNL A   1      45.386  33.147  30.686  1.00  0.00     0.005 C 
ATOM     14  C   UNL A   1      42.770  31.234  29.825  1.00  0.00     0.008 C 
ATOM     15  C   UNL A   1      46.340  32.599  29.076  1.00  0.00    -0.023 C 
ATOM     16  C   UNL A   1      43.578  30.845  28.117  1.00  0.00     0.008 C 
ATOM     17  C   UNL A   1      45.294  31.657  27.617  1.00  0.00    -0.024 C 
ATOM     18  C   UNL A   1      47.087  33.654  28.210  1.00  0.00     0.008 C 
ATOM     19  C   UNL A   1      47.580  32.184  30.114  1.00  0.00     0.012 C 
ATOM     20  C   UNL A   1      45.719  30.487  26.580  1.00  0.00     0.012 C 
ATOM     21  C   UNL A   1      45.299  32.878  26.459  1.00  0.00    -0.002 C 
ATOM     22  C   UNL A   1      46.673  33.575  26.725  1.00  0.00     0.005 C 
BRANCH   8  23
ATOM     23  C   UNL A   1      42.990  35.681  33.383  1.00  0.00    -0.028 C 
ATOM     24  C   UNL A   1      43.302  36.974  33.213  1.00  0.00     0.004 C 
ENDBRANCH   8  23
BRANCH   9  25
ATOM     25  O   UNL A   1      45.990  35.117  33.820  1.00  0.00    -0.392 OA
ATOM     26  H   UNL A   1      45.580  35.919  34.180  1.00  0.00     0.210 HD
ENDBRANCH   9  25
BRANCH  21  27
ATOM     27  C   UNL A   1      44.079  33.740  25.795  1.00  0.00    -0.010 C 
ATOM     28  C   UNL A   1      44.140  33.824  24.257  1.00  0.00     0.008 C 
BRANCH  27  29
ATOM     29  C   UNL A   1      43.319  34.996  26.418  1.00  0.00     0.008 C 
BRANCH  29  30
ATOM     30  C   UNL A   1      43.142  35.094  27.958  1.00  0.00     0.027 C 
BRANCH  30  31
ATOM     31  C   UNL A   1      44.217  35.729  28.821  1.00  0.00    -0.028 C 
ATOM     32  C   UNL A   1      44.416  37.052  29.048  1.00  0.00    -0.080 C 
ATOM     33  C   UNL A   1      45.291  37.528  30.183  1.00  0.00     0.039 C 
ATOM     34  C   UNL A   1      43.765  38.204  28.330  1.00  0.00     0.039 C 
ENDBRANCH  30  31
ENDBRANCH  29  30
ENDBRANCH  27  29
ENDBRANCH  21  27
ENDBRANCH   6   7
ENDBRANCH   5   6
ENDBRANCH   1   5
BRANCH   3  35
ATOM     35  C   UNL A   1      37.580  34.277  29.929  1.00  0.00     0.117 C 
BRANCH  35  36
ATOM     36  C   UNL A   1      35.693  33.779  29.163  1.00  0.00     0.042 C 
BRANCH  36  37
ATOM     37  C   UNL A   1      34.404  32.572  29.525  1.00  0.00     0.118 C 
BRANCH  37  38
ATOM     38  N   UNL A   1      33.811  31.597  28.511  1.00  0.00    -0.352 N 
ATOM     39  C   UNL A   1      34.411  30.831  27.522  1.00  0.00     0.251 C 
ATOM     40  H   UNL A   1      32.834  31.493  28.569  1.00  0.00     0.163 HD
ATOM     41  O   UNL A   1      33.868  30.472  26.503  1.00  0.00    -0.269 OA
BRANCH  39  42
ATOM     42  C   UNL A   1      35.735  30.408  27.884  1.00  0.00     0.039 A 
ATOM     43  C   UNL A   1      36.864  31.179  27.628  1.00  0.00     0.014 A 
ATOM     44  C   UNL A   1      35.655  29.391  28.827  1.00  0.00     0.014 A 
ATOM     45  C   UNL A   1      37.974  30.911  28.402  1.00  0.00     0.010 A 
ATOM     46  C   UNL A   1      36.646  29.330  29.747  1.00  0.00     0.010 A 
ATOM     47  C   UNL A   1      37.838  30.004  29.467  1.00  0.00    -0.014 A 
BRANCH  47  48
ATOM     48  C   UNL A   1      38.979  29.535  30.238  1.00  0.00     0.031 A 
ATOM     49  C   UNL A   1      39.095  30.066  31.635  1.00  0.00     0.074 A 
ATOM     50  C   UNL A   1      39.895  28.774  29.630  1.00  0.00     0.049 A 
ATOM     51  N   UNL A   1      40.091  29.980  32.466  1.00  0.00    -0.248 NA
ATOM     52  C   UNL A   1      37.982  30.913  32.128  1.00  0.00     0.031 C 
ATOM     53  C   UNL A   1      39.845  28.313  28.239  1.00  0.00     0.029 A 
ATOM     54  N   UNL A   1      41.044  28.241  30.123  1.00  0.00    -0.354 N 
ATOM     55  C   UNL A   1      39.732  30.787  33.535  1.00  0.00     0.074 A 
ATOM     56  C   UNL A   1      38.531  31.493  33.178  1.00  0.00     0.031 C 
ATOM     57  C   UNL A   1      40.881  27.489  28.019  1.00  0.00     0.029 A 
ATOM     58  C   UNL A   1      41.677  27.411  29.237  1.00  0.00     0.049 A 
ATOM     59  H   UNL A   1      41.387  28.432  31.025  1.00  0.00     0.167 HD
ATOM     60  C   UNL A   1      40.309  30.849  34.752  1.00  0.00     0.037 A 
ATOM     61  C   UNL A   1      42.769  26.659  29.442  1.00  0.00     0.037 A 
ATOM     62  C   UNL A   1      41.442  30.038  35.080  1.00  0.00     0.049 A 
ATOM     63  C   UNL A   1      43.385  26.715  30.815  1.00  0.00     0.074 A 
ATOM     64  C   UNL A   1      42.115  29.927  36.274  1.00  0.00     0.029 A 
ATOM     65  N   UNL A   1      42.050  29.170  34.177  1.00  0.00    -0.354 N 
ATOM     66  N   UNL A   1      43.017  27.421  31.862  1.00  0.00    -0.248 NA
ATOM     67  C   UNL A   1      44.555  25.866  31.042  1.00  0.00     0.031 C 
ATOM     68  C   UNL A   1      43.172  29.031  36.078  1.00  0.00     0.029 A 
ATOM     69  C   UNL A   1      43.114  28.535  34.780  1.00  0.00     0.049 A 
ATOM     70  H   UNL A   1      41.763  29.030  33.246  1.00  0.00     0.167 HD
ATOM     71  C   UNL A   1      43.893  27.088  32.881  1.00  0.00     0.074 A 
ATOM     72  C   UNL A   1      44.798  26.095  32.325  1.00  0.00     0.031 C 
ATOM     73  C   UNL A   1      43.965  27.550  34.155  1.00  0.00     0.037 A 
BRANCH  60  74
ATOM     74  C   UNL A   1      39.702  31.785  35.754  1.00  0.00     0.064 A 
ATOM     75  C   UNL A   1      40.204  33.082  35.968  1.00  0.00     0.173 A 
ATOM     76  C   UNL A   1      38.651  31.352  36.574  1.00  0.00     0.173 A 
ATOM     77  F   UNL A   1      41.232  33.540  35.237  1.00  0.00    -0.203 F 
ATOM     78  C   UNL A   1      39.717  33.882  36.999  1.00  0.00     0.198 A 
ATOM     79  C   UNL A   1      38.137  32.174  37.575  1.00  0.00     0.198 A 
ATOM     80  F   UNL A   1      38.142  30.121  36.425  1.00  0.00    -0.203 F 
ATOM     81  F   UNL A   1      40.282  35.073  37.246  1.00  0.00    -0.200 F 
ATOM     82  C   UNL A   1      38.679  33.429  37.798  1.00  0.00     0.200 A 
ATOM     83  F   UNL A   1      37.130  31.736  38.344  1.00  0.00    -0.200 F 
ATOM     84  F   UNL A   1      38.216  34.196  38.795  1.00  0.00    -0.200 F 
ENDBRANCH  60  74
BRANCH  61  85
ATOM     85  C   UNL A   1      43.265  25.764  28.368  1.00  0.00     0.064 A 
ATOM     86  C   UNL A   1      44.236  26.202  27.457  1.00  0.00     0.173 A 
ATOM     87  C   UNL A   1      42.818  24.439  28.254  1.00  0.00     0.173 A 
ATOM     88  F   UNL A   1      44.702  27.457  27.528  1.00  0.00    -0.203 F 
ATOM     89  C   UNL A   1      44.720  25.361  26.457  1.00  0.00     0.198 A 
ATOM     90  C   UNL A   1      43.323  23.590  27.272  1.00  0.00     0.198 A 
ATOM     91  F   UNL A   1      41.910  23.960  29.117  1.00  0.00    -0.203 F 
ATOM     92  F   UNL A   1      45.621  25.818  25.578  1.00  0.00    -0.200 F 
ATOM     93  C   UNL A   1      44.266  24.054  26.368  1.00  0.00     0.200 A 
ATOM     94  F   UNL A   1      42.901  22.319  27.207  1.00  0.00    -0.200 F 
ATOM     95  F   UNL A   1      44.737  23.242  25.412  1.00  0.00    -0.200 F 
ENDBRANCH  61  85
BRANCH  73  96
ATOM     96  C   UNL A   1      45.037  26.964  35.019  1.00  0.00     0.064 A 
ATOM     97  C   UNL A   1      44.824  25.789  35.751  1.00  0.00     0.173 A 
ATOM     98  C   UNL A   1      46.311  27.549  35.052  1.00  0.00     0.173 A 
ATOM     99  F   UNL A   1      43.616  25.203  35.753  1.00  0.00    -0.203 F 
ATOM    100  C   UNL A   1      45.844  25.235  36.513  1.00  0.00     0.198 A 
ATOM    101  C   UNL A   1      47.340  26.969  35.781  1.00  0.00     0.198 A 
ATOM    102  F   UNL A   1      46.562  28.666  34.350  1.00  0.00    -0.203 F 
ATOM    103  F   UNL A   1      45.607  24.141  37.251  1.00  0.00    -0.200 F 
ATOM    104  C   UNL A   1      47.103  25.818  36.518  1.00  0.00     0.200 A 
ATOM    105  F   UNL A   1      48.562  27.517  35.763  1.00  0.00    -0.200 F 
ATOM    106  F   UNL A   1      48.091  25.272  37.240  1.00  0.00    -0.200 F 
ENDBRANCH  73  96
ENDBRANCH  47  48
ENDBRANCH  39  42
ENDBRANCH  37  38
ENDBRANCH  36  37
ENDBRANCH  35  36
ENDBRANCH   3  35
TORSDOF 18
ENDMDL
MODEL 3
REMARK VINA RESULT:      -8.6      2.910      8.292
REMARK SMILES C=C[C@@H]1[C@@H](O)C[C@@H]2[C@@]3(CC[C@@]4(C)[C@@H]([C@H](C)CCC=C(C)C)CC[C@@]24C)C[C@@]13CCC(=O)NCCCNC(=O)c1ccc(-c2c3nc(c(-c4c(F)c(F)c(F)c(F)c4F)c4ccc([nH]4)c(-c4c(F)c(F)c(F)c(F)c4F)c4nc(c(-c5c(F)c(F)c(F)c(F)c5F)c5ccc2[nH]5)C=C4)C=C3)cc1
REMARK SMILES IDX 30 1 31 2 32 3 29 5 28 6 27 7 3 8 4 9 6 10 8 11 26 12 7 13
REMARK SMILES IDX 9 14 24 15 10 16 11 17 23 18 25 19 12 20 13 21 22 22 2 23
REMARK SMILES IDX 1 24 5 25 14 27 15 28 16 29 17 30 18 31 19 32 20 33 21 34
REMARK SMILES IDX 33 35 34 36 35 37 36 38 37 39 38 41 39 42 40 43 101 44 41 45
REMARK SMILES IDX 100 46 42 47 43 48 44 49 94 50 45 51 99 52 93 53 95 54 46 55
REMARK SMILES IDX 98 56 92 57 91 58 47 60 79 61 59 62 78 63 60 64 63 65 77 66
REMARK SMILES IDX 96 67 61 68 62 69 76 71 97 72 64 73 48 74 49 75 57 76 50 77
REMARK SMILES IDX 51 78 55 79 58 80 52 81 53 82 56 83 54 84 80 85 81 86 89 87
REMARK SMILES IDX 82 88 83 89 87 90 90 91 84 92 85 93 88 94 86 95 65 96 66 97
REMARK SMILES IDX 74 98 67 99 68 100 72 101 75 102 69 103 70 104 73 105 71 106
REMARK H PARENT 32 4 5 26 36 40 95 59 63 70
REMARK Flexibility Score: inf
ROOT
ATOM      1  C   UNL A   1      47.110  27.484  29.820  1.00  0.00     0.220 C 
ATOM      2  O   UNL A   1      47.122  27.811  31.014  1.00  0.00    -0.275 OA
ATOM      3  N   UNL A   1      47.680  26.281  29.541  1.00  0.00    -0.356 N 
ATOM      4  H   UNL A   1      48.004  25.804  30.341  1.00  0.00     0.163 HD
ENDROOT
BRANCH   1   5
ATOM      5  C   UNL A   1      46.527  28.450  28.798  1.00  0.00     0.100 C 
BRANCH   5   6
ATOM      6  C   UNL A   1      46.223  29.941  29.021  1.00  0.00     0.018 C 
BRANCH   6   7
ATOM      7  C   UNL A   1      45.872  30.740  27.790  1.00  0.00    -0.014 C 
ATOM      8  C   UNL A   1      47.094  31.344  26.997  1.00  0.00     0.047 C 
ATOM      9  C   UNL A   1      47.195  32.892  27.059  1.00  0.00     0.122 C 
ATOM     10  C   UNL A   1      45.823  33.607  26.972  1.00  0.00     0.037 C 
ATOM     11  C   UNL A   1      44.459  31.425  27.944  1.00  0.00    -0.019 C 
ATOM     12  C   UNL A   1      44.763  30.481  26.816  1.00  0.00     0.016 C 
ATOM     13  C   UNL A   1      45.004  33.211  28.230  1.00  0.00     0.005 C 
ATOM     14  C   UNL A   1      42.944  30.638  28.842  1.00  0.00     0.008 C 
ATOM     15  C   UNL A   1      43.871  34.394  29.288  1.00  0.00    -0.023 C 
ATOM     16  C   UNL A   1      41.923  31.710  30.078  1.00  0.00     0.008 C 
ATOM     17  C   UNL A   1      42.459  33.556  30.476  1.00  0.00    -0.024 C 
ATOM     18  C   UNL A   1      44.506  35.382  30.308  1.00  0.00     0.008 C 
ATOM     19  C   UNL A   1      43.866  35.376  27.938  1.00  0.00     0.012 C 
ATOM     20  C   UNL A   1      40.976  34.058  30.895  1.00  0.00     0.012 C 
ATOM     21  C   UNL A   1      43.146  33.888  31.976  1.00  0.00    -0.002 C 
ATOM     22  C   UNL A   1      43.873  35.246  31.709  1.00  0.00     0.005 C 
BRANCH   8  23
ATOM     23  C   UNL A   1      48.407  30.597  27.221  1.00  0.00    -0.028 C 
ATOM     24  C   UNL A   1      49.461  30.976  27.958  1.00  0.00     0.004 C 
ENDBRANCH   8  23
BRANCH   9  25
ATOM     25  O   UNL A   1      48.012  33.399  25.995  1.00  0.00    -0.392 OA
ATOM     26  H   UNL A   1      47.452  33.613  25.233  1.00  0.00     0.210 HD
ENDBRANCH   9  25
BRANCH  21  27
ATOM     27  C   UNL A   1      43.707  32.896  33.149  1.00  0.00    -0.010 C 
ATOM     28  C   UNL A   1      44.204  33.637  34.407  1.00  0.00     0.008 C 
BRANCH  27  29
ATOM     29  C   UNL A   1      44.441  31.492  32.972  1.00  0.00     0.008 C 
BRANCH  29  30
ATOM     30  C   UNL A   1      45.964  31.461  32.666  1.00  0.00     0.027 C 
BRANCH  30  31
ATOM     31  C   UNL A   1      46.534  32.241  31.497  1.00  0.00    -0.028 C 
ATOM     32  C   UNL A   1      47.246  33.395  31.546  1.00  0.00    -0.080 C 
ATOM     33  C   UNL A   1      48.038  33.877  30.354  1.00  0.00     0.039 C 
ATOM     34  C   UNL A   1      47.448  34.287  32.741  1.00  0.00     0.039 C 
ENDBRANCH  30  31
ENDBRANCH  29  30
ENDBRANCH  27  29
ENDBRANCH  21  27
ENDBRANCH   6   7
ENDBRANCH   5   6
ENDBRANCH   1   5
BRANCH   3  35
ATOM     35  C   UNL A   1      47.919  25.533  28.257  1.00  0.00     0.117 C 
BRANCH  35  36
ATOM     36  C   UNL A   1      46.789  24.436  26.872  1.00  0.00     0.042 C 
BRANCH  36  37
ATOM     37  C   UNL A   1      46.094  24.710  25.232  1.00  0.00     0.118 C 
BRANCH  37  38
ATOM     38  N   UNL A   1      44.695  24.282  24.793  1.00  0.00    -0.352 N 
ATOM     39  C   UNL A   1      43.504  24.198  25.498  1.00  0.00     0.251 C 
ATOM     40  H   UNL A   1      44.627  24.022  23.847  1.00  0.00     0.163 HD
ATOM     41  O   UNL A   1      42.598  23.441  25.234  1.00  0.00    -0.269 OA
BRANCH  39  42
ATOM     42  C   UNL A   1      43.405  25.192  26.530  1.00  0.00     0.039 A 
ATOM     43  C   UNL A   1      43.532  26.553  26.273  1.00  0.00     0.014 A 
ATOM     44  C   UNL A   1      42.791  24.640  27.647  1.00  0.00     0.014 A 
ATOM     45  C   UNL A   1      42.975  27.404  27.205  1.00  0.00     0.010 A 
ATOM     46  C   UNL A   1      42.024  25.467  28.395  1.00  0.00     0.010 A 
ATOM     47  C   UNL A   1      42.207  26.844  28.242  1.00  0.00    -0.014 A 
BRANCH  47  48
ATOM     48  C   UNL A   1      41.715  27.636  29.358  1.00  0.00     0.031 A 
ATOM     49  C   UNL A   1      42.481  27.515  30.642  1.00  0.00     0.074 A 
ATOM     50  C   UNL A   1      40.570  28.311  29.211  1.00  0.00     0.049 A 
ATOM     51  N   UNL A   1      42.166  27.939  31.829  1.00  0.00    -0.248 NA
ATOM     52  C   UNL A   1      43.722  26.703  30.611  1.00  0.00     0.031 C 
ATOM     53  C   UNL A   1      39.760  28.374  27.992  1.00  0.00     0.029 A 
ATOM     54  N   UNL A   1      39.904  29.090  30.103  1.00  0.00    -0.354 N 
ATOM     55  C   UNL A   1      43.138  27.408  32.664  1.00  0.00     0.074 A 
ATOM     56  C   UNL A   1      43.938  26.494  31.895  1.00  0.00     0.031 C 
ATOM     57  C   UNL A   1      38.743  29.228  28.191  1.00  0.00     0.029 A 
ATOM     58  C   UNL A   1      38.818  29.723  29.560  1.00  0.00     0.049 A 
ATOM     59  H   UNL A   1      40.173  29.189  31.044  1.00  0.00     0.167 HD
ATOM     60  C   UNL A   1      43.396  27.744  33.944  1.00  0.00     0.037 A 
ATOM     61  C   UNL A   1      38.012  30.627  30.137  1.00  0.00     0.037 A 
ATOM     62  C   UNL A   1      42.627  28.743  34.622  1.00  0.00     0.049 A 
ATOM     63  C   UNL A   1      38.331  31.014  31.557  1.00  0.00     0.074 A 
ATOM     64  C   UNL A   1      42.784  29.248  35.892  1.00  0.00     0.029 A 
ATOM     65  N   UNL A   1      41.549  29.404  34.040  1.00  0.00    -0.354 N 
ATOM     66  N   UNL A   1      39.291  30.575  32.341  1.00  0.00    -0.248 NA
ATOM     67  C   UNL A   1      37.470  32.027  32.168  1.00  0.00     0.031 C 
ATOM     68  C   UNL A   1      41.760  30.179  36.101  1.00  0.00     0.029 A 
ATOM     69  C   UNL A   1      41.008  30.300  34.938  1.00  0.00     0.049 A 
ATOM     70  H   UNL A   1      41.220  29.255  33.125  1.00  0.00     0.167 HD
ATOM     71  C   UNL A   1      39.167  31.270  33.532  1.00  0.00     0.074 A 
ATOM     72  C   UNL A   1      38.047  32.179  33.352  1.00  0.00     0.031 C 
ATOM     73  C   UNL A   1      39.892  31.177  34.676  1.00  0.00     0.037 A 
BRANCH  60  74
ATOM     74  C   UNL A   1      44.537  27.043  34.621  1.00  0.00     0.064 A 
ATOM     75  C   UNL A   1      44.353  25.875  35.384  1.00  0.00     0.173 A 
ATOM     76  C   UNL A   1      45.826  27.593  34.577  1.00  0.00     0.173 A 
ATOM     77  F   UNL A   1      43.134  25.321  35.491  1.00  0.00    -0.203 F 
ATOM     78  C   UNL A   1      45.398  25.321  36.118  1.00  0.00     0.198 A 
ATOM     79  C   UNL A   1      46.878  27.009  35.277  1.00  0.00     0.198 A 
ATOM     80  F   UNL A   1      46.058  28.713  33.878  1.00  0.00    -0.203 F 
ATOM     81  F   UNL A   1      45.171  24.267  36.916  1.00  0.00    -0.200 F 
ATOM     82  C   UNL A   1      46.662  25.886  36.060  1.00  0.00     0.200 A 
ATOM     83  F   UNL A   1      48.102  27.554  35.217  1.00  0.00    -0.200 F 
ATOM     84  F   UNL A   1      47.666  25.358  36.773  1.00  0.00    -0.200 F 
ENDBRANCH  60  74
BRANCH  61  85
ATOM     85  C   UNL A   1      36.921  31.256  29.353  1.00  0.00     0.064 A 
ATOM     86  C   UNL A   1      35.783  30.524  28.988  1.00  0.00     0.173 A 
ATOM     87  C   UNL A   1      36.967  32.610  28.989  1.00  0.00     0.173 A 
ATOM     88  F   UNL A   1      35.686  29.228  29.319  1.00  0.00    -0.203 F 
ATOM     89  C   UNL A   1      34.746  31.113  28.267  1.00  0.00     0.198 A 
ATOM     90  C   UNL A   1      35.918  33.206  28.292  1.00  0.00     0.198 A 
ATOM     91  F   UNL A   1      38.021  33.364  29.336  1.00  0.00    -0.203 F 
ATOM     92  F   UNL A   1      33.687  30.380  27.901  1.00  0.00    -0.200 F 
ATOM     93  C   UNL A   1      34.813  32.455  27.924  1.00  0.00     0.200 A 
ATOM     94  F   UNL A   1      35.975  34.510  27.987  1.00  0.00    -0.200 F 
ATOM     95  F   UNL A   1      33.812  33.024  27.237  1.00  0.00    -0.200 F 
ENDBRANCH  61  85
BRANCH  73  96
ATOM     96  C   UNL A   1      39.502  32.096  35.791  1.00  0.00     0.064 A 
ATOM     97  C   UNL A   1      40.061  33.374  35.911  1.00  0.00     0.173 A 
ATOM     98  C   UNL A   1      38.504  31.715  36.699  1.00  0.00     0.173 A 
ATOM     99  F   UNL A   1      41.025  33.775  35.067  1.00  0.00    -0.203 F 
ATOM    100  C   UNL A   1      39.656  34.232  36.927  1.00  0.00     0.198 A 
ATOM    101  C   UNL A   1      38.072  32.590  37.686  1.00  0.00     0.198 A 
ATOM    102  F   UNL A   1      37.930  30.505  36.607  1.00  0.00    -0.203 F 
ATOM    103  F   UNL A   1      40.241  35.430  37.061  1.00  0.00    -0.200 F 
ATOM    104  C   UNL A   1      38.654  33.844  37.805  1.00  0.00     0.200 A 
ATOM    105  F   UNL A   1      37.086  32.225  38.517  1.00  0.00    -0.200 F 
ATOM    106  F   UNL A   1      38.253  34.679  38.773  1.00  0.00    -0.200 F 
ENDBRANCH  73  96
ENDBRANCH  47  48
ENDBRANCH  39  42
ENDBRANCH  37  38
ENDBRANCH  36  37
ENDBRANCH  35  36
ENDBRANCH   3  35
TORSDOF 18
ENDMDL
