MODEL 1
REMARK VINA RESULT:     -12.7      0.000      0.000
REMARK SMILES C[C@H](C(=O)NCCCNC(=O)c1ccc(-c2c3nc(c(-c4c(F)c(F)c(F)c(F)c4F)c4ccc([nH]4)c(-c4c(F)c(F)c(F)c(F)c4F)c4nc(c(-c5c(F)c(F)c(F)c(F)c5F)c5ccc2[nH]5)C=C4)C=C3)cc1)c1ccc(-c2ccccc2)c(F)c1
REMARK SMILES IDX 7 1 6 2 5 3 3 4 4 5 2 7 1 8 75 9 76 10 87 11 77 12 85 13
REMARK SMILES IDX 78 14 86 15 79 16 80 17 84 18 81 19 83 20 82 21 8 22 9 23
REMARK SMILES IDX 10 24 11 26 12 27 13 28 74 29 14 30 73 31 15 32 16 33 17 34
REMARK SMILES IDX 67 35 18 36 72 37 66 38 68 39 19 40 71 41 65 42 64 43 20 45
REMARK SMILES IDX 52 46 32 47 51 48 33 49 36 50 50 51 69 52 34 53 35 54 49 56
REMARK SMILES IDX 70 57 37 58 21 59 22 60 30 61 23 62 24 63 28 64 31 65 25 66
REMARK SMILES IDX 26 67 29 68 27 69 53 70 54 71 62 72 55 73 56 74 60 75 63 76
REMARK SMILES IDX 57 77 58 78 61 79 59 80 38 81 39 82 47 83 40 84 41 85 45 86
REMARK SMILES IDX 48 87 42 88 43 89 46 90 44 91
REMARK H PARENT 5 6 9 25 68 44 36 55
REMARK Flexibility Score: inf
ROOT
ATOM      1  C   UNL A   1      37.772  19.615  25.014  1.00  0.00     0.042 C 
ENDROOT
BRANCH   1   2
ATOM      2  C   UNL A   1      36.582  20.569  24.902  1.00  0.00     0.117 C 
BRANCH   2   3
ATOM      3  N   UNL A   1      35.349  19.929  25.321  1.00  0.00    -0.356 N 
ATOM      4  C   UNL A   1      34.049  20.228  25.019  1.00  0.00     0.227 C 
ATOM      5  O   UNL A   1      33.181  19.584  25.614  1.00  0.00    -0.274 OA
ATOM      6  H   UNL A   1      35.467  19.155  25.919  1.00  0.00     0.163 HD
BRANCH   4   7
ATOM      7  C   UNL A   1      33.698  21.291  23.958  1.00  0.00     0.105 C 
ATOM      8  C   UNL A   1      32.346  20.943  23.314  1.00  0.00     0.023 C 
BRANCH   7   9
ATOM      9  C   UNL A   1      33.705  22.709  24.516  1.00  0.00    -0.033 A 
ATOM     10  C   UNL A   1      33.534  22.923  25.886  1.00  0.00     0.005 A 
ATOM     11  C   UNL A   1      33.834  23.838  23.703  1.00  0.00     0.044 A 
ATOM     12  C   UNL A   1      33.339  24.213  26.401  1.00  0.00     0.012 A 
ATOM     13  C   UNL A   1      33.711  25.128  24.239  1.00  0.00     0.131 A 
ATOM     14  C   UNL A   1      33.389  25.361  25.589  1.00  0.00     0.017 A 
ATOM     15  F   UNL A   1      33.899  26.150  23.389  1.00  0.00    -0.206 F 
BRANCH  14  16
ATOM     16  C   UNL A   1      33.053  26.710  26.136  1.00  0.00    -0.015 A 
ATOM     17  C   UNL A   1      33.999  27.755  26.184  1.00  0.00     0.009 A 
ATOM     18  C   UNL A   1      31.793  26.993  26.700  1.00  0.00     0.009 A 
ATOM     19  C   UNL A   1      33.717  28.990  26.783  1.00  0.00     0.001 A 
ATOM     20  C   UNL A   1      31.497  28.233  27.280  1.00  0.00     0.001 A 
ATOM     21  C   UNL A   1      32.464  29.229  27.332  1.00  0.00     0.000 A 
ENDBRANCH  14  16
ENDBRANCH   7   9
ENDBRANCH   4   7
ENDBRANCH   2   3
ENDBRANCH   1   2
BRANCH   1  22
ATOM     22  C   UNL A   1      38.985  20.218  25.713  1.00  0.00     0.118 C 
BRANCH  22  23
ATOM     23  N   UNL A   1      40.056  19.247  25.866  1.00  0.00    -0.352 N 
ATOM     24  C   UNL A   1      41.402  19.430  26.074  1.00  0.00     0.251 C 
ATOM     25  H   UNL A   1      39.771  18.306  25.813  1.00  0.00     0.163 HD
ATOM     26  O   UNL A   1      42.156  18.470  25.941  1.00  0.00    -0.269 OA
BRANCH  24  27
ATOM     27  C   UNL A   1      41.968  20.751  26.453  1.00  0.00     0.039 A 
ATOM     28  C   UNL A   1      42.100  21.050  27.815  1.00  0.00     0.014 A 
ATOM     29  C   UNL A   1      42.278  21.731  25.507  1.00  0.00     0.014 A 
ATOM     30  C   UNL A   1      42.558  22.308  28.223  1.00  0.00     0.010 A 
ATOM     31  C   UNL A   1      42.805  22.961  25.912  1.00  0.00     0.010 A 
ATOM     32  C   UNL A   1      42.926  23.272  27.274  1.00  0.00    -0.014 A 
BRANCH  32  33
ATOM     33  C   UNL A   1      43.383  24.626  27.688  1.00  0.00     0.031 A 
ATOM     34  C   UNL A   1      42.376  25.679  28.069  1.00  0.00     0.074 A 
ATOM     35  C   UNL A   1      44.697  24.926  27.685  1.00  0.00     0.049 A 
ATOM     36  N   UNL A   1      42.570  26.932  28.401  1.00  0.00    -0.248 NA
ATOM     37  C   UNL A   1      40.962  25.277  28.050  1.00  0.00     0.031 C 
ATOM     38  C   UNL A   1      45.772  24.012  27.302  1.00  0.00     0.029 A 
ATOM     39  N   UNL A   1      45.348  26.091  28.009  1.00  0.00    -0.354 N 
ATOM     40  C   UNL A   1      41.305  27.472  28.598  1.00  0.00     0.074 A 
ATOM     41  C   UNL A   1      40.349  26.423  28.314  1.00  0.00     0.031 C 
ATOM     42  C   UNL A   1      46.950  24.643  27.435  1.00  0.00     0.029 A 
ATOM     43  C   UNL A   1      46.713  26.012  27.881  1.00  0.00     0.049 A 
ATOM     44  H   UNL A   1      44.881  26.905  28.306  1.00  0.00     0.167 HD
ATOM     45  C   UNL A   1      40.969  28.721  29.000  1.00  0.00     0.037 A 
ATOM     46  C   UNL A   1      47.664  26.941  28.099  1.00  0.00     0.037 A 
ATOM     47  C   UNL A   1      41.917  29.752  29.331  1.00  0.00     0.049 A 
ATOM     48  C   UNL A   1      47.266  28.313  28.570  1.00  0.00     0.074 A 
ATOM     49  C   UNL A   1      41.674  31.026  29.815  1.00  0.00     0.029 A 
ATOM     50  N   UNL A   1      43.293  29.624  29.215  1.00  0.00    -0.354 N 
ATOM     51  N   UNL A   1      46.070  28.792  28.811  1.00  0.00    -0.248 NA
ATOM     52  C   UNL A   1      48.354  29.274  28.807  1.00  0.00     0.031 C 
ATOM     53  C   UNL A   1      42.903  31.680  29.962  1.00  0.00     0.029 A 
ATOM     54  C   UNL A   1      43.911  30.799  29.606  1.00  0.00     0.049 A 
ATOM     55  H   UNL A   1      43.760  28.815  28.902  1.00  0.00     0.167 HD
ATOM     56  C   UNL A   1      46.261  30.094  29.252  1.00  0.00     0.074 A 
ATOM     57  C   UNL A   1      47.691  30.328  29.259  1.00  0.00     0.031 C 
ATOM     58  C   UNL A   1      45.335  31.013  29.620  1.00  0.00     0.037 A 
BRANCH  45  59
ATOM     59  C   UNL A   1      39.506  29.046  29.107  1.00  0.00     0.064 A 
ATOM     60  C   UNL A   1      38.828  28.991  30.333  1.00  0.00     0.173 A 
ATOM     61  C   UNL A   1      38.784  29.449  27.974  1.00  0.00     0.173 A 
ATOM     62  F   UNL A   1      39.472  28.601  31.444  1.00  0.00    -0.203 F 
ATOM     63  C   UNL A   1      37.473  29.300  30.417  1.00  0.00     0.198 A 
ATOM     64  C   UNL A   1      37.435  29.784  28.066  1.00  0.00     0.198 A 
ATOM     65  F   UNL A   1      39.387  29.525  26.778  1.00  0.00    -0.203 F 
ATOM     66  F   UNL A   1      36.835  29.194  31.590  1.00  0.00    -0.200 F 
ATOM     67  C   UNL A   1      36.779  29.701  29.285  1.00  0.00     0.200 A 
ATOM     68  F   UNL A   1      36.768  30.183  26.974  1.00  0.00    -0.200 F 
ATOM     69  F   UNL A   1      35.476  30.002  29.368  1.00  0.00    -0.200 F 
ENDBRANCH  45  59
BRANCH  46  70
ATOM     70  C   UNL A   1      49.095  26.590  27.908  1.00  0.00     0.064 A 
ATOM     71  C   UNL A   1      49.649  26.528  26.622  1.00  0.00     0.173 A 
ATOM     72  C   UNL A   1      49.933  26.312  28.996  1.00  0.00     0.173 A 
ATOM     73  F   UNL A   1      48.880  26.765  25.549  1.00  0.00    -0.203 F 
ATOM     74  C   UNL A   1      50.986  26.187  26.431  1.00  0.00     0.198 A 
ATOM     75  C   UNL A   1      51.276  25.996  28.806  1.00  0.00     0.198 A 
ATOM     76  F   UNL A   1      49.449  26.361  30.247  1.00  0.00    -0.203 F 
ATOM     77  F   UNL A   1      51.482  26.097  25.190  1.00  0.00    -0.200 F 
ATOM     78  C   UNL A   1      51.801  25.927  27.523  1.00  0.00     0.200 A 
ATOM     79  F   UNL A   1      52.064  25.760  29.864  1.00  0.00    -0.200 F 
ATOM     80  F   UNL A   1      53.088  25.604  27.341  1.00  0.00    -0.200 F 
ENDBRANCH  46  70
BRANCH  58  81
ATOM     81  C   UNL A   1      45.838  32.344  30.093  1.00  0.00     0.064 A 
ATOM     82  C   UNL A   1      46.154  32.573  31.440  1.00  0.00     0.173 A 
ATOM     83  C   UNL A   1      46.039  33.392  29.182  1.00  0.00     0.173 A 
ATOM     84  F   UNL A   1      45.964  31.607  32.352  1.00  0.00    -0.203 F 
ATOM     85  C   UNL A   1      46.632  33.812  31.861  1.00  0.00     0.198 A 
ATOM     86  C   UNL A   1      46.540  34.620  29.602  1.00  0.00     0.198 A 
ATOM     87  F   UNL A   1      45.756  33.220  27.881  1.00  0.00    -0.203 F 
ATOM     88  F   UNL A   1      46.887  34.023  33.160  1.00  0.00    -0.200 F 
ATOM     89  C   UNL A   1      46.830  34.831  30.942  1.00  0.00     0.200 A 
ATOM     90  F   UNL A   1      46.740  35.601  28.711  1.00  0.00    -0.200 F 
ATOM     91  F   UNL A   1      47.293  36.021  31.349  1.00  0.00    -0.200 F 
ENDBRANCH  58  81
ENDBRANCH  32  33
ENDBRANCH  24  27
ENDBRANCH  22  23
ENDBRANCH   1  22
TORSDOF 12
ENDMDL
MODEL 2
REMARK VINA RESULT:     -12.6      4.031      7.686
REMARK SMILES C[C@H](C(=O)NCCCNC(=O)c1ccc(-c2c3nc(c(-c4c(F)c(F)c(F)c(F)c4F)c4ccc([nH]4)c(-c4c(F)c(F)c(F)c(F)c4F)c4nc(c(-c5c(F)c(F)c(F)c(F)c5F)c5ccc2[nH]5)C=C4)C=C3)cc1)c1ccc(-c2ccccc2)c(F)c1
REMARK SMILES IDX 7 1 6 2 5 3 3 4 4 5 2 7 1 8 75 9 76 10 87 11 77 12 85 13
REMARK SMILES IDX 78 14 86 15 79 16 80 17 84 18 81 19 83 20 82 21 8 22 9 23
REMARK SMILES IDX 10 24 11 26 12 27 13 28 74 29 14 30 73 31 15 32 16 33 17 34
REMARK SMILES IDX 67 35 18 36 72 37 66 38 68 39 19 40 71 41 65 42 64 43 20 45
REMARK SMILES IDX 52 46 32 47 51 48 33 49 36 50 50 51 69 52 34 53 35 54 49 56
REMARK SMILES IDX 70 57 37 58 21 59 22 60 30 61 23 62 24 63 28 64 31 65 25 66
REMARK SMILES IDX 26 67 29 68 27 69 53 70 54 71 62 72 55 73 56 74 60 75 63 76
REMARK SMILES IDX 57 77 58 78 61 79 59 80 38 81 39 82 47 83 40 84 41 85 45 86
REMARK SMILES IDX 48 87 42 88 43 89 46 90 44 91
REMARK H PARENT 5 6 9 25 68 44 36 55
REMARK Flexibility Score: inf
ROOT
ATOM      1  C   UNL A   1      33.618  27.871  25.859  1.00  0.00     0.042 C 
ENDROOT
BRANCH   1   2
ATOM      2  C   UNL A   1      33.806  26.366  25.668  1.00  0.00     0.117 C 
BRANCH   2   3
ATOM      3  N   UNL A   1      32.724  25.615  26.280  1.00  0.00    -0.356 N 
ATOM      4  C   UNL A   1      31.616  25.043  25.718  1.00  0.00     0.227 C 
ATOM      5  O   UNL A   1      30.789  24.560  26.497  1.00  0.00    -0.274 OA
ATOM      6  H   UNL A   1      32.800  25.500  27.254  1.00  0.00     0.163 HD
BRANCH   4   7
ATOM      7  C   UNL A   1      31.438  24.975  24.188  1.00  0.00     0.105 C 
ATOM      8  C   UNL A   1      30.707  23.675  23.816  1.00  0.00     0.023 C 
BRANCH   7   9
ATOM      9  C   UNL A   1      30.732  26.199  23.618  1.00  0.00    -0.033 A 
ATOM     10  C   UNL A   1      31.450  27.137  22.871  1.00  0.00     0.005 A 
ATOM     11  C   UNL A   1      29.379  26.462  23.845  1.00  0.00     0.044 A 
ATOM     12  C   UNL A   1      30.878  28.364  22.503  1.00  0.00     0.012 A 
ATOM     13  C   UNL A   1      28.796  27.661  23.410  1.00  0.00     0.131 A 
ATOM     14  C   UNL A   1      29.537  28.682  22.788  1.00  0.00     0.017 A 
ATOM     15  F   UNL A   1      27.480  27.801  23.631  1.00  0.00    -0.206 F 
BRANCH  14  16
ATOM     16  C   UNL A   1      28.988  30.042  22.500  1.00  0.00    -0.015 A 
ATOM     17  C   UNL A   1      28.559  30.418  21.211  1.00  0.00     0.009 A 
ATOM     18  C   UNL A   1      28.935  31.048  23.486  1.00  0.00     0.009 A 
ATOM     19  C   UNL A   1      28.134  31.721  20.916  1.00  0.00     0.001 A 
ATOM     20  C   UNL A   1      28.489  32.345  23.203  1.00  0.00     0.001 A 
ATOM     21  C   UNL A   1      28.099  32.685  21.914  1.00  0.00     0.000 A 
ENDBRANCH  14  16
ENDBRANCH   7   9
ENDBRANCH   4   7
ENDBRANCH   2   3
ENDBRANCH   1   2
BRANCH   1  22
ATOM     22  C   UNL A   1      33.476  28.297  27.316  1.00  0.00     0.118 C 
BRANCH  22  23
ATOM     23  N   UNL A   1      33.494  29.744  27.459  1.00  0.00    -0.352 N 
ATOM     24  C   UNL A   1      34.455  30.576  27.980  1.00  0.00     0.251 C 
ATOM     25  H   UNL A   1      32.687  30.202  27.129  1.00  0.00     0.163 HD
ATOM     26  O   UNL A   1      34.161  31.745  28.213  1.00  0.00    -0.269 OA
BRANCH  24  27
ATOM     27  C   UNL A   1      35.835  30.103  28.267  1.00  0.00     0.039 A 
ATOM     28  C   UNL A   1      36.113  29.607  29.547  1.00  0.00     0.014 A 
ATOM     29  C   UNL A   1      36.875  30.226  27.343  1.00  0.00     0.014 A 
ATOM     30  C   UNL A   1      37.413  29.219  29.890  1.00  0.00     0.010 A 
ATOM     31  C   UNL A   1      38.158  29.770  27.660  1.00  0.00     0.010 A 
ATOM     32  C   UNL A   1      38.447  29.286  28.944  1.00  0.00    -0.014 A 
BRANCH  32  33
ATOM     33  C   UNL A   1      39.842  28.910  29.299  1.00  0.00     0.031 A 
ATOM     34  C   UNL A   1      40.670  29.817  30.171  1.00  0.00     0.074 A 
ATOM     35  C   UNL A   1      40.382  27.778  28.809  1.00  0.00     0.049 A 
ATOM     36  N   UNL A   1      41.921  29.697  30.544  1.00  0.00    -0.248 NA
ATOM     37  C   UNL A   1      40.012  31.034  30.669  1.00  0.00     0.031 C 
ATOM     38  C   UNL A   1      39.704  26.831  27.925  1.00  0.00     0.029 A 
ATOM     39  N   UNL A   1      41.632  27.236  28.982  1.00  0.00    -0.354 N 
ATOM     40  C   UNL A   1      42.205  30.833  31.291  1.00  0.00     0.074 A 
ATOM     41  C   UNL A   1      41.009  31.650  31.289  1.00  0.00     0.031 C 
ATOM     42  C   UNL A   1      40.537  25.814  27.650  1.00  0.00     0.029 A 
ATOM     43  C   UNL A   1      41.815  26.051  28.313  1.00  0.00     0.049 A 
ATOM     44  H   UNL A   1      42.330  27.657  29.534  1.00  0.00     0.167 HD
ATOM     45  C   UNL A   1      43.349  31.159  31.938  1.00  0.00     0.037 A 
ATOM     46  C   UNL A   1      42.895  25.247  28.242  1.00  0.00     0.037 A 
ATOM     47  C   UNL A   1      44.523  30.328  31.983  1.00  0.00     0.049 A 
ATOM     48  C   UNL A   1      44.146  25.619  28.992  1.00  0.00     0.074 A 
ATOM     49  C   UNL A   1      45.705  30.539  32.671  1.00  0.00     0.029 A 
ATOM     50  N   UNL A   1      44.659  29.120  31.315  1.00  0.00    -0.354 N 
ATOM     51  N   UNL A   1      44.380  26.667  29.743  1.00  0.00    -0.248 NA
ATOM     52  C   UNL A   1      45.281  24.689  28.888  1.00  0.00     0.031 C 
ATOM     53  C   UNL A   1      46.570  29.474  32.393  1.00  0.00     0.029 A 
ATOM     54  C   UNL A   1      45.911  28.582  31.564  1.00  0.00     0.049 A 
ATOM     55  H   UNL A   1      43.968  28.706  30.749  1.00  0.00     0.167 HD
ATOM     56  C   UNL A   1      45.674  26.510  30.223  1.00  0.00     0.074 A 
ATOM     57  C   UNL A   1      46.171  25.259  29.687  1.00  0.00     0.031 C 
ATOM     58  C   UNL A   1      46.386  27.330  31.034  1.00  0.00     0.037 A 
BRANCH  45  59
ATOM     59  C   UNL A   1      43.390  32.478  32.655  1.00  0.00     0.064 A 
ATOM     60  C   UNL A   1      43.033  32.591  34.007  1.00  0.00     0.173 A 
ATOM     61  C   UNL A   1      43.823  33.635  31.991  1.00  0.00     0.173 A 
ATOM     62  F   UNL A   1      42.602  31.516  34.684  1.00  0.00    -0.203 F 
ATOM     63  C   UNL A   1      43.080  33.820  34.660  1.00  0.00     0.198 A 
ATOM     64  C   UNL A   1      43.895  34.857  32.655  1.00  0.00     0.198 A 
ATOM     65  F   UNL A   1      44.182  33.580  30.700  1.00  0.00    -0.203 F 
ATOM     66  F   UNL A   1      42.689  33.913  35.938  1.00  0.00    -0.200 F 
ATOM     67  C   UNL A   1      43.517  34.951  33.985  1.00  0.00     0.200 A 
ATOM     68  F   UNL A   1      44.328  35.947  32.005  1.00  0.00    -0.200 F 
ATOM     69  F   UNL A   1      43.565  36.132  34.616  1.00  0.00    -0.200 F 
ENDBRANCH  45  59
BRANCH  46  70
ATOM     70  C   UNL A   1      42.827  23.988  27.457  1.00  0.00     0.064 A 
ATOM     71  C   UNL A   1      42.430  22.788  28.065  1.00  0.00     0.173 A 
ATOM     72  C   UNL A   1      43.153  23.955  26.095  1.00  0.00     0.173 A 
ATOM     73  F   UNL A   1      42.130  22.767  29.372  1.00  0.00    -0.203 F 
ATOM     74  C   UNL A   1      42.376  21.600  27.340  1.00  0.00     0.198 A 
ATOM     75  C   UNL A   1      43.074  22.771  25.366  1.00  0.00     0.198 A 
ATOM     76  F   UNL A   1      43.536  25.078  25.468  1.00  0.00    -0.203 F 
ATOM     77  F   UNL A   1      42.031  20.460  27.954  1.00  0.00    -0.200 F 
ATOM     78  C   UNL A   1      42.693  21.592  25.991  1.00  0.00     0.200 A 
ATOM     79  F   UNL A   1      43.366  22.770  24.057  1.00  0.00    -0.200 F 
ATOM     80  F   UNL A   1      42.636  20.451  25.293  1.00  0.00    -0.200 F 
ENDBRANCH  46  70
BRANCH  58  81
ATOM     81  C   UNL A   1      47.765  26.884  31.422  1.00  0.00     0.064 A 
ATOM     82  C   UNL A   1      47.978  26.000  32.490  1.00  0.00     0.173 A 
ATOM     83  C   UNL A   1      48.882  27.321  30.695  1.00  0.00     0.173 A 
ATOM     84  F   UNL A   1      46.942  25.567  33.225  1.00  0.00    -0.203 F 
ATOM     85  C   UNL A   1      49.264  25.587  32.829  1.00  0.00     0.198 A 
ATOM     86  C   UNL A   1      50.163  26.887  31.022  1.00  0.00     0.198 A 
ATOM     87  F   UNL A   1      48.729  28.164  29.662  1.00  0.00    -0.203 F 
ATOM     88  F   UNL A   1      49.450  24.775  33.880  1.00  0.00    -0.200 F 
ATOM     89  C   UNL A   1      50.354  26.025  32.092  1.00  0.00     0.200 A 
ATOM     90  F   UNL A   1      51.215  27.303  30.302  1.00  0.00    -0.200 F 
ATOM     91  F   UNL A   1      51.590  25.624  32.418  1.00  0.00    -0.200 F 
ENDBRANCH  58  81
ENDBRANCH  32  33
ENDBRANCH  24  27
ENDBRANCH  22  23
ENDBRANCH   1  22
TORSDOF 12
ENDMDL
MODEL 3
REMARK VINA RESULT:     -12.5      5.128      9.619
REMARK SMILES C[C@H](C(=O)NCCCNC(=O)c1ccc(-c2c3nc(c(-c4c(F)c(F)c(F)c(F)c4F)c4ccc([nH]4)c(-c4c(F)c(F)c(F)c(F)c4F)c4nc(c(-c5c(F)c(F)c(F)c(F)c5F)c5ccc2[nH]5)C=C4)C=C3)cc1)c1ccc(-c2ccccc2)c(F)c1
REMARK SMILES IDX 7 1 6 2 5 3 3 4 4 5 2 7 1 8 75 9 76 10 87 11 77 12 85 13
REMARK SMILES IDX 78 14 86 15 79 16 80 17 84 18 81 19 83 20 82 21 8 22 9 23
REMARK SMILES IDX 10 24 11 26 12 27 13 28 74 29 14 30 73 31 15 32 16 33 17 34
REMARK SMILES IDX 67 35 18 36 72 37 66 38 68 39 19 40 71 41 65 42 64 43 20 45
REMARK SMILES IDX 52 46 32 47 51 48 33 49 36 50 50 51 69 52 34 53 35 54 49 56
REMARK SMILES IDX 70 57 37 58 21 59 22 60 30 61 23 62 24 63 28 64 31 65 25 66
REMARK SMILES IDX 26 67 29 68 27 69 53 70 54 71 62 72 55 73 56 74 60 75 63 76
REMARK SMILES IDX 57 77 58 78 61 79 59 80 38 81 39 82 47 83 40 84 41 85 45 86
REMARK SMILES IDX 48 87 42 88 43 89 46 90 44 91
REMARK H PARENT 5 6 9 25 68 44 36 55
REMARK Flexibility Score: inf
ROOT
ATOM      1  C   UNL A   1      32.160  28.051  26.356  1.00  0.00     0.042 C 
ENDROOT
BRANCH   1   2
ATOM      2  C   UNL A   1      32.772  26.652  26.453  1.00  0.00     0.117 C 
BRANCH   2   3
ATOM      3  N   UNL A   1      31.757  25.648  26.716  1.00  0.00    -0.356 N 
ATOM      4  C   UNL A   1      30.964  24.944  25.852  1.00  0.00     0.227 C 
ATOM      5  O   UNL A   1      30.094  24.230  26.359  1.00  0.00    -0.274 OA
ATOM      6  H   UNL A   1      31.618  25.441  27.668  1.00  0.00     0.163 HD
BRANCH   4   7
ATOM      7  C   UNL A   1      31.181  25.015  24.327  1.00  0.00     0.105 C 
ATOM      8  C   UNL A   1      30.653  23.726  23.676  1.00  0.00     0.023 C 
BRANCH   7   9
ATOM      9  C   UNL A   1      30.561  26.256  23.698  1.00  0.00    -0.033 A 
ATOM     10  C   UNL A   1      31.351  27.128  22.944  1.00  0.00     0.005 A 
ATOM     11  C   UNL A   1      29.219  26.601  23.875  1.00  0.00     0.044 A 
ATOM     12  C   UNL A   1      30.860  28.372  22.520  1.00  0.00     0.012 A 
ATOM     13  C   UNL A   1      28.716  27.815  23.384  1.00  0.00     0.131 A 
ATOM     14  C   UNL A   1      29.531  28.773  22.754  1.00  0.00     0.017 A 
ATOM     15  F   UNL A   1      27.404  28.034  23.561  1.00  0.00    -0.206 F 
BRANCH  14  16
ATOM     16  C   UNL A   1      29.068  30.150  22.407  1.00  0.00    -0.015 A 
ATOM     17  C   UNL A   1      29.078  31.201  23.346  1.00  0.00     0.009 A 
ATOM     18  C   UNL A   1      28.529  30.458  21.142  1.00  0.00     0.009 A 
ATOM     19  C   UNL A   1      28.555  32.469  23.053  1.00  0.00     0.001 A 
ATOM     20  C   UNL A   1      28.026  31.730  20.835  1.00  0.00     0.001 A 
ATOM     21  C   UNL A   1      28.028  32.733  21.796  1.00  0.00     0.000 A 
ENDBRANCH  14  16
ENDBRANCH   7   9
ENDBRANCH   4   7
ENDBRANCH   2   3
ENDBRANCH   1   2
BRANCH   1  22
ATOM     22  C   UNL A   1      33.045  29.065  25.640  1.00  0.00     0.118 C 
BRANCH  22  23
ATOM     23  N   UNL A   1      32.700  30.431  26.002  1.00  0.00    -0.352 N 
ATOM     24  C   UNL A   1      33.226  31.257  26.965  1.00  0.00     0.251 C 
ATOM     25  H   UNL A   1      31.973  30.828  25.470  1.00  0.00     0.163 HD
ATOM     26  O   UNL A   1      32.625  32.290  27.249  1.00  0.00    -0.269 OA
BRANCH  24  27
ATOM     27  C   UNL A   1      34.497  30.939  27.668  1.00  0.00     0.039 A 
ATOM     28  C   UNL A   1      34.643  29.665  28.231  1.00  0.00     0.014 A 
ATOM     29  C   UNL A   1      35.500  31.891  27.867  1.00  0.00     0.014 A 
ATOM     30  C   UNL A   1      35.789  29.342  28.966  1.00  0.00     0.010 A 
ATOM     31  C   UNL A   1      36.676  31.547  28.538  1.00  0.00     0.010 A 
ATOM     32  C   UNL A   1      36.823  30.278  29.117  1.00  0.00    -0.014 A 
BRANCH  32  33
ATOM     33  C   UNL A   1      38.033  29.965  29.923  1.00  0.00     0.031 A 
ATOM     34  C   UNL A   1      39.094  29.050  29.369  1.00  0.00     0.074 A 
ATOM     35  C   UNL A   1      38.166  30.466  31.167  1.00  0.00     0.049 A 
ATOM     36  N   UNL A   1      40.190  28.609  29.936  1.00  0.00    -0.248 NA
ATOM     37  C   UNL A   1      38.881  28.544  28.005  1.00  0.00     0.031 C 
ATOM     38  C   UNL A   1      37.197  31.332  31.837  1.00  0.00     0.029 A 
ATOM     39  N   UNL A   1      39.169  30.310  32.091  1.00  0.00    -0.354 N 
ATOM     40  C   UNL A   1      40.777  27.754  29.012  1.00  0.00     0.074 A 
ATOM     41  C   UNL A   1      39.899  27.707  27.862  1.00  0.00     0.031 C 
ATOM     42  C   UNL A   1      37.663  31.650  33.056  1.00  0.00     0.029 A 
ATOM     43  C   UNL A   1      38.946  30.986  33.265  1.00  0.00     0.049 A 
ATOM     44  H   UNL A   1      39.973  29.766  31.927  1.00  0.00     0.167 HD
ATOM     45  C   UNL A   1      41.950  27.083  29.103  1.00  0.00     0.037 A 
ATOM     46  C   UNL A   1      39.693  31.061  34.384  1.00  0.00     0.037 A 
ATOM     47  C   UNL A   1      42.850  27.165  30.224  1.00  0.00     0.049 A 
ATOM     48  C   UNL A   1      41.005  30.328  34.449  1.00  0.00     0.074 A 
ATOM     49  C   UNL A   1      44.094  26.579  30.378  1.00  0.00     0.029 A 
ATOM     50  N   UNL A   1      42.600  27.884  31.383  1.00  0.00    -0.354 N 
ATOM     51  N   UNL A   1      41.577  29.571  33.545  1.00  0.00    -0.248 NA
ATOM     52  C   UNL A   1      41.780  30.467  35.691  1.00  0.00     0.031 C 
ATOM     53  C   UNL A   1      44.584  26.917  31.644  1.00  0.00     0.029 A 
ATOM     54  C   UNL A   1      43.662  27.746  32.262  1.00  0.00     0.049 A 
ATOM     55  H   UNL A   1      41.788  28.415  31.555  1.00  0.00     0.167 HD
ATOM     56  C   UNL A   1      42.786  29.167  34.094  1.00  0.00     0.074 A 
ATOM     57  C   UNL A   1      42.873  29.773  35.407  1.00  0.00     0.031 C 
ATOM     58  C   UNL A   1      43.739  28.366  33.560  1.00  0.00     0.037 A 
BRANCH  45  59
ATOM     59  C   UNL A   1      42.334  26.196  27.953  1.00  0.00     0.064 A 
ATOM     60  C   UNL A   1      41.776  24.920  27.789  1.00  0.00     0.173 A 
ATOM     61  C   UNL A   1      43.247  26.643  26.986  1.00  0.00     0.173 A 
ATOM     62  F   UNL A   1      40.907  24.442  28.693  1.00  0.00    -0.203 F 
ATOM     63  C   UNL A   1      42.139  24.112  26.715  1.00  0.00     0.198 A 
ATOM     64  C   UNL A   1      43.586  25.843  25.898  1.00  0.00     0.198 A 
ATOM     65  F   UNL A   1      43.804  27.859  27.092  1.00  0.00    -0.203 F 
ATOM     66  F   UNL A   1      41.629  22.878  26.606  1.00  0.00    -0.200 F 
ATOM     67  C   UNL A   1      43.039  24.576  25.767  1.00  0.00     0.200 A 
ATOM     68  F   UNL A   1      44.447  26.297  24.976  1.00  0.00    -0.200 F 
ATOM     69  F   UNL A   1      43.384  23.799  24.732  1.00  0.00    -0.200 F 
ENDBRANCH  45  59
BRANCH  46  70
ATOM     70  C   UNL A   1      39.232  31.895  35.524  1.00  0.00     0.064 A 
ATOM     71  C   UNL A   1      38.396  31.355  36.512  1.00  0.00     0.173 A 
ATOM     72  C   UNL A   1      39.613  33.237  35.651  1.00  0.00     0.173 A 
ATOM     73  F   UNL A   1      37.988  30.080  36.420  1.00  0.00    -0.203 F 
ATOM     74  C   UNL A   1      37.948  32.132  37.577  1.00  0.00     0.198 A 
ATOM     75  C   UNL A   1      39.185  34.006  36.731  1.00  0.00     0.198 A 
ATOM     76  F   UNL A   1      40.413  33.799  34.733  1.00  0.00    -0.203 F 
ATOM     77  F   UNL A   1      37.119  31.602  38.487  1.00  0.00    -0.200 F 
ATOM     78  C   UNL A   1      38.347  33.455  37.690  1.00  0.00     0.200 A 
ATOM     79  F   UNL A   1      39.584  35.281  36.845  1.00  0.00    -0.200 F 
ATOM     80  F   UNL A   1      37.920  34.201  38.717  1.00  0.00    -0.200 F 
ENDBRANCH  46  70
BRANCH  58  81
ATOM     81  C   UNL A   1      44.974  28.126  34.376  1.00  0.00     0.064 A 
ATOM     82  C   UNL A   1      45.071  27.042  35.260  1.00  0.00     0.173 A 
ATOM     83  C   UNL A   1      46.085  28.973  34.247  1.00  0.00     0.173 A 
ATOM     84  F   UNL A   1      44.030  26.213  35.429  1.00  0.00    -0.203 F 
ATOM     85  C   UNL A   1      46.230  26.827  36.002  1.00  0.00     0.198 A 
ATOM     86  C   UNL A   1      47.250  28.741  34.972  1.00  0.00     0.198 A 
ATOM     87  F   UNL A   1      46.042  30.022  33.411  1.00  0.00    -0.203 F 
ATOM     88  F   UNL A   1      46.288  25.810  36.872  1.00  0.00    -0.200 F 
ATOM     89  C   UNL A   1      47.320  27.672  35.853  1.00  0.00     0.200 A 
ATOM     90  F   UNL A   1      48.306  29.554  34.819  1.00  0.00    -0.200 F 
ATOM     91  F   UNL A   1      48.435  27.462  36.566  1.00  0.00    -0.200 F 
ENDBRANCH  58  81
ENDBRANCH  32  33
ENDBRANCH  24  27
ENDBRANCH  22  23
ENDBRANCH   1  22
TORSDOF 12
ENDMDL
