MODEL 1
REMARK VINA RESULT:     -13.3      0.000      0.000
REMARK SMILES O=C(NCCCNC(=O)c1ccccc1-c1ccccc1C(=O)NCCc1ccccc1)c1ccc(-c2c3nc(c(-c4c(F)c(F)c(F)c(F)c4F)c4ccc([nH]4)c(-c4c(F)c(F)c(F)c(F)c4F)c4nc(c(-c5c(F)c(F)c(F)c(F)c5F)c5ccc2[nH]5)C=C4)C=C3)cc1
REMARK SMILES IDX 7 1 8 2 9 3 6 5 5 6 4 7 3 8 1 9 2 10 33 12 34 13 95 14 35 15
REMARK SMILES IDX 94 16 36 17 37 18 38 19 88 20 39 21 93 22 87 23 89 24 40 25
REMARK SMILES IDX 92 26 86 27 85 28 41 30 73 31 53 32 72 33 54 34 57 35 71 36
REMARK SMILES IDX 90 37 55 38 56 39 70 41 91 42 58 43 42 44 43 45 51 46 44 47
REMARK SMILES IDX 45 48 49 49 52 50 46 51 47 52 50 53 48 54 74 55 75 56 83 57
REMARK SMILES IDX 76 58 77 59 81 60 84 61 78 62 79 63 82 64 80 65 59 66 60 67
REMARK SMILES IDX 68 68 61 69 62 70 66 71 69 72 63 73 64 74 67 75 65 76 10 77
REMARK SMILES IDX 11 78 15 79 12 80 14 81 13 82 16 83 17 84 21 85 18 86 20 87
REMARK SMILES IDX 19 88 22 89 23 90 24 91 25 93 26 94 27 95 28 96 32 97 29 98
REMARK SMILES IDX 31 99 30 100
REMARK H PARENT 7 4 3 11 89 29 57 40 24 92
REMARK Flexibility Score: inf
ROOT
ATOM      1  N   UNL A   1      33.282  28.294  21.998  1.00  0.00    -0.352 N 
ATOM      2  C   UNL A   1      32.852  27.004  21.894  1.00  0.00     0.251 C 
ATOM      3  O   UNL A   1      33.278  26.277  21.003  1.00  0.00    -0.269 OA
ATOM      4  H   UNL A   1      33.658  28.689  21.179  1.00  0.00     0.163 HD
ENDROOT
BRANCH   1   5
ATOM      5  C   UNL A   1      33.255  29.161  23.164  1.00  0.00     0.118 C 
BRANCH   5   6
ATOM      6  C   UNL A   1      34.122  28.591  24.266  1.00  0.00     0.042 C 
BRANCH   6   7
ATOM      7  C   UNL A   1      33.392  28.629  25.597  1.00  0.00     0.118 C 
BRANCH   7   8
ATOM      8  N   UNL A   1      32.847  29.954  25.883  1.00  0.00    -0.352 N 
ATOM      9  O   UNL A   1      32.487  31.824  27.098  1.00  0.00    -0.269 OA
ATOM     10  C   UNL A   1      33.220  30.886  26.828  1.00  0.00     0.251 C 
ATOM     11  H   UNL A   1      32.094  30.225  25.309  1.00  0.00     0.163 HD
BRANCH  10  12
ATOM     12  C   UNL A   1      34.507  30.716  27.538  1.00  0.00     0.039 A 
ATOM     13  C   UNL A   1      34.833  29.479  28.077  1.00  0.00     0.014 A 
ATOM     14  C   UNL A   1      35.396  31.787  27.670  1.00  0.00     0.014 A 
ATOM     15  C   UNL A   1      35.888  29.371  28.959  1.00  0.00     0.010 A 
ATOM     16  C   UNL A   1      36.579  31.617  28.402  1.00  0.00     0.010 A 
ATOM     17  C   UNL A   1      36.818  30.415  29.082  1.00  0.00    -0.014 A 
BRANCH  17  18
ATOM     18  C   UNL A   1      38.057  30.128  29.850  1.00  0.00     0.031 A 
ATOM     19  C   UNL A   1      38.234  30.578  31.269  1.00  0.00     0.074 A 
ATOM     20  C   UNL A   1      38.984  29.344  29.259  1.00  0.00     0.049 A 
ATOM     21  N   UNL A   1      39.222  30.324  32.091  1.00  0.00    -0.248 NA
ATOM     22  C   UNL A   1      37.185  31.433  31.845  1.00  0.00     0.031 C 
ATOM     23  C   UNL A   1      38.921  28.871  27.872  1.00  0.00     0.029 A 
ATOM     24  N   UNL A   1      40.116  28.750  29.753  1.00  0.00    -0.354 N 
ATOM     25  C   UNL A   1      38.930  31.005  33.264  1.00  0.00     0.074 A 
ATOM     26  C   UNL A   1      37.680  31.702  33.045  1.00  0.00     0.031 C 
ATOM     27  C   UNL A   1      39.892  27.975  27.663  1.00  0.00     0.029 A 
ATOM     28  C   UNL A   1      40.715  27.893  28.860  1.00  0.00     0.049 A 
ATOM     29  H   UNL A   1      40.465  28.920  30.658  1.00  0.00     0.167 HD
ATOM     30  C   UNL A   1      39.643  31.036  34.416  1.00  0.00     0.037 A 
ATOM     31  C   UNL A   1      41.820  27.137  28.979  1.00  0.00     0.037 A 
ATOM     32  C   UNL A   1      40.877  30.320  34.622  1.00  0.00     0.049 A 
ATOM     33  C   UNL A   1      42.574  27.182  30.273  1.00  0.00     0.074 A 
ATOM     34  C   UNL A   1      41.683  30.293  35.747  1.00  0.00     0.029 A 
ATOM     35  N   UNL A   1      41.479  29.494  33.682  1.00  0.00    -0.354 N 
ATOM     36  N   UNL A   1      42.292  27.845  31.368  1.00  0.00    -0.248 NA
ATOM     37  C   UNL A   1      43.806  26.389  30.345  1.00  0.00     0.031 C 
ATOM     38  C   UNL A   1      42.789  29.479  35.476  1.00  0.00     0.029 A 
ATOM     39  C   UNL A   1      42.650  28.961  34.198  1.00  0.00     0.049 A 
ATOM     40  H   UNL A   1      41.126  29.315  32.780  1.00  0.00     0.167 HD
ATOM     41  C   UNL A   1      43.314  27.559  32.257  1.00  0.00     0.074 A 
ATOM     42  C   UNL A   1      44.197  26.623  31.590  1.00  0.00     0.031 C 
ATOM     43  C   UNL A   1      43.517  28.042  33.507  1.00  0.00     0.037 A 
BRANCH  30  44
ATOM     44  C   UNL A   1      39.120  31.885  35.539  1.00  0.00     0.064 A 
ATOM     45  C   UNL A   1      38.292  31.357  36.539  1.00  0.00     0.173 A 
ATOM     46  C   UNL A   1      39.497  33.233  35.647  1.00  0.00     0.173 A 
ATOM     47  F   UNL A   1      37.888  30.078  36.476  1.00  0.00    -0.203 F 
ATOM     48  C   UNL A   1      37.849  32.148  37.596  1.00  0.00     0.198 A 
ATOM     49  C   UNL A   1      39.074  34.015  36.718  1.00  0.00     0.198 A 
ATOM     50  F   UNL A   1      40.292  33.789  34.718  1.00  0.00    -0.203 F 
ATOM     51  F   UNL A   1      37.028  31.631  38.521  1.00  0.00    -0.200 F 
ATOM     52  C   UNL A   1      38.246  33.474  37.690  1.00  0.00     0.200 A 
ATOM     53  F   UNL A   1      39.470  35.292  36.813  1.00  0.00    -0.200 F 
ATOM     54  F   UNL A   1      37.829  34.231  38.715  1.00  0.00    -0.200 F 
ENDBRANCH  30  44
BRANCH  31  55
ATOM     55  C   UNL A   1      42.284  26.318  27.830  1.00  0.00     0.064 A 
ATOM     56  C   UNL A   1      41.746  25.050  27.572  1.00  0.00     0.173 A 
ATOM     57  C   UNL A   1      43.267  26.798  26.950  1.00  0.00     0.173 A 
ATOM     58  F   UNL A   1      40.816  24.537  28.392  1.00  0.00    -0.203 F 
ATOM     59  C   UNL A   1      42.183  24.290  26.489  1.00  0.00     0.198 A 
ATOM     60  C   UNL A   1      43.676  26.055  25.847  1.00  0.00     0.198 A 
ATOM     61  F   UNL A   1      43.811  28.009  27.147  1.00  0.00    -0.203 F 
ATOM     62  F   UNL A   1      41.684  23.062  26.291  1.00  0.00    -0.200 F 
ATOM     63  C   UNL A   1      43.141  24.797  25.622  1.00  0.00     0.200 A 
ATOM     64  F   UNL A   1      44.583  26.560  25.001  1.00  0.00    -0.200 F 
ATOM     65  F   UNL A   1      43.551  24.071  24.574  1.00  0.00    -0.200 F 
ENDBRANCH  31  55
BRANCH  43  66
ATOM     66  C   UNL A   1      44.743  27.554  34.219  1.00  0.00     0.064 A 
ATOM     67  C   UNL A   1      45.976  28.210  34.081  1.00  0.00     0.173 A 
ATOM     68  C   UNL A   1      44.687  26.417  35.037  1.00  0.00     0.173 A 
ATOM     69  F   UNL A   1      46.082  29.289  33.291  1.00  0.00    -0.203 F 
ATOM     70  C   UNL A   1      47.118  27.720  34.707  1.00  0.00     0.198 A 
ATOM     71  C   UNL A   1      45.824  25.950  35.687  1.00  0.00     0.198 A 
ATOM     72  F   UNL A   1      43.529  25.760  35.203  1.00  0.00    -0.203 F 
ATOM     73  F   UNL A   1      48.297  28.325  34.511  1.00  0.00    -0.200 F 
ATOM     74  C   UNL A   1      47.041  26.594  35.513  1.00  0.00     0.200 A 
ATOM     75  F   UNL A   1      45.748  24.866  36.471  1.00  0.00    -0.200 F 
ATOM     76  F   UNL A   1      48.142  26.120  36.111  1.00  0.00    -0.200 F 
ENDBRANCH  43  66
ENDBRANCH  17  18
ENDBRANCH  10  12
ENDBRANCH   7   8
ENDBRANCH   6   7
ENDBRANCH   5   6
ENDBRANCH   1   5
BRANCH   2  77
ATOM     77  C   UNL A   1      31.859  26.488  22.856  1.00  0.00     0.047 A 
ATOM     78  C   UNL A   1      30.618  27.150  22.867  1.00  0.00     0.014 A 
ATOM     79  C   UNL A   1      32.160  25.481  23.804  1.00  0.00    -0.005 A 
ATOM     80  C   UNL A   1      29.640  26.797  23.794  1.00  0.00     0.001 A 
ATOM     81  C   UNL A   1      31.130  25.126  24.704  1.00  0.00     0.009 A 
ATOM     82  C   UNL A   1      29.893  25.779  24.705  1.00  0.00     0.001 A 
BRANCH  79  83
ATOM     83  C   UNL A   1      33.468  24.776  23.910  1.00  0.00    -0.005 A 
ATOM     84  C   UNL A   1      34.296  25.180  24.997  1.00  0.00     0.009 A 
ATOM     85  C   UNL A   1      33.918  23.690  23.117  1.00  0.00     0.047 A 
ATOM     86  C   UNL A   1      35.465  24.506  25.348  1.00  0.00     0.001 A 
ATOM     87  C   UNL A   1      35.108  23.019  23.502  1.00  0.00     0.014 A 
ATOM     88  C   UNL A   1      35.865  23.409  24.607  1.00  0.00     0.001 A 
BRANCH  85  89
ATOM     89  C   UNL A   1      33.242  23.040  21.943  1.00  0.00     0.251 C 
ATOM     90  O   UNL A   1      33.653  23.325  20.813  1.00  0.00    -0.269 OA
ATOM     91  N   UNL A   1      32.154  22.209  22.022  1.00  0.00    -0.352 N 
ATOM     92  H   UNL A   1      31.751  21.976  21.156  1.00  0.00     0.163 HD
BRANCH  91  93
ATOM     93  C   UNL A   1      31.501  21.621  23.170  1.00  0.00     0.121 C 
BRANCH  93  94
ATOM     94  C   UNL A   1      32.363  20.719  24.044  1.00  0.00     0.057 C 
BRANCH  94  95
ATOM     95  C   UNL A   1      32.701  21.317  25.387  1.00  0.00    -0.046 A 
ATOM     96  C   UNL A   1      31.849  22.257  25.990  1.00  0.00     0.004 A 
ATOM     97  C   UNL A   1      33.867  20.932  26.056  1.00  0.00     0.004 A 
ATOM     98  C   UNL A   1      32.146  22.777  27.251  1.00  0.00     0.000 A 
ATOM     99  C   UNL A   1      34.163  21.453  27.316  1.00  0.00     0.000 A 
ATOM    100  C   UNL A   1      33.301  22.370  27.916  1.00  0.00     0.000 A 
ENDBRANCH  94  95
ENDBRANCH  93  94
ENDBRANCH  91  93
ENDBRANCH  85  89
ENDBRANCH  79  83
ENDBRANCH   2  77
TORSDOF 15
ENDMDL
MODEL 2
REMARK VINA RESULT:     -13.2      1.563      2.342
REMARK SMILES O=C(NCCCNC(=O)c1ccccc1-c1ccccc1C(=O)NCCc1ccccc1)c1ccc(-c2c3nc(c(-c4c(F)c(F)c(F)c(F)c4F)c4ccc([nH]4)c(-c4c(F)c(F)c(F)c(F)c4F)c4nc(c(-c5c(F)c(F)c(F)c(F)c5F)c5ccc2[nH]5)C=C4)C=C3)cc1
REMARK SMILES IDX 7 1 8 2 9 3 6 5 5 6 4 7 3 8 1 9 2 10 33 12 34 13 95 14 35 15
REMARK SMILES IDX 94 16 36 17 37 18 38 19 88 20 39 21 93 22 87 23 89 24 40 25
REMARK SMILES IDX 92 26 86 27 85 28 41 30 73 31 53 32 72 33 54 34 57 35 71 36
REMARK SMILES IDX 90 37 55 38 56 39 70 41 91 42 58 43 42 44 43 45 51 46 44 47
REMARK SMILES IDX 45 48 49 49 52 50 46 51 47 52 50 53 48 54 74 55 75 56 83 57
REMARK SMILES IDX 76 58 77 59 81 60 84 61 78 62 79 63 82 64 80 65 59 66 60 67
REMARK SMILES IDX 68 68 61 69 62 70 66 71 69 72 63 73 64 74 67 75 65 76 10 77
REMARK SMILES IDX 11 78 15 79 12 80 14 81 13 82 16 83 17 84 21 85 18 86 20 87
REMARK SMILES IDX 19 88 22 89 23 90 24 91 25 93 26 94 27 95 28 96 32 97 29 98
REMARK SMILES IDX 31 99 30 100
REMARK H PARENT 7 4 3 11 89 29 57 40 24 92
REMARK Flexibility Score: inf
ROOT
ATOM      1  N   UNL A   1      32.221  29.888  24.457  1.00  0.00    -0.352 N 
ATOM      2  C   UNL A   1      32.089  28.960  23.467  1.00  0.00     0.251 C 
ATOM      3  O   UNL A   1      32.838  28.976  22.496  1.00  0.00    -0.269 OA
ATOM      4  H   UNL A   1      32.685  30.719  24.208  1.00  0.00     0.163 HD
ENDROOT
BRANCH   1   5
ATOM      5  C   UNL A   1      31.763  29.808  25.834  1.00  0.00     0.118 C 
BRANCH   5   6
ATOM      6  C   UNL A   1      31.447  31.189  26.367  1.00  0.00     0.042 C 
BRANCH   6   7
ATOM      7  C   UNL A   1      32.708  31.875  26.859  1.00  0.00     0.118 C 
BRANCH   7   8
ATOM      8  N   UNL A   1      32.452  33.249  27.285  1.00  0.00    -0.352 N 
ATOM      9  O   UNL A   1      32.549  35.041  28.656  1.00  0.00    -0.269 OA
ATOM     10  C   UNL A   1      33.065  34.009  28.258  1.00  0.00     0.251 C 
ATOM     11  H   UNL A   1      31.726  33.704  26.799  1.00  0.00     0.163 HD
BRANCH  10  12
ATOM     12  C   UNL A   1      34.343  33.542  28.838  1.00  0.00     0.039 A 
ATOM     13  C   UNL A   1      34.371  32.362  29.570  1.00  0.00     0.014 A 
ATOM     14  C   UNL A   1      35.521  34.274  28.657  1.00  0.00     0.014 A 
ATOM     15  C   UNL A   1      35.478  32.053  30.332  1.00  0.00     0.010 A 
ATOM     16  C   UNL A   1      36.704  33.843  29.272  1.00  0.00     0.010 A 
ATOM     17  C   UNL A   1      36.684  32.745  30.144  1.00  0.00    -0.014 A 
BRANCH  17  18
ATOM     18  C   UNL A   1      37.892  32.193  30.809  1.00  0.00     0.031 A 
ATOM     19  C   UNL A   1      38.257  32.552  32.218  1.00  0.00     0.074 A 
ATOM     20  C   UNL A   1      38.597  31.258  30.136  1.00  0.00     0.049 A 
ATOM     21  N   UNL A   1      39.230  32.080  32.957  1.00  0.00    -0.248 NA
ATOM     22  C   UNL A   1      37.446  33.581  32.887  1.00  0.00     0.031 C 
ATOM     23  C   UNL A   1      38.340  30.852  28.749  1.00  0.00     0.029 A 
ATOM     24  N   UNL A   1      39.617  30.434  30.531  1.00  0.00    -0.354 N 
ATOM     25  C   UNL A   1      39.166  32.767  34.160  1.00  0.00     0.074 A 
ATOM     26  C   UNL A   1      38.070  33.707  34.050  1.00  0.00     0.031 C 
ATOM     27  C   UNL A   1      39.093  29.787  28.451  1.00  0.00     0.029 A 
ATOM     28  C   UNL A   1      39.966  29.504  29.580  1.00  0.00     0.049 A 
ATOM     29  H   UNL A   1      40.058  30.502  31.409  1.00  0.00     0.167 HD
ATOM     30  C   UNL A   1      39.951  32.618  35.255  1.00  0.00     0.037 A 
ATOM     31  C   UNL A   1      40.902  28.539  29.601  1.00  0.00     0.037 A 
ATOM     32  C   UNL A   1      41.027  31.663  35.354  1.00  0.00     0.049 A 
ATOM     33  C   UNL A   1      41.740  28.391  30.835  1.00  0.00     0.074 A 
ATOM     34  C   UNL A   1      41.889  31.439  36.413  1.00  0.00     0.029 A 
ATOM     35  N   UNL A   1      41.381  30.765  34.356  1.00  0.00    -0.354 N 
ATOM     36  N   UNL A   1      41.676  29.061  31.959  1.00  0.00    -0.248 NA
ATOM     37  C   UNL A   1      42.788  27.366  30.798  1.00  0.00     0.031 C 
ATOM     38  C   UNL A   1      42.786  30.430  36.044  1.00  0.00     0.029 A 
ATOM     39  C   UNL A   1      42.454  29.991  34.772  1.00  0.00     0.049 A 
ATOM     40  H   UNL A   1      40.935  30.688  33.481  1.00  0.00     0.167 HD
ATOM     41  C   UNL A   1      42.681  28.548  32.762  1.00  0.00     0.074 A 
ATOM     42  C   UNL A   1      43.307  27.477  32.013  1.00  0.00     0.031 C 
ATOM     43  C   UNL A   1      43.067  28.941  34.001  1.00  0.00     0.037 A 
BRANCH  30  44
ATOM     44  C   UNL A   1      39.692  33.518  36.429  1.00  0.00     0.064 A 
ATOM     45  C   UNL A   1      40.283  34.785  36.532  1.00  0.00     0.173 A 
ATOM     46  C   UNL A   1      38.798  33.130  37.439  1.00  0.00     0.173 A 
ATOM     47  F   UNL A   1      41.157  35.200  35.602  1.00  0.00    -0.203 F 
ATOM     48  C   UNL A   1      40.000  35.624  37.607  1.00  0.00     0.198 A 
ATOM     49  C   UNL A   1      38.497  33.980  38.499  1.00  0.00     0.198 A 
ATOM     50  F   UNL A   1      38.202  31.928  37.389  1.00  0.00    -0.203 F 
ATOM     51  F   UNL A   1      40.605  36.816  37.703  1.00  0.00    -0.200 F 
ATOM     52  C   UNL A   1      39.102  35.225  38.586  1.00  0.00     0.200 A 
ATOM     53  F   UNL A   1      37.619  33.597  39.438  1.00  0.00    -0.200 F 
ATOM     54  F   UNL A   1      38.822  36.038  39.614  1.00  0.00    -0.200 F 
ENDBRANCH  30  44
BRANCH  31  55
ATOM     55  C   UNL A   1      41.108  27.681  28.406  1.00  0.00     0.064 A 
ATOM     56  C   UNL A   1      40.401  26.483  28.237  1.00  0.00     0.173 A 
ATOM     57  C   UNL A   1      42.006  28.055  27.394  1.00  0.00     0.173 A 
ATOM     58  F   UNL A   1      39.543  26.071  29.183  1.00  0.00    -0.203 F 
ATOM     59  C   UNL A   1      40.597  25.686  27.111  1.00  0.00     0.198 A 
ATOM     60  C   UNL A   1      42.172  27.278  26.251  1.00  0.00     0.198 A 
ATOM     61  F   UNL A   1      42.702  29.196  27.502  1.00  0.00    -0.203 F 
ATOM     62  F   UNL A   1      39.942  24.522  26.995  1.00  0.00    -0.200 F 
ATOM     63  C   UNL A   1      41.475  26.089  26.115  1.00  0.00     0.200 A 
ATOM     64  F   UNL A   1      43.002  27.685  25.283  1.00  0.00    -0.200 F 
ATOM     65  F   UNL A   1      41.651  25.328  25.026  1.00  0.00    -0.200 F 
ENDBRANCH  31  55
BRANCH  43  66
ATOM     66  C   UNL A   1      44.217  28.195  34.608  1.00  0.00     0.064 A 
ATOM     67  C   UNL A   1      45.539  28.636  34.445  1.00  0.00     0.173 A 
ATOM     68  C   UNL A   1      43.996  27.026  35.350  1.00  0.00     0.173 A 
ATOM     69  F   UNL A   1      45.800  29.738  33.726  1.00  0.00    -0.203 F 
ATOM     70  C   UNL A   1      46.602  27.910  34.973  1.00  0.00     0.198 A 
ATOM     71  C   UNL A   1      45.060  26.320  35.901  1.00  0.00     0.198 A 
ATOM     72  F   UNL A   1      42.749  26.569  35.535  1.00  0.00    -0.203 F 
ATOM     73  F   UNL A   1      47.860  28.314  34.752  1.00  0.00    -0.200 F 
ATOM     74  C   UNL A   1      46.362  26.756  35.703  1.00  0.00     0.200 A 
ATOM     75  F   UNL A   1      44.827  25.210  36.614  1.00  0.00    -0.200 F 
ATOM     76  F   UNL A   1      47.387  26.054  36.205  1.00  0.00    -0.200 F 
ENDBRANCH  43  66
ENDBRANCH  17  18
ENDBRANCH  10  12
ENDBRANCH   7   8
ENDBRANCH   6   7
ENDBRANCH   5   6
ENDBRANCH   1   5
BRANCH   2  77
ATOM     77  C   UNL A   1      31.028  27.938  23.563  1.00  0.00     0.047 A 
ATOM     78  C   UNL A   1      29.716  28.399  23.353  1.00  0.00     0.014 A 
ATOM     79  C   UNL A   1      31.279  26.606  23.969  1.00  0.00    -0.005 A 
ATOM     80  C   UNL A   1      28.634  27.536  23.503  1.00  0.00     0.001 A 
ATOM     81  C   UNL A   1      30.160  25.751  24.076  1.00  0.00     0.009 A 
ATOM     82  C   UNL A   1      28.857  26.209  23.855  1.00  0.00     0.001 A 
BRANCH  79  83
ATOM     83  C   UNL A   1      32.626  26.052  24.280  1.00  0.00    -0.005 A 
ATOM     84  C   UNL A   1      33.083  26.259  25.614  1.00  0.00     0.009 A 
ATOM     85  C   UNL A   1      33.440  25.260  23.429  1.00  0.00     0.047 A 
ATOM     86  C   UNL A   1      34.233  25.657  26.122  1.00  0.00     0.001 A 
ATOM     87  C   UNL A   1      34.601  24.654  23.976  1.00  0.00     0.014 A 
ATOM     88  C   UNL A   1      34.987  24.836  25.304  1.00  0.00     0.001 A 
BRANCH  85  89
ATOM     89  C   UNL A   1      33.194  24.856  22.003  1.00  0.00     0.251 C 
ATOM     90  O   UNL A   1      33.304  25.725  21.132  1.00  0.00    -0.269 OA
ATOM     91  N   UNL A   1      32.785  23.611  21.598  1.00  0.00    -0.352 N 
ATOM     92  H   UNL A   1      32.541  23.548  20.647  1.00  0.00     0.163 HD
BRANCH  91  93
ATOM     93  C   UNL A   1      32.652  22.376  22.338  1.00  0.00     0.121 C 
BRANCH  93  94
ATOM     94  C   UNL A   1      31.577  22.352  23.417  1.00  0.00     0.057 C 
BRANCH  94  95
ATOM     95  C   UNL A   1      32.125  22.263  24.819  1.00  0.00    -0.046 A 
ATOM     96  C   UNL A   1      33.269  21.497  25.097  1.00  0.00     0.004 A 
ATOM     97  C   UNL A   1      31.503  22.955  25.863  1.00  0.00     0.004 A 
ATOM     98  C   UNL A   1      33.794  21.451  26.390  1.00  0.00     0.000 A 
ATOM     99  C   UNL A   1      32.029  22.907  27.155  1.00  0.00     0.000 A 
ATOM    100  C   UNL A   1      33.177  22.161  27.417  1.00  0.00     0.000 A 
ENDBRANCH  94  95
ENDBRANCH  93  94
ENDBRANCH  91  93
ENDBRANCH  85  89
ENDBRANCH  79  83
ENDBRANCH   2  77
TORSDOF 15
ENDMDL
MODEL 3
REMARK VINA RESULT:     -12.6      1.663      7.302
REMARK SMILES O=C(NCCCNC(=O)c1ccccc1-c1ccccc1C(=O)NCCc1ccccc1)c1ccc(-c2c3nc(c(-c4c(F)c(F)c(F)c(F)c4F)c4ccc([nH]4)c(-c4c(F)c(F)c(F)c(F)c4F)c4nc(c(-c5c(F)c(F)c(F)c(F)c5F)c5ccc2[nH]5)C=C4)C=C3)cc1
REMARK SMILES IDX 7 1 8 2 9 3 6 5 5 6 4 7 3 8 1 9 2 10 33 12 34 13 95 14 35 15
REMARK SMILES IDX 94 16 36 17 37 18 38 19 88 20 39 21 93 22 87 23 89 24 40 25
REMARK SMILES IDX 92 26 86 27 85 28 41 30 73 31 53 32 72 33 54 34 57 35 71 36
REMARK SMILES IDX 90 37 55 38 56 39 70 41 91 42 58 43 42 44 43 45 51 46 44 47
REMARK SMILES IDX 45 48 49 49 52 50 46 51 47 52 50 53 48 54 74 55 75 56 83 57
REMARK SMILES IDX 76 58 77 59 81 60 84 61 78 62 79 63 82 64 80 65 59 66 60 67
REMARK SMILES IDX 68 68 61 69 62 70 66 71 69 72 63 73 64 74 67 75 65 76 10 77
REMARK SMILES IDX 11 78 15 79 12 80 14 81 13 82 16 83 17 84 21 85 18 86 20 87
REMARK SMILES IDX 19 88 22 89 23 90 24 91 25 93 26 94 27 95 28 96 32 97 29 98
REMARK SMILES IDX 31 99 30 100
REMARK H PARENT 7 4 3 11 89 29 57 40 24 92
REMARK Flexibility Score: inf
ROOT
ATOM      1  N   UNL A   1      32.170  30.037  24.573  1.00  0.00    -0.352 N 
ATOM      2  C   UNL A   1      32.146  29.078  23.605  1.00  0.00     0.251 C 
ATOM      3  O   UNL A   1      33.000  29.062  22.724  1.00  0.00    -0.269 OA
ATOM      4  H   UNL A   1      32.663  30.860  24.351  1.00  0.00     0.163 HD
ENDROOT
BRANCH   1   5
ATOM      5  C   UNL A   1      31.560  30.001  25.891  1.00  0.00     0.118 C 
BRANCH   5   6
ATOM      6  C   UNL A   1      31.352  31.406  26.416  1.00  0.00     0.042 C 
BRANCH   6   7
ATOM      7  C   UNL A   1      32.678  32.036  26.804  1.00  0.00     0.118 C 
BRANCH   7   8
ATOM      8  N   UNL A   1      32.517  33.418  27.248  1.00  0.00    -0.352 N 
ATOM      9  O   UNL A   1      32.711  35.174  28.655  1.00  0.00    -0.269 OA
ATOM     10  C   UNL A   1      33.157  34.112  28.252  1.00  0.00     0.251 C 
ATOM     11  H   UNL A   1      31.843  33.937  26.750  1.00  0.00     0.163 HD
BRANCH  10  12
ATOM     12  C   UNL A   1      34.376  33.536  28.861  1.00  0.00     0.039 A 
ATOM     13  C   UNL A   1      34.283  32.365  29.601  1.00  0.00     0.014 A 
ATOM     14  C   UNL A   1      35.618  34.156  28.698  1.00  0.00     0.014 A 
ATOM     15  C   UNL A   1      35.343  31.963  30.387  1.00  0.00     0.010 A 
ATOM     16  C   UNL A   1      36.746  33.625  29.338  1.00  0.00     0.010 A 
ATOM     17  C   UNL A   1      36.610  32.542  30.217  1.00  0.00    -0.014 A 
BRANCH  17  18
ATOM     18  C   UNL A   1      37.751  31.888  30.909  1.00  0.00     0.031 A 
ATOM     19  C   UNL A   1      38.641  30.902  30.213  1.00  0.00     0.074 A 
ATOM     20  C   UNL A   1      38.032  32.298  32.164  1.00  0.00     0.049 A 
ATOM     21  N   UNL A   1      39.726  30.320  30.662  1.00  0.00    -0.248 NA
ATOM     22  C   UNL A   1      38.269  30.498  28.849  1.00  0.00     0.031 C 
ATOM     23  C   UNL A   1      37.215  33.237  32.942  1.00  0.00     0.029 A 
ATOM     24  N   UNL A   1      39.102  32.045  32.981  1.00  0.00    -0.354 N 
ATOM     25  C   UNL A   1      40.148  29.467  29.653  1.00  0.00     0.074 A 
ATOM     26  C   UNL A   1      39.194  29.590  28.571  1.00  0.00     0.031 C 
ATOM     27  C   UNL A   1      37.866  33.569  34.063  1.00  0.00     0.029 A 
ATOM     28  C   UNL A   1      39.089  32.784  34.141  1.00  0.00     0.049 A 
ATOM     29  H   UNL A   1      39.810  31.397  32.761  1.00  0.00     0.167 HD
ATOM     30  C   UNL A   1      41.239  28.663  29.636  1.00  0.00     0.037 A 
ATOM     31  C   UNL A   1      39.954  32.815  35.169  1.00  0.00     0.037 A 
ATOM     32  C   UNL A   1      42.190  28.568  30.717  1.00  0.00     0.049 A 
ATOM     33  C   UNL A   1      41.158  31.925  35.110  1.00  0.00     0.074 A 
ATOM     34  C   UNL A   1      43.321  27.775  30.804  1.00  0.00     0.029 A 
ATOM     35  N   UNL A   1      42.124  29.299  31.895  1.00  0.00    -0.354 N 
ATOM     36  N   UNL A   1      41.535  31.112  34.154  1.00  0.00    -0.248 NA
ATOM     37  C   UNL A   1      42.048  31.944  36.276  1.00  0.00     0.031 C 
ATOM     38  C   UNL A   1      43.921  28.002  32.049  1.00  0.00     0.029 A 
ATOM     39  C   UNL A   1      43.189  28.970  32.719  1.00  0.00     0.049 A 
ATOM     40  H   UNL A   1      41.422  29.955  32.113  1.00  0.00     0.167 HD
ATOM     41  C   UNL A   1      42.700  30.514  34.604  1.00  0.00     0.074 A 
ATOM     42  C   UNL A   1      42.993  31.095  35.898  1.00  0.00     0.031 C 
ATOM     43  C   UNL A   1      43.450  29.554  34.009  1.00  0.00     0.037 A 
BRANCH  30  44
ATOM     44  C   UNL A   1      41.457  27.805  28.424  1.00  0.00     0.064 A 
ATOM     45  C   UNL A   1      40.830  26.559  28.278  1.00  0.00     0.173 A 
ATOM     46  C   UNL A   1      42.261  28.260  27.366  1.00  0.00     0.173 A 
ATOM     47  F   UNL A   1      40.064  26.070  29.266  1.00  0.00    -0.203 F 
ATOM     48  C   UNL A   1      41.011  25.794  27.129  1.00  0.00     0.198 A 
ATOM     49  C   UNL A   1      42.418  27.505  26.207  1.00  0.00     0.198 A 
ATOM     50  F   UNL A   1      42.881  29.447  27.451  1.00  0.00    -0.203 F 
ATOM     51  F   UNL A   1      40.431  24.590  27.028  1.00  0.00    -0.200 F 
ATOM     52  C   UNL A   1      41.798  26.270  26.090  1.00  0.00     0.200 A 
ATOM     53  F   UNL A   1      43.170  27.973  25.200  1.00  0.00    -0.200 F 
ATOM     54  F   UNL A   1      41.961  25.539  24.979  1.00  0.00    -0.200 F 
ENDBRANCH  30  44
BRANCH  31  55
ATOM     55  C   UNL A   1      39.681  33.687  36.340  1.00  0.00     0.064 A 
ATOM     56  C   UNL A   1      38.888  33.247  37.410  1.00  0.00     0.173 A 
ATOM     57  C   UNL A   1      40.226  34.978  36.423  1.00  0.00     0.173 A 
ATOM     58  F   UNL A   1      38.329  32.028  37.372  1.00  0.00    -0.203 F 
ATOM     59  C   UNL A   1      38.641  34.069  38.507  1.00  0.00     0.198 A 
ATOM     60  C   UNL A   1      40.010  35.784  37.537  1.00  0.00     0.198 A 
ATOM     61  F   UNL A   1      40.997  35.446  35.431  1.00  0.00    -0.203 F 
ATOM     62  F   UNL A   1      37.844  33.642  39.496  1.00  0.00    -0.200 F 
ATOM     63  C   UNL A   1      39.210  35.334  38.574  1.00  0.00     0.200 A 
ATOM     64  F   UNL A   1      40.583  36.993  37.606  1.00  0.00    -0.200 F 
ATOM     65  F   UNL A   1      38.982  36.118  39.636  1.00  0.00    -0.200 F 
ENDBRANCH  31  55
BRANCH  43  66
ATOM     66  C   UNL A   1      44.657  29.088  34.766  1.00  0.00     0.064 A 
ATOM     67  C   UNL A   1      45.901  29.720  34.617  1.00  0.00     0.173 A 
ATOM     68  C   UNL A   1      44.571  27.994  35.640  1.00  0.00     0.173 A 
ATOM     69  F   UNL A   1      46.035  30.756  33.776  1.00  0.00    -0.203 F 
ATOM     70  C   UNL A   1      47.025  29.248  35.288  1.00  0.00     0.198 A 
ATOM     71  C   UNL A   1      45.691  27.546  36.332  1.00  0.00     0.198 A 
ATOM     72  F   UNL A   1      43.402  27.361  35.818  1.00  0.00    -0.203 F 
ATOM     73  F   UNL A   1      48.215  29.827  35.083  1.00  0.00    -0.200 F 
ATOM     74  C   UNL A   1      46.919  28.165  36.148  1.00  0.00     0.200 A 
ATOM     75  F   UNL A   1      45.586  26.505  37.169  1.00  0.00    -0.200 F 
ATOM     76  F   UNL A   1      48.003  27.708  36.789  1.00  0.00    -0.200 F 
ENDBRANCH  43  66
ENDBRANCH  17  18
ENDBRANCH  10  12
ENDBRANCH   7   8
ENDBRANCH   6   7
ENDBRANCH   5   6
ENDBRANCH   1   5
BRANCH   2  77
ATOM     77  C   UNL A   1      31.077  28.061  23.613  1.00  0.00     0.047 A 
ATOM     78  C   UNL A   1      29.776  28.540  23.377  1.00  0.00     0.014 A 
ATOM     79  C   UNL A   1      31.306  26.709  23.964  1.00  0.00    -0.005 A 
ATOM     80  C   UNL A   1      28.684  27.679  23.446  1.00  0.00     0.001 A 
ATOM     81  C   UNL A   1      30.178  25.858  23.989  1.00  0.00     0.009 A 
ATOM     82  C   UNL A   1      28.887  26.336  23.742  1.00  0.00     0.001 A 
BRANCH  79  83
ATOM     83  C   UNL A   1      32.637  26.131  24.297  1.00  0.00    -0.005 A 
ATOM     84  C   UNL A   1      33.078  26.337  25.637  1.00  0.00     0.009 A 
ATOM     85  C   UNL A   1      33.447  25.319  23.463  1.00  0.00     0.047 A 
ATOM     86  C   UNL A   1      34.208  25.715  26.165  1.00  0.00     0.001 A 
ATOM     87  C   UNL A   1      34.589  24.694  24.030  1.00  0.00     0.014 A 
ATOM     88  C   UNL A   1      34.959  24.876  25.362  1.00  0.00     0.001 A 
BRANCH  85  89
ATOM     89  C   UNL A   1      33.215  24.913  22.035  1.00  0.00     0.251 C 
ATOM     90  O   UNL A   1      33.349  25.776  21.162  1.00  0.00    -0.269 OA
ATOM     91  N   UNL A   1      32.794  23.671  21.630  1.00  0.00    -0.352 N 
ATOM     92  H   UNL A   1      32.562  23.608  20.676  1.00  0.00     0.163 HD
BRANCH  91  93
ATOM     93  C   UNL A   1      32.635  22.442  22.373  1.00  0.00     0.121 C 
BRANCH  93  94
ATOM     94  C   UNL A   1      31.552  22.442  23.446  1.00  0.00     0.057 C 
BRANCH  94  95
ATOM     95  C   UNL A   1      32.090  22.346  24.852  1.00  0.00    -0.046 A 
ATOM     96  C   UNL A   1      33.233  21.579  25.134  1.00  0.00     0.004 A 
ATOM     97  C   UNL A   1      31.460  23.032  25.895  1.00  0.00     0.004 A 
ATOM     98  C   UNL A   1      33.749  21.527  26.430  1.00  0.00     0.000 A 
ATOM     99  C   UNL A   1      31.977  22.977  27.190  1.00  0.00     0.000 A 
ATOM    100  C   UNL A   1      33.124  22.231  27.457  1.00  0.00     0.000 A 
ENDBRANCH  94  95
ENDBRANCH  93  94
ENDBRANCH  91  93
ENDBRANCH  85  89
ENDBRANCH  79  83
ENDBRANCH   2  77
TORSDOF 15
ENDMDL
