MODEL 1
REMARK VINA RESULT:     -12.5      0.000      0.000
REMARK SMILES CC(C)(C)OC(=O)N1CCN(N[C@@H](C(=O)NCCCNC(=O)c2ccc(-c3c4nc(c(-c5c(F)c(F)c(F)c(F)c5F)c5ccc([nH]5)c(-c5c(F)c(F)c(F)c(F)c5F)c5nc(c(-c6c(F)c(F)c(F)c(F)c6F)c6ccc3[nH]6)C=C5)C=C4)cc2)c2ccccc2Cl)CC1
REMARK SMILES IDX 17 1 16 2 14 3 15 4 13 6 12 7 11 9 6 10 7 11 8 12 9 13 94 14
REMARK SMILES IDX 10 15 93 16 5 17 2 18 1 19 3 20 4 21 86 22 87 23 91 24 88 25
REMARK SMILES IDX 90 26 92 27 89 28 18 29 19 30 20 31 21 32 22 34 23 35 24 36
REMARK SMILES IDX 85 37 25 38 84 39 26 40 27 41 28 42 78 43 29 44 83 45 77 46
REMARK SMILES IDX 79 47 30 48 82 49 76 50 75 51 31 53 63 54 43 55 62 56 44 57
REMARK SMILES IDX 47 58 61 59 80 60 45 61 46 62 60 64 81 65 48 66 32 67 33 68
REMARK SMILES IDX 41 69 34 70 35 71 39 72 42 73 36 74 37 75 40 76 38 77 64 78
REMARK SMILES IDX 65 79 73 80 66 81 67 82 71 83 74 84 68 85 69 86 72 87 70 88
REMARK SMILES IDX 49 89 50 90 58 91 51 92 52 93 56 94 59 95 53 96 54 97 57 98
REMARK SMILES IDX 55 99
REMARK H PARENT 16 5 12 8 20 33 79 52 47 63
REMARK Flexibility Score: inf
ROOT
ATOM      1  C   UNL A   1      31.643  30.607  26.631  1.00  0.00     0.117 C 
ENDROOT
BRANCH   1   2
ATOM      2  N   UNL A   1      32.343  30.374  25.381  1.00  0.00    -0.354 N 
ATOM      3  C   UNL A   1      32.325  29.258  24.580  1.00  0.00     0.243 C 
ATOM      4  O   UNL A   1      33.318  29.098  23.861  1.00  0.00    -0.273 OA
ATOM      5  H   UNL A   1      32.906  31.116  25.063  1.00  0.00     0.163 HD
BRANCH   3   6
ATOM      6  C   UNL A   1      31.102  28.265  24.562  1.00  0.00     0.190 C 
BRANCH   6   7
ATOM      7  N   UNL A   1      31.581  26.950  24.038  1.00  0.00    -0.238 NA
ATOM      8  H   UNL A   1      30.890  26.598  23.376  1.00  0.00     0.143 HD
BRANCH   7   9
ATOM      9  N   UNL A   1      31.786  25.942  25.063  1.00  0.00    -0.240 NA
ATOM     10  C   UNL A   1      34.178  22.529  24.417  1.00  0.00     0.410 C 
ATOM     11  O   UNL A   1      33.760  21.521  23.870  1.00  0.00    -0.224 OA
ATOM     12  N   UNL A   1      33.573  23.755  24.275  1.00  0.00    -0.306 N 
ATOM     13  C   UNL A   1      32.238  23.811  23.719  1.00  0.00     0.140 C 
ATOM     14  C   UNL A   1      34.154  25.053  24.604  1.00  0.00     0.140 C 
ATOM     15  C   UNL A   1      31.321  24.591  24.659  1.00  0.00     0.124 C 
ATOM     16  C   UNL A   1      33.211  25.893  25.486  1.00  0.00     0.124 C 
BRANCH  10  17
ATOM     17  O   UNL A   1      35.235  22.564  25.268  1.00  0.00    -0.444 OA
BRANCH  17  18
ATOM     18  C   UNL A   1      36.557  22.222  24.772  1.00  0.00     0.106 C 
ATOM     19  C   UNL A   1      37.533  22.999  25.666  1.00  0.00     0.056 C 
ATOM     20  C   UNL A   1      36.691  22.715  23.329  1.00  0.00     0.056 C 
ATOM     21  C   UNL A   1      36.895  20.728  24.905  1.00  0.00     0.056 C 
ENDBRANCH  17  18
ENDBRANCH  10  17
ENDBRANCH   7   9
ENDBRANCH   6   7
BRANCH   6  22
ATOM     22  C   UNL A   1      29.902  28.807  23.734  1.00  0.00    -0.002 A 
ATOM     23  C   UNL A   1      29.924  30.153  23.295  1.00  0.00     0.007 A 
ATOM     24  C   UNL A   1      28.719  28.086  23.450  1.00  0.00     0.046 A 
ATOM     25  C   UNL A   1      28.881  30.715  22.547  1.00  0.00     0.000 A 
ATOM     26  C   UNL A   1      27.674  28.659  22.703  1.00  0.00     0.021 A 
ATOM     27  Cl  UNL A   1      28.380  26.481  23.984  1.00  0.00    -0.084 Cl
ATOM     28  C   UNL A   1      27.758  29.964  22.241  1.00  0.00     0.002 A 
ENDBRANCH   6  22
ENDBRANCH   3   6
ENDBRANCH   1   2
BRANCH   1  29
ATOM     29  C   UNL A   1      31.445  32.106  26.869  1.00  0.00     0.042 C 
BRANCH  29  30
ATOM     30  C   UNL A   1      32.732  32.881  27.097  1.00  0.00     0.118 C 
BRANCH  30  31
ATOM     31  N   UNL A   1      32.485  34.219  27.606  1.00  0.00    -0.352 N 
ATOM     32  C   UNL A   1      33.038  34.869  28.682  1.00  0.00     0.251 C 
ATOM     33  H   UNL A   1      31.819  34.740  27.102  1.00  0.00     0.163 HD
ATOM     34  O   UNL A   1      32.543  35.924  29.068  1.00  0.00    -0.269 OA
BRANCH  32  35
ATOM     35  C   UNL A   1      34.211  34.306  29.393  1.00  0.00     0.039 A 
ATOM     36  C   UNL A   1      33.991  33.500  30.515  1.00  0.00     0.014 A 
ATOM     37  C   UNL A   1      35.519  34.596  28.997  1.00  0.00     0.014 A 
ATOM     38  C   UNL A   1      35.075  32.949  31.204  1.00  0.00     0.010 A 
ATOM     39  C   UNL A   1      36.594  33.973  29.625  1.00  0.00     0.010 A 
ATOM     40  C   UNL A   1      36.386  33.155  30.745  1.00  0.00    -0.014 A 
BRANCH  40  41
ATOM     41  C   UNL A   1      37.552  32.546  31.436  1.00  0.00     0.031 A 
ATOM     42  C   UNL A   1      38.283  31.393  30.804  1.00  0.00     0.074 A 
ATOM     43  C   UNL A   1      37.911  32.988  32.657  1.00  0.00     0.049 A 
ATOM     44  N   UNL A   1      39.268  30.672  31.280  1.00  0.00    -0.248 NA
ATOM     45  C   UNL A   1      37.829  30.973  29.468  1.00  0.00     0.031 C 
ATOM     46  C   UNL A   1      37.252  34.069  33.392  1.00  0.00     0.029 A 
ATOM     47  N   UNL A   1      38.911  32.574  33.501  1.00  0.00    -0.354 N 
ATOM     48  C   UNL A   1      39.538  29.713  30.313  1.00  0.00     0.074 A 
ATOM     49  C   UNL A   1      38.576  29.902  29.251  1.00  0.00     0.031 C 
ATOM     50  C   UNL A   1      37.877  34.247  34.566  1.00  0.00     0.029 A 
ATOM     51  C   UNL A   1      38.950  33.264  34.688  1.00  0.00     0.049 A 
ATOM     52  H   UNL A   1      39.541  31.852  33.277  1.00  0.00     0.167 HD
ATOM     53  C   UNL A   1      40.518  28.778  30.299  1.00  0.00     0.037 A 
ATOM     54  C   UNL A   1      39.751  33.113  35.759  1.00  0.00     0.037 A 
ATOM     55  C   UNL A   1      41.484  28.609  31.352  1.00  0.00     0.049 A 
ATOM     56  C   UNL A   1      40.820  32.052  35.728  1.00  0.00     0.074 A 
ATOM     57  C   UNL A   1      42.548  27.725  31.415  1.00  0.00     0.029 A 
ATOM     58  N   UNL A   1      41.501  29.339  32.532  1.00  0.00    -0.354 N 
ATOM     59  N   UNL A   1      41.108  31.195  34.780  1.00  0.00    -0.248 NA
ATOM     60  C   UNL A   1      41.679  31.944  36.915  1.00  0.00     0.031 C 
ATOM     61  C   UNL A   1      43.173  27.882  32.655  1.00  0.00     0.029 A 
ATOM     62  C   UNL A   1      42.541  28.908  33.340  1.00  0.00     0.049 A 
ATOM     63  H   UNL A   1      40.868  30.057  32.762  1.00  0.00     0.167 HD
ATOM     64  C   UNL A   1      42.197  30.467  35.240  1.00  0.00     0.074 A 
ATOM     65  C   UNL A   1      42.529  30.996  36.546  1.00  0.00     0.031 C 
ATOM     66  C   UNL A   1      42.864  29.453  34.634  1.00  0.00     0.037 A 
BRANCH  53  67
ATOM     67  C   UNL A   1      40.594  27.865  29.107  1.00  0.00     0.064 A 
ATOM     68  C   UNL A   1      39.802  26.710  29.012  1.00  0.00     0.173 A 
ATOM     69  C   UNL A   1      41.443  28.165  28.031  1.00  0.00     0.173 A 
ATOM     70  F   UNL A   1      38.980  26.369  30.016  1.00  0.00    -0.203 F 
ATOM     71  C   UNL A   1      39.884  25.872  27.902  1.00  0.00     0.198 A 
ATOM     72  C   UNL A   1      41.496  27.345  26.907  1.00  0.00     0.198 A 
ATOM     73  F   UNL A   1      42.217  29.260  28.065  1.00  0.00    -0.203 F 
ATOM     74  F   UNL A   1      39.160  24.745  27.861  1.00  0.00    -0.200 F 
ATOM     75  C   UNL A   1      40.725  26.195  26.848  1.00  0.00     0.200 A 
ATOM     76  F   UNL A   1      42.297  27.666  25.882  1.00  0.00    -0.200 F 
ATOM     77  F   UNL A   1      40.796  25.392  25.777  1.00  0.00    -0.200 F 
ENDBRANCH  53  67
BRANCH  54  78
ATOM     78  C   UNL A   1      39.582  33.993  36.946  1.00  0.00     0.064 A 
ATOM     79  C   UNL A   1      40.187  35.257  37.001  1.00  0.00     0.173 A 
ATOM     80  C   UNL A   1      38.819  33.589  38.052  1.00  0.00     0.173 A 
ATOM     81  F   UNL A   1      40.941  35.683  35.977  1.00  0.00    -0.203 F 
ATOM     82  C   UNL A   1      40.057  36.071  38.124  1.00  0.00     0.198 A 
ATOM     83  C   UNL A   1      38.662  34.418  39.161  1.00  0.00     0.198 A 
ATOM     84  F   UNL A   1      38.213  32.392  38.050  1.00  0.00    -0.203 F 
ATOM     85  F   UNL A   1      40.688  37.252  38.170  1.00  0.00    -0.200 F 
ATOM     86  C   UNL A   1      39.289  35.653  39.201  1.00  0.00     0.200 A 
ATOM     87  F   UNL A   1      37.905  34.018  40.192  1.00  0.00    -0.200 F 
ATOM     88  F   UNL A   1      39.159  36.438  40.279  1.00  0.00    -0.200 F 
ENDBRANCH  54  78
BRANCH  66  89
ATOM     89  C   UNL A   1      44.044  28.873  35.359  1.00  0.00     0.064 A 
ATOM     90  C   UNL A   1      43.913  27.793  36.244  1.00  0.00     0.173 A 
ATOM     91  C   UNL A   1      45.334  29.379  35.128  1.00  0.00     0.173 A 
ATOM     92  F   UNL A   1      42.701  27.283  36.511  1.00  0.00    -0.203 F 
ATOM     93  C   UNL A   1      45.024  27.258  36.891  1.00  0.00     0.198 A 
ATOM     94  C   UNL A   1      46.446  28.818  35.749  1.00  0.00     0.198 A 
ATOM     95  F   UNL A   1      45.516  30.406  34.285  1.00  0.00    -0.203 F 
ATOM     96  F   UNL A   1      44.868  26.259  37.771  1.00  0.00    -0.200 F 
ATOM     97  C   UNL A   1      46.290  27.765  36.636  1.00  0.00     0.200 A 
ATOM     98  F   UNL A   1      47.670  29.299  35.488  1.00  0.00    -0.200 F 
ATOM     99  F   UNL A   1      47.360  27.241  37.251  1.00  0.00    -0.200 F 
ENDBRANCH  66  89
ENDBRANCH  40  41
ENDBRANCH  32  35
ENDBRANCH  30  31
ENDBRANCH  29  30
ENDBRANCH   1  29
TORSDOF 15
ENDMDL
MODEL 2
REMARK VINA RESULT:     -12.4      3.747      8.385
REMARK SMILES CC(C)(C)OC(=O)N1CCN(N[C@@H](C(=O)NCCCNC(=O)c2ccc(-c3c4nc(c(-c5c(F)c(F)c(F)c(F)c5F)c5ccc([nH]5)c(-c5c(F)c(F)c(F)c(F)c5F)c5nc(c(-c6c(F)c(F)c(F)c(F)c6F)c6ccc3[nH]6)C=C5)C=C4)cc2)c2ccccc2Cl)CC1
REMARK SMILES IDX 17 1 16 2 14 3 15 4 13 6 12 7 11 9 6 10 7 11 8 12 9 13 94 14
REMARK SMILES IDX 10 15 93 16 5 17 2 18 1 19 3 20 4 21 86 22 87 23 91 24 88 25
REMARK SMILES IDX 90 26 92 27 89 28 18 29 19 30 20 31 21 32 22 34 23 35 24 36
REMARK SMILES IDX 85 37 25 38 84 39 26 40 27 41 28 42 78 43 29 44 83 45 77 46
REMARK SMILES IDX 79 47 30 48 82 49 76 50 75 51 31 53 63 54 43 55 62 56 44 57
REMARK SMILES IDX 47 58 61 59 80 60 45 61 46 62 60 64 81 65 48 66 32 67 33 68
REMARK SMILES IDX 41 69 34 70 35 71 39 72 42 73 36 74 37 75 40 76 38 77 64 78
REMARK SMILES IDX 65 79 73 80 66 81 67 82 71 83 74 84 68 85 69 86 72 87 70 88
REMARK SMILES IDX 49 89 50 90 58 91 51 92 52 93 56 94 59 95 53 96 54 97 57 98
REMARK SMILES IDX 55 99
REMARK H PARENT 16 5 12 8 20 33 79 52 47 63
REMARK Flexibility Score: inf
ROOT
ATOM      1  C   UNL A   1      35.767  21.583  24.665  1.00  0.00     0.117 C 
ENDROOT
BRANCH   1   2
ATOM      2  N   UNL A   1      35.159  21.259  25.943  1.00  0.00    -0.354 N 
ATOM      3  C   UNL A   1      33.835  21.310  26.303  1.00  0.00     0.243 C 
ATOM      4  O   UNL A   1      33.613  21.455  27.511  1.00  0.00    -0.273 OA
ATOM      5  H   UNL A   1      35.780  20.962  26.647  1.00  0.00     0.163 HD
BRANCH   3   6
ATOM      6  C   UNL A   1      32.677  21.164  25.244  1.00  0.00     0.190 C 
BRANCH   6   7
ATOM      7  N   UNL A   1      31.378  21.410  25.942  1.00  0.00    -0.238 NA
ATOM      8  H   UNL A   1      30.776  20.601  25.792  1.00  0.00     0.143 HD
BRANCH   7   9
ATOM      9  N   UNL A   1      30.674  22.595  25.483  1.00  0.00    -0.240 NA
ATOM     10  C   UNL A   1      32.449  26.420  25.507  1.00  0.00     0.410 C 
ATOM     11  O   UNL A   1      32.474  27.133  26.498  1.00  0.00    -0.224 OA
ATOM     12  N   UNL A   1      32.257  25.061  25.575  1.00  0.00    -0.306 N 
ATOM     13  C   UNL A   1      31.767  24.490  26.811  1.00  0.00     0.140 C 
ATOM     14  C   UNL A   1      32.527  24.092  24.517  1.00  0.00     0.140 C 
ATOM     15  C   UNL A   1      30.532  23.636  26.531  1.00  0.00     0.124 C 
ATOM     16  C   UNL A   1      31.322  23.165  24.272  1.00  0.00     0.124 C 
BRANCH  10  17
ATOM     17  O   UNL A   1      32.542  26.871  24.230  1.00  0.00    -0.444 OA
BRANCH  17  18
ATOM     18  C   UNL A   1      31.360  27.405  23.578  1.00  0.00     0.106 C 
ATOM     19  C   UNL A   1      31.367  26.793  22.170  1.00  0.00     0.056 C 
ATOM     20  C   UNL A   1      31.495  28.927  23.467  1.00  0.00     0.056 C 
ATOM     21  C   UNL A   1      30.044  26.991  24.257  1.00  0.00     0.056 C 
ENDBRANCH  17  18
ENDBRANCH  10  17
ENDBRANCH   7   9
ENDBRANCH   6   7
BRANCH   6  22
ATOM     22  C   UNL A   1      32.689  19.781  24.531  1.00  0.00    -0.002 A 
ATOM     23  C   UNL A   1      33.130  18.643  25.248  1.00  0.00     0.007 A 
ATOM     24  C   UNL A   1      32.378  19.568  23.168  1.00  0.00     0.046 A 
ATOM     25  C   UNL A   1      33.171  17.366  24.675  1.00  0.00     0.000 A 
ATOM     26  C   UNL A   1      32.427  18.284  22.598  1.00  0.00     0.021 A 
ATOM     27  Cl  UNL A   1      31.946  20.802  22.042  1.00  0.00    -0.084 Cl
ATOM     28  C   UNL A   1      32.810  17.183  23.350  1.00  0.00     0.002 A 
ENDBRANCH   6  22
ENDBRANCH   3   6
ENDBRANCH   1   2
BRANCH   1  29
ATOM     29  C   UNL A   1      35.945  23.096  24.518  1.00  0.00     0.042 C 
BRANCH  29  30
ATOM     30  C   UNL A   1      37.027  23.690  25.404  1.00  0.00     0.118 C 
BRANCH  30  31
ATOM     31  N   UNL A   1      38.107  22.752  25.655  1.00  0.00    -0.352 N 
ATOM     32  C   UNL A   1      39.350  22.963  26.201  1.00  0.00     0.251 C 
ATOM     33  H   UNL A   1      37.920  21.821  25.395  1.00  0.00     0.163 HD
ATOM     34  O   UNL A   1      40.194  22.075  26.138  1.00  0.00    -0.269 OA
BRANCH  32  35
ATOM     35  C   UNL A   1      39.689  24.253  26.848  1.00  0.00     0.039 A 
ATOM     36  C   UNL A   1      39.289  24.466  28.171  1.00  0.00     0.014 A 
ATOM     37  C   UNL A   1      40.355  25.269  26.156  1.00  0.00     0.014 A 
ATOM     38  C   UNL A   1      39.598  25.669  28.810  1.00  0.00     0.010 A 
ATOM     39  C   UNL A   1      40.743  26.429  26.821  1.00  0.00     0.010 A 
ATOM     40  C   UNL A   1      40.356  26.650  28.150  1.00  0.00    -0.014 A 
BRANCH  40  41
ATOM     41  C   UNL A   1      40.733  27.919  28.824  1.00  0.00     0.031 A 
ATOM     42  C   UNL A   1      42.125  28.099  29.366  1.00  0.00     0.074 A 
ATOM     43  C   UNL A   1      39.807  28.881  29.003  1.00  0.00     0.049 A 
ATOM     44  N   UNL A   1      42.625  29.095  30.055  1.00  0.00    -0.248 NA
ATOM     45  C   UNL A   1      43.076  27.002  29.126  1.00  0.00     0.031 C 
ATOM     46  C   UNL A   1      38.414  28.805  28.561  1.00  0.00     0.029 A 
ATOM     47  N   UNL A   1      39.895  30.107  29.614  1.00  0.00    -0.354 N 
ATOM     48  C   UNL A   1      43.936  28.736  30.340  1.00  0.00     0.074 A 
ATOM     49  C   UNL A   1      44.138  27.409  29.804  1.00  0.00     0.031 C 
ATOM     50  C   UNL A   1      37.783  29.940  28.897  1.00  0.00     0.029 A 
ATOM     51  C   UNL A   1      38.712  30.806  29.617  1.00  0.00     0.049 A 
ATOM     52  H   UNL A   1      40.726  30.453  30.012  1.00  0.00     0.167 HD
ATOM     53  C   UNL A   1      44.894  29.461  30.966  1.00  0.00     0.037 A 
ATOM     54  C   UNL A   1      38.409  32.004  30.153  1.00  0.00     0.037 A 
ATOM     55  C   UNL A   1      44.692  30.790  31.480  1.00  0.00     0.049 A 
ATOM     56  C   UNL A   1      39.486  32.781  30.862  1.00  0.00     0.074 A 
ATOM     57  C   UNL A   1      45.609  31.631  32.088  1.00  0.00     0.029 A 
ATOM     58  N   UNL A   1      43.483  31.472  31.450  1.00  0.00    -0.354 N 
ATOM     59  N   UNL A   1      40.740  32.460  31.067  1.00  0.00    -0.248 NA
ATOM     60  C   UNL A   1      39.105  34.090  31.409  1.00  0.00     0.031 C 
ATOM     61  C   UNL A   1      44.942  32.797  32.475  1.00  0.00     0.029 A 
ATOM     62  C   UNL A   1      43.625  32.712  32.052  1.00  0.00     0.049 A 
ATOM     63  H   UNL A   1      42.648  31.126  31.060  1.00  0.00     0.167 HD
ATOM     64  C   UNL A   1      41.305  33.537  31.737  1.00  0.00     0.074 A 
ATOM     65  C   UNL A   1      40.261  34.527  31.890  1.00  0.00     0.031 C 
ATOM     66  C   UNL A   1      42.577  33.691  32.186  1.00  0.00     0.037 A 
BRANCH  53  67
ATOM     67  C   UNL A   1      46.250  28.831  31.131  1.00  0.00     0.064 A 
ATOM     68  C   UNL A   1      47.249  28.968  30.154  1.00  0.00     0.173 A 
ATOM     69  C   UNL A   1      46.566  28.110  32.292  1.00  0.00     0.173 A 
ATOM     70  F   UNL A   1      46.998  29.638  29.019  1.00  0.00    -0.203 F 
ATOM     71  C   UNL A   1      48.500  28.379  30.319  1.00  0.00     0.198 A 
ATOM     72  C   UNL A   1      47.830  27.552  32.470  1.00  0.00     0.198 A 
ATOM     73  F   UNL A   1      45.652  27.953  33.261  1.00  0.00    -0.203 F 
ATOM     74  F   UNL A   1      49.418  28.476  29.347  1.00  0.00    -0.200 F 
ATOM     75  C   UNL A   1      48.791  27.678  31.479  1.00  0.00     0.200 A 
ATOM     76  F   UNL A   1      48.115  26.889  33.598  1.00  0.00    -0.200 F 
ATOM     77  F   UNL A   1      49.998  27.118  31.640  1.00  0.00    -0.200 F 
ENDBRANCH  53  67
BRANCH  54  78
ATOM     78  C   UNL A   1      37.030  32.547  30.029  1.00  0.00     0.064 A 
ATOM     79  C   UNL A   1      36.636  33.266  28.891  1.00  0.00     0.173 A 
ATOM     80  C   UNL A   1      36.079  32.363  31.044  1.00  0.00     0.173 A 
ATOM     81  F   UNL A   1      37.512  33.484  27.900  1.00  0.00    -0.203 F 
ATOM     82  C   UNL A   1      35.354  33.804  28.786  1.00  0.00     0.198 A 
ATOM     83  C   UNL A   1      34.788  32.873  30.923  1.00  0.00     0.198 A 
ATOM     84  F   UNL A   1      36.401  31.677  32.150  1.00  0.00    -0.203 F 
ATOM     85  F   UNL A   1      35.021  34.531  27.711  1.00  0.00    -0.200 F 
ATOM     86  C   UNL A   1      34.429  33.601  29.799  1.00  0.00     0.200 A 
ATOM     87  F   UNL A   1      33.892  32.659  31.896  1.00  0.00    -0.200 F 
ATOM     88  F   UNL A   1      33.195  34.113  29.695  1.00  0.00    -0.200 F 
ENDBRANCH  54  78
BRANCH  66  89
ATOM     89  C   UNL A   1      42.920  34.994  32.848  1.00  0.00     0.064 A 
ATOM     90  C   UNL A   1      42.796  35.176  34.233  1.00  0.00     0.173 A 
ATOM     91  C   UNL A   1      43.426  36.062  32.089  1.00  0.00     0.173 A 
ATOM     92  F   UNL A   1      42.304  34.193  35.002  1.00  0.00    -0.203 F 
ATOM     93  C   UNL A   1      43.140  36.386  34.830  1.00  0.00     0.198 A 
ATOM     94  C   UNL A   1      43.802  37.257  32.694  1.00  0.00     0.198 A 
ATOM     95  F   UNL A   1      43.573  35.937  30.762  1.00  0.00    -0.203 F 
ATOM     96  F   UNL A   1      42.964  36.555  36.148  1.00  0.00    -0.200 F 
ATOM     97  C   UNL A   1      43.651  37.422  34.061  1.00  0.00     0.200 A 
ATOM     98  F   UNL A   1      44.312  38.250  31.951  1.00  0.00    -0.200 F 
ATOM     99  F   UNL A   1      43.992  38.582  34.640  1.00  0.00    -0.200 F 
ENDBRANCH  66  89
ENDBRANCH  40  41
ENDBRANCH  32  35
ENDBRANCH  30  31
ENDBRANCH  29  30
ENDBRANCH   1  29
TORSDOF 15
ENDMDL
MODEL 3
REMARK VINA RESULT:     -12.4      5.247     11.167
REMARK SMILES CC(C)(C)OC(=O)N1CCN(N[C@@H](C(=O)NCCCNC(=O)c2ccc(-c3c4nc(c(-c5c(F)c(F)c(F)c(F)c5F)c5ccc([nH]5)c(-c5c(F)c(F)c(F)c(F)c5F)c5nc(c(-c6c(F)c(F)c(F)c(F)c6F)c6ccc3[nH]6)C=C5)C=C4)cc2)c2ccccc2Cl)CC1
REMARK SMILES IDX 17 1 16 2 14 3 15 4 13 6 12 7 11 9 6 10 7 11 8 12 9 13 94 14
REMARK SMILES IDX 10 15 93 16 5 17 2 18 1 19 3 20 4 21 86 22 87 23 91 24 88 25
REMARK SMILES IDX 90 26 92 27 89 28 18 29 19 30 20 31 21 32 22 34 23 35 24 36
REMARK SMILES IDX 85 37 25 38 84 39 26 40 27 41 28 42 78 43 29 44 83 45 77 46
REMARK SMILES IDX 79 47 30 48 82 49 76 50 75 51 31 53 63 54 43 55 62 56 44 57
REMARK SMILES IDX 47 58 61 59 80 60 45 61 46 62 60 64 81 65 48 66 32 67 33 68
REMARK SMILES IDX 41 69 34 70 35 71 39 72 42 73 36 74 37 75 40 76 38 77 64 78
REMARK SMILES IDX 65 79 73 80 66 81 67 82 71 83 74 84 68 85 69 86 72 87 70 88
REMARK SMILES IDX 49 89 50 90 58 91 51 92 52 93 56 94 59 95 53 96 54 97 57 98
REMARK SMILES IDX 55 99
REMARK H PARENT 16 5 12 8 20 33 79 52 47 63
REMARK Flexibility Score: inf
ROOT
ATOM      1  C   UNL A   1      36.606  20.817  24.696  1.00  0.00     0.117 C 
ENDROOT
BRANCH   1   2
ATOM      2  N   UNL A   1      35.766  20.733  25.877  1.00  0.00    -0.354 N 
ATOM      3  C   UNL A   1      34.449  21.093  26.023  1.00  0.00     0.243 C 
ATOM      4  O   UNL A   1      34.096  21.379  27.174  1.00  0.00    -0.273 OA
ATOM      5  H   UNL A   1      36.199  20.369  26.682  1.00  0.00     0.163 HD
BRANCH   3   6
ATOM      6  C   UNL A   1      33.449  21.111  24.805  1.00  0.00     0.190 C 
BRANCH   6   7
ATOM      7  N   UNL A   1      32.158  21.698  25.274  1.00  0.00    -0.238 NA
ATOM      8  H   UNL A   1      31.420  21.011  25.123  1.00  0.00     0.143 HD
BRANCH   7   9
ATOM      9  N   UNL A   1      31.783  22.927  24.596  1.00  0.00    -0.240 NA
ATOM     10  C   UNL A   1      31.929  26.686  26.501  1.00  0.00     0.410 C 
ATOM     11  O   UNL A   1      31.028  27.106  27.210  1.00  0.00    -0.224 OA
ATOM     12  N   UNL A   1      32.090  25.351  26.215  1.00  0.00    -0.306 N 
ATOM     13  C   UNL A   1      30.999  24.445  26.501  1.00  0.00     0.140 C 
ATOM     14  C   UNL A   1      33.284  24.719  25.666  1.00  0.00     0.140 C 
ATOM     15  C   UNL A   1      30.657  23.639  25.249  1.00  0.00     0.124 C 
ATOM     16  C   UNL A   1      32.953  23.834  24.450  1.00  0.00     0.124 C 
BRANCH  10  17
ATOM     17  O   UNL A   1      32.837  27.469  25.863  1.00  0.00    -0.444 OA
BRANCH  17  18
ATOM     18  C   UNL A   1      32.394  28.336  24.786  1.00  0.00     0.106 C 
ATOM     19  C   UNL A   1      33.615  28.491  23.868  1.00  0.00     0.056 C 
ATOM     20  C   UNL A   1      32.021  29.703  25.366  1.00  0.00     0.056 C 
ATOM     21  C   UNL A   1      31.255  27.736  23.944  1.00  0.00     0.056 C 
ENDBRANCH  17  18
ENDBRANCH  10  17
ENDBRANCH   7   9
ENDBRANCH   6   7
BRANCH   6  22
ATOM     22  C   UNL A   1      33.242  19.702  24.179  1.00  0.00    -0.002 A 
ATOM     23  C   UNL A   1      33.879  18.586  24.775  1.00  0.00     0.007 A 
ATOM     24  C   UNL A   1      32.531  19.440  22.986  1.00  0.00     0.046 A 
ATOM     25  C   UNL A   1      33.742  17.287  24.270  1.00  0.00     0.000 A 
ATOM     26  C   UNL A   1      32.403  18.134  22.481  1.00  0.00     0.021 A 
ATOM     27  Cl  UNL A   1      31.778  20.635  21.994  1.00  0.00    -0.084 Cl
ATOM     28  C   UNL A   1      32.995  17.058  23.126  1.00  0.00     0.002 A 
ENDBRANCH   6  22
ENDBRANCH   3   6
ENDBRANCH   1   2
BRANCH   1  29
ATOM     29  C   UNL A   1      37.791  19.854  24.805  1.00  0.00     0.042 C 
BRANCH  29  30
ATOM     30  C   UNL A   1      38.884  20.310  25.758  1.00  0.00     0.118 C 
BRANCH  30  31
ATOM     31  N   UNL A   1      39.941  19.324  25.892  1.00  0.00    -0.352 N 
ATOM     32  C   UNL A   1      41.290  19.498  26.086  1.00  0.00     0.251 C 
ATOM     33  H   UNL A   1      39.646  18.386  25.838  1.00  0.00     0.163 HD
ATOM     34  O   UNL A   1      42.045  18.537  25.967  1.00  0.00    -0.269 OA
BRANCH  32  35
ATOM     35  C   UNL A   1      41.847  20.832  26.416  1.00  0.00     0.039 A 
ATOM     36  C   UNL A   1      42.084  21.736  25.376  1.00  0.00     0.014 A 
ATOM     37  C   UNL A   1      42.179  21.184  27.727  1.00  0.00     0.014 A 
ATOM     38  C   UNL A   1      42.603  23.003  25.655  1.00  0.00     0.010 A 
ATOM     39  C   UNL A   1      42.608  22.477  28.015  1.00  0.00     0.010 A 
ATOM     40  C   UNL A   1      42.840  23.396  26.982  1.00  0.00    -0.014 A 
BRANCH  40  41
ATOM     41  C   UNL A   1      43.352  24.752  27.307  1.00  0.00     0.031 A 
ATOM     42  C   UNL A   1      42.423  25.792  27.872  1.00  0.00     0.074 A 
ATOM     43  C   UNL A   1      44.634  25.066  27.034  1.00  0.00     0.049 A 
ATOM     44  N   UNL A   1      42.655  27.053  28.145  1.00  0.00    -0.248 NA
ATOM     45  C   UNL A   1      41.040  25.367  28.143  1.00  0.00     0.031 C 
ATOM     46  C   UNL A   1      45.619  24.158  26.445  1.00  0.00     0.029 A 
ATOM     47  N   UNL A   1      45.325  26.239  27.206  1.00  0.00    -0.354 N 
ATOM     48  C   UNL A   1      41.449  27.568  28.602  1.00  0.00     0.074 A 
ATOM     49  C   UNL A   1      40.474  26.506  28.514  1.00  0.00     0.031 C 
ATOM     50  C   UNL A   1      46.791  24.799  26.323  1.00  0.00     0.029 A 
ATOM     51  C   UNL A   1      46.630  26.176  26.781  1.00  0.00     0.049 A 
ATOM     52  H   UNL A   1      44.925  27.049  27.596  1.00  0.00     0.167 HD
ATOM     53  C   UNL A   1      41.187  28.809  29.079  1.00  0.00     0.037 A 
ATOM     54  C   UNL A   1      47.585  27.125  26.752  1.00  0.00     0.037 A 
ATOM     55  C   UNL A   1      42.168  29.857  29.182  1.00  0.00     0.049 A 
ATOM     56  C   UNL A   1      47.262  28.502  27.269  1.00  0.00     0.074 A 
ATOM     57  C   UNL A   1      42.018  31.133  29.697  1.00  0.00     0.029 A 
ATOM     58  N   UNL A   1      43.484  29.749  28.756  1.00  0.00    -0.354 N 
ATOM     59  N   UNL A   1      46.137  28.959  27.760  1.00  0.00    -0.248 NA
ATOM     60  C   UNL A   1      48.347  29.493  27.233  1.00  0.00     0.031 C 
ATOM     61  C   UNL A   1      43.228  31.815  29.531  1.00  0.00     0.029 A 
ATOM     62  C   UNL A   1      44.151  30.945  28.974  1.00  0.00     0.049 A 
ATOM     63  H   UNL A   1      43.886  28.943  28.359  1.00  0.00     0.167 HD
ATOM     64  C   UNL A   1      46.384  30.277  28.120  1.00  0.00     0.074 A 
ATOM     65  C   UNL A   1      47.772  30.541  27.805  1.00  0.00     0.031 C 
ATOM     66  C   UNL A   1      45.537  31.187  28.663  1.00  0.00     0.037 A 
BRANCH  53  67
ATOM     67  C   UNL A   1      39.781  29.101  29.527  1.00  0.00     0.064 A 
ATOM     68  C   UNL A   1      39.394  28.967  30.870  1.00  0.00     0.173 A 
ATOM     69  C   UNL A   1      38.819  29.551  28.611  1.00  0.00     0.173 A 
ATOM     70  F   UNL A   1      40.271  28.530  31.787  1.00  0.00    -0.203 F 
ATOM     71  C   UNL A   1      38.088  29.240  31.271  1.00  0.00     0.198 A 
ATOM     72  C   UNL A   1      37.524  29.857  29.022  1.00  0.00     0.198 A 
ATOM     73  F   UNL A   1      39.136  29.703  27.317  1.00  0.00    -0.203 F 
ATOM     74  F   UNL A   1      37.728  29.051  32.548  1.00  0.00    -0.200 F 
ATOM     75  C   UNL A   1      37.157  29.692  30.349  1.00  0.00     0.200 A 
ATOM     76  F   UNL A   1      36.629  30.308  28.133  1.00  0.00    -0.200 F 
ATOM     77  F   UNL A   1      35.903  29.962  30.737  1.00  0.00    -0.200 F 
ENDBRANCH  53  67
BRANCH  54  78
ATOM     78  C   UNL A   1      48.938  26.804  26.225  1.00  0.00     0.064 A 
ATOM     79  C   UNL A   1      49.938  26.291  27.065  1.00  0.00     0.173 A 
ATOM     80  C   UNL A   1      49.263  27.007  24.875  1.00  0.00     0.173 A 
ATOM     81  F   UNL A   1      49.682  26.095  28.366  1.00  0.00    -0.203 F 
ATOM     82  C   UNL A   1      51.216  26.019  26.581  1.00  0.00     0.198 A 
ATOM     83  C   UNL A   1      50.532  26.703  24.386  1.00  0.00     0.198 A 
ATOM     84  F   UNL A   1      48.343  27.489  24.027  1.00  0.00    -0.203 F 
ATOM     85  F   UNL A   1      52.166  25.579  27.417  1.00  0.00    -0.200 F 
ATOM     86  C   UNL A   1      51.510  26.219  25.241  1.00  0.00     0.200 A 
ATOM     87  F   UNL A   1      50.807  26.880  23.087  1.00  0.00    -0.200 F 
ATOM     88  F   UNL A   1      52.738  25.952  24.775  1.00  0.00    -0.200 F 
ENDBRANCH  54  78
BRANCH  66  89
ATOM     89  C   UNL A   1      46.097  32.542  28.989  1.00  0.00     0.064 A 
ATOM     90  C   UNL A   1      46.016  33.613  28.089  1.00  0.00     0.173 A 
ATOM     91  C   UNL A   1      46.683  32.781  30.243  1.00  0.00     0.173 A 
ATOM     92  F   UNL A   1      45.479  33.433  26.872  1.00  0.00    -0.203 F 
ATOM     93  C   UNL A   1      46.524  34.867  28.419  1.00  0.00     0.198 A 
ATOM     94  C   UNL A   1      47.157  34.044  30.583  1.00  0.00     0.198 A 
ATOM     95  F   UNL A   1      46.777  31.793  31.145  1.00  0.00    -0.203 F 
ATOM     96  F   UNL A   1      46.481  35.863  27.523  1.00  0.00    -0.200 F 
ATOM     97  C   UNL A   1      47.085  35.084  29.669  1.00  0.00     0.200 A 
ATOM     98  F   UNL A   1      47.683  34.256  31.798  1.00  0.00    -0.200 F 
ATOM     99  F   UNL A   1      47.563  36.294  29.990  1.00  0.00    -0.200 F 
ENDBRANCH  66  89
ENDBRANCH  40  41
ENDBRANCH  32  35
ENDBRANCH  30  31
ENDBRANCH  29  30
ENDBRANCH   1  29
TORSDOF 15
ENDMDL
