MODEL 1
REMARK VINA RESULT:     -13.3      0.000      0.000
REMARK SMILES Cc1cc(C(=O)NCCCNC(=O)c2ccc(-c3c4nc(c(-c5c(F)c(F)c(F)c(F)c5F)c5ccc([nH]5)c(-c5c(F)c(F)c(F)c(F)c5F)c5nc(c(-c6c(F)c(F)c(F)c(F)c6F)c6ccc3[nH]6)C=C5)C=C4)cc2)nn1[C@H]1CCS(=O)(=O)C1
REMARK SMILES IDX 9 1 8 2 7 3 5 4 6 5 4 7 1 8 2 9 3 10 78 11 77 12 79 13 80 14
REMARK SMILES IDX 85 15 81 16 82 17 83 18 84 19 10 20 11 21 12 22 13 24 14 25
REMARK SMILES IDX 15 26 76 27 16 28 75 29 17 30 18 31 19 32 69 33 20 34 74 35
REMARK SMILES IDX 68 36 70 37 21 38 73 39 67 40 66 41 22 43 54 44 34 45 53 46
REMARK SMILES IDX 35 47 38 48 52 49 71 50 36 51 37 52 51 54 72 55 39 56 23 57
REMARK SMILES IDX 24 58 32 59 25 60 26 61 30 62 33 63 27 64 28 65 31 66 29 67
REMARK SMILES IDX 55 68 56 69 64 70 57 71 58 72 62 73 65 74 59 75 60 76 63 77
REMARK SMILES IDX 61 78 40 79 41 80 49 81 42 82 43 83 47 84 50 85 44 86 45 87
REMARK SMILES IDX 48 88 46 89
REMARK H PARENT 7 6 11 23 70 42 38 53
REMARK Flexibility Score: inf
ROOT
ATOM      1  C   UNL A   1      33.476  28.686  26.099  1.00  0.00     0.042 C 
ENDROOT
BRANCH   1   2
ATOM      2  C   UNL A   1      33.377  29.647  24.908  1.00  0.00     0.118 C 
BRANCH   2   3
ATOM      3  N   UNL A   1      33.876  29.065  23.679  1.00  0.00    -0.351 N 
ATOM      4  C   UNL A   1      33.302  28.180  22.793  1.00  0.00     0.271 C 
ATOM      5  O   UNL A   1      33.951  27.958  21.767  1.00  0.00    -0.267 OA
ATOM      6  H   UNL A   1      34.785  29.352  23.434  1.00  0.00     0.163 HD
BRANCH   4   7
ATOM      7  C   UNL A   1      32.013  27.513  23.075  1.00  0.00     0.150 A 
ATOM      8  C   UNL A   1      28.405  26.939  23.656  1.00  0.00     0.066 C 
ATOM      9  C   UNL A   1      29.880  26.953  23.521  1.00  0.00     0.036 A 
ATOM     10  C   UNL A   1      30.691  28.013  23.169  1.00  0.00     0.059 A 
ATOM     11  N   UNL A   1      30.750  25.927  23.783  1.00  0.00    -0.265 N 
ATOM     12  N   UNL A   1      31.992  26.194  23.344  1.00  0.00    -0.167 NA
BRANCH  11  13
ATOM     13  C   UNL A   1      30.672  24.843  24.752  1.00  0.00     0.123 C 
ATOM     14  C   UNL A   1      31.242  23.562  24.113  1.00  0.00     0.044 C 
ATOM     15  C   UNL A   1      31.383  25.006  26.085  1.00  0.00     0.164 C 
ATOM     16  C   UNL A   1      31.245  22.487  25.181  1.00  0.00     0.139 C 
ATOM     17  S   UNL A   1      31.491  23.347  26.723  1.00  0.00     0.152 S 
ATOM     18  O   UNL A   1      30.338  23.109  27.570  1.00  0.00    -0.229 OA
ATOM     19  O   UNL A   1      32.844  23.121  27.174  1.00  0.00    -0.229 OA
ENDBRANCH  11  13
ENDBRANCH   4   7
ENDBRANCH   2   3
ENDBRANCH   1   2
BRANCH   1  20
ATOM     20  C   UNL A   1      33.731  29.424  27.405  1.00  0.00     0.118 C 
BRANCH  20  21
ATOM     21  N   UNL A   1      34.071  30.834  27.180  1.00  0.00    -0.352 N 
ATOM     22  C   UNL A   1      35.150  31.567  27.628  1.00  0.00     0.251 C 
ATOM     23  H   UNL A   1      33.430  31.334  26.623  1.00  0.00     0.163 HD
ATOM     24  O   UNL A   1      35.128  32.792  27.606  1.00  0.00    -0.269 OA
BRANCH  22  25
ATOM     25  C   UNL A   1      36.329  30.858  28.144  1.00  0.00     0.039 A 
ATOM     26  C   UNL A   1      36.516  29.489  27.919  1.00  0.00     0.014 A 
ATOM     27  C   UNL A   1      37.280  31.604  28.825  1.00  0.00     0.014 A 
ATOM     28  C   UNL A   1      37.719  28.904  28.304  1.00  0.00     0.010 A 
ATOM     29  C   UNL A   1      38.528  31.080  29.014  1.00  0.00     0.010 A 
ATOM     30  C   UNL A   1      38.732  29.716  28.830  1.00  0.00    -0.014 A 
BRANCH  30  31
ATOM     31  C   UNL A   1      40.068  29.201  29.105  1.00  0.00     0.031 A 
ATOM     32  C   UNL A   1      40.376  28.993  30.547  1.00  0.00     0.074 A 
ATOM     33  C   UNL A   1      40.838  28.700  28.112  1.00  0.00     0.049 A 
ATOM     34  N   UNL A   1      41.339  29.514  31.232  1.00  0.00    -0.248 NA
ATOM     35  C   UNL A   1      39.435  28.200  31.360  1.00  0.00     0.031 C 
ATOM     36  C   UNL A   1      40.510  28.586  26.683  1.00  0.00     0.029 A 
ATOM     37  N   UNL A   1      42.028  28.049  28.187  1.00  0.00    -0.354 N 
ATOM     38  C   UNL A   1      41.243  28.973  32.512  1.00  0.00     0.074 A 
ATOM     39  C   UNL A   1      39.964  28.319  32.580  1.00  0.00     0.031 C 
ATOM     40  C   UNL A   1      41.336  27.695  26.096  1.00  0.00     0.029 A 
ATOM     41  C   UNL A   1      42.353  27.308  27.054  1.00  0.00     0.049 A 
ATOM     42  H   UNL A   1      42.614  28.098  28.978  1.00  0.00     0.167 HD
ATOM     43  C   UNL A   1      42.335  28.899  33.325  1.00  0.00     0.037 A 
ATOM     44  C   UNL A   1      43.365  26.414  26.929  1.00  0.00     0.037 A 
ATOM     45  C   UNL A   1      43.383  29.771  32.857  1.00  0.00     0.049 A 
ATOM     46  C   UNL A   1      44.327  26.694  28.024  1.00  0.00     0.074 A 
ATOM     47  C   UNL A   1      43.482  31.132  32.640  1.00  0.00     0.029 A 
ATOM     48  N   UNL A   1      44.428  29.208  32.165  1.00  0.00    -0.354 N 
ATOM     49  N   UNL A   1      45.052  27.776  28.087  1.00  0.00    -0.248 NA
ATOM     50  C   UNL A   1      44.132  25.999  29.288  1.00  0.00     0.031 C 
ATOM     51  C   UNL A   1      44.256  31.259  31.449  1.00  0.00     0.029 A 
ATOM     52  C   UNL A   1      44.650  29.980  31.055  1.00  0.00     0.049 A 
ATOM     53  H   UNL A   1      44.924  28.397  32.420  1.00  0.00     0.167 HD
ATOM     54  C   UNL A   1      45.022  28.140  29.425  1.00  0.00     0.074 A 
ATOM     55  C   UNL A   1      44.523  26.960  30.130  1.00  0.00     0.031 C 
ATOM     56  C   UNL A   1      45.114  29.450  29.795  1.00  0.00     0.037 A 
BRANCH  43  57
ATOM     57  C   UNL A   1      42.609  27.779  34.301  1.00  0.00     0.064 A 
ATOM     58  C   UNL A   1      43.157  26.573  33.818  1.00  0.00     0.173 A 
ATOM     59  C   UNL A   1      42.072  27.720  35.605  1.00  0.00     0.173 A 
ATOM     60  F   UNL A   1      43.689  26.508  32.588  1.00  0.00    -0.203 F 
ATOM     61  C   UNL A   1      43.081  25.382  34.545  1.00  0.00     0.198 A 
ATOM     62  C   UNL A   1      42.047  26.541  36.349  1.00  0.00     0.198 A 
ATOM     63  F   UNL A   1      41.447  28.758  36.171  1.00  0.00    -0.203 F 
ATOM     64  F   UNL A   1      43.490  24.234  33.986  1.00  0.00    -0.200 F 
ATOM     65  C   UNL A   1      42.517  25.365  35.807  1.00  0.00     0.200 A 
ATOM     66  F   UNL A   1      41.483  26.544  37.566  1.00  0.00    -0.200 F 
ATOM     67  F   UNL A   1      42.379  24.215  36.477  1.00  0.00    -0.200 F 
ENDBRANCH  43  57
BRANCH  44  68
ATOM     68  C   UNL A   1      43.427  25.187  26.098  1.00  0.00     0.064 A 
ATOM     69  C   UNL A   1      44.498  24.964  25.217  1.00  0.00     0.173 A 
ATOM     70  C   UNL A   1      42.583  24.086  26.343  1.00  0.00     0.173 A 
ATOM     71  F   UNL A   1      45.374  25.945  24.956  1.00  0.00    -0.203 F 
ATOM     72  C   UNL A   1      44.729  23.709  24.642  1.00  0.00     0.198 A 
ATOM     73  C   UNL A   1      42.809  22.836  25.763  1.00  0.00     0.198 A 
ATOM     74  F   UNL A   1      41.577  24.171  27.225  1.00  0.00    -0.203 F 
ATOM     75  F   UNL A   1      45.801  23.518  23.860  1.00  0.00    -0.200 F 
ATOM     76  C   UNL A   1      43.891  22.643  24.925  1.00  0.00     0.200 A 
ATOM     77  F   UNL A   1      42.010  21.805  26.073  1.00  0.00    -0.200 F 
ATOM     78  F   UNL A   1      44.148  21.425  24.428  1.00  0.00    -0.200 F 
ENDBRANCH  44  68
BRANCH  56  79
ATOM     79  C   UNL A   1      45.499  30.453  28.741  1.00  0.00     0.064 A 
ATOM     80  C   UNL A   1      44.579  31.121  27.913  1.00  0.00     0.173 A 
ATOM     81  C   UNL A   1      46.837  30.859  28.669  1.00  0.00     0.173 A 
ATOM     82  F   UNL A   1      43.268  30.873  27.994  1.00  0.00    -0.203 F 
ATOM     83  C   UNL A   1      44.989  32.113  27.023  1.00  0.00     0.198 A 
ATOM     84  C   UNL A   1      47.239  31.876  27.807  1.00  0.00     0.198 A 
ATOM     85  F   UNL A   1      47.753  30.300  29.477  1.00  0.00    -0.203 F 
ATOM     86  F   UNL A   1      44.089  32.724  26.237  1.00  0.00    -0.200 F 
ATOM     87  C   UNL A   1      46.318  32.493  26.976  1.00  0.00     0.200 A 
ATOM     88  F   UNL A   1      48.518  32.277  27.803  1.00  0.00    -0.200 F 
ATOM     89  F   UNL A   1      46.708  33.475  26.151  1.00  0.00    -0.200 F 
ENDBRANCH  56  79
ENDBRANCH  30  31
ENDBRANCH  22  25
ENDBRANCH  20  21
ENDBRANCH   1  20
TORSDOF 11
ENDMDL
MODEL 2
REMARK VINA RESULT:     -13.3      3.277      8.756
REMARK SMILES Cc1cc(C(=O)NCCCNC(=O)c2ccc(-c3c4nc(c(-c5c(F)c(F)c(F)c(F)c5F)c5ccc([nH]5)c(-c5c(F)c(F)c(F)c(F)c5F)c5nc(c(-c6c(F)c(F)c(F)c(F)c6F)c6ccc3[nH]6)C=C5)C=C4)cc2)nn1[C@H]1CCS(=O)(=O)C1
REMARK SMILES IDX 9 1 8 2 7 3 5 4 6 5 4 7 1 8 2 9 3 10 78 11 77 12 79 13 80 14
REMARK SMILES IDX 85 15 81 16 82 17 83 18 84 19 10 20 11 21 12 22 13 24 14 25
REMARK SMILES IDX 15 26 76 27 16 28 75 29 17 30 18 31 19 32 69 33 20 34 74 35
REMARK SMILES IDX 68 36 70 37 21 38 73 39 67 40 66 41 22 43 54 44 34 45 53 46
REMARK SMILES IDX 35 47 38 48 52 49 71 50 36 51 37 52 51 54 72 55 39 56 23 57
REMARK SMILES IDX 24 58 32 59 25 60 26 61 30 62 33 63 27 64 28 65 31 66 29 67
REMARK SMILES IDX 55 68 56 69 64 70 57 71 58 72 62 73 65 74 59 75 60 76 63 77
REMARK SMILES IDX 61 78 40 79 41 80 49 81 42 82 43 83 47 84 50 85 44 86 45 87
REMARK SMILES IDX 48 88 46 89
REMARK H PARENT 7 6 11 23 70 42 38 53
REMARK Flexibility Score: inf
ROOT
ATOM      1  C   UNL A   1      37.496  22.327  24.983  1.00  0.00     0.042 C 
ENDROOT
BRANCH   1   2
ATOM      2  C   UNL A   1      36.642  21.103  25.339  1.00  0.00     0.118 C 
BRANCH   2   3
ATOM      3  N   UNL A   1      35.746  21.352  26.449  1.00  0.00    -0.351 N 
ATOM      4  C   UNL A   1      34.391  21.595  26.488  1.00  0.00     0.271 C 
ATOM      5  O   UNL A   1      33.894  21.660  27.616  1.00  0.00    -0.267 OA
ATOM      6  H   UNL A   1      36.182  21.347  27.331  1.00  0.00     0.163 HD
BRANCH   4   7
ATOM      7  C   UNL A   1      33.596  21.804  25.259  1.00  0.00     0.150 A 
ATOM      8  C   UNL A   1      31.892  21.203  22.031  1.00  0.00     0.066 C 
ATOM      9  C   UNL A   1      32.546  21.676  23.272  1.00  0.00     0.036 A 
ATOM     10  C   UNL A   1      33.254  20.933  24.195  1.00  0.00     0.059 A 
ATOM     11  N   UNL A   1      32.638  22.966  23.727  1.00  0.00    -0.265 N 
ATOM     12  N   UNL A   1      33.094  23.024  24.991  1.00  0.00    -0.167 NA
BRANCH  11  13
ATOM     13  C   UNL A   1      32.714  24.223  22.999  1.00  0.00     0.123 C 
ATOM     14  C   UNL A   1      31.305  24.841  22.923  1.00  0.00     0.044 C 
ATOM     15  C   UNL A   1      33.630  25.315  23.526  1.00  0.00     0.164 C 
ATOM     16  C   UNL A   1      31.441  26.196  22.256  1.00  0.00     0.139 C 
ATOM     17  S   UNL A   1      33.059  26.791  22.709  1.00  0.00     0.152 S 
ATOM     18  O   UNL A   1      33.836  26.971  21.498  1.00  0.00    -0.229 OA
ATOM     19  O   UNL A   1      32.914  27.831  23.700  1.00  0.00    -0.229 OA
ENDBRANCH  11  13
ENDBRANCH   4   7
ENDBRANCH   2   3
ENDBRANCH   1   2
BRANCH   1  20
ATOM     20  C   UNL A   1      38.359  22.777  26.153  1.00  0.00     0.118 C 
BRANCH  20  21
ATOM     21  N   UNL A   1      39.612  22.018  26.233  1.00  0.00    -0.352 N 
ATOM     22  C   UNL A   1      40.911  22.465  26.364  1.00  0.00     0.251 C 
ATOM     23  H   UNL A   1      39.511  21.039  26.186  1.00  0.00     0.163 HD
ATOM     24  O   UNL A   1      41.856  21.727  26.111  1.00  0.00    -0.269 OA
BRANCH  22  25
ATOM     25  C   UNL A   1      41.148  23.846  26.805  1.00  0.00     0.039 A 
ATOM     26  C   UNL A   1      40.430  24.920  26.267  1.00  0.00     0.014 A 
ATOM     27  C   UNL A   1      42.080  24.048  27.813  1.00  0.00     0.014 A 
ATOM     28  C   UNL A   1      40.593  26.184  26.825  1.00  0.00     0.010 A 
ATOM     29  C   UNL A   1      42.086  25.236  28.488  1.00  0.00     0.010 A 
ATOM     30  C   UNL A   1      41.408  26.327  27.956  1.00  0.00    -0.014 A 
BRANCH  30  31
ATOM     31  C   UNL A   1      41.497  27.586  28.686  1.00  0.00     0.031 A 
ATOM     32  C   UNL A   1      42.639  28.459  28.294  1.00  0.00     0.074 A 
ATOM     33  C   UNL A   1      40.467  28.025  29.445  1.00  0.00     0.049 A 
ATOM     34  N   UNL A   1      43.584  28.910  29.051  1.00  0.00    -0.248 NA
ATOM     35  C   UNL A   1      42.824  28.777  26.867  1.00  0.00     0.031 C 
ATOM     36  C   UNL A   1      39.166  27.377  29.667  1.00  0.00     0.029 A 
ATOM     37  N   UNL A   1      40.304  29.221  30.070  1.00  0.00    -0.354 N 
ATOM     38  C   UNL A   1      44.375  29.722  28.242  1.00  0.00     0.074 A 
ATOM     39  C   UNL A   1      43.970  29.461  26.887  1.00  0.00     0.031 C 
ATOM     40  C   UNL A   1      38.282  28.281  30.137  1.00  0.00     0.029 A 
ATOM     41  C   UNL A   1      38.988  29.516  30.414  1.00  0.00     0.049 A 
ATOM     42  H   UNL A   1      41.054  29.828  30.266  1.00  0.00     0.167 HD
ATOM     43  C   UNL A   1      45.129  30.723  28.779  1.00  0.00     0.037 A 
ATOM     44  C   UNL A   1      38.510  30.705  30.859  1.00  0.00     0.037 A 
ATOM     45  C   UNL A   1      45.289  30.541  30.200  1.00  0.00     0.049 A 
ATOM     46  C   UNL A   1      39.675  31.483  31.349  1.00  0.00     0.074 A 
ATOM     47  C   UNL A   1      45.826  29.544  30.992  1.00  0.00     0.029 A 
ATOM     48  N   UNL A   1      44.507  31.300  31.038  1.00  0.00    -0.354 N 
ATOM     49  N   UNL A   1      40.363  31.159  32.408  1.00  0.00    -0.248 NA
ATOM     50  C   UNL A   1      40.364  32.340  30.395  1.00  0.00     0.031 C 
ATOM     51  C   UNL A   1      44.956  29.462  32.119  1.00  0.00     0.029 A 
ATOM     52  C   UNL A   1      43.992  30.461  31.991  1.00  0.00     0.049 A 
ATOM     53  H   UNL A   1      44.346  32.268  30.964  1.00  0.00     0.167 HD
ATOM     54  C   UNL A   1      41.683  31.384  32.050  1.00  0.00     0.074 A 
ATOM     55  C   UNL A   1      41.617  32.199  30.838  1.00  0.00     0.031 C 
ATOM     56  C   UNL A   1      42.691  30.640  32.591  1.00  0.00     0.037 A 
BRANCH  43  57
ATOM     57  C   UNL A   1      45.396  32.052  28.112  1.00  0.00     0.064 A 
ATOM     58  C   UNL A   1      44.304  32.883  27.786  1.00  0.00     0.173 A 
ATOM     59  C   UNL A   1      46.622  32.398  27.504  1.00  0.00     0.173 A 
ATOM     60  F   UNL A   1      43.087  32.646  28.300  1.00  0.00    -0.203 F 
ATOM     61  C   UNL A   1      44.412  33.912  26.847  1.00  0.00     0.198 A 
ATOM     62  C   UNL A   1      46.738  33.461  26.609  1.00  0.00     0.198 A 
ATOM     63  F   UNL A   1      47.729  31.662  27.653  1.00  0.00    -0.203 F 
ATOM     64  F   UNL A   1      43.316  34.582  26.466  1.00  0.00    -0.200 F 
ATOM     65  C   UNL A   1      45.627  34.194  26.252  1.00  0.00     0.200 A 
ATOM     66  F   UNL A   1      47.923  33.708  26.032  1.00  0.00    -0.200 F 
ATOM     67  F   UNL A   1      45.720  35.133  25.302  1.00  0.00    -0.200 F 
ENDBRANCH  43  57
BRANCH  44  68
ATOM     68  C   UNL A   1      37.170  31.307  30.653  1.00  0.00     0.064 A 
ATOM     69  C   UNL A   1      36.297  31.518  31.733  1.00  0.00     0.173 A 
ATOM     70  C   UNL A   1      36.822  31.934  29.439  1.00  0.00     0.173 A 
ATOM     71  F   UNL A   1      36.572  30.991  32.935  1.00  0.00    -0.203 F 
ATOM     72  C   UNL A   1      35.164  32.331  31.616  1.00  0.00     0.198 A 
ATOM     73  C   UNL A   1      35.686  32.738  29.322  1.00  0.00     0.198 A 
ATOM     74  F   UNL A   1      37.625  31.860  28.369  1.00  0.00    -0.203 F 
ATOM     75  F   UNL A   1      34.393  32.562  32.688  1.00  0.00    -0.200 F 
ATOM     76  C   UNL A   1      34.866  32.950  30.414  1.00  0.00     0.200 A 
ATOM     77  F   UNL A   1      35.428  33.359  28.161  1.00  0.00    -0.200 F 
ATOM     78  F   UNL A   1      33.818  33.780  30.318  1.00  0.00    -0.200 F 
ENDBRANCH  44  68
BRANCH  56  79
ATOM     79  C   UNL A   1      42.359  29.754  33.762  1.00  0.00     0.064 A 
ATOM     80  C   UNL A   1      41.888  28.434  33.643  1.00  0.00     0.173 A 
ATOM     81  C   UNL A   1      42.670  30.209  35.049  1.00  0.00     0.173 A 
ATOM     82  F   UNL A   1      41.669  27.882  32.446  1.00  0.00    -0.203 F 
ATOM     83  C   UNL A   1      41.693  27.628  34.764  1.00  0.00     0.198 A 
ATOM     84  C   UNL A   1      42.511  29.391  36.163  1.00  0.00     0.198 A 
ATOM     85  F   UNL A   1      43.180  31.440  35.220  1.00  0.00    -0.203 F 
ATOM     86  F   UNL A   1      41.230  26.377  34.621  1.00  0.00    -0.200 F 
ATOM     87  C   UNL A   1      42.011  28.106  36.023  1.00  0.00     0.200 A 
ATOM     88  F   UNL A   1      42.870  29.840  37.374  1.00  0.00    -0.200 F 
ATOM     89  F   UNL A   1      41.863  27.320  37.099  1.00  0.00    -0.200 F 
ENDBRANCH  56  79
ENDBRANCH  30  31
ENDBRANCH  22  25
ENDBRANCH  20  21
ENDBRANCH   1  20
TORSDOF 11
ENDMDL
MODEL 3
REMARK VINA RESULT:     -13.2      5.253     10.897
REMARK SMILES Cc1cc(C(=O)NCCCNC(=O)c2ccc(-c3c4nc(c(-c5c(F)c(F)c(F)c(F)c5F)c5ccc([nH]5)c(-c5c(F)c(F)c(F)c(F)c5F)c5nc(c(-c6c(F)c(F)c(F)c(F)c6F)c6ccc3[nH]6)C=C5)C=C4)cc2)nn1[C@H]1CCS(=O)(=O)C1
REMARK SMILES IDX 9 1 8 2 7 3 5 4 6 5 4 7 1 8 2 9 3 10 78 11 77 12 79 13 80 14
REMARK SMILES IDX 85 15 81 16 82 17 83 18 84 19 10 20 11 21 12 22 13 24 14 25
REMARK SMILES IDX 15 26 76 27 16 28 75 29 17 30 18 31 19 32 69 33 20 34 74 35
REMARK SMILES IDX 68 36 70 37 21 38 73 39 67 40 66 41 22 43 54 44 34 45 53 46
REMARK SMILES IDX 35 47 38 48 52 49 71 50 36 51 37 52 51 54 72 55 39 56 23 57
REMARK SMILES IDX 24 58 32 59 25 60 26 61 30 62 33 63 27 64 28 65 31 66 29 67
REMARK SMILES IDX 55 68 56 69 64 70 57 71 58 72 62 73 65 74 59 75 60 76 63 77
REMARK SMILES IDX 61 78 40 79 41 80 49 81 42 82 43 83 47 84 50 85 44 86 45 87
REMARK SMILES IDX 48 88 46 89
REMARK H PARENT 7 6 11 23 70 42 38 53
REMARK Flexibility Score: inf
ROOT
ATOM      1  C   UNL A   1      43.024  23.024  24.927  1.00  0.00     0.042 C 
ENDROOT
BRANCH   1   2
ATOM      2  C   UNL A   1      44.070  22.596  23.891  1.00  0.00     0.118 C 
BRANCH   2   3
ATOM      3  N   UNL A   1      44.994  21.607  24.406  1.00  0.00    -0.351 N 
ATOM      4  C   UNL A   1      45.801  21.610  25.522  1.00  0.00     0.271 C 
ATOM      5  O   UNL A   1      46.399  20.554  25.749  1.00  0.00    -0.267 OA
ATOM      6  H   UNL A   1      45.056  20.789  23.863  1.00  0.00     0.163 HD
BRANCH   4   7
ATOM      7  C   UNL A   1      45.967  22.812  26.367  1.00  0.00     0.150 A 
ATOM      8  C   UNL A   1      45.557  25.272  29.098  1.00  0.00     0.066 C 
ATOM      9  C   UNL A   1      45.833  24.464  27.888  1.00  0.00     0.036 A 
ATOM     10  C   UNL A   1      45.340  23.214  27.571  1.00  0.00     0.059 A 
ATOM     11  N   UNL A   1      46.586  24.822  26.801  1.00  0.00    -0.265 N 
ATOM     12  N   UNL A   1      46.821  23.779  25.984  1.00  0.00    -0.167 NA
BRANCH  11  13
ATOM     13  C   UNL A   1      46.818  26.126  26.198  1.00  0.00     0.123 C 
ATOM     14  C   UNL A   1      48.336  26.338  26.040  1.00  0.00     0.044 C 
ATOM     15  C   UNL A   1      46.205  26.419  24.839  1.00  0.00     0.164 C 
ATOM     16  C   UNL A   1      48.535  27.653  25.313  1.00  0.00     0.139 C 
ATOM     17  S   UNL A   1      47.118  27.829  24.247  1.00  0.00     0.152 S 
ATOM     18  O   UNL A   1      46.401  29.029  24.630  1.00  0.00    -0.229 OA
ATOM     19  O   UNL A   1      47.522  27.568  22.885  1.00  0.00    -0.229 OA
ENDBRANCH  11  13
ENDBRANCH   4   7
ENDBRANCH   2   3
ENDBRANCH   1   2
BRANCH   1  20
ATOM     20  C   UNL A   1      42.474  21.837  25.704  1.00  0.00     0.118 C 
BRANCH  20  21
ATOM     21  N   UNL A   1      41.032  21.665  25.492  1.00  0.00    -0.352 N 
ATOM     22  C   UNL A   1      39.966  22.205  26.180  1.00  0.00     0.251 C 
ATOM     23  H   UNL A   1      40.788  21.072  24.744  1.00  0.00     0.163 HD
ATOM     24  O   UNL A   1      38.843  21.727  26.072  1.00  0.00    -0.269 OA
BRANCH  22  25
ATOM     25  C   UNL A   1      40.196  23.362  27.057  1.00  0.00     0.039 A 
ATOM     26  C   UNL A   1      41.254  23.388  27.972  1.00  0.00     0.014 A 
ATOM     27  C   UNL A   1      39.353  24.455  26.912  1.00  0.00     0.014 A 
ATOM     28  C   UNL A   1      41.510  24.565  28.670  1.00  0.00     0.010 A 
ATOM     29  C   UNL A   1      39.727  25.659  27.438  1.00  0.00     0.010 A 
ATOM     30  C   UNL A   1      40.753  25.707  28.376  1.00  0.00    -0.014 A 
BRANCH  30  31
ATOM     31  C   UNL A   1      41.070  27.010  28.949  1.00  0.00     0.031 A 
ATOM     32  C   UNL A   1      42.230  27.705  28.324  1.00  0.00     0.074 A 
ATOM     33  C   UNL A   1      40.203  27.633  29.779  1.00  0.00     0.049 A 
ATOM     34  N   UNL A   1      43.310  28.113  28.903  1.00  0.00    -0.248 NA
ATOM     35  C   UNL A   1      42.248  27.864  26.859  1.00  0.00     0.031 C 
ATOM     36  C   UNL A   1      38.886  27.163  30.232  1.00  0.00     0.029 A 
ATOM     37  N   UNL A   1      40.249  28.893  30.288  1.00  0.00    -0.354 N 
ATOM     38  C   UNL A   1      44.062  28.749  27.917  1.00  0.00     0.074 A 
ATOM     39  C   UNL A   1      43.450  28.411  26.661  1.00  0.00     0.031 C 
ATOM     40  C   UNL A   1      38.170  28.203  30.710  1.00  0.00     0.029 A 
ATOM     41  C   UNL A   1      39.030  29.369  30.760  1.00  0.00     0.049 A 
ATOM     42  H   UNL A   1      41.077  29.425  30.320  1.00  0.00     0.167 HD
ATOM     43  C   UNL A   1      44.980  29.703  28.244  1.00  0.00     0.037 A 
ATOM     44  C   UNL A   1      38.740  30.641  31.131  1.00  0.00     0.037 A 
ATOM     45  C   UNL A   1      45.313  29.638  29.645  1.00  0.00     0.049 A 
ATOM     46  C   UNL A   1      40.035  31.322  31.383  1.00  0.00     0.074 A 
ATOM     47  C   UNL A   1      45.850  28.664  30.465  1.00  0.00     0.029 A 
ATOM     48  N   UNL A   1      44.735  30.556  30.487  1.00  0.00    -0.354 N 
ATOM     49  N   UNL A   1      40.825  31.022  32.376  1.00  0.00    -0.248 NA
ATOM     50  C   UNL A   1      40.670  32.002  30.263  1.00  0.00     0.031 C 
ATOM     51  C   UNL A   1      45.139  28.788  31.695  1.00  0.00     0.029 A 
ATOM     52  C   UNL A   1      44.272  29.875  31.583  1.00  0.00     0.049 A 
ATOM     53  H   UNL A   1      44.665  31.526  30.331  1.00  0.00     0.167 HD
ATOM     54  C   UNL A   1      42.100  31.059  31.832  1.00  0.00     0.074 A 
ATOM     55  C   UNL A   1      41.951  31.760  30.557  1.00  0.00     0.031 C 
ATOM     56  C   UNL A   1      43.092  30.258  32.319  1.00  0.00     0.037 A 
BRANCH  43  57
ATOM     57  C   UNL A   1      45.287  30.925  27.409  1.00  0.00     0.064 A 
ATOM     58  C   UNL A   1      46.630  31.215  27.096  1.00  0.00     0.173 A 
ATOM     59  C   UNL A   1      44.371  31.974  27.180  1.00  0.00     0.173 A 
ATOM     60  F   UNL A   1      47.590  30.296  27.280  1.00  0.00    -0.203 F 
ATOM     61  C   UNL A   1      47.035  32.488  26.683  1.00  0.00     0.198 A 
ATOM     62  C   UNL A   1      44.772  33.226  26.716  1.00  0.00     0.198 A 
ATOM     63  F   UNL A   1      43.077  31.879  27.502  1.00  0.00    -0.203 F 
ATOM     64  F   UNL A   1      48.340  32.754  26.532  1.00  0.00    -0.200 F 
ATOM     65  C   UNL A   1      46.106  33.495  26.503  1.00  0.00     0.200 A 
ATOM     66  F   UNL A   1      43.856  34.193  26.561  1.00  0.00    -0.200 F 
ATOM     67  F   UNL A   1      46.497  34.733  26.175  1.00  0.00    -0.200 F 
ENDBRANCH  43  57
BRANCH  44  68
ATOM     68  C   UNL A   1      37.454  31.372  31.031  1.00  0.00     0.064 A 
ATOM     69  C   UNL A   1      36.667  31.610  32.170  1.00  0.00     0.173 A 
ATOM     70  C   UNL A   1      37.098  32.084  29.868  1.00  0.00     0.173 A 
ATOM     71  F   UNL A   1      36.958  31.004  33.330  1.00  0.00    -0.203 F 
ATOM     72  C   UNL A   1      35.610  32.527  32.156  1.00  0.00     0.198 A 
ATOM     73  C   UNL A   1      36.037  32.993  29.853  1.00  0.00     0.198 A 
ATOM     74  F   UNL A   1      37.828  31.987  28.750  1.00  0.00    -0.203 F 
ATOM     75  F   UNL A   1      34.925  32.776  33.281  1.00  0.00    -0.200 F 
ATOM     76  C   UNL A   1      35.303  33.227  31.000  1.00  0.00     0.200 A 
ATOM     77  F   UNL A   1      35.774  33.688  28.737  1.00  0.00    -0.200 F 
ATOM     78  F   UNL A   1      34.334  34.152  31.003  1.00  0.00    -0.200 F 
ENDBRANCH  44  68
BRANCH  56  79
ATOM     79  C   UNL A   1      42.835  29.529  33.611  1.00  0.00     0.064 A 
ATOM     80  C   UNL A   1      42.235  28.260  33.695  1.00  0.00     0.173 A 
ATOM     81  C   UNL A   1      43.348  30.074  34.794  1.00  0.00     0.173 A 
ATOM     82  F   UNL A   1      41.815  27.619  32.600  1.00  0.00    -0.203 F 
ATOM     83  C   UNL A   1      42.115  27.592  34.913  1.00  0.00     0.198 A 
ATOM     84  C   UNL A   1      43.261  29.389  36.003  1.00  0.00     0.198 A 
ATOM     85  F   UNL A   1      43.985  31.256  34.768  1.00  0.00    -0.203 F 
ATOM     86  F   UNL A   1      41.526  26.387  34.964  1.00  0.00    -0.200 F 
ATOM     87  C   UNL A   1      42.633  28.155  36.065  1.00  0.00     0.200 A 
ATOM     88  F   UNL A   1      43.812  29.915  37.106  1.00  0.00    -0.200 F 
ATOM     89  F   UNL A   1      42.556  27.497  37.230  1.00  0.00    -0.200 F 
ENDBRANCH  56  79
ENDBRANCH  30  31
ENDBRANCH  22  25
ENDBRANCH  20  21
ENDBRANCH   1  20
TORSDOF 11
ENDMDL
