MODEL 1
REMARK VINA RESULT:     -11.8      0.000      0.000
REMARK SMILES O=C(NCCCNC(=O)[C@@H]1CCc2[nH]ncc2C1)c1ccc(-c2c3nc(c(-c4c(F)c(F)c(F)c(F)c4F)c4ccc([nH]4)c(-c4c(F)c(F)c(F)c(F)c4F)c4nc(c(-c5c(F)c(F)c(F)c(F)c5F)c5ccc2[nH]5)C=C4)C=C3)cc1
REMARK SMILES IDX 4 1 3 2 1 3 2 4 19 6 20 7 81 8 21 9 80 10 22 11 23 12 24 13
REMARK SMILES IDX 74 14 25 15 79 16 73 17 75 18 26 19 78 20 72 21 71 22 27 24
REMARK SMILES IDX 59 25 39 26 58 27 40 28 43 29 57 30 76 31 41 32 42 33 56 35
REMARK SMILES IDX 77 36 44 37 28 38 29 39 37 40 30 41 31 42 35 43 38 44 32 45
REMARK SMILES IDX 33 46 36 47 34 48 60 49 61 50 69 51 62 52 63 53 67 54 70 55
REMARK SMILES IDX 64 56 65 57 68 58 66 59 45 60 46 61 54 62 47 63 48 64 52 65
REMARK SMILES IDX 55 66 49 67 50 68 53 69 51 70 5 71 6 72 7 73 8 74 9 76 10 77
REMARK SMILES IDX 11 78 18 79 12 80 17 81 13 82 16 83 14 84 15 85
REMARK H PARENT 3 5 75 23 43 34 7 75 14 86
REMARK Flexibility Score: inf
ROOT
ATOM      1  C   UNL A   1      32.719  32.818  26.876  1.00  0.00     0.118 C 
ENDROOT
BRANCH   1   2
ATOM      2  N   UNL A   1      32.493  34.087  27.553  1.00  0.00    -0.352 N 
ATOM      3  O   UNL A   1      32.603  35.592  29.225  1.00  0.00    -0.269 OA
ATOM      4  C   UNL A   1      33.070  34.589  28.692  1.00  0.00     0.251 C 
ATOM      5  H   UNL A   1      31.826  34.674  27.129  1.00  0.00     0.163 HD
BRANCH   4   6
ATOM      6  C   UNL A   1      34.240  33.914  29.290  1.00  0.00     0.039 A 
ATOM      7  C   UNL A   1      34.074  32.837  30.164  1.00  0.00     0.014 A 
ATOM      8  C   UNL A   1      35.525  34.350  28.954  1.00  0.00     0.014 A 
ATOM      9  C   UNL A   1      35.175  32.304  30.821  1.00  0.00     0.010 A 
ATOM     10  C   UNL A   1      36.639  33.740  29.536  1.00  0.00     0.010 A 
ATOM     11  C   UNL A   1      36.471  32.730  30.496  1.00  0.00    -0.014 A 
BRANCH  11  12
ATOM     12  C   UNL A   1      37.635  32.053  31.120  1.00  0.00     0.031 A 
ATOM     13  C   UNL A   1      38.084  32.400  32.511  1.00  0.00     0.074 A 
ATOM     14  C   UNL A   1      38.277  31.101  30.417  1.00  0.00     0.049 A 
ATOM     15  N   UNL A   1      39.084  31.910  33.200  1.00  0.00    -0.248 NA
ATOM     16  C   UNL A   1      37.319  33.438  33.219  1.00  0.00     0.031 C 
ATOM     17  C   UNL A   1      37.934  30.688  29.053  1.00  0.00     0.029 A 
ATOM     18  N   UNL A   1      39.339  30.302  30.747  1.00  0.00    -0.354 N 
ATOM     19  C   UNL A   1      39.079  32.587  34.412  1.00  0.00     0.074 A 
ATOM     20  C   UNL A   1      37.996  33.546  34.355  1.00  0.00     0.031 C 
ATOM     21  C   UNL A   1      38.741  29.686  28.680  1.00  0.00     0.029 A 
ATOM     22  C   UNL A   1      39.703  29.434  29.746  1.00  0.00     0.049 A 
ATOM     23  H   UNL A   1      39.798  30.344  31.617  1.00  0.00     0.167 HD
ATOM     24  C   UNL A   1      39.901  32.417  35.476  1.00  0.00     0.037 A 
ATOM     25  C   UNL A   1      40.715  28.551  29.682  1.00  0.00     0.037 A 
ATOM     26  C   UNL A   1      40.973  31.452  35.525  1.00  0.00     0.049 A 
ATOM     27  C   UNL A   1      41.635  28.413  30.860  1.00  0.00     0.074 A 
ATOM     28  C   UNL A   1      41.839  31.178  36.569  1.00  0.00     0.029 A 
ATOM     29  N   UNL A   1      41.330  30.612  34.480  1.00  0.00    -0.354 N 
ATOM     30  N   UNL A   1      41.597  29.032  32.014  1.00  0.00    -0.248 NA
ATOM     31  C   UNL A   1      42.737  27.454  30.726  1.00  0.00     0.031 C 
ATOM     32  C   UNL A   1      42.755  30.213  36.136  1.00  0.00     0.029 A 
ATOM     33  C   UNL A   1      42.422  29.839  34.844  1.00  0.00     0.049 A 
ATOM     34  H   UNL A   1      40.875  30.570  33.608  1.00  0.00     0.167 HD
ATOM     35  C   UNL A   1      42.656  28.523  32.753  1.00  0.00     0.074 A 
ATOM     36  C   UNL A   1      43.304  27.529  31.922  1.00  0.00     0.031 C 
ATOM     37  C   UNL A   1      43.055  28.851  34.006  1.00  0.00     0.037 A 
BRANCH  24  38
ATOM     38  C   UNL A   1      39.694  33.304  36.671  1.00  0.00     0.064 A 
ATOM     39  C   UNL A   1      40.374  34.522  36.816  1.00  0.00     0.173 A 
ATOM     40  C   UNL A   1      38.766  32.951  37.664  1.00  0.00     0.173 A 
ATOM     41  F   UNL A   1      41.279  34.904  35.902  1.00  0.00    -0.203 F 
ATOM     42  C   UNL A   1      40.155  35.340  37.922  1.00  0.00     0.198 A 
ATOM     43  C   UNL A   1      38.526  33.786  38.753  1.00  0.00     0.198 A 
ATOM     44  F   UNL A   1      38.082  31.801  37.573  1.00  0.00    -0.203 F 
ATOM     45  F   UNL A   1      40.851  36.476  38.063  1.00  0.00    -0.200 F 
ATOM     46  C   UNL A   1      39.226  34.976  38.886  1.00  0.00     0.200 A 
ATOM     47  F   UNL A   1      37.618  33.438  39.675  1.00  0.00    -0.200 F 
ATOM     48  F   UNL A   1      39.010  35.767  39.945  1.00  0.00    -0.200 F 
ENDBRANCH  24  38
BRANCH  25  49
ATOM     49  C   UNL A   1      40.909  27.742  28.450  1.00  0.00     0.064 A 
ATOM     50  C   UNL A   1      40.292  26.494  28.302  1.00  0.00     0.173 A 
ATOM     51  C   UNL A   1      41.706  28.207  27.393  1.00  0.00     0.173 A 
ATOM     52  F   UNL A   1      39.534  25.999  29.292  1.00  0.00    -0.203 F 
ATOM     53  C   UNL A   1      40.477  25.732  27.149  1.00  0.00     0.198 A 
ATOM     54  C   UNL A   1      41.863  27.460  26.228  1.00  0.00     0.198 A 
ATOM     55  F   UNL A   1      42.312  29.400  27.482  1.00  0.00    -0.203 F 
ATOM     56  F   UNL A   1      39.911  24.522  27.052  1.00  0.00    -0.200 F 
ATOM     57  C   UNL A   1      41.257  26.220  26.111  1.00  0.00     0.200 A 
ATOM     58  F   UNL A   1      42.601  27.945  25.220  1.00  0.00    -0.200 F 
ATOM     59  F   UNL A   1      41.428  25.491  25.001  1.00  0.00    -0.200 F 
ENDBRANCH  25  49
BRANCH  37  60
ATOM     60  C   UNL A   1      44.228  28.100  34.568  1.00  0.00     0.064 A 
ATOM     61  C   UNL A   1      45.539  28.586  34.455  1.00  0.00     0.173 A 
ATOM     62  C   UNL A   1      44.032  26.891  35.253  1.00  0.00     0.173 A 
ATOM     63  F   UNL A   1      45.781  29.728  33.795  1.00  0.00    -0.203 F 
ATOM     64  C   UNL A   1      46.613  27.873  34.982  1.00  0.00     0.198 A 
ATOM     65  C   UNL A   1      45.105  26.199  35.807  1.00  0.00     0.198 A 
ATOM     66  F   UNL A   1      42.796  26.386  35.394  1.00  0.00    -0.203 F 
ATOM     67  F   UNL A   1      47.862  28.329  34.813  1.00  0.00    -0.200 F 
ATOM     68  C   UNL A   1      46.395  26.686  35.663  1.00  0.00     0.200 A 
ATOM     69  F   UNL A   1      44.889  25.060  36.478  1.00  0.00    -0.200 F 
ATOM     70  F   UNL A   1      47.429  26.005  36.175  1.00  0.00    -0.200 F 
ENDBRANCH  37  60
ENDBRANCH  11  12
ENDBRANCH   4   6
ENDBRANCH   1   2
BRANCH   1  71
ATOM     71  C   UNL A   1      31.471  31.951  26.842  1.00  0.00     0.042 C 
BRANCH  71  72
ATOM     72  C   UNL A   1      31.777  30.461  26.876  1.00  0.00     0.117 C 
BRANCH  72  73
ATOM     73  N   UNL A   1      32.700  30.073  25.818  1.00  0.00    -0.356 N 
ATOM     74  C   UNL A   1      32.456  29.359  24.678  1.00  0.00     0.223 C 
ATOM     75  H   UNL A   1      33.631  30.368  25.942  1.00  0.00     0.163 HD
ATOM     76  O   UNL A   1      33.386  29.131  23.908  1.00  0.00    -0.275 OA
BRANCH  74  77
ATOM     77  C   UNL A   1      31.042  28.888  24.424  1.00  0.00     0.083 C 
ATOM     78  C   UNL A   1      31.008  27.456  23.831  1.00  0.00     0.020 C 
ATOM     79  C   UNL A   1      30.249  29.849  23.509  1.00  0.00     0.052 C 
ATOM     80  C   UNL A   1      29.579  26.875  23.876  1.00  0.00     0.057 C 
ATOM     81  C   UNL A   1      28.882  29.281  23.337  1.00  0.00    -0.006 A 
ATOM     82  C   UNL A   1      28.612  27.938  23.502  1.00  0.00     0.038 A 
ATOM     83  C   UNL A   1      27.635  29.859  23.064  1.00  0.00     0.138 A 
ATOM     84  N   UNL A   1      27.269  27.793  23.345  1.00  0.00    -0.282 N 
ATOM     85  N   UNL A   1      26.648  28.956  23.071  1.00  0.00    -0.184 NA
ATOM     86  H   UNL A   1      26.801  26.930  23.425  1.00  0.00     0.190 HD
ENDBRANCH  74  77
ENDBRANCH  72  73
ENDBRANCH  71  72
ENDBRANCH   1  71
TORSDOF 10
ENDMDL
MODEL 2
REMARK VINA RESULT:     -11.8      6.372     11.490
REMARK SMILES O=C(NCCCNC(=O)[C@@H]1CCc2[nH]ncc2C1)c1ccc(-c2c3nc(c(-c4c(F)c(F)c(F)c(F)c4F)c4ccc([nH]4)c(-c4c(F)c(F)c(F)c(F)c4F)c4nc(c(-c5c(F)c(F)c(F)c(F)c5F)c5ccc2[nH]5)C=C4)C=C3)cc1
REMARK SMILES IDX 4 1 3 2 1 3 2 4 19 6 20 7 81 8 21 9 80 10 22 11 23 12 24 13
REMARK SMILES IDX 74 14 25 15 79 16 73 17 75 18 26 19 78 20 72 21 71 22 27 24
REMARK SMILES IDX 59 25 39 26 58 27 40 28 43 29 57 30 76 31 41 32 42 33 56 35
REMARK SMILES IDX 77 36 44 37 28 38 29 39 37 40 30 41 31 42 35 43 38 44 32 45
REMARK SMILES IDX 33 46 36 47 34 48 60 49 61 50 69 51 62 52 63 53 67 54 70 55
REMARK SMILES IDX 64 56 65 57 68 58 66 59 45 60 46 61 54 62 47 63 48 64 52 65
REMARK SMILES IDX 55 66 49 67 50 68 53 69 51 70 5 71 6 72 7 73 8 74 9 76 10 77
REMARK SMILES IDX 11 78 18 79 12 80 17 81 13 82 16 83 14 84 15 85
REMARK H PARENT 3 5 75 23 43 34 7 75 14 86
REMARK Flexibility Score: inf
ROOT
ATOM      1  C   UNL A   1      39.133  20.101  26.087  1.00  0.00     0.118 C 
ENDROOT
BRANCH   1   2
ATOM      2  N   UNL A   1      40.285  19.212  26.020  1.00  0.00    -0.352 N 
ATOM      3  O   UNL A   1      42.448  18.639  25.769  1.00  0.00    -0.269 OA
ATOM      4  C   UNL A   1      41.624  19.508  26.042  1.00  0.00     0.251 C 
ATOM      5  H   UNL A   1      40.069  18.255  25.948  1.00  0.00     0.163 HD
BRANCH   4   6
ATOM      6  C   UNL A   1      42.076  20.874  26.374  1.00  0.00     0.039 A 
ATOM      7  C   UNL A   1      42.371  21.228  27.692  1.00  0.00     0.014 A 
ATOM      8  C   UNL A   1      42.231  21.811  25.348  1.00  0.00     0.014 A 
ATOM      9  C   UNL A   1      42.663  22.549  28.006  1.00  0.00     0.010 A 
ATOM     10  C   UNL A   1      42.630  23.115  25.653  1.00  0.00     0.010 A 
ATOM     11  C   UNL A   1      42.821  23.501  26.988  1.00  0.00    -0.014 A 
BRANCH  11  12
ATOM     12  C   UNL A   1      43.259  24.875  27.342  1.00  0.00     0.031 A 
ATOM     13  C   UNL A   1      44.667  25.331  27.089  1.00  0.00     0.074 A 
ATOM     14  C   UNL A   1      42.358  25.717  27.883  1.00  0.00     0.049 A 
ATOM     15  N   UNL A   1      45.214  26.494  27.344  1.00  0.00    -0.248 NA
ATOM     16  C   UNL A   1      45.585  24.358  26.479  1.00  0.00     0.031 C 
ATOM     17  C   UNL A   1      40.964  25.379  28.181  1.00  0.00     0.029 A 
ATOM     18  N   UNL A   1      42.470  27.027  28.267  1.00  0.00    -0.354 N 
ATOM     19  C   UNL A   1      46.540  26.387  26.944  1.00  0.00     0.074 A 
ATOM     20  C   UNL A   1      46.725  25.036  26.456  1.00  0.00     0.031 C 
ATOM     21  C   UNL A   1      40.340  26.462  28.661  1.00  0.00     0.029 A 
ATOM     22  C   UNL A   1      41.305  27.549  28.773  1.00  0.00     0.049 A 
ATOM     23  H   UNL A   1      43.303  27.545  28.188  1.00  0.00     0.167 HD
ATOM     24  C   UNL A   1      47.508  27.334  26.975  1.00  0.00     0.037 A 
ATOM     25  C   UNL A   1      41.046  28.762  29.295  1.00  0.00     0.037 A 
ATOM     26  C   UNL A   1      47.310  28.679  27.456  1.00  0.00     0.049 A 
ATOM     27  C   UNL A   1      42.150  29.778  29.354  1.00  0.00     0.074 A 
ATOM     28  C   UNL A   1      48.218  29.723  27.497  1.00  0.00     0.029 A 
ATOM     29  N   UNL A   1      46.124  29.163  27.991  1.00  0.00    -0.354 N 
ATOM     30  N   UNL A   1      43.388  29.677  28.938  1.00  0.00    -0.248 NA
ATOM     31  C   UNL A   1      41.820  31.074  29.957  1.00  0.00     0.031 C 
ATOM     32  C   UNL A   1      47.599  30.820  28.107  1.00  0.00     0.029 A 
ATOM     33  C   UNL A   1      46.285  30.481  28.389  1.00  0.00     0.049 A 
ATOM     34  H   UNL A   1      45.290  28.647  28.073  1.00  0.00     0.167 HD
ATOM     35  C   UNL A   1      43.980  30.903  29.207  1.00  0.00     0.074 A 
ATOM     36  C   UNL A   1      42.957  31.737  29.804  1.00  0.00     0.031 C 
ATOM     37  C   UNL A   1      45.256  31.300  28.981  1.00  0.00     0.037 A 
BRANCH  24  38
ATOM     38  C   UNL A   1      48.880  26.949  26.497  1.00  0.00     0.064 A 
ATOM     39  C   UNL A   1      49.842  26.409  27.363  1.00  0.00     0.173 A 
ATOM     40  C   UNL A   1      49.222  27.081  25.141  1.00  0.00     0.173 A 
ATOM     41  F   UNL A   1      49.573  26.271  28.670  1.00  0.00    -0.203 F 
ATOM     42  C   UNL A   1      51.102  26.041  26.896  1.00  0.00     0.198 A 
ATOM     43  C   UNL A   1      50.472  26.683  24.672  1.00  0.00     0.198 A 
ATOM     44  F   UNL A   1      48.338  27.585  24.267  1.00  0.00    -0.203 F 
ATOM     45  F   UNL A   1      52.021  25.572  27.752  1.00  0.00    -0.200 F 
ATOM     46  C   UNL A   1      51.413  26.171  25.551  1.00  0.00     0.200 A 
ATOM     47  F   UNL A   1      50.764  26.797  23.369  1.00  0.00    -0.200 F 
ATOM     48  F   UNL A   1      52.623  25.809  25.103  1.00  0.00    -0.200 F 
ENDBRANCH  24  38
BRANCH  25  49
ATOM     49  C   UNL A   1      39.686  29.068  29.809  1.00  0.00     0.064 A 
ATOM     50  C   UNL A   1      38.693  29.578  28.963  1.00  0.00     0.173 A 
ATOM     51  C   UNL A   1      39.349  28.843  31.152  1.00  0.00     0.173 A 
ATOM     52  F   UNL A   1      38.972  29.825  27.675  1.00  0.00    -0.203 F 
ATOM     53  C   UNL A   1      37.418  29.870  29.446  1.00  0.00     0.198 A 
ATOM     54  C   UNL A   1      38.065  29.103  31.625  1.00  0.00     0.198 A 
ATOM     55  F   UNL A   1      40.261  28.348  32.001  1.00  0.00    -0.203 F 
ATOM     56  F   UNL A   1      36.500  30.399  28.626  1.00  0.00    -0.200 F 
ATOM     57  C   UNL A   1      37.104  29.626  30.775  1.00  0.00     0.200 A 
ATOM     58  F   UNL A   1      37.761  28.846  32.905  1.00  0.00    -0.200 F 
ATOM     59  F   UNL A   1      35.876  29.898  31.235  1.00  0.00    -0.200 F 
ENDBRANCH  25  49
BRANCH  37  60
ATOM     60  C   UNL A   1      45.608  32.713  29.347  1.00  0.00     0.064 A 
ATOM     61  C   UNL A   1      46.142  33.039  30.603  1.00  0.00     0.173 A 
ATOM     62  C   UNL A   1      45.431  33.750  28.419  1.00  0.00     0.173 A 
ATOM     63  F   UNL A   1      46.312  32.087  31.532  1.00  0.00    -0.203 F 
ATOM     64  C   UNL A   1      46.459  34.356  30.924  1.00  0.00     0.198 A 
ATOM     65  C   UNL A   1      45.782  35.060  28.732  1.00  0.00     0.198 A 
ATOM     66  F   UNL A   1      44.929  33.490  27.202  1.00  0.00    -0.203 F 
ATOM     67  F   UNL A   1      46.916  34.652  32.149  1.00  0.00    -0.200 F 
ATOM     68  C   UNL A   1      46.286  35.364  29.988  1.00  0.00     0.200 A 
ATOM     69  F   UNL A   1      45.628  36.029  27.820  1.00  0.00    -0.200 F 
ATOM     70  F   UNL A   1      46.599  36.629  30.297  1.00  0.00    -0.200 F 
ENDBRANCH  37  60
ENDBRANCH  11  12
ENDBRANCH   4   6
ENDBRANCH   1   2
BRANCH   1  71
ATOM     71  C   UNL A   1      38.168  19.885  24.934  1.00  0.00     0.042 C 
BRANCH  71  72
ATOM     72  C   UNL A   1      37.288  21.095  24.655  1.00  0.00     0.117 C 
BRANCH  72  73
ATOM     73  N   UNL A   1      36.472  21.448  25.808  1.00  0.00    -0.356 N 
ATOM     74  C   UNL A   1      35.118  21.343  25.973  1.00  0.00     0.223 C 
ATOM     75  H   UNL A   1      36.964  21.814  26.578  1.00  0.00     0.163 HD
ATOM     76  O   UNL A   1      34.618  21.706  27.035  1.00  0.00    -0.275 OA
BRANCH  74  77
ATOM     77  C   UNL A   1      34.306  20.775  24.831  1.00  0.00     0.083 C 
ATOM     78  C   UNL A   1      32.974  21.542  24.633  1.00  0.00     0.020 C 
ATOM     79  C   UNL A   1      34.018  19.266  24.997  1.00  0.00     0.052 C 
ATOM     80  C   UNL A   1      32.316  21.167  23.289  1.00  0.00     0.057 C 
ATOM     81  C   UNL A   1      33.219  18.829  23.817  1.00  0.00    -0.006 A 
ATOM     82  C   UNL A   1      32.457  19.705  23.071  1.00  0.00     0.038 A 
ATOM     83  C   UNL A   1      33.074  17.596  23.166  1.00  0.00     0.138 A 
ATOM     84  N   UNL A   1      31.935  18.984  22.044  1.00  0.00    -0.282 N 
ATOM     85  N   UNL A   1      32.295  17.687  22.082  1.00  0.00    -0.184 NA
ATOM     86  H   UNL A   1      31.357  19.369  21.346  1.00  0.00     0.190 HD
ENDBRANCH  74  77
ENDBRANCH  72  73
ENDBRANCH  71  72
ENDBRANCH   1  71
TORSDOF 10
ENDMDL
MODEL 3
REMARK VINA RESULT:     -11.8      0.246      1.770
REMARK SMILES O=C(NCCCNC(=O)[C@@H]1CCc2[nH]ncc2C1)c1ccc(-c2c3nc(c(-c4c(F)c(F)c(F)c(F)c4F)c4ccc([nH]4)c(-c4c(F)c(F)c(F)c(F)c4F)c4nc(c(-c5c(F)c(F)c(F)c(F)c5F)c5ccc2[nH]5)C=C4)C=C3)cc1
REMARK SMILES IDX 4 1 3 2 1 3 2 4 19 6 20 7 81 8 21 9 80 10 22 11 23 12 24 13
REMARK SMILES IDX 74 14 25 15 79 16 73 17 75 18 26 19 78 20 72 21 71 22 27 24
REMARK SMILES IDX 59 25 39 26 58 27 40 28 43 29 57 30 76 31 41 32 42 33 56 35
REMARK SMILES IDX 77 36 44 37 28 38 29 39 37 40 30 41 31 42 35 43 38 44 32 45
REMARK SMILES IDX 33 46 36 47 34 48 60 49 61 50 69 51 62 52 63 53 67 54 70 55
REMARK SMILES IDX 64 56 65 57 68 58 66 59 45 60 46 61 54 62 47 63 48 64 52 65
REMARK SMILES IDX 55 66 49 67 50 68 53 69 51 70 5 71 6 72 7 73 8 74 9 76 10 77
REMARK SMILES IDX 11 78 18 79 12 80 17 81 13 82 16 83 14 84 15 85
REMARK H PARENT 3 5 75 23 43 34 7 75 14 86
REMARK Flexibility Score: inf
ROOT
ATOM      1  C   UNL A   1      32.760  32.764  26.882  1.00  0.00     0.118 C 
ENDROOT
BRANCH   1   2
ATOM      2  N   UNL A   1      32.514  34.067  27.486  1.00  0.00    -0.352 N 
ATOM      3  O   UNL A   1      32.593  35.663  29.071  1.00  0.00    -0.269 OA
ATOM      4  C   UNL A   1      33.076  34.637  28.599  1.00  0.00     0.251 C 
ATOM      5  H   UNL A   1      31.845  34.621  27.024  1.00  0.00     0.163 HD
BRANCH   4   6
ATOM      6  C   UNL A   1      34.248  34.011  29.243  1.00  0.00     0.039 A 
ATOM      7  C   UNL A   1      35.543  34.431  28.932  1.00  0.00     0.014 A 
ATOM      8  C   UNL A   1      34.049  33.002  30.190  1.00  0.00     0.014 A 
ATOM      9  C   UNL A   1      36.636  33.742  29.442  1.00  0.00     0.010 A 
ATOM     10  C   UNL A   1      35.151  32.381  30.784  1.00  0.00     0.010 A 
ATOM     11  C   UNL A   1      36.453  32.727  30.393  1.00  0.00    -0.014 A 
BRANCH  11  12
ATOM     12  C   UNL A   1      37.643  32.096  31.017  1.00  0.00     0.031 A 
ATOM     13  C   UNL A   1      38.095  32.481  32.396  1.00  0.00     0.074 A 
ATOM     14  C   UNL A   1      38.306  31.150  30.324  1.00  0.00     0.049 A 
ATOM     15  N   UNL A   1      39.115  32.033  33.084  1.00  0.00    -0.248 NA
ATOM     16  C   UNL A   1      37.307  33.509  33.094  1.00  0.00     0.031 C 
ATOM     17  C   UNL A   1      37.961  30.702  28.972  1.00  0.00     0.029 A 
ATOM     18  N   UNL A   1      39.394  30.388  30.658  1.00  0.00    -0.354 N 
ATOM     19  C   UNL A   1      39.103  32.732  34.283  1.00  0.00     0.074 A 
ATOM     20  C   UNL A   1      37.992  33.658  34.220  1.00  0.00     0.031 C 
ATOM     21  C   UNL A   1      38.793  29.717  28.609  1.00  0.00     0.029 A 
ATOM     22  C   UNL A   1      39.773  29.513  29.669  1.00  0.00     0.049 A 
ATOM     23  H   UNL A   1      39.860  30.460  31.522  1.00  0.00     0.167 HD
ATOM     24  C   UNL A   1      39.941  32.605  35.341  1.00  0.00     0.037 A 
ATOM     25  C   UNL A   1      40.809  28.659  29.610  1.00  0.00     0.037 A 
ATOM     26  C   UNL A   1      41.040  31.673  35.397  1.00  0.00     0.049 A 
ATOM     27  C   UNL A   1      41.745  28.569  30.781  1.00  0.00     0.074 A 
ATOM     28  C   UNL A   1      41.924  31.444  36.436  1.00  0.00     0.029 A 
ATOM     29  N   UNL A   1      41.412  30.825  34.363  1.00  0.00    -0.354 N 
ATOM     30  N   UNL A   1      41.700  29.208  31.924  1.00  0.00    -0.248 NA
ATOM     31  C   UNL A   1      42.874  27.640  30.653  1.00  0.00     0.031 C 
ATOM     32  C   UNL A   1      42.864  30.498  36.012  1.00  0.00     0.029 A 
ATOM     33  C   UNL A   1      42.529  30.090  34.730  1.00  0.00     0.049 A 
ATOM     34  H   UNL A   1      40.950  30.753  33.497  1.00  0.00     0.167 HD
ATOM     35  C   UNL A   1      42.781  28.744  32.661  1.00  0.00     0.074 A 
ATOM     36  C   UNL A   1      43.449  27.753  31.841  1.00  0.00     0.031 C 
ATOM     37  C   UNL A   1      43.183  29.106  33.903  1.00  0.00     0.037 A 
BRANCH  24  38
ATOM     38  C   UNL A   1      39.719  33.508  36.522  1.00  0.00     0.064 A 
ATOM     39  C   UNL A   1      40.336  34.764  36.621  1.00  0.00     0.173 A 
ATOM     40  C   UNL A   1      38.840  33.130  37.550  1.00  0.00     0.173 A 
ATOM     41  F   UNL A   1      41.194  35.171  35.672  1.00  0.00    -0.203 F 
ATOM     42  C   UNL A   1      40.104  35.594  37.715  1.00  0.00     0.198 A 
ATOM     43  C   UNL A   1      38.586  33.976  38.627  1.00  0.00     0.198 A 
ATOM     44  F   UNL A   1      38.216  31.943  37.503  1.00  0.00    -0.203 F 
ATOM     45  F   UNL A   1      40.742  36.769  37.810  1.00  0.00    -0.200 F 
ATOM     46  C   UNL A   1      39.224  35.204  38.712  1.00  0.00     0.200 A 
ATOM     47  F   UNL A   1      37.723  33.601  39.582  1.00  0.00    -0.200 F 
ATOM     48  F   UNL A   1      38.995  36.007  39.760  1.00  0.00    -0.200 F 
ENDBRANCH  24  38
BRANCH  25  49
ATOM     49  C   UNL A   1      41.015  27.833  28.391  1.00  0.00     0.064 A 
ATOM     50  C   UNL A   1      41.822  28.286  27.340  1.00  0.00     0.173 A 
ATOM     51  C   UNL A   1      40.419  26.570  28.260  1.00  0.00     0.173 A 
ATOM     52  F   UNL A   1      42.400  29.495  27.412  1.00  0.00    -0.203 F 
ATOM     53  C   UNL A   1      42.012  27.514  26.195  1.00  0.00     0.198 A 
ATOM     54  C   UNL A   1      40.637  25.785  27.130  1.00  0.00     0.198 A 
ATOM     55  F   UNL A   1      39.644  26.086  29.242  1.00  0.00    -0.203 F 
ATOM     56  F   UNL A   1      42.752  27.991  25.186  1.00  0.00    -0.200 F 
ATOM     57  C   UNL A   1      41.424  26.262  26.095  1.00  0.00     0.200 A 
ATOM     58  F   UNL A   1      40.083  24.568  27.047  1.00  0.00    -0.200 F 
ATOM     59  F   UNL A   1      41.614  25.518  24.998  1.00  0.00    -0.200 F 
ENDBRANCH  25  49
BRANCH  37  60
ATOM     60  C   UNL A   1      44.382  28.400  34.467  1.00  0.00     0.064 A 
ATOM     61  C   UNL A   1      44.265  27.190  35.167  1.00  0.00     0.173 A 
ATOM     62  C   UNL A   1      45.668  28.930  34.281  1.00  0.00     0.173 A 
ATOM     63  F   UNL A   1      43.057  26.652  35.387  1.00  0.00    -0.203 F 
ATOM     64  C   UNL A   1      45.389  26.551  35.683  1.00  0.00     0.198 A 
ATOM     65  C   UNL A   1      46.792  28.271  34.770  1.00  0.00     0.198 A 
ATOM     66  F   UNL A   1      45.835  30.082  33.614  1.00  0.00    -0.203 F 
ATOM     67  F   UNL A   1      45.248  25.425  36.396  1.00  0.00    -0.200 F 
ATOM     68  C   UNL A   1      46.652  27.087  35.479  1.00  0.00     0.200 A 
ATOM     69  F   UNL A   1      48.012  28.783  34.558  1.00  0.00    -0.200 F 
ATOM     70  F   UNL A   1      47.732  26.468  35.971  1.00  0.00    -0.200 F 
ENDBRANCH  37  60
ENDBRANCH  11  12
ENDBRANCH   4   6
ENDBRANCH   1   2
BRANCH   1  71
ATOM     71  C   UNL A   1      31.506  31.908  26.824  1.00  0.00     0.042 C 
BRANCH  71  72
ATOM     72  C   UNL A   1      31.801  30.415  26.823  1.00  0.00     0.117 C 
BRANCH  72  73
ATOM     73  N   UNL A   1      32.714  30.043  25.752  1.00  0.00    -0.356 N 
ATOM     74  C   UNL A   1      32.462  29.337  24.608  1.00  0.00     0.223 C 
ATOM     75  H   UNL A   1      33.645  30.342  25.867  1.00  0.00     0.163 HD
ATOM     76  O   UNL A   1      33.385  29.123  23.826  1.00  0.00    -0.275 OA
BRANCH  74  77
ATOM     77  C   UNL A   1      31.048  28.860  24.366  1.00  0.00     0.083 C 
ATOM     78  C   UNL A   1      31.016  27.429  23.771  1.00  0.00     0.020 C 
ATOM     79  C   UNL A   1      30.242  29.819  23.460  1.00  0.00     0.052 C 
ATOM     80  C   UNL A   1      29.591  26.841  23.827  1.00  0.00     0.057 C 
ATOM     81  C   UNL A   1      28.877  29.244  23.299  1.00  0.00    -0.006 A 
ATOM     82  C   UNL A   1      28.614  27.899  23.464  1.00  0.00     0.038 A 
ATOM     83  C   UNL A   1      27.624  29.817  23.038  1.00  0.00     0.138 A 
ATOM     84  N   UNL A   1      27.271  27.748  23.319  1.00  0.00    -0.282 N 
ATOM     85  N   UNL A   1      26.642  28.908  23.052  1.00  0.00    -0.184 NA
ATOM     86  H   UNL A   1      26.808  26.883  23.401  1.00  0.00     0.190 HD
ENDBRANCH  74  77
ENDBRANCH  72  73
ENDBRANCH  71  72
ENDBRANCH   1  71
TORSDOF 10
ENDMDL
