MODEL 1
REMARK VINA RESULT:     -14.3      0.000      0.000
REMARK SMILES O=C(NCCCNC(=O)c1ccc(-c2c3nc(c(-c4c(F)c(F)c(F)c(F)c4F)c4ccc([nH]4)c(-c4c(F)c(F)c(F)c(F)c4F)c4nc(c(-c5c(F)c(F)c(F)c(F)c5F)c5ccc2[nH]5)C=C4)C=C3)cc1)c1ccc(NC(=O)[C@@H]2CC=CC[C@H]2C(=O)Nc2cccc([N+](=O)[O-])c2)cc1
REMARK SMILES IDX 1 1 2 2 3 3 73 5 74 6 99 7 75 8 98 9 76 10 77 11 78 12 79 14
REMARK SMILES IDX 80 15 81 16 85 17 82 18 84 19 83 20 86 21 87 22 88 23 89 25
REMARK SMILES IDX 90 26 97 27 91 28 93 29 92 30 94 31 95 32 96 33 4 34 5 35
REMARK SMILES IDX 6 36 7 37 8 38 9 40 10 41 11 42 72 43 12 44 71 45 13 46
REMARK SMILES IDX 14 47 15 48 65 49 16 50 70 51 64 52 66 53 17 54 69 55 63 56
REMARK SMILES IDX 62 57 18 59 50 60 30 61 49 62 31 63 34 64 48 65 67 66 32 67
REMARK SMILES IDX 33 68 47 70 68 71 35 72 19 73 20 74 28 75 21 76 22 77 26 78
REMARK SMILES IDX 29 79 23 80 24 81 27 82 25 83 51 84 52 85 60 86 53 87 54 88
REMARK SMILES IDX 58 89 61 90 55 91 56 92 59 93 57 94 36 95 37 96 45 97 38 98
REMARK SMILES IDX 39 99 43 100 46 101 40 102 41 103 44 104 42 105
REMARK H PARENT 3 4 77 13 88 24 7 39 66 58 34 69
REMARK Flexibility Score: inf
ROOT
ATOM      1  O   UNL A   1      28.962  30.208  22.731  1.00  0.00    -0.269 OA
ATOM      2  C   UNL A   1      29.881  29.790  23.436  1.00  0.00     0.251 C 
ATOM      3  N   UNL A   1      30.347  30.587  24.470  1.00  0.00    -0.352 N 
ATOM      4  H   UNL A   1      29.823  31.408  24.608  1.00  0.00     0.163 HD
ENDROOT
BRANCH   2   5
ATOM      5  C   UNL A   1      30.449  28.443  23.165  1.00  0.00     0.039 A 
ATOM      6  C   UNL A   1      29.710  27.338  23.501  1.00  0.00     0.016 A 
ATOM      7  C   UNL A   1      31.684  28.220  22.549  1.00  0.00     0.016 A 
ATOM      8  C   UNL A   1      30.262  26.074  23.478  1.00  0.00     0.027 A 
ATOM      9  C   UNL A   1      32.138  26.892  22.317  1.00  0.00     0.027 A 
ATOM     10  C   UNL A   1      31.398  25.791  22.772  1.00  0.00     0.041 A 
BRANCH  10  11
ATOM     11  N   UNL A   1      31.754  24.472  22.434  1.00  0.00    -0.326 N 
ATOM     12  C   UNL A   1      32.445  23.462  23.069  1.00  0.00     0.228 C 
ATOM     13  H   UNL A   1      31.439  24.210  21.539  1.00  0.00     0.169 HD
ATOM     14  O   UNL A   1      32.448  22.372  22.482  1.00  0.00    -0.274 OA
BRANCH  12  15
ATOM     15  C   UNL A   1      33.232  23.616  24.401  1.00  0.00     0.095 C 
ATOM     16  C   UNL A   1      34.379  24.642  24.179  1.00  0.00     0.041 C 
ATOM     17  C   UNL A   1      33.800  22.290  25.004  1.00  0.00     0.095 C 
ATOM     18  C   UNL A   1      35.293  24.779  25.361  1.00  0.00    -0.030 C 
ATOM     19  C   UNL A   1      35.152  22.354  25.764  1.00  0.00     0.041 C 
ATOM     20  C   UNL A   1      35.647  23.718  26.091  1.00  0.00    -0.030 C 
BRANCH  17  21
ATOM     21  C   UNL A   1      32.929  21.390  25.882  1.00  0.00     0.228 C 
ATOM     22  O   UNL A   1      32.431  21.877  26.907  1.00  0.00    -0.274 OA
ATOM     23  N   UNL A   1      32.533  20.109  25.605  1.00  0.00    -0.326 N 
ATOM     24  H   UNL A   1      31.704  19.889  26.089  1.00  0.00     0.169 HD
BRANCH  23  25
ATOM     25  C   UNL A   1      32.966  19.012  24.826  1.00  0.00     0.048 A 
ATOM     26  C   UNL A   1      32.530  18.986  23.491  1.00  0.00     0.026 A 
ATOM     27  C   UNL A   1      33.638  17.893  25.300  1.00  0.00     0.111 A 
ATOM     28  C   UNL A   1      32.723  17.863  22.672  1.00  0.00     0.009 A 
ATOM     29  C   UNL A   1      33.760  16.734  24.511  1.00  0.00     0.271 A 
ATOM     30  C   UNL A   1      33.316  16.717  23.189  1.00  0.00     0.086 A 
BRANCH  29  31
ATOM     31  N   UNL A   1      34.282  15.501  25.120  1.00  0.00     0.062 N 
ATOM     32  O   UNL A   1      33.474  14.599  25.380  1.00  0.00    -0.258 OA
ATOM     33  O   UNL A   1      35.494  15.457  25.375  1.00  0.00    -0.258 OA
ENDBRANCH  29  31
ENDBRANCH  23  25
ENDBRANCH  17  21
ENDBRANCH  12  15
ENDBRANCH  10  11
ENDBRANCH   2   5
BRANCH   3  34
ATOM     34  C   UNL A   1      31.473  30.438  25.398  1.00  0.00     0.118 C 
BRANCH  34  35
ATOM     35  C   UNL A   1      31.399  31.329  26.619  1.00  0.00     0.042 C 
BRANCH  35  36
ATOM     36  C   UNL A   1      32.685  32.063  26.926  1.00  0.00     0.118 C 
BRANCH  36  37
ATOM     37  N   UNL A   1      32.477  33.459  27.301  1.00  0.00    -0.352 N 
ATOM     38  C   UNL A   1      33.106  34.237  28.244  1.00  0.00     0.251 C 
ATOM     39  H   UNL A   1      31.771  33.919  26.793  1.00  0.00     0.163 HD
ATOM     40  O   UNL A   1      32.648  35.356  28.487  1.00  0.00    -0.269 OA
BRANCH  38  41
ATOM     41  C   UNL A   1      34.285  33.741  28.996  1.00  0.00     0.039 A 
ATOM     42  C   UNL A   1      34.098  32.775  29.989  1.00  0.00     0.014 A 
ATOM     43  C   UNL A   1      35.574  34.210  28.739  1.00  0.00     0.014 A 
ATOM     44  C   UNL A   1      35.202  32.230  30.652  1.00  0.00     0.010 A 
ATOM     45  C   UNL A   1      36.677  33.571  29.296  1.00  0.00     0.010 A 
ATOM     46  C   UNL A   1      36.508  32.586  30.274  1.00  0.00    -0.014 A 
BRANCH  46  47
ATOM     47  C   UNL A   1      37.695  31.945  30.900  1.00  0.00     0.031 A 
ATOM     48  C   UNL A   1      38.153  32.354  32.277  1.00  0.00     0.074 A 
ATOM     49  C   UNL A   1      38.395  31.024  30.207  1.00  0.00     0.049 A 
ATOM     50  N   UNL A   1      39.162  31.906  32.982  1.00  0.00    -0.248 NA
ATOM     51  C   UNL A   1      37.401  33.434  32.938  1.00  0.00     0.031 C 
ATOM     52  C   UNL A   1      38.111  30.601  28.834  1.00  0.00     0.029 A 
ATOM     53  N   UNL A   1      39.491  30.276  30.562  1.00  0.00    -0.354 N 
ATOM     54  C   UNL A   1      39.171  32.655  34.152  1.00  0.00     0.074 A 
ATOM     55  C   UNL A   1      38.115  33.634  34.034  1.00  0.00     0.031 C 
ATOM     56  C   UNL A   1      38.977  29.639  28.480  1.00  0.00     0.029 A 
ATOM     57  C   UNL A   1      39.901  29.401  29.585  1.00  0.00     0.049 A 
ATOM     58  H   UNL A   1      39.940  30.358  31.434  1.00  0.00     0.167 HD
ATOM     59  C   UNL A   1      39.964  32.518  35.242  1.00  0.00     0.037 A 
ATOM     60  C   UNL A   1      40.904  28.503  29.581  1.00  0.00     0.037 A 
ATOM     61  C   UNL A   1      40.997  31.524  35.369  1.00  0.00     0.049 A 
ATOM     62  C   UNL A   1      41.751  28.351  30.817  1.00  0.00     0.074 A 
ATOM     63  C   UNL A   1      41.809  31.255  36.456  1.00  0.00     0.029 A 
ATOM     64  N   UNL A   1      41.364  30.635  34.369  1.00  0.00    -0.354 N 
ATOM     65  N   UNL A   1      41.686  29.001  31.953  1.00  0.00    -0.248 NA
ATOM     66  C   UNL A   1      42.799  27.323  30.772  1.00  0.00     0.031 C 
ATOM     67  C   UNL A   1      42.704  30.242  36.096  1.00  0.00     0.029 A 
ATOM     68  C   UNL A   1      42.406  29.833  34.806  1.00  0.00     0.049 A 
ATOM     69  H   UNL A   1      40.945  30.582  33.479  1.00  0.00     0.167 HD
ATOM     70  C   UNL A   1      42.664  28.446  32.766  1.00  0.00     0.074 A 
ATOM     71  C   UNL A   1      43.287  27.386  32.002  1.00  0.00     0.031 C 
ATOM     72  C   UNL A   1      43.019  28.784  34.032  1.00  0.00     0.037 A 
BRANCH  59  73
ATOM     73  C   UNL A   1      39.740  33.462  36.391  1.00  0.00     0.064 A 
ATOM     74  C   UNL A   1      40.386  34.708  36.461  1.00  0.00     0.173 A 
ATOM     75  C   UNL A   1      38.840  33.136  37.417  1.00  0.00     0.173 A 
ATOM     76  F   UNL A   1      41.267  35.067  35.514  1.00  0.00    -0.203 F 
ATOM     77  C   UNL A   1      40.164  35.573  37.529  1.00  0.00     0.198 A 
ATOM     78  C   UNL A   1      38.593  34.020  38.465  1.00  0.00     0.198 A 
ATOM     79  F   UNL A   1      38.192  31.961  37.400  1.00  0.00    -0.203 F 
ATOM     80  F   UNL A   1      40.835  36.732  37.600  1.00  0.00    -0.200 F 
ATOM     81  C   UNL A   1      39.261  35.233  38.524  1.00  0.00     0.200 A 
ATOM     82  F   UNL A   1      37.710  33.695  39.419  1.00  0.00    -0.200 F 
ATOM     83  F   UNL A   1      39.040  36.073  39.546  1.00  0.00    -0.200 F 
ENDBRANCH  59  73
BRANCH  60  84
ATOM     84  C   UNL A   1      41.140  27.651  28.385  1.00  0.00     0.064 A 
ATOM     85  C   UNL A   1      42.052  28.035  27.392  1.00  0.00     0.173 A 
ATOM     86  C   UNL A   1      40.450  26.443  28.203  1.00  0.00     0.173 A 
ATOM     87  F   UNL A   1      42.723  29.190  27.510  1.00  0.00    -0.203 F 
ATOM     88  C   UNL A   1      42.241  27.260  26.249  1.00  0.00     0.198 A 
ATOM     89  C   UNL A   1      40.665  25.653  27.075  1.00  0.00     0.198 A 
ATOM     90  F   UNL A   1      39.572  26.025  29.127  1.00  0.00    -0.203 F 
ATOM     91  F   UNL A   1      43.076  27.682  25.289  1.00  0.00    -0.200 F 
ATOM     92  C   UNL A   1      41.553  26.068  26.094  1.00  0.00     0.200 A 
ATOM     93  F   UNL A   1      40.010  24.493  26.939  1.00  0.00    -0.200 F 
ATOM     94  F   UNL A   1      41.736  25.323  24.995  1.00  0.00    -0.200 F 
ENDBRANCH  60  84
BRANCH  72  95
ATOM     95  C   UNL A   1      44.108  27.971  34.674  1.00  0.00     0.064 A 
ATOM     96  C   UNL A   1      45.456  28.354  34.605  1.00  0.00     0.173 A 
ATOM     97  C   UNL A   1      43.797  26.791  35.368  1.00  0.00     0.173 A 
ATOM     98  F   UNL A   1      45.810  29.467  33.946  1.00  0.00    -0.203 F 
ATOM     99  C   UNL A   1      46.456  27.558  35.160  1.00  0.00     0.198 A 
ATOM    100  C   UNL A   1      44.796  26.019  35.955  1.00  0.00     0.198 A 
ATOM    101  F   UNL A   1      42.523  26.384  35.476  1.00  0.00    -0.203 F 
ATOM    102  F   UNL A   1      47.742  27.905  35.014  1.00  0.00    -0.200 F 
ATOM    103  C   UNL A   1      46.125  26.395  35.838  1.00  0.00     0.200 A 
ATOM    104  F   UNL A   1      44.472  24.905  36.626  1.00  0.00    -0.200 F 
ATOM    105  F   UNL A   1      47.088  25.628  36.366  1.00  0.00    -0.200 F 
ENDBRANCH  72  95
ENDBRANCH  46  47
ENDBRANCH  38  41
ENDBRANCH  36  37
ENDBRANCH  35  36
ENDBRANCH  34  35
ENDBRANCH   3  34
TORSDOF 15
ENDMDL
MODEL 2
REMARK VINA RESULT:     -14.1      1.186      1.952
REMARK SMILES O=C(NCCCNC(=O)c1ccc(-c2c3nc(c(-c4c(F)c(F)c(F)c(F)c4F)c4ccc([nH]4)c(-c4c(F)c(F)c(F)c(F)c4F)c4nc(c(-c5c(F)c(F)c(F)c(F)c5F)c5ccc2[nH]5)C=C4)C=C3)cc1)c1ccc(NC(=O)[C@@H]2CC=CC[C@H]2C(=O)Nc2cccc([N+](=O)[O-])c2)cc1
REMARK SMILES IDX 1 1 2 2 3 3 73 5 74 6 99 7 75 8 98 9 76 10 77 11 78 12 79 14
REMARK SMILES IDX 80 15 81 16 85 17 82 18 84 19 83 20 86 21 87 22 88 23 89 25
REMARK SMILES IDX 90 26 97 27 91 28 93 29 92 30 94 31 95 32 96 33 4 34 5 35
REMARK SMILES IDX 6 36 7 37 8 38 9 40 10 41 11 42 72 43 12 44 71 45 13 46
REMARK SMILES IDX 14 47 15 48 65 49 16 50 70 51 64 52 66 53 17 54 69 55 63 56
REMARK SMILES IDX 62 57 18 59 50 60 30 61 49 62 31 63 34 64 48 65 67 66 32 67
REMARK SMILES IDX 33 68 47 70 68 71 35 72 19 73 20 74 28 75 21 76 22 77 26 78
REMARK SMILES IDX 29 79 23 80 24 81 27 82 25 83 51 84 52 85 60 86 53 87 54 88
REMARK SMILES IDX 58 89 61 90 55 91 56 92 59 93 57 94 36 95 37 96 45 97 38 98
REMARK SMILES IDX 39 99 43 100 46 101 40 102 41 103 44 104 42 105
REMARK H PARENT 3 4 77 13 88 24 7 39 66 58 34 69
REMARK Flexibility Score: inf
ROOT
ATOM      1  O   UNL A   1      30.603  29.347  22.906  1.00  0.00    -0.269 OA
ATOM      2  C   UNL A   1      30.874  29.335  24.107  1.00  0.00     0.251 C 
ATOM      3  N   UNL A   1      31.036  30.542  24.768  1.00  0.00    -0.352 N 
ATOM      4  H   UNL A   1      30.825  31.330  24.217  1.00  0.00     0.163 HD
ENDROOT
BRANCH   2   5
ATOM      5  C   UNL A   1      31.004  28.031  24.810  1.00  0.00     0.039 A 
ATOM      6  C   UNL A   1      32.035  27.864  25.699  1.00  0.00     0.016 A 
ATOM      7  C   UNL A   1      30.116  26.962  24.656  1.00  0.00     0.016 A 
ATOM      8  C   UNL A   1      32.338  26.622  26.217  1.00  0.00     0.027 A 
ATOM      9  C   UNL A   1      30.315  25.758  25.385  1.00  0.00     0.027 A 
ATOM     10  C   UNL A   1      31.441  25.591  26.204  1.00  0.00     0.041 A 
BRANCH  10  11
ATOM     11  N   UNL A   1      31.586  24.468  27.040  1.00  0.00    -0.326 N 
ATOM     12  C   UNL A   1      32.450  23.395  27.078  1.00  0.00     0.228 C 
ATOM     13  H   UNL A   1      30.917  24.442  27.762  1.00  0.00     0.169 HD
ATOM     14  O   UNL A   1      32.333  22.655  28.065  1.00  0.00    -0.274 OA
BRANCH  12  15
ATOM     15  C   UNL A   1      33.488  23.041  25.976  1.00  0.00     0.095 C 
ATOM     16  C   UNL A   1      34.826  23.756  26.313  1.00  0.00     0.041 C 
ATOM     17  C   UNL A   1      33.052  23.368  24.511  1.00  0.00     0.095 C 
ATOM     18  C   UNL A   1      35.873  23.594  25.249  1.00  0.00    -0.030 C 
ATOM     19  C   UNL A   1      34.147  23.814  23.505  1.00  0.00     0.041 C 
ATOM     20  C   UNL A   1      35.553  23.621  23.952  1.00  0.00    -0.030 C 
BRANCH  17  21
ATOM     21  C   UNL A   1      32.196  22.386  23.708  1.00  0.00     0.228 C 
ATOM     22  O   UNL A   1      31.172  22.817  23.158  1.00  0.00    -0.274 OA
ATOM     23  N   UNL A   1      32.494  21.081  23.423  1.00  0.00    -0.326 N 
ATOM     24  H   UNL A   1      32.024  20.786  22.610  1.00  0.00     0.169 HD
BRANCH  23  25
ATOM     25  C   UNL A   1      33.280  20.034  23.957  1.00  0.00     0.048 A 
ATOM     26  C   UNL A   1      34.486  20.412  24.570  1.00  0.00     0.026 A 
ATOM     27  C   UNL A   1      33.048  18.675  23.788  1.00  0.00     0.111 A 
ATOM     28  C   UNL A   1      35.444  19.465  24.961  1.00  0.00     0.009 A 
ATOM     29  C   UNL A   1      34.040  17.727  24.101  1.00  0.00     0.271 A 
ATOM     30  C   UNL A   1      35.237  18.115  24.702  1.00  0.00     0.086 A 
BRANCH  29  31
ATOM     31  N   UNL A   1      33.843  16.324  23.707  1.00  0.00     0.062 N 
ATOM     32  O   UNL A   1      34.268  15.971  22.598  1.00  0.00    -0.258 OA
ATOM     33  O   UNL A   1      33.227  15.589  24.492  1.00  0.00    -0.258 OA
ENDBRANCH  29  31
ENDBRANCH  23  25
ENDBRANCH  17  21
ENDBRANCH  12  15
ENDBRANCH  10  11
ENDBRANCH   2   5
BRANCH   3  34
ATOM     34  C   UNL A   1      31.462  30.870  26.133  1.00  0.00     0.118 C 
BRANCH  34  35
ATOM     35  C   UNL A   1      31.337  32.334  26.494  1.00  0.00     0.042 C 
BRANCH  35  36
ATOM     36  C   UNL A   1      32.546  32.900  27.204  1.00  0.00     0.118 C 
BRANCH  36  37
ATOM     37  N   UNL A   1      32.352  34.269  27.673  1.00  0.00    -0.352 N 
ATOM     38  C   UNL A   1      33.006  34.984  28.647  1.00  0.00     0.251 C 
ATOM     39  H   UNL A   1      31.634  34.762  27.214  1.00  0.00     0.163 HD
ATOM     40  O   UNL A   1      32.558  36.085  28.974  1.00  0.00    -0.269 OA
BRANCH  38  41
ATOM     41  C   UNL A   1      34.202  34.439  29.337  1.00  0.00     0.039 A 
ATOM     42  C   UNL A   1      34.030  33.700  30.511  1.00  0.00     0.014 A 
ATOM     43  C   UNL A   1      35.492  34.641  28.845  1.00  0.00     0.014 A 
ATOM     44  C   UNL A   1      35.133  33.105  31.131  1.00  0.00     0.010 A 
ATOM     45  C   UNL A   1      36.566  33.936  29.379  1.00  0.00     0.010 A 
ATOM     46  C   UNL A   1      36.407  33.174  30.541  1.00  0.00    -0.014 A 
BRANCH  46  47
ATOM     47  C   UNL A   1      37.572  32.465  31.133  1.00  0.00     0.031 A 
ATOM     48  C   UNL A   1      38.073  32.825  32.508  1.00  0.00     0.074 A 
ATOM     49  C   UNL A   1      38.215  31.525  30.411  1.00  0.00     0.049 A 
ATOM     50  N   UNL A   1      39.071  32.316  33.187  1.00  0.00    -0.248 NA
ATOM     51  C   UNL A   1      37.385  33.928  33.203  1.00  0.00     0.031 C 
ATOM     52  C   UNL A   1      37.887  31.142  29.036  1.00  0.00     0.029 A 
ATOM     53  N   UNL A   1      39.278  30.719  30.733  1.00  0.00    -0.354 N 
ATOM     54  C   UNL A   1      39.137  33.042  34.370  1.00  0.00     0.074 A 
ATOM     55  C   UNL A   1      38.127  34.073  34.289  1.00  0.00     0.031 C 
ATOM     56  C   UNL A   1      38.699  30.146  28.649  1.00  0.00     0.029 A 
ATOM     57  C   UNL A   1      39.629  29.844  29.732  1.00  0.00     0.049 A 
ATOM     58  H   UNL A   1      39.747  30.762  31.597  1.00  0.00     0.167 HD
ATOM     59  C   UNL A   1      39.941  32.847  35.443  1.00  0.00     0.037 A 
ATOM     60  C   UNL A   1      40.587  28.899  29.694  1.00  0.00     0.037 A 
ATOM     61  C   UNL A   1      40.927  31.802  35.533  1.00  0.00     0.049 A 
ATOM     62  C   UNL A   1      41.447  28.683  30.911  1.00  0.00     0.074 A 
ATOM     63  C   UNL A   1      41.743  31.474  36.600  1.00  0.00     0.029 A 
ATOM     64  N   UNL A   1      41.232  30.915  34.510  1.00  0.00    -0.354 N 
ATOM     65  N   UNL A   1      41.434  29.314  32.060  1.00  0.00    -0.248 NA
ATOM     66  C   UNL A   1      42.444  27.607  30.829  1.00  0.00     0.031 C 
ATOM     67  C   UNL A   1      42.582  30.426  36.205  1.00  0.00     0.029 A 
ATOM     68  C   UNL A   1      42.242  30.056  34.914  1.00  0.00     0.049 A 
ATOM     69  H   UNL A   1      40.796  30.899  33.627  1.00  0.00     0.167 HD
ATOM     70  C   UNL A   1      42.398  28.697  32.845  1.00  0.00     0.074 A 
ATOM     71  C   UNL A   1      42.955  27.623  32.051  1.00  0.00     0.031 C 
ATOM     72  C   UNL A   1      42.790  28.994  34.110  1.00  0.00     0.037 A 
BRANCH  59  73
ATOM     73  C   UNL A   1      39.783  33.779  36.612  1.00  0.00     0.064 A 
ATOM     74  C   UNL A   1      40.449  35.014  36.668  1.00  0.00     0.173 A 
ATOM     75  C   UNL A   1      38.925  33.452  37.674  1.00  0.00     0.173 A 
ATOM     76  F   UNL A   1      41.292  35.373  35.688  1.00  0.00    -0.203 F 
ATOM     77  C   UNL A   1      40.288  35.869  37.756  1.00  0.00     0.198 A 
ATOM     78  C   UNL A   1      38.739  34.325  38.743  1.00  0.00     0.198 A 
ATOM     79  F   UNL A   1      38.260  32.287  37.671  1.00  0.00    -0.203 F 
ATOM     80  F   UNL A   1      40.978  37.016  37.812  1.00  0.00    -0.200 F 
ATOM     81  C   UNL A   1      39.426  35.528  38.787  1.00  0.00     0.200 A 
ATOM     82  F   UNL A   1      37.895  34.000  39.732  1.00  0.00    -0.200 F 
ATOM     83  F   UNL A   1      39.264  36.357  39.828  1.00  0.00    -0.200 F 
ENDBRANCH  59  73
BRANCH  60  84
ATOM     84  C   UNL A   1      40.761  28.059  28.479  1.00  0.00     0.064 A 
ATOM     85  C   UNL A   1      41.574  28.481  27.418  1.00  0.00     0.173 A 
ATOM     86  C   UNL A   1      40.108  26.824  28.347  1.00  0.00     0.173 A 
ATOM     87  F   UNL A   1      42.206  29.662  27.488  1.00  0.00    -0.203 F 
ATOM     88  C   UNL A   1      41.703  27.717  26.260  1.00  0.00     0.198 A 
ATOM     89  C   UNL A   1      40.264  26.046  27.201  1.00  0.00     0.198 A 
ATOM     90  F   UNL A   1      39.324  26.369  29.335  1.00  0.00    -0.203 F 
ATOM     91  F   UNL A   1      42.441  28.174  25.238  1.00  0.00    -0.200 F 
ATOM     92  C   UNL A   1      41.053  26.498  26.155  1.00  0.00     0.200 A 
ATOM     93  F   UNL A   1      39.648  24.860  27.112  1.00  0.00    -0.200 F 
ATOM     94  F   UNL A   1      41.177  25.763  25.041  1.00  0.00    -0.200 F 
ENDBRANCH  60  84
BRANCH  72  95
ATOM     95  C   UNL A   1      43.850  28.118  34.718  1.00  0.00     0.064 A 
ATOM     96  C   UNL A   1      43.530  26.940  35.409  1.00  0.00     0.173 A 
ATOM     97  C   UNL A   1      45.206  28.465  34.607  1.00  0.00     0.173 A 
ATOM     98  F   UNL A   1      42.250  26.567  35.553  1.00  0.00    -0.203 F 
ATOM     99  C   UNL A   1      44.524  26.171  36.012  1.00  0.00     0.198 A 
ATOM    100  C   UNL A   1      46.198  27.673  35.177  1.00  0.00     0.198 A 
ATOM    101  F   UNL A   1      45.569  29.575  33.946  1.00  0.00    -0.203 F 
ATOM    102  F   UNL A   1      44.187  25.092  36.732  1.00  0.00    -0.200 F 
ATOM    103  C   UNL A   1      45.856  26.535  35.892  1.00  0.00     0.200 A 
ATOM    104  F   UNL A   1      47.487  28.017  35.045  1.00  0.00    -0.200 F 
ATOM    105  F   UNL A   1      46.809  25.798  36.477  1.00  0.00    -0.200 F 
ENDBRANCH  72  95
ENDBRANCH  46  47
ENDBRANCH  38  41
ENDBRANCH  36  37
ENDBRANCH  35  36
ENDBRANCH  34  35
ENDBRANCH   3  34
TORSDOF 15
ENDMDL
MODEL 3
REMARK VINA RESULT:     -14.1      1.397      7.156
REMARK SMILES O=C(NCCCNC(=O)c1ccc(-c2c3nc(c(-c4c(F)c(F)c(F)c(F)c4F)c4ccc([nH]4)c(-c4c(F)c(F)c(F)c(F)c4F)c4nc(c(-c5c(F)c(F)c(F)c(F)c5F)c5ccc2[nH]5)C=C4)C=C3)cc1)c1ccc(NC(=O)[C@@H]2CC=CC[C@H]2C(=O)Nc2cccc([N+](=O)[O-])c2)cc1
REMARK SMILES IDX 1 1 2 2 3 3 73 5 74 6 99 7 75 8 98 9 76 10 77 11 78 12 79 14
REMARK SMILES IDX 80 15 81 16 85 17 82 18 84 19 83 20 86 21 87 22 88 23 89 25
REMARK SMILES IDX 90 26 97 27 91 28 93 29 92 30 94 31 95 32 96 33 4 34 5 35
REMARK SMILES IDX 6 36 7 37 8 38 9 40 10 41 11 42 72 43 12 44 71 45 13 46
REMARK SMILES IDX 14 47 15 48 65 49 16 50 70 51 64 52 66 53 17 54 69 55 63 56
REMARK SMILES IDX 62 57 18 59 50 60 30 61 49 62 31 63 34 64 48 65 67 66 32 67
REMARK SMILES IDX 33 68 47 70 68 71 35 72 19 73 20 74 28 75 21 76 22 77 26 78
REMARK SMILES IDX 29 79 23 80 24 81 27 82 25 83 51 84 52 85 60 86 53 87 54 88
REMARK SMILES IDX 58 89 61 90 55 91 56 92 59 93 57 94 36 95 37 96 45 97 38 98
REMARK SMILES IDX 39 99 43 100 46 101 40 102 41 103 44 104 42 105
REMARK H PARENT 3 4 77 13 88 24 7 39 66 58 34 69
REMARK Flexibility Score: inf
ROOT
ATOM      1  O   UNL A   1      30.706  29.353  22.900  1.00  0.00    -0.269 OA
ATOM      2  C   UNL A   1      30.947  29.343  24.108  1.00  0.00     0.251 C 
ATOM      3  N   UNL A   1      31.086  30.552  24.772  1.00  0.00    -0.352 N 
ATOM      4  H   UNL A   1      30.886  31.338  24.215  1.00  0.00     0.163 HD
ENDROOT
BRANCH   2   5
ATOM      5  C   UNL A   1      31.065  28.041  24.815  1.00  0.00     0.039 A 
ATOM      6  C   UNL A   1      32.121  27.851  25.669  1.00  0.00     0.016 A 
ATOM      7  C   UNL A   1      30.144  26.996  24.699  1.00  0.00     0.016 A 
ATOM      8  C   UNL A   1      32.408  26.604  26.185  1.00  0.00     0.027 A 
ATOM      9  C   UNL A   1      30.334  25.790  25.428  1.00  0.00     0.027 A 
ATOM     10  C   UNL A   1      31.482  25.598  26.209  1.00  0.00     0.041 A 
BRANCH  10  11
ATOM     11  N   UNL A   1      31.626  24.475  27.047  1.00  0.00    -0.326 N 
ATOM     12  C   UNL A   1      32.481  23.395  27.081  1.00  0.00     0.228 C 
ATOM     13  H   UNL A   1      30.963  24.457  27.775  1.00  0.00     0.169 HD
ATOM     14  O   UNL A   1      32.366  22.659  28.071  1.00  0.00    -0.274 OA
BRANCH  12  15
ATOM     15  C   UNL A   1      33.506  23.029  25.971  1.00  0.00     0.095 C 
ATOM     16  C   UNL A   1      34.853  23.733  26.293  1.00  0.00     0.041 C 
ATOM     17  C   UNL A   1      33.060  23.356  24.509  1.00  0.00     0.095 C 
ATOM     18  C   UNL A   1      35.889  23.559  25.221  1.00  0.00    -0.030 C 
ATOM     19  C   UNL A   1      34.149  23.789  23.492  1.00  0.00     0.041 C 
ATOM     20  C   UNL A   1      35.558  23.586  23.927  1.00  0.00    -0.030 C 
BRANCH  17  21
ATOM     21  C   UNL A   1      32.188  22.379  23.716  1.00  0.00     0.228 C 
ATOM     22  O   UNL A   1      31.162  22.817  23.175  1.00  0.00    -0.274 OA
ATOM     23  N   UNL A   1      32.473  21.071  23.432  1.00  0.00    -0.326 N 
ATOM     24  H   UNL A   1      31.992  20.778  22.624  1.00  0.00     0.169 HD
BRANCH  23  25
ATOM     25  C   UNL A   1      33.255  20.019  23.960  1.00  0.00     0.048 A 
ATOM     26  C   UNL A   1      34.458  20.390  24.584  1.00  0.00     0.026 A 
ATOM     27  C   UNL A   1      33.023  18.661  23.776  1.00  0.00     0.111 A 
ATOM     28  C   UNL A   1      35.413  19.440  24.972  1.00  0.00     0.009 A 
ATOM     29  C   UNL A   1      34.013  17.710  24.087  1.00  0.00     0.271 A 
ATOM     30  C   UNL A   1      35.207  18.092  24.698  1.00  0.00     0.086 A 
BRANCH  29  31
ATOM     31  N   UNL A   1      33.819  16.311  23.678  1.00  0.00     0.062 N 
ATOM     32  O   UNL A   1      33.211  15.562  24.454  1.00  0.00    -0.258 OA
ATOM     33  O   UNL A   1      34.312  15.957  22.597  1.00  0.00    -0.258 OA
ENDBRANCH  29  31
ENDBRANCH  23  25
ENDBRANCH  17  21
ENDBRANCH  12  15
ENDBRANCH  10  11
ENDBRANCH   2   5
BRANCH   3  34
ATOM     34  C   UNL A   1      31.475  30.882  26.147  1.00  0.00     0.118 C 
BRANCH  34  35
ATOM     35  C   UNL A   1      31.329  32.345  26.505  1.00  0.00     0.042 C 
BRANCH  35  36
ATOM     36  C   UNL A   1      32.502  32.912  27.273  1.00  0.00     0.118 C 
BRANCH  36  37
ATOM     37  N   UNL A   1      32.327  34.314  27.640  1.00  0.00    -0.352 N 
ATOM     38  C   UNL A   1      32.961  35.077  28.592  1.00  0.00     0.251 C 
ATOM     39  H   UNL A   1      31.643  34.793  27.120  1.00  0.00     0.163 HD
ATOM     40  O   UNL A   1      32.530  36.209  28.825  1.00  0.00    -0.269 OA
BRANCH  38  41
ATOM     41  C   UNL A   1      34.112  34.551  29.366  1.00  0.00     0.039 A 
ATOM     42  C   UNL A   1      33.885  34.009  30.635  1.00  0.00     0.014 A 
ATOM     43  C   UNL A   1      35.413  34.578  28.863  1.00  0.00     0.014 A 
ATOM     44  C   UNL A   1      34.940  33.430  31.347  1.00  0.00     0.010 A 
ATOM     45  C   UNL A   1      36.430  33.880  29.506  1.00  0.00     0.010 A 
ATOM     46  C   UNL A   1      36.214  33.313  30.766  1.00  0.00    -0.014 A 
BRANCH  46  47
ATOM     47  C   UNL A   1      37.322  32.612  31.468  1.00  0.00     0.031 A 
ATOM     48  C   UNL A   1      38.032  31.452  30.818  1.00  0.00     0.074 A 
ATOM     49  C   UNL A   1      37.661  32.990  32.717  1.00  0.00     0.049 A 
ATOM     50  N   UNL A   1      39.019  30.722  31.276  1.00  0.00    -0.248 NA
ATOM     51  C   UNL A   1      37.547  31.029  29.493  1.00  0.00     0.031 C 
ATOM     52  C   UNL A   1      36.998  34.040  33.493  1.00  0.00     0.029 A 
ATOM     53  N   UNL A   1      38.649  32.535  33.555  1.00  0.00    -0.354 N 
ATOM     54  C   UNL A   1      39.259  29.756  30.307  1.00  0.00     0.074 A 
ATOM     55  C   UNL A   1      38.269  29.943  29.270  1.00  0.00     0.031 C 
ATOM     56  C   UNL A   1      37.624  34.180  34.672  1.00  0.00     0.029 A 
ATOM     57  C   UNL A   1      38.709  33.207  34.752  1.00  0.00     0.049 A 
ATOM     58  H   UNL A   1      39.256  31.797  33.322  1.00  0.00     0.167 HD
ATOM     59  C   UNL A   1      40.236  28.818  30.266  1.00  0.00     0.037 A 
ATOM     60  C   UNL A   1      39.549  33.062  35.795  1.00  0.00     0.037 A 
ATOM     61  C   UNL A   1      41.237  28.651  31.287  1.00  0.00     0.049 A 
ATOM     62  C   UNL A   1      40.644  32.033  35.711  1.00  0.00     0.074 A 
ATOM     63  C   UNL A   1      42.312  27.780  31.309  1.00  0.00     0.029 A 
ATOM     64  N   UNL A   1      41.285  29.372  32.471  1.00  0.00    -0.354 N 
ATOM     65  N   UNL A   1      40.919  31.189  34.746  1.00  0.00    -0.248 NA
ATOM     66  C   UNL A   1      41.559  31.951  36.857  1.00  0.00     0.031 C 
ATOM     67  C   UNL A   1      42.976  27.933  32.531  1.00  0.00     0.029 A 
ATOM     68  C   UNL A   1      42.356  28.947  33.242  1.00  0.00     0.049 A 
ATOM     69  H   UNL A   1      40.650  30.080  32.727  1.00  0.00     0.167 HD
ATOM     70  C   UNL A   1      42.049  30.496  35.155  1.00  0.00     0.074 A 
ATOM     71  C   UNL A   1      42.426  31.040  36.442  1.00  0.00     0.031 C 
ATOM     72  C   UNL A   1      42.716  29.496  34.524  1.00  0.00     0.037 A 
BRANCH  59  73
ATOM     73  C   UNL A   1      40.276  27.903  29.074  1.00  0.00     0.064 A 
ATOM     74  C   UNL A   1      39.555  26.697  29.043  1.00  0.00     0.173 A 
ATOM     75  C   UNL A   1      41.013  28.251  27.932  1.00  0.00     0.173 A 
ATOM     76  F   UNL A   1      38.844  26.307  30.111  1.00  0.00    -0.203 F 
ATOM     77  C   UNL A   1      39.598  25.863  27.928  1.00  0.00     0.198 A 
ATOM     78  C   UNL A   1      41.025  27.432  26.805  1.00  0.00     0.198 A 
ATOM     79  F   UNL A   1      41.717  29.393  27.904  1.00  0.00    -0.203 F 
ATOM     80  F   UNL A   1      38.946  24.692  27.945  1.00  0.00    -0.200 F 
ATOM     81  C   UNL A   1      40.324  26.236  26.807  1.00  0.00     0.200 A 
ATOM     82  F   UNL A   1      41.716  27.800  25.718  1.00  0.00    -0.200 F 
ATOM     83  F   UNL A   1      40.355  25.437  25.731  1.00  0.00    -0.200 F 
ENDBRANCH  59  73
BRANCH  60  84
ATOM     84  C   UNL A   1      39.414  33.936  36.991  1.00  0.00     0.064 A 
ATOM     85  C   UNL A   1      39.983  35.216  37.019  1.00  0.00     0.173 A 
ATOM     86  C   UNL A   1      38.724  33.505  38.135  1.00  0.00     0.173 A 
ATOM     87  F   UNL A   1      40.668  35.668  35.957  1.00  0.00    -0.203 F 
ATOM     88  C   UNL A   1      39.896  36.020  38.154  1.00  0.00     0.198 A 
ATOM     89  C   UNL A   1      38.610  34.323  39.257  1.00  0.00     0.198 A 
ATOM     90  F   UNL A   1      38.153  32.292  38.158  1.00  0.00    -0.203 F 
ATOM     91  F   UNL A   1      40.501  37.216  38.173  1.00  0.00    -0.200 F 
ATOM     92  C   UNL A   1      39.205  35.575  39.270  1.00  0.00     0.200 A 
ATOM     93  F   UNL A   1      37.926  33.896  40.326  1.00  0.00    -0.200 F 
ATOM     94  F   UNL A   1      39.121  36.348  40.361  1.00  0.00    -0.200 F 
ENDBRANCH  60  84
BRANCH  72  95
ATOM     95  C   UNL A   1      43.940  28.956  35.209  1.00  0.00     0.064 A 
ATOM     96  C   UNL A   1      45.219  29.476  34.959  1.00  0.00     0.173 A 
ATOM     97  C   UNL A   1      43.831  27.900  36.128  1.00  0.00     0.173 A 
ATOM     98  F   UNL A   1      45.382  30.478  34.082  1.00  0.00    -0.203 F 
ATOM     99  C   UNL A   1      46.347  28.924  35.563  1.00  0.00     0.198 A 
ATOM    100  C   UNL A   1      44.956  27.378  36.759  1.00  0.00     0.198 A 
ATOM    101  F   UNL A   1      42.630  27.372  36.414  1.00  0.00    -0.203 F 
ATOM    102  F   UNL A   1      47.565  29.388  35.249  1.00  0.00    -0.200 F 
ATOM    103  C   UNL A   1      46.215  27.880  36.464  1.00  0.00     0.200 A 
ATOM    104  F   UNL A   1      44.824  26.380  37.644  1.00  0.00    -0.200 F 
ATOM    105  F   UNL A   1      47.301  27.347  37.039  1.00  0.00    -0.200 F 
ENDBRANCH  72  95
ENDBRANCH  46  47
ENDBRANCH  38  41
ENDBRANCH  36  37
ENDBRANCH  35  36
ENDBRANCH  34  35
ENDBRANCH   3  34
TORSDOF 15
ENDMDL
