MODEL 1
REMARK VINA RESULT:     -14.2      0.000      0.000
REMARK SMILES Cc1cc(F)cc(-n2nc(C(=O)NCCCNC(=O)c3ccc(-c4c5nc(c(-c6c(F)c(F)c(F)c(F)c6F)c6ccc([nH]6)c(-c6c(F)c(F)c(F)c(F)c6F)c6nc(c(-c7c(F)c(F)c(F)c(F)c7F)c7ccc4[nH]7)C=C6)C=C5)cc3)c3c2CC[C@H](C)C3)c1
REMARK SMILES IDX 15 1 14 2 13 3 11 4 12 5 10 7 8 8 9 9 84 10 83 11 85 12
REMARK SMILES IDX 89 13 86 14 87 15 88 16 7 17 1 18 2 19 3 20 90 21 4 22 5 23
REMARK SMILES IDX 6 24 16 25 17 26 18 27 19 29 20 30 21 31 82 32 22 33 81 34
REMARK SMILES IDX 23 35 24 36 25 37 75 38 26 39 80 40 74 41 76 42 27 43 79 44
REMARK SMILES IDX 73 45 72 46 28 48 60 49 40 50 59 51 41 52 44 53 58 54 77 55
REMARK SMILES IDX 42 56 43 57 57 59 78 60 45 61 29 62 30 63 38 64 31 65 32 66
REMARK SMILES IDX 36 67 39 68 33 69 34 70 37 71 35 72 61 73 62 74 70 75 63 76
REMARK SMILES IDX 64 77 68 78 71 79 65 80 66 81 69 82 67 83 46 84 47 85 55 86
REMARK SMILES IDX 48 87 49 88 53 89 56 90 50 91 51 92 54 93 52 94
REMARK H PARENT 13 6 17 28 76 47 44 58
REMARK Flexibility Score: inf
ROOT
ATOM      1  C   UNL A   1      35.745  23.655  24.907  1.00  0.00     0.042 C 
ENDROOT
BRANCH   1   2
ATOM      2  C   UNL A   1      34.580  24.614  24.739  1.00  0.00     0.118 C 
BRANCH   2   3
ATOM      3  N   UNL A   1      34.357  24.854  23.339  1.00  0.00    -0.351 N 
ATOM      4  C   UNL A   1      33.586  25.766  22.663  1.00  0.00     0.272 C 
ATOM      5  O   UNL A   1      33.609  25.614  21.434  1.00  0.00    -0.267 OA
ATOM      6  H   UNL A   1      34.856  24.243  22.749  1.00  0.00     0.163 HD
BRANCH   4   7
ATOM      7  C   UNL A   1      32.828  26.881  23.300  1.00  0.00     0.154 A 
ATOM      8  N   UNL A   1      31.125  28.207  23.421  1.00  0.00    -0.237 N 
ATOM      9  N   UNL A   1      31.596  27.111  22.809  1.00  0.00    -0.162 NA
ATOM     10  C   UNL A   1      31.983  28.677  24.377  1.00  0.00     0.048 A 
ATOM     11  C   UNL A   1      33.028  27.783  24.399  1.00  0.00     0.007 A 
ATOM     12  C   UNL A   1      31.753  29.755  25.389  1.00  0.00     0.057 C 
ATOM     13  C   UNL A   1      34.020  27.869  25.477  1.00  0.00     0.043 C 
ATOM     14  C   UNL A   1      33.071  30.106  26.114  1.00  0.00     0.010 C 
ATOM     15  C   UNL A   1      33.768  28.845  26.627  1.00  0.00    -0.009 C 
ATOM     16  C   UNL A   1      35.110  29.146  27.311  1.00  0.00     0.008 C 
BRANCH   8  17
ATOM     17  C   UNL A   1      29.842  28.674  23.106  1.00  0.00     0.068 A 
ATOM     18  C   UNL A   1      28.308  31.366  20.912  1.00  0.00     0.044 C 
ATOM     19  C   UNL A   1      28.458  30.234  21.881  1.00  0.00    -0.046 A 
ATOM     20  C   UNL A   1      27.328  29.587  22.398  1.00  0.00     0.042 A 
ATOM     21  C   UNL A   1      29.724  29.795  22.273  1.00  0.00     0.032 A 
ATOM     22  C   UNL A   1      27.470  28.506  23.265  1.00  0.00     0.125 A 
ATOM     23  F   UNL A   1      26.382  27.914  23.773  1.00  0.00    -0.207 F 
ATOM     24  C   UNL A   1      28.720  28.026  23.614  1.00  0.00     0.067 A 
ENDBRANCH   8  17
ENDBRANCH   4   7
ENDBRANCH   2   3
ENDBRANCH   1   2
BRANCH   1  25
ATOM     25  C   UNL A   1      36.641  23.992  26.032  1.00  0.00     0.118 C 
BRANCH  25  26
ATOM     26  N   UNL A   1      37.592  22.897  26.330  1.00  0.00    -0.352 N 
ATOM     27  C   UNL A   1      38.965  22.996  26.554  1.00  0.00     0.251 C 
ATOM     28  H   UNL A   1      37.209  21.991  26.376  1.00  0.00     0.163 HD
ATOM     29  O   UNL A   1      39.699  22.030  26.475  1.00  0.00    -0.269 OA
BRANCH  27  30
ATOM     30  C   UNL A   1      39.485  24.333  26.894  1.00  0.00     0.039 A 
ATOM     31  C   UNL A   1      39.973  25.300  26.022  1.00  0.00     0.014 A 
ATOM     32  C   UNL A   1      39.506  24.602  28.241  1.00  0.00     0.014 A 
ATOM     33  C   UNL A   1      40.435  26.488  26.591  1.00  0.00     0.010 A 
ATOM     34  C   UNL A   1      39.301  25.864  28.632  1.00  0.00     0.010 A 
ATOM     35  C   UNL A   1      40.104  26.721  27.928  1.00  0.00    -0.014 A 
BRANCH  35  36
ATOM     36  C   UNL A   1      40.639  27.707  28.838  1.00  0.00     0.031 A 
ATOM     37  C   UNL A   1      39.779  28.841  29.117  1.00  0.00     0.074 A 
ATOM     38  C   UNL A   1      41.740  27.313  29.530  1.00  0.00     0.049 A 
ATOM     39  N   UNL A   1      40.166  30.055  29.227  1.00  0.00    -0.248 NA
ATOM     40  C   UNL A   1      38.328  28.672  29.213  1.00  0.00     0.031 C 
ATOM     41  C   UNL A   1      42.396  27.843  30.710  1.00  0.00     0.029 A 
ATOM     42  N   UNL A   1      42.568  26.217  29.185  1.00  0.00    -0.354 N 
ATOM     43  C   UNL A   1      39.132  30.691  29.877  1.00  0.00     0.074 A 
ATOM     44  C   UNL A   1      37.959  29.899  29.588  1.00  0.00     0.031 C 
ATOM     45  C   UNL A   1      43.665  27.378  30.736  1.00  0.00     0.029 A 
ATOM     46  C   UNL A   1      43.872  26.564  29.543  1.00  0.00     0.049 A 
ATOM     47  H   UNL A   1      42.279  25.372  28.771  1.00  0.00     0.167 HD
ATOM     48  C   UNL A   1      39.441  31.580  30.867  1.00  0.00     0.037 A 
ATOM     49  C   UNL A   1      44.732  26.812  28.514  1.00  0.00     0.037 A 
ATOM     50  C   UNL A   1      40.903  31.596  31.069  1.00  0.00     0.049 A 
ATOM     51  C   UNL A   1      44.949  28.296  28.386  1.00  0.00     0.074 A 
ATOM     52  C   UNL A   1      41.711  31.040  32.050  1.00  0.00     0.029 A 
ATOM     53  N   UNL A   1      41.751  31.869  29.992  1.00  0.00    -0.354 N 
ATOM     54  N   UNL A   1      44.094  29.200  28.791  1.00  0.00    -0.248 NA
ATOM     55  C   UNL A   1      46.206  28.866  27.931  1.00  0.00     0.031 C 
ATOM     56  C   UNL A   1      43.031  30.922  31.529  1.00  0.00     0.029 A 
ATOM     57  C   UNL A   1      43.030  31.388  30.223  1.00  0.00     0.049 A 
ATOM     58  H   UNL A   1      41.477  32.343  29.175  1.00  0.00     0.167 HD
ATOM     59  C   UNL A   1      44.689  30.432  28.759  1.00  0.00     0.074 A 
ATOM     60  C   UNL A   1      46.006  30.166  28.201  1.00  0.00     0.031 C 
ATOM     61  C   UNL A   1      44.091  31.569  29.237  1.00  0.00     0.037 A 
BRANCH  48  62
ATOM     62  C   UNL A   1      38.439  32.104  31.881  1.00  0.00     0.064 A 
ATOM     63  C   UNL A   1      37.596  33.193  31.571  1.00  0.00     0.173 A 
ATOM     64  C   UNL A   1      38.248  31.575  33.175  1.00  0.00     0.173 A 
ATOM     65  F   UNL A   1      37.565  33.727  30.345  1.00  0.00    -0.203 F 
ATOM     66  C   UNL A   1      36.725  33.765  32.504  1.00  0.00     0.198 A 
ATOM     67  C   UNL A   1      37.414  32.176  34.126  1.00  0.00     0.198 A 
ATOM     68  F   UNL A   1      38.800  30.415  33.547  1.00  0.00    -0.203 F 
ATOM     69  F   UNL A   1      35.949  34.796  32.142  1.00  0.00    -0.200 F 
ATOM     70  C   UNL A   1      36.655  33.275  33.792  1.00  0.00     0.200 A 
ATOM     71  F   UNL A   1      37.340  31.663  35.363  1.00  0.00    -0.200 F 
ATOM     72  F   UNL A   1      35.833  33.833  34.690  1.00  0.00    -0.200 F 
ENDBRANCH  48  62
BRANCH  49  73
ATOM     73  C   UNL A   1      44.603  25.777  27.432  1.00  0.00     0.064 A 
ATOM     74  C   UNL A   1      44.621  24.431  27.865  1.00  0.00     0.173 A 
ATOM     75  C   UNL A   1      44.018  26.029  26.182  1.00  0.00     0.173 A 
ATOM     76  F   UNL A   1      45.195  24.117  29.038  1.00  0.00    -0.203 F 
ATOM     77  C   UNL A   1      43.925  23.430  27.188  1.00  0.00     0.198 A 
ATOM     78  C   UNL A   1      43.362  25.005  25.478  1.00  0.00     0.198 A 
ATOM     79  F   UNL A   1      43.967  27.276  25.693  1.00  0.00    -0.203 F 
ATOM     80  F   UNL A   1      43.815  22.208  27.729  1.00  0.00    -0.200 F 
ATOM     81  C   UNL A   1      43.264  23.726  26.013  1.00  0.00     0.200 A 
ATOM     82  F   UNL A   1      42.743  25.278  24.320  1.00  0.00    -0.200 F 
ATOM     83  F   UNL A   1      42.491  22.796  25.432  1.00  0.00    -0.200 F 
ENDBRANCH  49  73
BRANCH  61  84
ATOM     84  C   UNL A   1      44.550  32.979  28.936  1.00  0.00     0.064 A 
ATOM     85  C   UNL A   1      45.233  33.792  29.854  1.00  0.00     0.173 A 
ATOM     86  C   UNL A   1      44.426  33.522  27.631  1.00  0.00     0.173 A 
ATOM     87  F   UNL A   1      45.594  33.344  31.063  1.00  0.00    -0.203 F 
ATOM     88  C   UNL A   1      45.636  35.090  29.536  1.00  0.00     0.198 A 
ATOM     89  C   UNL A   1      44.916  34.778  27.292  1.00  0.00     0.198 A 
ATOM     90  F   UNL A   1      43.852  32.845  26.627  1.00  0.00    -0.203 F 
ATOM     91  F   UNL A   1      46.199  35.855  30.482  1.00  0.00    -0.200 F 
ATOM     92  C   UNL A   1      45.487  35.579  28.255  1.00  0.00     0.200 A 
ATOM     93  F   UNL A   1      44.840  35.198  26.022  1.00  0.00    -0.200 F 
ATOM     94  F   UNL A   1      45.915  36.808  27.943  1.00  0.00    -0.200 F 
ENDBRANCH  61  84
ENDBRANCH  35  36
ENDBRANCH  27  30
ENDBRANCH  25  26
ENDBRANCH   1  25
TORSDOF 11
ENDMDL
MODEL 2
REMARK VINA RESULT:     -14.0      3.613      9.318
REMARK SMILES Cc1cc(F)cc(-n2nc(C(=O)NCCCNC(=O)c3ccc(-c4c5nc(c(-c6c(F)c(F)c(F)c(F)c6F)c6ccc([nH]6)c(-c6c(F)c(F)c(F)c(F)c6F)c6nc(c(-c7c(F)c(F)c(F)c(F)c7F)c7ccc4[nH]7)C=C6)C=C5)cc3)c3c2CC[C@H](C)C3)c1
REMARK SMILES IDX 15 1 14 2 13 3 11 4 12 5 10 7 8 8 9 9 84 10 83 11 85 12
REMARK SMILES IDX 89 13 86 14 87 15 88 16 7 17 1 18 2 19 3 20 90 21 4 22 5 23
REMARK SMILES IDX 6 24 16 25 17 26 18 27 19 29 20 30 21 31 82 32 22 33 81 34
REMARK SMILES IDX 23 35 24 36 25 37 75 38 26 39 80 40 74 41 76 42 27 43 79 44
REMARK SMILES IDX 73 45 72 46 28 48 60 49 40 50 59 51 41 52 44 53 58 54 77 55
REMARK SMILES IDX 42 56 43 57 57 59 78 60 45 61 29 62 30 63 38 64 31 65 32 66
REMARK SMILES IDX 36 67 39 68 33 69 34 70 37 71 35 72 61 73 62 74 70 75 63 76
REMARK SMILES IDX 64 77 68 78 71 79 65 80 66 81 69 82 67 83 46 84 47 85 55 86
REMARK SMILES IDX 48 87 49 88 53 89 56 90 50 91 51 92 54 93 52 94
REMARK H PARENT 13 6 17 28 76 47 44 58
REMARK Flexibility Score: inf
ROOT
ATOM      1  C   UNL A   1      33.158  27.687  25.856  1.00  0.00     0.042 C 
ENDROOT
BRANCH   1   2
ATOM      2  C   UNL A   1      33.317  26.208  25.553  1.00  0.00     0.118 C 
BRANCH   2   3
ATOM      3  N   UNL A   1      32.389  25.454  26.353  1.00  0.00    -0.351 N 
ATOM      4  C   UNL A   1      32.216  24.108  26.554  1.00  0.00     0.272 C 
ATOM      5  O   UNL A   1      31.252  23.841  27.283  1.00  0.00    -0.267 OA
ATOM      6  H   UNL A   1      31.755  26.014  26.856  1.00  0.00     0.163 HD
BRANCH   4   7
ATOM      7  C   UNL A   1      33.111  23.043  26.017  1.00  0.00     0.154 A 
ATOM      8  N   UNL A   1      33.449  21.088  25.159  1.00  0.00    -0.237 N 
ATOM      9  N   UNL A   1      32.495  21.975  25.476  1.00  0.00    -0.162 NA
ATOM     10  C   UNL A   1      34.707  21.570  25.399  1.00  0.00     0.048 A 
ATOM     11  C   UNL A   1      34.523  22.858  25.842  1.00  0.00     0.007 A 
ATOM     12  C   UNL A   1      36.024  20.970  25.020  1.00  0.00     0.057 C 
ATOM     13  C   UNL A   1      35.689  23.740  25.977  1.00  0.00     0.043 C 
ATOM     14  C   UNL A   1      37.182  21.740  25.692  1.00  0.00     0.010 C 
ATOM     15  C   UNL A   1      37.043  23.246  25.466  1.00  0.00    -0.009 C 
ATOM     16  C   UNL A   1      38.149  24.055  26.161  1.00  0.00     0.008 C 
BRANCH   8  17
ATOM     17  C   UNL A   1      33.088  19.873  24.560  1.00  0.00     0.068 A 
ATOM     18  C   UNL A   1      32.500  16.286  25.656  1.00  0.00     0.044 C 
ATOM     19  C   UNL A   1      32.632  17.510  24.804  1.00  0.00    -0.046 A 
ATOM     20  C   UNL A   1      32.312  17.465  23.441  1.00  0.00     0.042 A 
ATOM     21  C   UNL A   1      33.063  18.718  25.355  1.00  0.00     0.032 A 
ATOM     22  C   UNL A   1      32.394  18.616  22.660  1.00  0.00     0.125 A 
ATOM     23  F   UNL A   1      32.109  18.553  21.353  1.00  0.00    -0.207 F 
ATOM     24  C   UNL A   1      32.763  19.831  23.208  1.00  0.00     0.067 A 
ENDBRANCH   8  17
ENDBRANCH   4   7
ENDBRANCH   2   3
ENDBRANCH   1   2
BRANCH   1  25
ATOM     25  C   UNL A   1      34.304  28.278  26.576  1.00  0.00     0.118 C 
BRANCH  25  26
ATOM     26  N   UNL A   1      34.233  29.757  26.614  1.00  0.00    -0.352 N 
ATOM     27  C   UNL A   1      34.916  30.623  27.467  1.00  0.00     0.251 C 
ATOM     28  H   UNL A   1      33.632  30.178  25.959  1.00  0.00     0.163 HD
ATOM     29  O   UNL A   1      34.560  31.772  27.633  1.00  0.00    -0.269 OA
BRANCH  27  30
ATOM     30  C   UNL A   1      36.099  30.075  28.158  1.00  0.00     0.039 A 
ATOM     31  C   UNL A   1      36.128  29.366  29.354  1.00  0.00     0.014 A 
ATOM     32  C   UNL A   1      37.291  30.348  27.533  1.00  0.00     0.014 A 
ATOM     33  C   UNL A   1      37.383  28.970  29.821  1.00  0.00     0.010 A 
ATOM     34  C   UNL A   1      38.268  29.440  27.622  1.00  0.00     0.010 A 
ATOM     35  C   UNL A   1      38.450  29.056  28.924  1.00  0.00    -0.014 A 
BRANCH  35  36
ATOM     36  C   UNL A   1      39.867  28.965  29.186  1.00  0.00     0.031 A 
ATOM     37  C   UNL A   1      40.502  27.719  28.803  1.00  0.00     0.074 A 
ATOM     38  C   UNL A   1      40.473  30.144  29.488  1.00  0.00     0.049 A 
ATOM     39  N   UNL A   1      41.399  27.106  29.477  1.00  0.00    -0.248 NA
ATOM     40  C   UNL A   1      40.076  27.004  27.599  1.00  0.00     0.031 C 
ATOM     41  C   UNL A   1      41.865  30.548  29.527  1.00  0.00     0.029 A 
ATOM     42  N   UNL A   1      39.799  31.321  29.898  1.00  0.00    -0.354 N 
ATOM     43  C   UNL A   1      41.980  26.242  28.576  1.00  0.00     0.074 A 
ATOM     44  C   UNL A   1      40.974  26.017  27.565  1.00  0.00     0.031 C 
ATOM     45  C   UNL A   1      41.965  31.655  30.295  1.00  0.00     0.029 A 
ATOM     46  C   UNL A   1      40.636  31.972  30.808  1.00  0.00     0.049 A 
ATOM     47  H   UNL A   1      38.912  31.623  29.600  1.00  0.00     0.167 HD
ATOM     48  C   UNL A   1      43.340  26.113  28.590  1.00  0.00     0.037 A 
ATOM     49  C   UNL A   1      40.231  31.962  32.110  1.00  0.00     0.037 A 
ATOM     50  C   UNL A   1      43.908  27.046  29.583  1.00  0.00     0.049 A 
ATOM     51  C   UNL A   1      41.056  30.970  32.887  1.00  0.00     0.074 A 
ATOM     52  C   UNL A   1      44.559  28.264  29.447  1.00  0.00     0.029 A 
ATOM     53  N   UNL A   1      43.478  26.995  30.912  1.00  0.00    -0.354 N 
ATOM     54  N   UNL A   1      41.655  29.937  32.354  1.00  0.00    -0.248 NA
ATOM     55  C   UNL A   1      41.386  31.158  34.290  1.00  0.00     0.031 C 
ATOM     56  C   UNL A   1      44.457  28.966  30.681  1.00  0.00     0.029 A 
ATOM     57  C   UNL A   1      43.729  28.189  31.569  1.00  0.00     0.049 A 
ATOM     58  H   UNL A   1      43.052  26.212  31.328  1.00  0.00     0.167 HD
ATOM     59  C   UNL A   1      42.511  29.388  33.269  1.00  0.00     0.074 A 
ATOM     60  C   UNL A   1      42.294  30.184  34.467  1.00  0.00     0.031 C 
ATOM     61  C   UNL A   1      43.373  28.364  32.973  1.00  0.00     0.037 A 
BRANCH  48  62
ATOM     62  C   UNL A   1      44.144  25.471  27.472  1.00  0.00     0.064 A 
ATOM     63  C   UNL A   1      44.322  24.073  27.418  1.00  0.00     0.173 A 
ATOM     64  C   UNL A   1      44.759  26.174  26.414  1.00  0.00     0.173 A 
ATOM     65  F   UNL A   1      43.700  23.254  28.276  1.00  0.00    -0.203 F 
ATOM     66  C   UNL A   1      45.128  23.449  26.460  1.00  0.00     0.198 A 
ATOM     67  C   UNL A   1      45.606  25.558  25.485  1.00  0.00     0.198 A 
ATOM     68  F   UNL A   1      44.506  27.468  26.190  1.00  0.00    -0.203 F 
ATOM     69  F   UNL A   1      45.251  22.114  26.465  1.00  0.00    -0.200 F 
ATOM     70  C   UNL A   1      45.795  24.194  25.511  1.00  0.00     0.200 A 
ATOM     71  F   UNL A   1      46.220  26.300  24.552  1.00  0.00    -0.200 F 
ATOM     72  F   UNL A   1      46.580  23.598  24.604  1.00  0.00    -0.200 F 
ENDBRANCH  48  62
BRANCH  49  73
ATOM     73  C   UNL A   1      38.766  32.273  32.229  1.00  0.00     0.064 A 
ATOM     74  C   UNL A   1      38.313  33.388  31.486  1.00  0.00     0.173 A 
ATOM     75  C   UNL A   1      37.798  31.328  32.598  1.00  0.00     0.173 A 
ATOM     76  F   UNL A   1      39.183  34.346  31.127  1.00  0.00    -0.203 F 
ATOM     77  C   UNL A   1      37.018  33.455  30.973  1.00  0.00     0.198 A 
ATOM     78  C   UNL A   1      36.480  31.427  32.122  1.00  0.00     0.198 A 
ATOM     79  F   UNL A   1      38.141  30.246  33.311  1.00  0.00    -0.203 F 
ATOM     80  F   UNL A   1      36.684  34.436  30.122  1.00  0.00    -0.200 F 
ATOM     81  C   UNL A   1      36.111  32.454  31.262  1.00  0.00     0.200 A 
ATOM     82  F   UNL A   1      35.585  30.475  32.423  1.00  0.00    -0.200 F 
ATOM     83  F   UNL A   1      34.909  32.454  30.667  1.00  0.00    -0.200 F 
ENDBRANCH  49  73
BRANCH  61  84
ATOM     84  C   UNL A   1      44.089  27.514  33.999  1.00  0.00     0.064 A 
ATOM     85  C   UNL A   1      45.440  27.675  34.343  1.00  0.00     0.173 A 
ATOM     86  C   UNL A   1      43.380  26.569  34.786  1.00  0.00     0.173 A 
ATOM     87  F   UNL A   1      46.190  28.656  33.825  1.00  0.00    -0.203 F 
ATOM     88  C   UNL A   1      46.064  26.866  35.294  1.00  0.00     0.198 A 
ATOM     89  C   UNL A   1      43.983  25.833  35.800  1.00  0.00     0.198 A 
ATOM     90  F   UNL A   1      42.069  26.343  34.622  1.00  0.00    -0.203 F 
ATOM     91  F   UNL A   1      47.379  27.000  35.512  1.00  0.00    -0.200 F 
ATOM     92  C   UNL A   1      45.335  25.953  36.029  1.00  0.00     0.200 A 
ATOM     93  F   UNL A   1      43.239  25.018  36.559  1.00  0.00    -0.200 F 
ATOM     94  F   UNL A   1      45.928  25.210  36.971  1.00  0.00    -0.200 F 
ENDBRANCH  61  84
ENDBRANCH  35  36
ENDBRANCH  27  30
ENDBRANCH  25  26
ENDBRANCH   1  25
TORSDOF 11
ENDMDL
MODEL 3
REMARK VINA RESULT:     -13.9      3.387      9.404
REMARK SMILES Cc1cc(F)cc(-n2nc(C(=O)NCCCNC(=O)c3ccc(-c4c5nc(c(-c6c(F)c(F)c(F)c(F)c6F)c6ccc([nH]6)c(-c6c(F)c(F)c(F)c(F)c6F)c6nc(c(-c7c(F)c(F)c(F)c(F)c7F)c7ccc4[nH]7)C=C6)C=C5)cc3)c3c2CC[C@H](C)C3)c1
REMARK SMILES IDX 15 1 14 2 13 3 11 4 12 5 10 7 8 8 9 9 84 10 83 11 85 12
REMARK SMILES IDX 89 13 86 14 87 15 88 16 7 17 1 18 2 19 3 20 90 21 4 22 5 23
REMARK SMILES IDX 6 24 16 25 17 26 18 27 19 29 20 30 21 31 82 32 22 33 81 34
REMARK SMILES IDX 23 35 24 36 25 37 75 38 26 39 80 40 74 41 76 42 27 43 79 44
REMARK SMILES IDX 73 45 72 46 28 48 60 49 40 50 59 51 41 52 44 53 58 54 77 55
REMARK SMILES IDX 42 56 43 57 57 59 78 60 45 61 29 62 30 63 38 64 31 65 32 66
REMARK SMILES IDX 36 67 39 68 33 69 34 70 37 71 35 72 61 73 62 74 70 75 63 76
REMARK SMILES IDX 64 77 68 78 71 79 65 80 66 81 69 82 67 83 46 84 47 85 55 86
REMARK SMILES IDX 48 87 49 88 53 89 56 90 50 91 51 92 54 93 52 94
REMARK H PARENT 13 6 17 28 76 47 44 58
REMARK Flexibility Score: inf
ROOT
ATOM      1  C   UNL A   1      34.404  29.284  26.218  1.00  0.00     0.042 C 
ENDROOT
BRANCH   1   2
ATOM      2  C   UNL A   1      33.248  30.122  26.734  1.00  0.00     0.118 C 
BRANCH   2   3
ATOM      3  N   UNL A   1      32.422  29.318  27.595  1.00  0.00    -0.351 N 
ATOM      4  C   UNL A   1      31.703  28.168  27.384  1.00  0.00     0.272 C 
ATOM      5  O   UNL A   1      31.058  27.804  28.376  1.00  0.00    -0.267 OA
ATOM      6  H   UNL A   1      32.362  29.659  28.516  1.00  0.00     0.163 HD
BRANCH   4   7
ATOM      7  C   UNL A   1      31.716  27.373  26.123  1.00  0.00     0.154 A 
ATOM      8  N   UNL A   1      32.263  25.625  24.974  1.00  0.00    -0.237 N 
ATOM      9  N   UNL A   1      32.232  26.133  26.215  1.00  0.00    -0.162 NA
ATOM     10  C   UNL A   1      31.700  26.467  24.054  1.00  0.00     0.048 A 
ATOM     11  C   UNL A   1      31.241  27.542  24.779  1.00  0.00     0.007 A 
ATOM     12  C   UNL A   1      31.383  26.200  22.617  1.00  0.00     0.057 C 
ATOM     13  C   UNL A   1      30.380  28.532  24.121  1.00  0.00     0.043 C 
ATOM     14  C   UNL A   1      30.967  27.506  21.904  1.00  0.00     0.010 C 
ATOM     15  C   UNL A   1      29.891  28.247  22.700  1.00  0.00    -0.009 C 
ATOM     16  C   UNL A   1      29.484  29.579  22.051  1.00  0.00     0.008 C 
BRANCH   8  17
ATOM     17  C   UNL A   1      32.749  24.326  24.774  1.00  0.00     0.068 A 
ATOM     18  C   UNL A   1      36.005  22.695  23.701  1.00  0.00     0.044 C 
ATOM     19  C   UNL A   1      34.586  22.887  24.138  1.00  0.00    -0.046 A 
ATOM     20  C   UNL A   1      33.777  21.781  24.431  1.00  0.00     0.042 A 
ATOM     21  C   UNL A   1      34.048  24.168  24.273  1.00  0.00     0.032 A 
ATOM     22  C   UNL A   1      32.471  21.962  24.879  1.00  0.00     0.125 A 
ATOM     23  F   UNL A   1      31.701  20.896  25.131  1.00  0.00    -0.207 F 
ATOM     24  C   UNL A   1      31.948  23.228  25.073  1.00  0.00     0.067 A 
ENDBRANCH   8  17
ENDBRANCH   4   7
ENDBRANCH   2   3
ENDBRANCH   1   2
BRANCH   1  25
ATOM     25  C   UNL A   1      35.554  29.215  27.142  1.00  0.00     0.118 C 
BRANCH  25  26
ATOM     26  N   UNL A   1      36.107  30.556  27.439  1.00  0.00    -0.352 N 
ATOM     27  C   UNL A   1      37.160  30.874  28.298  1.00  0.00     0.251 C 
ATOM     28  H   UNL A   1      35.681  31.313  26.977  1.00  0.00     0.163 HD
ATOM     29  O   UNL A   1      37.329  32.003  28.713  1.00  0.00    -0.269 OA
BRANCH  27  30
ATOM     30  C   UNL A   1      38.063  29.771  28.674  1.00  0.00     0.039 A 
ATOM     31  C   UNL A   1      37.850  28.795  29.643  1.00  0.00     0.014 A 
ATOM     32  C   UNL A   1      39.254  29.761  27.991  1.00  0.00     0.014 A 
ATOM     33  C   UNL A   1      38.872  27.863  29.834  1.00  0.00     0.010 A 
ATOM     34  C   UNL A   1      39.816  28.577  27.726  1.00  0.00     0.010 A 
ATOM     35  C   UNL A   1      39.870  27.808  28.858  1.00  0.00    -0.014 A 
BRANCH  35  36
ATOM     36  C   UNL A   1      41.154  27.146  28.907  1.00  0.00     0.031 A 
ATOM     37  C   UNL A   1      41.150  25.735  28.575  1.00  0.00     0.074 A 
ATOM     38  C   UNL A   1      42.226  27.978  28.976  1.00  0.00     0.049 A 
ATOM     39  N   UNL A   1      41.834  24.832  29.168  1.00  0.00    -0.248 NA
ATOM     40  C   UNL A   1      40.255  25.214  27.541  1.00  0.00     0.031 C 
ATOM     41  C   UNL A   1      43.644  27.768  28.753  1.00  0.00     0.029 A 
ATOM     42  N   UNL A   1      42.173  29.344  29.348  1.00  0.00    -0.354 N 
ATOM     43  C   UNL A   1      41.839  23.769  28.294  1.00  0.00     0.074 A 
ATOM     44  C   UNL A   1      40.657  23.942  27.481  1.00  0.00     0.031 C 
ATOM     45  C   UNL A   1      44.322  28.763  29.365  1.00  0.00     0.029 A 
ATOM     46  C   UNL A   1      43.355  29.623  30.037  1.00  0.00     0.049 A 
ATOM     47  H   UNL A   1      41.443  29.975  29.157  1.00  0.00     0.167 HD
ATOM     48  C   UNL A   1      43.008  23.087  28.112  1.00  0.00     0.037 A 
ATOM     49  C   UNL A   1      43.232  29.836  31.379  1.00  0.00     0.037 A 
ATOM     50  C   UNL A   1      44.079  23.739  28.892  1.00  0.00     0.049 A 
ATOM     51  C   UNL A   1      43.718  28.623  32.127  1.00  0.00     0.074 A 
ATOM     52  C   UNL A   1      45.126  24.569  28.519  1.00  0.00     0.029 A 
ATOM     53  N   UNL A   1      43.922  23.925  30.268  1.00  0.00    -0.354 N 
ATOM     54  N   UNL A   1      43.740  27.413  31.629  1.00  0.00    -0.248 NA
ATOM     55  C   UNL A   1      44.353  28.713  33.432  1.00  0.00     0.031 C 
ATOM     56  C   UNL A   1      45.548  25.299  29.666  1.00  0.00     0.029 A 
ATOM     57  C   UNL A   1      44.749  24.932  30.738  1.00  0.00     0.049 A 
ATOM     58  H   UNL A   1      43.304  23.407  30.832  1.00  0.00     0.167 HD
ATOM     59  C   UNL A   1      44.459  26.596  32.458  1.00  0.00     0.074 A 
ATOM     60  C   UNL A   1      44.809  27.458  33.577  1.00  0.00     0.031 C 
ATOM     61  C   UNL A   1      44.764  25.295  32.152  1.00  0.00     0.037 A 
BRANCH  48  62
ATOM     62  C   UNL A   1      43.261  22.125  26.964  1.00  0.00     0.064 A 
ATOM     63  C   UNL A   1      42.631  20.863  26.924  1.00  0.00     0.173 A 
ATOM     64  C   UNL A   1      44.106  22.385  25.864  1.00  0.00     0.173 A 
ATOM     65  F   UNL A   1      41.706  20.514  27.826  1.00  0.00    -0.203 F 
ATOM     66  C   UNL A   1      42.904  19.912  25.935  1.00  0.00     0.198 A 
ATOM     67  C   UNL A   1      44.419  21.417  24.902  1.00  0.00     0.198 A 
ATOM     68  F   UNL A   1      44.601  23.605  25.633  1.00  0.00    -0.203 F 
ATOM     69  F   UNL A   1      42.267  18.733  25.955  1.00  0.00    -0.200 F 
ATOM     70  C   UNL A   1      43.822  20.177  24.941  1.00  0.00     0.200 A 
ATOM     71  F   UNL A   1      45.291  21.708  23.925  1.00  0.00    -0.200 F 
ATOM     72  F   UNL A   1      44.095  19.260  24.003  1.00  0.00    -0.200 F 
ENDBRANCH  48  62
BRANCH  49  73
ATOM     73  C   UNL A   1      42.066  30.733  31.686  1.00  0.00     0.064 A 
ATOM     74  C   UNL A   1      40.969  30.114  32.330  1.00  0.00     0.173 A 
ATOM     75  C   UNL A   1      42.170  32.125  31.819  1.00  0.00     0.173 A 
ATOM     76  F   UNL A   1      40.793  28.787  32.216  1.00  0.00    -0.203 F 
ATOM     77  C   UNL A   1      40.144  30.810  33.212  1.00  0.00     0.198 A 
ATOM     78  C   UNL A   1      41.303  32.831  32.669  1.00  0.00     0.198 A 
ATOM     79  F   UNL A   1      43.175  32.791  31.233  1.00  0.00    -0.203 F 
ATOM     80  F   UNL A   1      39.233  30.149  33.941  1.00  0.00    -0.200 F 
ATOM     81  C   UNL A   1      40.335  32.164  33.410  1.00  0.00     0.200 A 
ATOM     82  F   UNL A   1      41.462  34.151  32.843  1.00  0.00    -0.200 F 
ATOM     83  F   UNL A   1      39.627  32.805  34.351  1.00  0.00    -0.200 F 
ENDBRANCH  49  73
BRANCH  61  84
ATOM     84  C   UNL A   1      45.257  24.266  33.145  1.00  0.00     0.064 A 
ATOM     85  C   UNL A   1      44.519  23.137  33.533  1.00  0.00     0.173 A 
ATOM     86  C   UNL A   1      46.581  24.319  33.652  1.00  0.00     0.173 A 
ATOM     87  F   UNL A   1      43.329  22.849  32.990  1.00  0.00    -0.203 F 
ATOM     88  C   UNL A   1      45.011  22.212  34.456  1.00  0.00     0.198 A 
ATOM     89  C   UNL A   1      47.101  23.343  34.496  1.00  0.00     0.198 A 
ATOM     90  F   UNL A   1      47.432  25.302  33.327  1.00  0.00    -0.203 F 
ATOM     91  F   UNL A   1      44.224  21.206  34.862  1.00  0.00    -0.200 F 
ATOM     92  C   UNL A   1      46.303  22.309  34.929  1.00  0.00     0.200 A 
ATOM     93  F   UNL A   1      48.385  23.409  34.873  1.00  0.00    -0.200 F 
ATOM     94  F   UNL A   1      46.786  21.396  35.780  1.00  0.00    -0.200 F 
ENDBRANCH  61  84
ENDBRANCH  35  36
ENDBRANCH  27  30
ENDBRANCH  25  26
ENDBRANCH   1  25
TORSDOF 11
ENDMDL
