MODEL 1
REMARK VINA RESULT:     -12.5      0.000      0.000
REMARK SMILES CC/C(C(=O)NCCCNC(=O)c1ccc(-c2c3nc(c(-c4c(F)c(F)c(F)c(F)c4F)c4ccc([nH]4)c(-c4c(F)c(F)c(F)c(F)c4F)c4nc(c(-c5c(F)c(F)c(F)c(F)c5F)c5ccc2[nH]5)C=C4)C=C3)cc1)=C1\CCc2ccccc21
REMARK SMILES IDX 8 1 7 2 6 3 4 4 5 5 3 7 76 8 77 9 84 10 78 11 79 12 83 13
REMARK SMILES IDX 80 14 82 15 81 16 2 17 1 18 9 19 10 20 11 21 12 23 13 24
REMARK SMILES IDX 14 25 75 26 15 27 74 28 16 29 17 30 18 31 68 32 19 33 73 34
REMARK SMILES IDX 67 35 69 36 20 37 72 38 66 39 65 40 21 42 53 43 33 44 52 45
REMARK SMILES IDX 34 46 37 47 51 48 70 49 35 50 36 51 50 53 71 54 38 55 22 56
REMARK SMILES IDX 23 57 31 58 24 59 25 60 29 61 32 62 26 63 27 64 30 65 28 66
REMARK SMILES IDX 54 67 55 68 63 69 56 70 57 71 61 72 64 73 58 74 59 75 62 76
REMARK SMILES IDX 60 77 39 78 40 79 48 80 41 81 42 82 46 83 49 84 43 85 44 86
REMARK SMILES IDX 47 87 45 88
REMARK H PARENT 6 6 10 22 69 41 37 52
REMARK Flexibility Score: inf
ROOT
ATOM      1  C   UNL A   1      33.038  29.007  23.149  1.00  0.00     0.042 C 
ENDROOT
BRANCH   1   2
ATOM      2  C   UNL A   1      33.831  28.023  22.285  1.00  0.00     0.118 C 
BRANCH   2   3
ATOM      3  N   UNL A   1      32.955  27.008  21.715  1.00  0.00    -0.352 N 
ATOM      4  C   UNL A   1      33.076  25.657  21.912  1.00  0.00     0.247 C 
ATOM      5  O   UNL A   1      33.361  24.960  20.937  1.00  0.00    -0.270 OA
ATOM      6  H   UNL A   1      32.217  27.317  21.142  1.00  0.00     0.163 HD
BRANCH   4   7
ATOM      7  C   UNL A   1      32.425  25.033  23.131  1.00  0.00     0.020 C 
ATOM      8  C   UNL A   1      33.048  24.266  24.055  1.00  0.00    -0.031 C 
ATOM      9  C   UNL A   1      32.493  23.827  25.401  1.00  0.00     0.041 C 
ATOM     10  C   UNL A   1      34.437  23.782  24.124  1.00  0.00    -0.019 A 
ATOM     11  C   UNL A   1      33.671  23.905  26.380  1.00  0.00     0.041 C 
ATOM     12  C   UNL A   1      34.828  23.697  25.464  1.00  0.00    -0.040 A 
ATOM     13  C   UNL A   1      35.304  23.340  23.146  1.00  0.00     0.009 A 
ATOM     14  C   UNL A   1      36.139  23.432  25.832  1.00  0.00     0.004 A 
ATOM     15  C   UNL A   1      36.631  23.045  23.499  1.00  0.00     0.001 A 
ATOM     16  C   UNL A   1      37.057  23.141  24.829  1.00  0.00     0.000 A 
BRANCH   7  17
ATOM     17  C   UNL A   1      30.937  25.403  23.075  1.00  0.00     0.038 C 
ATOM     18  C   UNL A   1      30.271  26.274  24.132  1.00  0.00     0.009 C 
ENDBRANCH   7  17
ENDBRANCH   4   7
ENDBRANCH   2   3
ENDBRANCH   1   2
BRANCH   1  19
ATOM     19  C   UNL A   1      33.389  29.031  24.624  1.00  0.00     0.118 C 
BRANCH  19  20
ATOM     20  N   UNL A   1      32.729  30.085  25.378  1.00  0.00    -0.352 N 
ATOM     21  C   UNL A   1      33.038  30.754  26.535  1.00  0.00     0.251 C 
ATOM     22  H   UNL A   1      31.882  30.380  24.974  1.00  0.00     0.163 HD
ATOM     23  O   UNL A   1      32.221  31.578  26.956  1.00  0.00    -0.269 OA
BRANCH  21  24
ATOM     24  C   UNL A   1      34.279  30.516  27.316  1.00  0.00     0.039 A 
ATOM     25  C   UNL A   1      35.087  31.619  27.631  1.00  0.00     0.014 A 
ATOM     26  C   UNL A   1      34.708  29.249  27.703  1.00  0.00     0.014 A 
ATOM     27  C   UNL A   1      36.270  31.452  28.359  1.00  0.00     0.010 A 
ATOM     28  C   UNL A   1      35.799  29.100  28.554  1.00  0.00     0.010 A 
ATOM     29  C   UNL A   1      36.619  30.192  28.861  1.00  0.00    -0.014 A 
BRANCH  29  30
ATOM     30  C   UNL A   1      37.867  29.966  29.641  1.00  0.00     0.031 A 
ATOM     31  C   UNL A   1      38.920  29.023  29.110  1.00  0.00     0.074 A 
ATOM     32  C   UNL A   1      38.027  30.545  30.846  1.00  0.00     0.049 A 
ATOM     33  N   UNL A   1      40.010  28.582  29.687  1.00  0.00    -0.248 NA
ATOM     34  C   UNL A   1      38.695  28.466  27.765  1.00  0.00     0.031 C 
ATOM     35  C   UNL A   1      37.061  31.434  31.495  1.00  0.00     0.029 A 
ATOM     36  N   UNL A   1      39.057  30.461  31.750  1.00  0.00    -0.354 N 
ATOM     37  C   UNL A   1      40.576  27.683  28.790  1.00  0.00     0.074 A 
ATOM     38  C   UNL A   1      39.671  27.578  27.668  1.00  0.00     0.031 C 
ATOM     39  C   UNL A   1      37.553  31.831  32.678  1.00  0.00     0.029 A 
ATOM     40  C   UNL A   1      38.845  31.189  32.897  1.00  0.00     0.049 A 
ATOM     41  H   UNL A   1      39.870  29.929  31.592  1.00  0.00     0.167 HD
ATOM     42  C   UNL A   1      41.760  27.032  28.873  1.00  0.00     0.037 A 
ATOM     43  C   UNL A   1      39.603  31.313  34.003  1.00  0.00     0.037 A 
ATOM     44  C   UNL A   1      42.676  27.171  29.973  1.00  0.00     0.049 A 
ATOM     45  C   UNL A   1      40.922  30.589  34.067  1.00  0.00     0.074 A 
ATOM     46  C   UNL A   1      43.920  26.590  30.141  1.00  0.00     0.029 A 
ATOM     47  N   UNL A   1      42.446  27.959  31.091  1.00  0.00    -0.354 N 
ATOM     48  N   UNL A   1      41.466  29.778  33.191  1.00  0.00    -0.248 NA
ATOM     49  C   UNL A   1      41.740  30.809  35.266  1.00  0.00     0.031 C 
ATOM     50  C   UNL A   1      44.426  26.994  31.382  1.00  0.00     0.029 A 
ATOM     51  C   UNL A   1      43.525  27.876  31.957  1.00  0.00     0.049 A 
ATOM     52  H   UNL A   1      41.638  28.498  31.247  1.00  0.00     0.167 HD
ATOM     53  C   UNL A   1      42.701  29.422  33.716  1.00  0.00     0.074 A 
ATOM     54  C   UNL A   1      42.832  30.118  34.978  1.00  0.00     0.031 C 
ATOM     55  C   UNL A   1      43.644  28.595  33.199  1.00  0.00     0.037 A 
BRANCH  42  56
ATOM     56  C   UNL A   1      42.142  26.131  27.730  1.00  0.00     0.064 A 
ATOM     57  C   UNL A   1      43.049  26.543  26.740  1.00  0.00     0.173 A 
ATOM     58  C   UNL A   1      41.621  24.831  27.637  1.00  0.00     0.173 A 
ATOM     59  F   UNL A   1      43.568  27.780  26.771  1.00  0.00    -0.203 F 
ATOM     60  C   UNL A   1      43.390  25.703  25.682  1.00  0.00     0.198 A 
ATOM     61  C   UNL A   1      41.995  23.981  26.599  1.00  0.00     0.198 A 
ATOM     62  F   UNL A   1      40.756  24.381  28.557  1.00  0.00    -0.203 F 
ATOM     63  F   UNL A   1      44.211  26.144  24.718  1.00  0.00    -0.200 F 
ATOM     64  C   UNL A   1      42.870  24.421  25.618  1.00  0.00     0.200 A 
ATOM     65  F   UNL A   1      41.503  22.735  26.545  1.00  0.00    -0.200 F 
ATOM     66  F   UNL A   1      43.208  23.610  24.605  1.00  0.00    -0.200 F 
ENDBRANCH  42  56
BRANCH  43  67
ATOM     67  C   UNL A   1      39.145  32.169  35.129  1.00  0.00     0.064 A 
ATOM     68  C   UNL A   1      39.405  33.547  35.144  1.00  0.00     0.173 A 
ATOM     69  C   UNL A   1      38.452  31.628  36.223  1.00  0.00     0.173 A 
ATOM     70  F   UNL A   1      40.078  34.112  34.130  1.00  0.00    -0.203 F 
ATOM     71  C   UNL A   1      39.019  34.344  36.220  1.00  0.00     0.198 A 
ATOM     72  C   UNL A   1      38.036  32.431  37.283  1.00  0.00     0.198 A 
ATOM     73  F   UNL A   1      38.168  30.318  36.256  1.00  0.00    -0.203 F 
ATOM     74  F   UNL A   1      39.334  35.647  36.234  1.00  0.00    -0.200 F 
ATOM     75  C   UNL A   1      38.331  33.786  37.286  1.00  0.00     0.200 A 
ATOM     76  F   UNL A   1      37.354  31.892  38.302  1.00  0.00    -0.200 F 
ATOM     77  F   UNL A   1      37.959  34.553  38.321  1.00  0.00    -0.200 F 
ENDBRANCH  43  67
BRANCH  55  78
ATOM     78  C   UNL A   1      44.925  28.445  33.969  1.00  0.00     0.064 A 
ATOM     79  C   UNL A   1      45.103  27.437  34.928  1.00  0.00     0.173 A 
ATOM     80  C   UNL A   1      46.003  29.307  33.713  1.00  0.00     0.173 A 
ATOM     81  F   UNL A   1      44.099  26.595  35.217  1.00  0.00    -0.203 F 
ATOM     82  C   UNL A   1      46.300  27.321  35.628  1.00  0.00     0.198 A 
ATOM     83  C   UNL A   1      47.210  29.165  34.390  1.00  0.00     0.198 A 
ATOM     84  F   UNL A   1      45.889  30.281  32.798  1.00  0.00    -0.203 F 
ATOM     85  F   UNL A   1      46.427  26.388  36.582  1.00  0.00    -0.200 F 
ATOM     86  C   UNL A   1      47.354  28.180  35.353  1.00  0.00     0.200 A 
ATOM     87  F   UNL A   1      48.234  29.984  34.110  1.00  0.00    -0.200 F 
ATOM     88  F   UNL A   1      48.509  28.061  36.025  1.00  0.00    -0.200 F 
ENDBRANCH  55  78
ENDBRANCH  29  30
ENDBRANCH  21  24
ENDBRANCH  19  20
ENDBRANCH   1  19
TORSDOF 11
ENDMDL
MODEL 2
REMARK VINA RESULT:     -12.4      0.142      1.644
REMARK SMILES CC/C(C(=O)NCCCNC(=O)c1ccc(-c2c3nc(c(-c4c(F)c(F)c(F)c(F)c4F)c4ccc([nH]4)c(-c4c(F)c(F)c(F)c(F)c4F)c4nc(c(-c5c(F)c(F)c(F)c(F)c5F)c5ccc2[nH]5)C=C4)C=C3)cc1)=C1\CCc2ccccc21
REMARK SMILES IDX 8 1 7 2 6 3 4 4 5 5 3 7 76 8 77 9 84 10 78 11 79 12 83 13
REMARK SMILES IDX 80 14 82 15 81 16 2 17 1 18 9 19 10 20 11 21 12 23 13 24
REMARK SMILES IDX 14 25 75 26 15 27 74 28 16 29 17 30 18 31 68 32 19 33 73 34
REMARK SMILES IDX 67 35 69 36 20 37 72 38 66 39 65 40 21 42 53 43 33 44 52 45
REMARK SMILES IDX 34 46 37 47 51 48 70 49 35 50 36 51 50 53 71 54 38 55 22 56
REMARK SMILES IDX 23 57 31 58 24 59 25 60 29 61 32 62 26 63 27 64 30 65 28 66
REMARK SMILES IDX 54 67 55 68 63 69 56 70 57 71 61 72 64 73 58 74 59 75 62 76
REMARK SMILES IDX 60 77 39 78 40 79 48 80 41 81 42 82 46 83 49 84 43 85 44 86
REMARK SMILES IDX 47 87 45 88
REMARK H PARENT 6 6 10 22 69 41 37 52
REMARK Flexibility Score: inf
ROOT
ATOM      1  C   UNL A   1      33.199  29.076  23.315  1.00  0.00     0.042 C 
ENDROOT
BRANCH   1   2
ATOM      2  C   UNL A   1      33.948  27.996  22.531  1.00  0.00     0.118 C 
BRANCH   2   3
ATOM      3  N   UNL A   1      33.019  27.058  21.918  1.00  0.00    -0.352 N 
ATOM      4  C   UNL A   1      33.088  25.693  22.021  1.00  0.00     0.247 C 
ATOM      5  O   UNL A   1      33.321  25.053  20.994  1.00  0.00    -0.270 OA
ATOM      6  H   UNL A   1      32.280  27.435  21.387  1.00  0.00     0.163 HD
BRANCH   4   7
ATOM      7  C   UNL A   1      32.441  25.014  23.211  1.00  0.00     0.020 C 
ATOM      8  C   UNL A   1      33.071  24.221  24.109  1.00  0.00    -0.031 C 
ATOM      9  C   UNL A   1      32.517  23.722  25.434  1.00  0.00     0.041 C 
ATOM     10  C   UNL A   1      34.466  23.753  24.165  1.00  0.00    -0.019 A 
ATOM     11  C   UNL A   1      33.690  23.780  26.421  1.00  0.00     0.041 C 
ATOM     12  C   UNL A   1      34.853  23.622  25.502  1.00  0.00    -0.040 A 
ATOM     13  C   UNL A   1      35.344  23.361  23.175  1.00  0.00     0.009 A 
ATOM     14  C   UNL A   1      36.166  23.362  25.866  1.00  0.00     0.004 A 
ATOM     15  C   UNL A   1      36.674  23.071  23.522  1.00  0.00     0.001 A 
ATOM     16  C   UNL A   1      37.093  23.122  24.857  1.00  0.00     0.000 A 
BRANCH   7  17
ATOM     17  C   UNL A   1      30.948  25.365  23.164  1.00  0.00     0.038 C 
ATOM     18  C   UNL A   1      30.309  26.350  24.132  1.00  0.00     0.009 C 
ENDBRANCH   7  17
ENDBRANCH   4   7
ENDBRANCH   2   3
ENDBRANCH   1   2
BRANCH   1  19
ATOM     19  C   UNL A   1      33.333  29.018  24.824  1.00  0.00     0.118 C 
BRANCH  19  20
ATOM     20  N   UNL A   1      32.736  30.146  25.521  1.00  0.00    -0.352 N 
ATOM     21  C   UNL A   1      33.093  30.864  26.634  1.00  0.00     0.251 C 
ATOM     22  H   UNL A   1      31.902  30.461  25.107  1.00  0.00     0.163 HD
ATOM     23  O   UNL A   1      32.324  31.752  27.013  1.00  0.00    -0.269 OA
BRANCH  21  24
ATOM     24  C   UNL A   1      34.329  30.608  27.417  1.00  0.00     0.039 A 
ATOM     25  C   UNL A   1      35.225  31.670  27.610  1.00  0.00     0.014 A 
ATOM     26  C   UNL A   1      34.669  29.355  27.922  1.00  0.00     0.014 A 
ATOM     27  C   UNL A   1      36.408  31.484  28.334  1.00  0.00     0.010 A 
ATOM     28  C   UNL A   1      35.764  29.206  28.768  1.00  0.00     0.010 A 
ATOM     29  C   UNL A   1      36.671  30.255  28.953  1.00  0.00    -0.014 A 
BRANCH  29  30
ATOM     30  C   UNL A   1      37.915  30.010  29.734  1.00  0.00     0.031 A 
ATOM     31  C   UNL A   1      38.967  29.073  29.190  1.00  0.00     0.074 A 
ATOM     32  C   UNL A   1      38.072  30.566  30.950  1.00  0.00     0.049 A 
ATOM     33  N   UNL A   1      40.052  28.617  29.764  1.00  0.00    -0.248 NA
ATOM     34  C   UNL A   1      38.745  28.542  27.834  1.00  0.00     0.031 C 
ATOM     35  C   UNL A   1      37.107  31.447  31.612  1.00  0.00     0.029 A 
ATOM     36  N   UNL A   1      39.098  30.461  31.857  1.00  0.00    -0.354 N 
ATOM     37  C   UNL A   1      40.618  27.732  28.852  1.00  0.00     0.074 A 
ATOM     38  C   UNL A   1      39.718  27.651  27.725  1.00  0.00     0.031 C 
ATOM     39  C   UNL A   1      37.596  31.821  32.804  1.00  0.00     0.029 A 
ATOM     40  C   UNL A   1      38.884  31.169  33.016  1.00  0.00     0.049 A 
ATOM     41  H   UNL A   1      39.909  29.930  31.693  1.00  0.00     0.167 HD
ATOM     42  C   UNL A   1      41.800  27.075  28.928  1.00  0.00     0.037 A 
ATOM     43  C   UNL A   1      39.638  31.270  34.127  1.00  0.00     0.037 A 
ATOM     44  C   UNL A   1      42.711  27.190  30.034  1.00  0.00     0.049 A 
ATOM     45  C   UNL A   1      40.954  30.540  34.183  1.00  0.00     0.074 A 
ATOM     46  C   UNL A   1      43.953  26.602  30.197  1.00  0.00     0.029 A 
ATOM     47  N   UNL A   1      42.480  27.959  31.166  1.00  0.00    -0.354 N 
ATOM     48  N   UNL A   1      41.498  29.743  33.294  1.00  0.00    -0.248 NA
ATOM     49  C   UNL A   1      41.768  30.734  35.389  1.00  0.00     0.031 C 
ATOM     50  C   UNL A   1      44.455  26.981  31.446  1.00  0.00     0.029 A 
ATOM     51  C   UNL A   1      43.555  27.855  32.034  1.00  0.00     0.049 A 
ATOM     52  H   UNL A   1      41.673  28.498  31.328  1.00  0.00     0.167 HD
ATOM     53  C   UNL A   1      42.730  29.372  33.817  1.00  0.00     0.074 A 
ATOM     54  C   UNL A   1      42.859  30.045  35.093  1.00  0.00     0.031 C 
ATOM     55  C   UNL A   1      43.672  28.551  33.290  1.00  0.00     0.037 A 
BRANCH  42  56
ATOM     56  C   UNL A   1      42.183  26.194  27.770  1.00  0.00     0.064 A 
ATOM     57  C   UNL A   1      41.635  24.911  27.609  1.00  0.00     0.173 A 
ATOM     58  C   UNL A   1      43.085  26.645  26.794  1.00  0.00     0.173 A 
ATOM     59  F   UNL A   1      40.778  24.423  28.519  1.00  0.00    -0.203 F 
ATOM     60  C   UNL A   1      42.003  24.101  26.537  1.00  0.00     0.198 A 
ATOM     61  C   UNL A   1      43.420  25.847  25.703  1.00  0.00     0.198 A 
ATOM     62  F   UNL A   1      43.635  27.863  26.892  1.00  0.00    -0.203 F 
ATOM     63  F   UNL A   1      41.510  22.858  26.441  1.00  0.00    -0.200 F 
ATOM     64  C   UNL A   1      42.887  24.573  25.581  1.00  0.00     0.200 A 
ATOM     65  F   UNL A   1      44.265  26.310  24.770  1.00  0.00    -0.200 F 
ATOM     66  F   UNL A   1      43.232  23.796  24.544  1.00  0.00    -0.200 F 
ENDBRANCH  42  56
BRANCH  43  67
ATOM     67  C   UNL A   1      39.179  32.107  35.267  1.00  0.00     0.064 A 
ATOM     68  C   UNL A   1      38.431  31.555  36.317  1.00  0.00     0.173 A 
ATOM     69  C   UNL A   1      39.465  33.480  35.326  1.00  0.00     0.173 A 
ATOM     70  F   UNL A   1      38.117  30.251  36.301  1.00  0.00    -0.203 F 
ATOM     71  C   UNL A   1      37.960  32.346  37.362  1.00  0.00     0.198 A 
ATOM     72  C   UNL A   1      39.022  34.264  36.390  1.00  0.00     0.198 A 
ATOM     73  F   UNL A   1      40.186  34.058  34.354  1.00  0.00    -0.203 F 
ATOM     74  F   UNL A   1      37.196  31.802  38.320  1.00  0.00    -0.200 F 
ATOM     75  C   UNL A   1      38.260  33.699  37.400  1.00  0.00     0.200 A 
ATOM     76  F   UNL A   1      39.331  35.567  36.433  1.00  0.00    -0.200 F 
ATOM     77  F   UNL A   1      37.807  34.460  38.406  1.00  0.00    -0.200 F 
ENDBRANCH  43  67
BRANCH  55  78
ATOM     78  C   UNL A   1      44.949  28.382  34.061  1.00  0.00     0.064 A 
ATOM     79  C   UNL A   1      45.119  27.357  35.003  1.00  0.00     0.173 A 
ATOM     80  C   UNL A   1      46.032  29.244  33.825  1.00  0.00     0.173 A 
ATOM     81  F   UNL A   1      44.110  26.515  35.274  1.00  0.00    -0.203 F 
ATOM     82  C   UNL A   1      46.313  27.224  35.706  1.00  0.00     0.198 A 
ATOM     83  C   UNL A   1      47.236  29.085  34.503  1.00  0.00     0.198 A 
ATOM     84  F   UNL A   1      45.926  30.235  32.926  1.00  0.00    -0.203 F 
ATOM     85  F   UNL A   1      46.432  26.274  36.644  1.00  0.00    -0.200 F 
ATOM     86  C   UNL A   1      47.372  28.082  35.450  1.00  0.00     0.200 A 
ATOM     87  F   UNL A   1      48.264  29.903  34.242  1.00  0.00    -0.200 F 
ATOM     88  F   UNL A   1      48.523  27.947  36.124  1.00  0.00    -0.200 F 
ENDBRANCH  55  78
ENDBRANCH  29  30
ENDBRANCH  21  24
ENDBRANCH  19  20
ENDBRANCH   1  19
TORSDOF 11
ENDMDL
MODEL 3
REMARK VINA RESULT:     -12.1      3.997      6.852
REMARK SMILES CC/C(C(=O)NCCCNC(=O)c1ccc(-c2c3nc(c(-c4c(F)c(F)c(F)c(F)c4F)c4ccc([nH]4)c(-c4c(F)c(F)c(F)c(F)c4F)c4nc(c(-c5c(F)c(F)c(F)c(F)c5F)c5ccc2[nH]5)C=C4)C=C3)cc1)=C1\CCc2ccccc21
REMARK SMILES IDX 8 1 7 2 6 3 4 4 5 5 3 7 76 8 77 9 84 10 78 11 79 12 83 13
REMARK SMILES IDX 80 14 82 15 81 16 2 17 1 18 9 19 10 20 11 21 12 23 13 24
REMARK SMILES IDX 14 25 75 26 15 27 74 28 16 29 17 30 18 31 68 32 19 33 73 34
REMARK SMILES IDX 67 35 69 36 20 37 72 38 66 39 65 40 21 42 53 43 33 44 52 45
REMARK SMILES IDX 34 46 37 47 51 48 70 49 35 50 36 51 50 53 71 54 38 55 22 56
REMARK SMILES IDX 23 57 31 58 24 59 25 60 29 61 32 62 26 63 27 64 30 65 28 66
REMARK SMILES IDX 54 67 55 68 63 69 56 70 57 71 61 72 64 73 58 74 59 75 62 76
REMARK SMILES IDX 60 77 39 78 40 79 48 80 41 81 42 82 46 83 49 84 43 85 44 86
REMARK SMILES IDX 47 87 45 88
REMARK H PARENT 6 6 10 22 69 41 37 52
REMARK Flexibility Score: inf
ROOT
ATOM      1  C   UNL A   1      35.160  22.360  26.246  1.00  0.00     0.042 C 
ENDROOT
BRANCH   1   2
ATOM      2  C   UNL A   1      34.168  22.895  27.281  1.00  0.00     0.118 C 
BRANCH   2   3
ATOM      3  N   UNL A   1      32.794  22.675  26.849  1.00  0.00    -0.352 N 
ATOM      4  C   UNL A   1      31.894  23.661  26.537  1.00  0.00     0.247 C 
ATOM      5  O   UNL A   1      30.908  23.786  27.265  1.00  0.00    -0.270 OA
ATOM      6  H   UNL A   1      32.488  21.742  26.776  1.00  0.00     0.163 HD
BRANCH   4   7
ATOM      7  C   UNL A   1      31.877  24.218  25.128  1.00  0.00     0.020 C 
ATOM      8  C   UNL A   1      32.156  25.495  24.778  1.00  0.00    -0.031 C 
ATOM      9  C   UNL A   1      32.382  26.028  23.372  1.00  0.00     0.041 C 
ATOM     10  C   UNL A   1      32.475  26.670  25.606  1.00  0.00    -0.019 A 
ATOM     11  C   UNL A   1      33.519  27.050  23.495  1.00  0.00     0.041 C 
ATOM     12  C   UNL A   1      33.359  27.498  24.907  1.00  0.00    -0.040 A 
ATOM     13  C   UNL A   1      31.991  27.090  26.828  1.00  0.00     0.009 A 
ATOM     14  C   UNL A   1      33.968  28.593  25.502  1.00  0.00     0.004 A 
ATOM     15  C   UNL A   1      32.577  28.210  27.441  1.00  0.00     0.001 A 
ATOM     16  C   UNL A   1      33.596  28.926  26.801  1.00  0.00     0.000 A 
BRANCH   7  17
ATOM     17  C   UNL A   1      31.443  23.071  24.204  1.00  0.00     0.038 C 
ATOM     18  C   UNL A   1      32.436  22.086  23.603  1.00  0.00     0.009 C 
ENDBRANCH   7  17
ENDBRANCH   4   7
ENDBRANCH   2   3
ENDBRANCH   1   2
BRANCH   1  19
ATOM     19  C   UNL A   1      36.396  23.205  26.008  1.00  0.00     0.118 C 
BRANCH  19  20
ATOM     20  N   UNL A   1      37.639  22.451  25.981  1.00  0.00    -0.352 N 
ATOM     21  C   UNL A   1      38.932  22.749  26.330  1.00  0.00     0.251 C 
ATOM     22  H   UNL A   1      37.531  21.535  25.641  1.00  0.00     0.163 HD
ATOM     23  O   UNL A   1      39.792  21.887  26.129  1.00  0.00    -0.269 OA
BRANCH  21  24
ATOM     24  C   UNL A   1      39.349  24.055  26.901  1.00  0.00     0.039 A 
ATOM     25  C   UNL A   1      39.978  24.980  26.053  1.00  0.00     0.014 A 
ATOM     26  C   UNL A   1      39.199  24.386  28.246  1.00  0.00     0.014 A 
ATOM     27  C   UNL A   1      40.398  26.223  26.540  1.00  0.00     0.010 A 
ATOM     28  C   UNL A   1      39.476  25.674  28.694  1.00  0.00     0.010 A 
ATOM     29  C   UNL A   1      40.117  26.597  27.860  1.00  0.00    -0.014 A 
BRANCH  29  30
ATOM     30  C   UNL A   1      40.543  27.908  28.421  1.00  0.00     0.031 A 
ATOM     31  C   UNL A   1      41.988  28.124  28.803  1.00  0.00     0.074 A 
ATOM     32  C   UNL A   1      39.634  28.874  28.652  1.00  0.00     0.049 A 
ATOM     33  N   UNL A   1      42.542  29.132  29.430  1.00  0.00    -0.248 NA
ATOM     34  C   UNL A   1      42.930  27.039  28.477  1.00  0.00     0.031 C 
ATOM     35  C   UNL A   1      38.199  28.772  28.377  1.00  0.00     0.029 A 
ATOM     36  N   UNL A   1      39.779  30.131  29.186  1.00  0.00    -0.354 N 
ATOM     37  C   UNL A   1      43.879  28.787  29.592  1.00  0.00     0.074 A 
ATOM     38  C   UNL A   1      44.037  27.447  29.076  1.00  0.00     0.031 C 
ATOM     39  C   UNL A   1      37.601  29.924  28.720  1.00  0.00     0.029 A 
ATOM     40  C   UNL A   1      38.598  30.828  29.285  1.00  0.00     0.049 A 
ATOM     41  H   UNL A   1      40.646  30.498  29.471  1.00  0.00     0.167 HD
ATOM     42  C   UNL A   1      44.894  29.532  30.091  1.00  0.00     0.037 A 
ATOM     43  C   UNL A   1      38.348  32.052  29.787  1.00  0.00     0.037 A 
ATOM     44  C   UNL A   1      44.740  30.880  30.567  1.00  0.00     0.049 A 
ATOM     45  C   UNL A   1      39.494  32.866  30.325  1.00  0.00     0.074 A 
ATOM     46  C   UNL A   1      45.706  31.741  31.056  1.00  0.00     0.029 A 
ATOM     47  N   UNL A   1      43.535  31.568  30.603  1.00  0.00    -0.354 N 
ATOM     48  N   UNL A   1      40.762  32.546  30.431  1.00  0.00    -0.248 NA
ATOM     49  C   UNL A   1      39.179  34.220  30.800  1.00  0.00     0.031 C 
ATOM     50  C   UNL A   1      45.079  32.935  31.427  1.00  0.00     0.029 A 
ATOM     51  C   UNL A   1      43.734  32.841  31.110  1.00  0.00     0.049 A 
ATOM     52  H   UNL A   1      42.668  31.204  30.310  1.00  0.00     0.167 HD
ATOM     53  C   UNL A   1      41.398  33.666  30.948  1.00  0.00     0.074 A 
ATOM     54  C   UNL A   1      40.379  34.680  31.119  1.00  0.00     0.031 C 
ATOM     55  C   UNL A   1      42.708  33.842  31.252  1.00  0.00     0.037 A 
BRANCH  42  56
ATOM     56  C   UNL A   1      46.265  28.912  30.123  1.00  0.00     0.064 A 
ATOM     57  C   UNL A   1      47.152  29.032  29.041  1.00  0.00     0.173 A 
ATOM     58  C   UNL A   1      46.710  28.214  31.256  1.00  0.00     0.173 A 
ATOM     59  F   UNL A   1      46.774  29.677  27.926  1.00  0.00    -0.203 F 
ATOM     60  C   UNL A   1      48.415  28.448  29.078  1.00  0.00     0.198 A 
ATOM     61  C   UNL A   1      47.989  27.665  31.304  1.00  0.00     0.198 A 
ATOM     62  F   UNL A   1      45.909  28.072  32.322  1.00  0.00    -0.203 F 
ATOM     63  F   UNL A   1      49.219  28.527  28.007  1.00  0.00    -0.200 F 
ATOM     64  C   UNL A   1      48.836  27.773  30.213  1.00  0.00     0.200 A 
ATOM     65  F   UNL A   1      48.401  27.025  32.408  1.00  0.00    -0.200 F 
ATOM     66  F   UNL A   1      50.057  27.220  30.250  1.00  0.00    -0.200 F 
ENDBRANCH  42  56
BRANCH  43  67
ATOM     67  C   UNL A   1      36.961  32.590  29.787  1.00  0.00     0.064 A 
ATOM     68  C   UNL A   1      36.450  33.276  28.675  1.00  0.00     0.173 A 
ATOM     69  C   UNL A   1      36.121  32.444  30.902  1.00  0.00     0.173 A 
ATOM     70  F   UNL A   1      37.218  33.456  27.590  1.00  0.00    -0.203 F 
ATOM     71  C   UNL A   1      35.169  33.822  28.689  1.00  0.00     0.198 A 
ATOM     72  C   UNL A   1      34.827  32.961  30.902  1.00  0.00     0.198 A 
ATOM     73  F   UNL A   1      36.555  31.788  31.987  1.00  0.00    -0.203 F 
ATOM     74  F   UNL A   1      34.730  34.524  27.636  1.00  0.00    -0.200 F 
ATOM     75  C   UNL A   1      34.356  33.660  29.801  1.00  0.00     0.200 A 
ATOM     76  F   UNL A   1      34.038  32.785  31.971  1.00  0.00    -0.200 F 
ATOM     77  F   UNL A   1      33.123  34.185  29.815  1.00  0.00    -0.200 F 
ENDBRANCH  43  67
BRANCH  55  78
ATOM     78  C   UNL A   1      43.124  35.199  31.744  1.00  0.00     0.064 A 
ATOM     79  C   UNL A   1      43.619  36.184  30.878  1.00  0.00     0.173 A 
ATOM     80  C   UNL A   1      42.993  35.524  33.104  1.00  0.00     0.173 A 
ATOM     81  F   UNL A   1      43.775  35.919  29.572  1.00  0.00    -0.203 F 
ATOM     82  C   UNL A   1      44.000  37.433  31.360  1.00  0.00     0.198 A 
ATOM     83  C   UNL A   1      43.340  36.786  33.575  1.00  0.00     0.198 A 
ATOM     84  F   UNL A   1      42.515  34.621  33.973  1.00  0.00    -0.203 F 
ATOM     85  F   UNL A   1      44.525  38.339  30.523  1.00  0.00    -0.200 F 
ATOM     86  C   UNL A   1      43.853  37.736  32.706  1.00  0.00     0.200 A 
ATOM     87  F   UNL A   1      43.181  37.082  34.873  1.00  0.00    -0.200 F 
ATOM     88  F   UNL A   1      44.214  38.942  33.166  1.00  0.00    -0.200 F 
ENDBRANCH  55  78
ENDBRANCH  29  30
ENDBRANCH  21  24
ENDBRANCH  19  20
ENDBRANCH   1  19
TORSDOF 11
ENDMDL
