MODEL 1
REMARK VINA RESULT:     -13.0      0.000      0.000
REMARK SMILES COc1cc(OC)cc(-c2cc3nc(C)c(CCC(=O)NCCCNC(=O)c4ccc(-c5c6nc(c(-c7c(F)c(F)c(F)c(F)c7F)c7ccc([nH]7)c(-c7c(F)c(F)c(F)c(F)c7F)c7nc(c(-c8c(F)c(F)c(F)c(F)c8F)c8ccc5[nH]8)C=C7)C=C6)cc4)c(C)n3n2)c1
REMARK SMILES IDX 22 1 21 2 19 3 20 4 18 6 17 7 16 8 10 9 11 10 94 11 12 12
REMARK SMILES IDX 93 13 13 14 91 15 14 16 92 17 15 18 9 19 3 20 4 21 95 22
REMARK SMILES IDX 5 23 8 24 2 25 1 26 6 27 7 28 23 29 24 30 25 31 26 32 27 34
REMARK SMILES IDX 28 35 29 36 90 37 30 38 89 39 31 40 32 41 33 42 83 43 34 44
REMARK SMILES IDX 88 45 82 46 84 47 35 48 87 49 81 50 80 51 36 53 68 54 48 55
REMARK SMILES IDX 67 56 49 57 52 58 66 59 85 60 50 61 51 62 65 64 86 65 53 66
REMARK SMILES IDX 37 67 38 68 46 69 39 70 40 71 44 72 47 73 41 74 42 75 45 76
REMARK SMILES IDX 43 77 69 78 70 79 78 80 71 81 72 82 76 83 79 84 73 85 74 86
REMARK SMILES IDX 77 87 75 88 54 89 55 90 63 91 56 92 57 93 61 94 64 95 58 96
REMARK SMILES IDX 59 97 62 98 60 99
REMARK H PARENT 21 5 25 33 84 52 52 63
REMARK Flexibility Score: inf
ROOT
ATOM      1  C   UNL A   1      31.496  29.590  25.670  1.00  0.00     0.117 C 
ENDROOT
BRANCH   1   2
ATOM      2  N   UNL A   1      30.785  30.396  24.686  1.00  0.00    -0.356 N 
ATOM      3  C   UNL A   1      30.082  30.022  23.581  1.00  0.00     0.220 C 
ATOM      4  O   UNL A   1      29.828  30.881  22.737  1.00  0.00    -0.275 OA
ATOM      5  H   UNL A   1      30.820  31.368  24.845  1.00  0.00     0.163 HD
BRANCH   3   6
ATOM      6  C   UNL A   1      29.585  28.598  23.425  1.00  0.00     0.105 C 
BRANCH   6   7
ATOM      7  C   UNL A   1      30.398  27.780  22.401  1.00  0.00     0.049 C 
BRANCH   7   8
ATOM      8  C   UNL A   1      31.437  26.903  23.068  1.00  0.00    -0.005 A 
ATOM      9  C   UNL A   1      33.346  23.020  24.210  1.00  0.00     0.095 A 
ATOM     10  C   UNL A   1      34.242  23.974  23.681  1.00  0.00     0.080 A 
ATOM     11  N   UNL A   1      32.160  23.581  24.495  1.00  0.00    -0.166 NA
ATOM     12  C   UNL A   1      33.528  25.141  23.572  1.00  0.00     0.156 A 
ATOM     13  N   UNL A   1      32.234  24.855  24.010  1.00  0.00    -0.219 N 
ATOM     14  N   UNL A   1      33.880  26.366  23.096  1.00  0.00    -0.234 NA
ATOM     15  C   UNL A   1      31.179  25.770  23.771  1.00  0.00     0.046 A 
ATOM     16  C   UNL A   1      32.913  27.207  22.866  1.00  0.00     0.045 A 
ATOM     17  C   UNL A   1      29.795  25.345  24.174  1.00  0.00     0.067 C 
ATOM     18  C   UNL A   1      33.342  28.598  22.443  1.00  0.00     0.067 C 
BRANCH   9  19
ATOM     19  C   UNL A   1      33.641  21.615  24.503  1.00  0.00     0.009 A 
ATOM     20  C   UNL A   1      32.959  19.307  24.821  1.00  0.00     0.123 A 
ATOM     21  C   UNL A   1      34.300  18.935  24.922  1.00  0.00     0.092 A 
ATOM     22  C   UNL A   1      32.622  20.648  24.606  1.00  0.00     0.057 A 
ATOM     23  C   UNL A   1      35.317  19.884  24.821  1.00  0.00     0.123 A 
ATOM     24  C   UNL A   1      34.986  21.224  24.613  1.00  0.00     0.057 A 
BRANCH  20  25
ATOM     25  O   UNL A   1      32.058  18.277  24.795  1.00  0.00    -0.497 OA
ATOM     26  C   UNL A   1      32.548  17.027  25.270  1.00  0.00     0.278 C 
ENDBRANCH  20  25
BRANCH  23  27
ATOM     27  O   UNL A   1      36.582  19.374  24.918  1.00  0.00    -0.497 OA
ATOM     28  C   UNL A   1      37.655  20.307  24.917  1.00  0.00     0.278 C 
ENDBRANCH  23  27
ENDBRANCH   9  19
ENDBRANCH   7   8
ENDBRANCH   6   7
ENDBRANCH   3   6
ENDBRANCH   1   2
BRANCH   1  29
ATOM     29  C   UNL A   1      32.952  29.998  25.788  1.00  0.00     0.042 C 
BRANCH  29  30
ATOM     30  C   UNL A   1      33.252  30.811  27.027  1.00  0.00     0.118 C 
BRANCH  30  31
ATOM     31  N   UNL A   1      32.641  32.120  27.016  1.00  0.00    -0.352 N 
ATOM     32  C   UNL A   1      32.935  33.211  27.803  1.00  0.00     0.251 C 
ATOM     33  H   UNL A   1      31.919  32.249  26.361  1.00  0.00     0.163 HD
ATOM     34  O   UNL A   1      32.137  34.142  27.826  1.00  0.00    -0.269 OA
BRANCH  32  35
ATOM     35  C   UNL A   1      34.211  33.298  28.564  1.00  0.00     0.039 A 
ATOM     36  C   UNL A   1      35.275  34.041  28.033  1.00  0.00     0.014 A 
ATOM     37  C   UNL A   1      34.435  32.529  29.706  1.00  0.00     0.014 A 
ATOM     38  C   UNL A   1      36.553  33.885  28.539  1.00  0.00     0.010 A 
ATOM     39  C   UNL A   1      35.640  32.539  30.349  1.00  0.00     0.010 A 
ATOM     40  C   UNL A   1      36.709  33.035  29.624  1.00  0.00    -0.014 A 
BRANCH  40  41
ATOM     41  C   UNL A   1      37.948  32.308  29.810  1.00  0.00     0.031 A 
ATOM     42  C   UNL A   1      37.989  30.952  29.234  1.00  0.00     0.074 A 
ATOM     43  C   UNL A   1      39.029  33.019  30.217  1.00  0.00     0.049 A 
ATOM     44  N   UNL A   1      38.338  29.853  29.813  1.00  0.00    -0.248 NA
ATOM     45  C   UNL A   1      37.488  30.777  27.859  1.00  0.00     0.031 C 
ATOM     46  C   UNL A   1      39.111  34.468  30.485  1.00  0.00     0.029 A 
ATOM     47  N   UNL A   1      40.327  32.635  30.322  1.00  0.00    -0.354 N 
ATOM     48  C   UNL A   1      38.280  28.878  28.823  1.00  0.00     0.074 A 
ATOM     49  C   UNL A   1      37.581  29.458  27.710  1.00  0.00     0.031 C 
ATOM     50  C   UNL A   1      40.401  34.862  30.474  1.00  0.00     0.029 A 
ATOM     51  C   UNL A   1      41.236  33.687  30.345  1.00  0.00     0.049 A 
ATOM     52  H   UNL A   1      40.601  31.691  30.377  1.00  0.00     0.167 HD
ATOM     53  C   UNL A   1      39.053  27.763  28.895  1.00  0.00     0.037 A 
ATOM     54  C   UNL A   1      42.577  33.587  30.174  1.00  0.00     0.037 A 
ATOM     55  C   UNL A   1      39.481  27.508  30.247  1.00  0.00     0.049 A 
ATOM     56  C   UNL A   1      42.935  32.161  30.393  1.00  0.00     0.074 A 
ATOM     57  C   UNL A   1      38.818  27.294  31.440  1.00  0.00     0.029 A 
ATOM     58  N   UNL A   1      40.773  27.819  30.598  1.00  0.00    -0.354 N 
ATOM     59  N   UNL A   1      42.835  31.556  31.547  1.00  0.00    -0.248 NA
ATOM     60  C   UNL A   1      42.942  31.286  29.229  1.00  0.00     0.031 C 
ATOM     61  C   UNL A   1      39.600  27.964  32.427  1.00  0.00     0.029 A 
ATOM     62  C   UNL A   1      40.719  28.498  31.789  1.00  0.00     0.049 A 
ATOM     63  H   UNL A   1      41.586  27.595  30.090  1.00  0.00     0.167 HD
ATOM     64  C   UNL A   1      42.362  30.285  31.244  1.00  0.00     0.074 A 
ATOM     65  C   UNL A   1      42.520  30.154  29.798  1.00  0.00     0.031 C 
ATOM     66  C   UNL A   1      41.615  29.575  32.141  1.00  0.00     0.037 A 
BRANCH  53  67
ATOM     67  C   UNL A   1      39.710  27.134  27.691  1.00  0.00     0.064 A 
ATOM     68  C   UNL A   1      39.712  25.733  27.572  1.00  0.00     0.173 A 
ATOM     69  C   UNL A   1      40.582  27.820  26.811  1.00  0.00     0.173 A 
ATOM     70  F   UNL A   1      38.932  24.980  28.363  1.00  0.00    -0.203 F 
ATOM     71  C   UNL A   1      40.582  25.068  26.705  1.00  0.00     0.198 A 
ATOM     72  C   UNL A   1      41.406  27.154  25.907  1.00  0.00     0.198 A 
ATOM     73  F   UNL A   1      40.761  29.144  26.859  1.00  0.00    -0.203 F 
ATOM     74  F   UNL A   1      40.641  23.729  26.724  1.00  0.00    -0.200 F 
ATOM     75  C   UNL A   1      41.434  25.778  25.880  1.00  0.00     0.200 A 
ATOM     76  F   UNL A   1      42.232  27.864  25.124  1.00  0.00    -0.200 F 
ATOM     77  F   UNL A   1      42.315  25.142  25.098  1.00  0.00    -0.200 F 
ENDBRANCH  53  67
BRANCH  54  78
ATOM     78  C   UNL A   1      43.465  34.558  29.491  1.00  0.00     0.064 A 
ATOM     79  C   UNL A   1      43.739  34.461  28.117  1.00  0.00     0.173 A 
ATOM     80  C   UNL A   1      43.879  35.748  30.125  1.00  0.00     0.173 A 
ATOM     81  F   UNL A   1      43.334  33.387  27.425  1.00  0.00    -0.203 F 
ATOM     82  C   UNL A   1      44.383  35.493  27.423  1.00  0.00     0.198 A 
ATOM     83  C   UNL A   1      44.531  36.772  29.434  1.00  0.00     0.198 A 
ATOM     84  F   UNL A   1      43.581  35.983  31.411  1.00  0.00    -0.203 F 
ATOM     85  F   UNL A   1      44.583  35.387  26.101  1.00  0.00    -0.200 F 
ATOM     86  C   UNL A   1      44.774  36.649  28.080  1.00  0.00     0.200 A 
ATOM     87  F   UNL A   1      44.868  37.898  30.078  1.00  0.00    -0.200 F 
ATOM     88  F   UNL A   1      45.344  37.656  27.406  1.00  0.00    -0.200 F 
ENDBRANCH  54  78
BRANCH  66  89
ATOM     89  C   UNL A   1      41.505  30.112  33.542  1.00  0.00     0.064 A 
ATOM     90  C   UNL A   1      42.476  29.893  34.536  1.00  0.00     0.173 A 
ATOM     91  C   UNL A   1      40.474  31.010  33.843  1.00  0.00     0.173 A 
ATOM     92  F   UNL A   1      43.549  29.136  34.290  1.00  0.00    -0.203 F 
ATOM     93  C   UNL A   1      42.394  30.507  35.784  1.00  0.00     0.198 A 
ATOM     94  C   UNL A   1      40.412  31.651  35.078  1.00  0.00     0.198 A 
ATOM     95  F   UNL A   1      39.553  31.310  32.914  1.00  0.00    -0.203 F 
ATOM     96  F   UNL A   1      43.332  30.272  36.713  1.00  0.00    -0.200 F 
ATOM     97  C   UNL A   1      41.364  31.393  36.051  1.00  0.00     0.200 A 
ATOM     98  F   UNL A   1      39.443  32.547  35.315  1.00  0.00    -0.200 F 
ATOM     99  F   UNL A   1      41.307  32.020  37.234  1.00  0.00    -0.200 F 
ENDBRANCH  66  89
ENDBRANCH  40  41
ENDBRANCH  32  35
ENDBRANCH  30  31
ENDBRANCH  29  30
ENDBRANCH   1  29
TORSDOF 15
ENDMDL
MODEL 2
REMARK VINA RESULT:     -12.9      5.252      9.722
REMARK SMILES COc1cc(OC)cc(-c2cc3nc(C)c(CCC(=O)NCCCNC(=O)c4ccc(-c5c6nc(c(-c7c(F)c(F)c(F)c(F)c7F)c7ccc([nH]7)c(-c7c(F)c(F)c(F)c(F)c7F)c7nc(c(-c8c(F)c(F)c(F)c(F)c8F)c8ccc5[nH]8)C=C7)C=C6)cc4)c(C)n3n2)c1
REMARK SMILES IDX 22 1 21 2 19 3 20 4 18 6 17 7 16 8 10 9 11 10 94 11 12 12
REMARK SMILES IDX 93 13 13 14 91 15 14 16 92 17 15 18 9 19 3 20 4 21 95 22
REMARK SMILES IDX 5 23 8 24 2 25 1 26 6 27 7 28 23 29 24 30 25 31 26 32 27 34
REMARK SMILES IDX 28 35 29 36 90 37 30 38 89 39 31 40 32 41 33 42 83 43 34 44
REMARK SMILES IDX 88 45 82 46 84 47 35 48 87 49 81 50 80 51 36 53 68 54 48 55
REMARK SMILES IDX 67 56 49 57 52 58 66 59 85 60 50 61 51 62 65 64 86 65 53 66
REMARK SMILES IDX 37 67 38 68 46 69 39 70 40 71 44 72 47 73 41 74 42 75 45 76
REMARK SMILES IDX 43 77 69 78 70 79 78 80 71 81 72 82 76 83 79 84 73 85 74 86
REMARK SMILES IDX 77 87 75 88 54 89 55 90 63 91 56 92 57 93 61 94 64 95 58 96
REMARK SMILES IDX 59 97 62 98 60 99
REMARK H PARENT 21 5 25 33 84 52 52 63
REMARK Flexibility Score: inf
ROOT
ATOM      1  C   UNL A   1      44.396  27.121  25.664  1.00  0.00     0.117 C 
ENDROOT
BRANCH   1   2
ATOM      2  N   UNL A   1      45.271  28.194  25.210  1.00  0.00    -0.356 N 
ATOM      3  C   UNL A   1      46.315  28.806  25.834  1.00  0.00     0.220 C 
ATOM      4  O   UNL A   1      46.709  29.883  25.386  1.00  0.00    -0.275 OA
ATOM      5  H   UNL A   1      45.075  28.532  24.305  1.00  0.00     0.163 HD
BRANCH   3   6
ATOM      6  C   UNL A   1      47.001  28.150  27.017  1.00  0.00     0.105 C 
BRANCH   6   7
ATOM      7  C   UNL A   1      48.169  27.230  26.607  1.00  0.00     0.049 C 
BRANCH   7   8
ATOM      8  C   UNL A   1      47.685  25.893  26.088  1.00  0.00    -0.005 A 
ATOM      9  C   UNL A   1      44.741  22.562  25.569  1.00  0.00     0.095 A 
ATOM     10  C   UNL A   1      45.331  23.008  24.367  1.00  0.00     0.080 A 
ATOM     11  N   UNL A   1      45.388  23.061  26.635  1.00  0.00    -0.166 NA
ATOM     12  C   UNL A   1      46.326  23.879  24.735  1.00  0.00     0.156 A 
ATOM     13  N   UNL A   1      46.293  23.949  26.129  1.00  0.00    -0.219 N 
ATOM     14  N   UNL A   1      47.188  24.623  23.991  1.00  0.00    -0.234 NA
ATOM     15  C   UNL A   1      47.008  24.964  26.812  1.00  0.00     0.046 A 
ATOM     16  C   UNL A   1      47.841  25.562  24.612  1.00  0.00     0.045 A 
ATOM     17  C   UNL A   1      46.836  25.043  28.303  1.00  0.00     0.067 C 
ATOM     18  C   UNL A   1      48.874  26.300  23.783  1.00  0.00     0.067 C 
BRANCH   9  19
ATOM     19  C   UNL A   1      43.627  21.620  25.696  1.00  0.00     0.009 A 
ATOM     20  C   UNL A   1      42.722  19.367  25.727  1.00  0.00     0.123 A 
ATOM     21  C   UNL A   1      41.479  19.882  26.095  1.00  0.00     0.092 A 
ATOM     22  C   UNL A   1      43.805  20.232  25.530  1.00  0.00     0.057 A 
ATOM     23  C   UNL A   1      41.292  21.254  26.262  1.00  0.00     0.123 A 
ATOM     24  C   UNL A   1      42.366  22.122  26.060  1.00  0.00     0.057 A 
BRANCH  20  25
ATOM     25  O   UNL A   1      42.823  18.002  25.730  1.00  0.00    -0.497 OA
ATOM     26  C   UNL A   1      43.164  17.418  26.983  1.00  0.00     0.278 C 
ENDBRANCH  20  25
BRANCH  23  27
ATOM     27  O   UNL A   1      40.029  21.613  26.644  1.00  0.00    -0.497 OA
ATOM     28  C   UNL A   1      38.968  21.281  25.757  1.00  0.00     0.278 C 
ENDBRANCH  23  27
ENDBRANCH   9  19
ENDBRANCH   7   8
ENDBRANCH   6   7
ENDBRANCH   3   6
ENDBRANCH   1   2
BRANCH   1  29
ATOM     29  C   UNL A   1      43.413  27.601  26.714  1.00  0.00     0.042 C 
BRANCH  29  30
ATOM     30  C   UNL A   1      42.991  26.522  27.685  1.00  0.00     0.118 C 
BRANCH  30  31
ATOM     31  N   UNL A   1      41.936  25.675  27.178  1.00  0.00    -0.352 N 
ATOM     32  C   UNL A   1      40.679  25.465  27.698  1.00  0.00     0.251 C 
ATOM     33  H   UNL A   1      42.144  25.182  26.352  1.00  0.00     0.163 HD
ATOM     34  O   UNL A   1      40.027  24.517  27.275  1.00  0.00    -0.269 OA
BRANCH  32  35
ATOM     35  C   UNL A   1      40.091  26.390  28.705  1.00  0.00     0.039 A 
ATOM     36  C   UNL A   1      38.933  27.110  28.378  1.00  0.00     0.014 A 
ATOM     37  C   UNL A   1      40.749  26.686  29.898  1.00  0.00     0.014 A 
ATOM     38  C   UNL A   1      38.549  28.195  29.145  1.00  0.00     0.010 A 
ATOM     39  C   UNL A   1      40.255  27.608  30.777  1.00  0.00     0.010 A 
ATOM     40  C   UNL A   1      39.306  28.478  30.272  1.00  0.00    -0.014 A 
BRANCH  40  41
ATOM     41  C   UNL A   1      39.434  29.843  30.742  1.00  0.00     0.031 A 
ATOM     42  C   UNL A   1      40.722  30.501  30.454  1.00  0.00     0.074 A 
ATOM     43  C   UNL A   1      38.298  30.476  31.122  1.00  0.00     0.049 A 
ATOM     44  N   UNL A   1      41.495  31.127  31.276  1.00  0.00    -0.248 NA
ATOM     45  C   UNL A   1      41.269  30.369  29.092  1.00  0.00     0.031 C 
ATOM     46  C   UNL A   1      36.918  29.952  31.106  1.00  0.00     0.029 A 
ATOM     47  N   UNL A   1      38.104  31.780  31.452  1.00  0.00    -0.354 N 
ATOM     48  C   UNL A   1      42.533  31.628  30.499  1.00  0.00     0.074 A 
ATOM     49  C   UNL A   1      42.444  30.982  29.220  1.00  0.00     0.031 C 
ATOM     50  C   UNL A   1      36.040  30.973  31.167  1.00  0.00     0.029 A 
ATOM     51  C   UNL A   1      36.781  32.200  31.372  1.00  0.00     0.049 A 
ATOM     52  H   UNL A   1      38.838  32.376  31.724  1.00  0.00     0.167 HD
ATOM     53  C   UNL A   1      43.218  32.739  30.880  1.00  0.00     0.037 A 
ATOM     54  C   UNL A   1      36.350  33.485  31.382  1.00  0.00     0.037 A 
ATOM     55  C   UNL A   1      43.090  32.973  32.296  1.00  0.00     0.049 A 
ATOM     56  C   UNL A   1      37.464  34.310  31.919  1.00  0.00     0.074 A 
ATOM     57  C   UNL A   1      43.393  32.231  33.423  1.00  0.00     0.029 A 
ATOM     58  N   UNL A   1      42.238  33.960  32.726  1.00  0.00    -0.354 N 
ATOM     59  N   UNL A   1      37.895  34.235  33.150  1.00  0.00    -0.248 NA
ATOM     60  C   UNL A   1      38.408  34.865  30.960  1.00  0.00     0.031 C 
ATOM     61  C   UNL A   1      42.336  32.502  34.341  1.00  0.00     0.029 A 
ATOM     62  C   UNL A   1      41.485  33.432  33.745  1.00  0.00     0.049 A 
ATOM     63  H   UNL A   1      42.179  34.877  32.372  1.00  0.00     0.167 HD
ATOM     64  C   UNL A   1      39.276  34.344  33.052  1.00  0.00     0.074 A 
ATOM     65  C   UNL A   1      39.527  34.806  31.689  1.00  0.00     0.031 C 
ATOM     66  C   UNL A   1      40.100  33.770  33.978  1.00  0.00     0.037 A 
BRANCH  53  67
ATOM     67  C   UNL A   1      43.681  33.797  29.909  1.00  0.00     0.064 A 
ATOM     68  C   UNL A   1      45.034  34.183  29.920  1.00  0.00     0.173 A 
ATOM     69  C   UNL A   1      42.813  34.646  29.182  1.00  0.00     0.173 A 
ATOM     70  F   UNL A   1      45.945  33.459  30.588  1.00  0.00    -0.203 F 
ATOM     71  C   UNL A   1      45.466  35.371  29.327  1.00  0.00     0.198 A 
ATOM     72  C   UNL A   1      43.260  35.800  28.542  1.00  0.00     0.198 A 
ATOM     73  F   UNL A   1      41.489  34.466  29.147  1.00  0.00    -0.203 F 
ATOM     74  F   UNL A   1      46.738  35.763  29.479  1.00  0.00    -0.200 F 
ATOM     75  C   UNL A   1      44.578  36.183  28.646  1.00  0.00     0.200 A 
ATOM     76  F   UNL A   1      42.377  36.577  27.896  1.00  0.00    -0.200 F 
ATOM     77  F   UNL A   1      44.976  37.354  28.134  1.00  0.00    -0.200 F 
ENDBRANCH  53  67
BRANCH  54  78
ATOM     78  C   UNL A   1      35.204  34.049  30.627  1.00  0.00     0.064 A 
ATOM     79  C   UNL A   1      34.122  34.658  31.283  1.00  0.00     0.173 A 
ATOM     80  C   UNL A   1      35.256  34.215  29.228  1.00  0.00     0.173 A 
ATOM     81  F   UNL A   1      34.025  34.596  32.619  1.00  0.00    -0.203 F 
ATOM     82  C   UNL A   1      33.157  35.391  30.580  1.00  0.00     0.198 A 
ATOM     83  C   UNL A   1      34.287  34.935  28.527  1.00  0.00     0.198 A 
ATOM     84  F   UNL A   1      36.297  33.755  28.517  1.00  0.00    -0.203 F 
ATOM     85  F   UNL A   1      32.166  36.002  31.246  1.00  0.00    -0.200 F 
ATOM     86  C   UNL A   1      33.243  35.533  29.204  1.00  0.00     0.200 A 
ATOM     87  F   UNL A   1      34.406  35.094  27.201  1.00  0.00    -0.200 F 
ATOM     88  F   UNL A   1      32.347  36.275  28.539  1.00  0.00    -0.200 F 
ENDBRANCH  54  78
BRANCH  66  89
ATOM     89  C   UNL A   1      39.470  33.206  35.223  1.00  0.00     0.064 A 
ATOM     90  C   UNL A   1      39.131  33.987  36.343  1.00  0.00     0.173 A 
ATOM     91  C   UNL A   1      39.045  31.873  35.220  1.00  0.00     0.173 A 
ATOM     92  F   UNL A   1      39.403  35.295  36.376  1.00  0.00    -0.203 F 
ATOM     93  C   UNL A   1      38.440  33.446  37.426  1.00  0.00     0.198 A 
ATOM     94  C   UNL A   1      38.324  31.343  36.288  1.00  0.00     0.198 A 
ATOM     95  F   UNL A   1      39.282  31.095  34.153  1.00  0.00    -0.203 F 
ATOM     96  F   UNL A   1      38.137  34.215  38.483  1.00  0.00    -0.200 F 
ATOM     97  C   UNL A   1      38.030  32.125  37.394  1.00  0.00     0.200 A 
ATOM     98  F   UNL A   1      37.884  30.078  36.232  1.00  0.00    -0.200 F 
ATOM     99  F   UNL A   1      37.327  31.614  38.414  1.00  0.00    -0.200 F 
ENDBRANCH  66  89
ENDBRANCH  40  41
ENDBRANCH  32  35
ENDBRANCH  30  31
ENDBRANCH  29  30
ENDBRANCH   1  29
TORSDOF 15
ENDMDL
MODEL 3
REMARK VINA RESULT:     -12.8      3.215      4.970
REMARK SMILES COc1cc(OC)cc(-c2cc3nc(C)c(CCC(=O)NCCCNC(=O)c4ccc(-c5c6nc(c(-c7c(F)c(F)c(F)c(F)c7F)c7ccc([nH]7)c(-c7c(F)c(F)c(F)c(F)c7F)c7nc(c(-c8c(F)c(F)c(F)c(F)c8F)c8ccc5[nH]8)C=C7)C=C6)cc4)c(C)n3n2)c1
REMARK SMILES IDX 22 1 21 2 19 3 20 4 18 6 17 7 16 8 10 9 11 10 94 11 12 12
REMARK SMILES IDX 93 13 13 14 91 15 14 16 92 17 15 18 9 19 3 20 4 21 95 22
REMARK SMILES IDX 5 23 8 24 2 25 1 26 6 27 7 28 23 29 24 30 25 31 26 32 27 34
REMARK SMILES IDX 28 35 29 36 90 37 30 38 89 39 31 40 32 41 33 42 83 43 34 44
REMARK SMILES IDX 88 45 82 46 84 47 35 48 87 49 81 50 80 51 36 53 68 54 48 55
REMARK SMILES IDX 67 56 49 57 52 58 66 59 85 60 50 61 51 62 65 64 86 65 53 66
REMARK SMILES IDX 37 67 38 68 46 69 39 70 40 71 44 72 47 73 41 74 42 75 45 76
REMARK SMILES IDX 43 77 69 78 70 79 78 80 71 81 72 82 76 83 79 84 73 85 74 86
REMARK SMILES IDX 77 87 75 88 54 89 55 90 63 91 56 92 57 93 61 94 64 95 58 96
REMARK SMILES IDX 59 97 62 98 60 99
REMARK H PARENT 21 5 25 33 84 52 52 63
REMARK Flexibility Score: inf
ROOT
ATOM      1  C   UNL A   1      32.773  30.216  26.695  1.00  0.00     0.117 C 
ENDROOT
BRANCH   1   2
ATOM      2  N   UNL A   1      33.496  29.909  25.469  1.00  0.00    -0.356 N 
ATOM      3  C   UNL A   1      33.068  29.327  24.313  1.00  0.00     0.220 C 
ATOM      4  O   UNL A   1      33.916  28.895  23.533  1.00  0.00    -0.275 OA
ATOM      5  H   UNL A   1      34.448  30.162  25.476  1.00  0.00     0.163 HD
BRANCH   3   6
ATOM      6  C   UNL A   1      31.590  29.265  23.981  1.00  0.00     0.105 C 
BRANCH   6   7
ATOM      7  C   UNL A   1      31.301  28.588  22.625  1.00  0.00     0.049 C 
BRANCH   7   8
ATOM      8  C   UNL A   1      31.074  27.098  22.769  1.00  0.00    -0.005 A 
ATOM      9  C   UNL A   1      32.195  22.907  23.868  1.00  0.00     0.095 A 
ATOM     10  C   UNL A   1      30.938  23.319  24.359  1.00  0.00     0.080 A 
ATOM     11  N   UNL A   1      32.665  23.777  22.959  1.00  0.00    -0.166 NA
ATOM     12  C   UNL A   1      30.685  24.534  23.774  1.00  0.00     0.156 A 
ATOM     13  N   UNL A   1      31.791  24.826  22.975  1.00  0.00    -0.219 N 
ATOM     14  N   UNL A   1      29.640  25.395  23.909  1.00  0.00    -0.234 NA
ATOM     15  C   UNL A   1      31.970  26.129  22.447  1.00  0.00     0.046 A 
ATOM     16  C   UNL A   1      29.802  26.596  23.434  1.00  0.00     0.045 A 
ATOM     17  C   UNL A   1      33.239  26.396  21.688  1.00  0.00     0.067 C 
ATOM     18  C   UNL A   1      28.584  27.497  23.501  1.00  0.00     0.067 C 
BRANCH   9  19
ATOM     19  C   UNL A   1      32.901  21.669  24.208  1.00  0.00     0.009 A 
ATOM     20  C   UNL A   1      34.899  20.458  24.865  1.00  0.00     0.123 A 
ATOM     21  C   UNL A   1      34.141  19.293  24.988  1.00  0.00     0.092 A 
ATOM     22  C   UNL A   1      34.284  21.653  24.480  1.00  0.00     0.057 A 
ATOM     23  C   UNL A   1      32.771  19.297  24.722  1.00  0.00     0.123 A 
ATOM     24  C   UNL A   1      32.154  20.486  24.331  1.00  0.00     0.057 A 
BRANCH  20  25
ATOM     25  O   UNL A   1      36.199  20.365  25.285  1.00  0.00    -0.497 OA
ATOM     26  C   UNL A   1      37.109  21.260  24.654  1.00  0.00     0.278 C 
ENDBRANCH  20  25
BRANCH  23  27
ATOM     27  O   UNL A   1      32.153  18.091  24.904  1.00  0.00    -0.497 OA
ATOM     28  C   UNL A   1      32.904  17.074  25.554  1.00  0.00     0.278 C 
ENDBRANCH  23  27
ENDBRANCH   9  19
ENDBRANCH   7   8
ENDBRANCH   6   7
ENDBRANCH   3   6
ENDBRANCH   1   2
BRANCH   1  29
ATOM     29  C   UNL A   1      33.560  31.147  27.597  1.00  0.00     0.042 C 
BRANCH  29  30
ATOM     30  C   UNL A   1      34.896  30.585  28.027  1.00  0.00     0.118 C 
BRANCH  30  31
ATOM     31  N   UNL A   1      35.413  31.191  29.232  1.00  0.00    -0.352 N 
ATOM     32  C   UNL A   1      36.355  30.698  30.105  1.00  0.00     0.251 C 
ATOM     33  H   UNL A   1      35.042  32.074  29.458  1.00  0.00     0.163 HD
ATOM     34  O   UNL A   1      36.468  31.236  31.201  1.00  0.00    -0.269 OA
BRANCH  32  35
ATOM     35  C   UNL A   1      37.259  29.579  29.722  1.00  0.00     0.039 A 
ATOM     36  C   UNL A   1      37.546  28.579  30.661  1.00  0.00     0.014 A 
ATOM     37  C   UNL A   1      37.959  29.586  28.515  1.00  0.00     0.014 A 
ATOM     38  C   UNL A   1      38.609  27.719  30.458  1.00  0.00     0.010 A 
ATOM     39  C   UNL A   1      38.861  28.608  28.207  1.00  0.00     0.010 A 
ATOM     40  C   UNL A   1      39.312  27.844  29.268  1.00  0.00    -0.014 A 
BRANCH  40  41
ATOM     41  C   UNL A   1      40.723  27.519  29.216  1.00  0.00     0.031 A 
ATOM     42  C   UNL A   1      41.063  26.245  28.556  1.00  0.00     0.074 A 
ATOM     43  C   UNL A   1      41.599  28.515  29.496  1.00  0.00     0.049 A 
ATOM     44  N   UNL A   1      41.810  25.293  29.006  1.00  0.00    -0.248 NA
ATOM     45  C   UNL A   1      40.415  25.947  27.266  1.00  0.00     0.031 C 
ATOM     46  C   UNL A   1      41.298  29.918  29.838  1.00  0.00     0.029 A 
ATOM     47  N   UNL A   1      42.952  28.535  29.376  1.00  0.00    -0.354 N 
ATOM     48  C   UNL A   1      41.877  24.359  27.977  1.00  0.00     0.074 A 
ATOM     49  C   UNL A   1      40.865  24.718  27.023  1.00  0.00     0.031 C 
ATOM     50  C   UNL A   1      42.395  30.680  29.654  1.00  0.00     0.029 A 
ATOM     51  C   UNL A   1      43.504  29.810  29.325  1.00  0.00     0.049 A 
ATOM     52  H   UNL A   1      43.496  27.715  29.329  1.00  0.00     0.167 HD
ATOM     53  C   UNL A   1      42.943  23.525  27.859  1.00  0.00     0.037 A 
ATOM     54  C   UNL A   1      44.768  30.118  28.944  1.00  0.00     0.037 A 
ATOM     55  C   UNL A   1      43.644  23.392  29.111  1.00  0.00     0.049 A 
ATOM     56  C   UNL A   1      45.559  28.861  29.016  1.00  0.00     0.074 A 
ATOM     57  C   UNL A   1      43.279  22.971  30.376  1.00  0.00     0.029 A 
ATOM     58  N   UNL A   1      44.828  24.069  29.278  1.00  0.00    -0.354 N 
ATOM     59  N   UNL A   1      45.833  28.238  30.131  1.00  0.00    -0.248 NA
ATOM     60  C   UNL A   1      45.630  28.046  27.812  1.00  0.00     0.031 C 
ATOM     61  C   UNL A   1      43.983  23.831  31.271  1.00  0.00     0.029 A 
ATOM     62  C   UNL A   1      44.775  24.684  30.503  1.00  0.00     0.049 A 
ATOM     63  H   UNL A   1      45.576  24.106  28.639  1.00  0.00     0.167 HD
ATOM     64  C   UNL A   1      45.709  26.889  29.826  1.00  0.00     0.074 A 
ATOM     65  C   UNL A   1      45.657  26.831  28.367  1.00  0.00     0.031 C 
ATOM     66  C   UNL A   1      45.361  25.975  30.781  1.00  0.00     0.037 A 
BRANCH  53  67
ATOM     67  C   UNL A   1      43.548  23.139  26.532  1.00  0.00     0.064 A 
ATOM     68  C   UNL A   1      43.435  21.807  26.096  1.00  0.00     0.173 A 
ATOM     69  C   UNL A   1      44.472  23.937  25.816  1.00  0.00     0.173 A 
ATOM     70  F   UNL A   1      42.596  20.957  26.709  1.00  0.00    -0.203 F 
ATOM     71  C   UNL A   1      44.248  21.291  25.085  1.00  0.00     0.198 A 
ATOM     72  C   UNL A   1      45.240  23.432  24.769  1.00  0.00     0.198 A 
ATOM     73  F   UNL A   1      44.759  25.196  26.161  1.00  0.00    -0.203 F 
ATOM     74  F   UNL A   1      44.197  19.983  24.796  1.00  0.00    -0.200 F 
ATOM     75  C   UNL A   1      45.156  22.101  24.428  1.00  0.00     0.200 A 
ATOM     76  F   UNL A   1      46.121  24.235  24.153  1.00  0.00    -0.200 F 
ATOM     77  F   UNL A   1      45.982  21.594  23.504  1.00  0.00    -0.200 F 
ENDBRANCH  53  67
BRANCH  54  78
ATOM     78  C   UNL A   1      45.208  31.320  28.195  1.00  0.00     0.064 A 
ATOM     79  C   UNL A   1      46.391  31.999  28.526  1.00  0.00     0.173 A 
ATOM     80  C   UNL A   1      44.596  31.692  26.979  1.00  0.00     0.173 A 
ATOM     81  F   UNL A   1      47.066  31.671  29.637  1.00  0.00    -0.203 F 
ATOM     82  C   UNL A   1      46.929  32.985  27.689  1.00  0.00     0.198 A 
ATOM     83  C   UNL A   1      45.127  32.683  26.152  1.00  0.00     0.198 A 
ATOM     84  F   UNL A   1      43.516  31.040  26.523  1.00  0.00    -0.203 F 
ATOM     85  F   UNL A   1      48.088  33.577  28.012  1.00  0.00    -0.200 F 
ATOM     86  C   UNL A   1      46.300  33.323  26.501  1.00  0.00     0.200 A 
ATOM     87  F   UNL A   1      44.526  32.970  24.988  1.00  0.00    -0.200 F 
ATOM     88  F   UNL A   1      46.841  34.230  25.678  1.00  0.00    -0.200 F 
ENDBRANCH  54  78
BRANCH  66  89
ATOM     89  C   UNL A   1      45.332  26.435  32.213  1.00  0.00     0.064 A 
ATOM     90  C   UNL A   1      44.184  26.953  32.838  1.00  0.00     0.173 A 
ATOM     91  C   UNL A   1      46.447  26.190  33.024  1.00  0.00     0.173 A 
ATOM     92  F   UNL A   1      43.045  27.113  32.158  1.00  0.00    -0.203 F 
ATOM     93  C   UNL A   1      44.168  27.255  34.199  1.00  0.00     0.198 A 
ATOM     94  C   UNL A   1      46.418  26.459  34.391  1.00  0.00     0.198 A 
ATOM     95  F   UNL A   1      47.550  25.637  32.499  1.00  0.00    -0.203 F 
ATOM     96  F   UNL A   1      43.059  27.756  34.765  1.00  0.00    -0.200 F 
ATOM     97  C   UNL A   1      45.284  27.000  34.976  1.00  0.00     0.200 A 
ATOM     98  F   UNL A   1      47.482  26.163  35.150  1.00  0.00    -0.200 F 
ATOM     99  F   UNL A   1      45.257  27.247  36.293  1.00  0.00    -0.200 F 
ENDBRANCH  66  89
ENDBRANCH  40  41
ENDBRANCH  32  35
ENDBRANCH  30  31
ENDBRANCH  29  30
ENDBRANCH   1  29
TORSDOF 15
ENDMDL
