MODEL 1
REMARK VINA RESULT:     -12.8      0.000      0.000
REMARK SMILES O=C(/C=C/N[C@@H](Cc1c[nH]c2ccccc12)C(=O)NCCCNC(=O)c1ccc(-c2c3nc(c(-c4c(F)c(F)c(F)c(F)c4F)c4ccc([nH]4)c(-c4c(F)c(F)c(F)c(F)c4F)c4nc(c(-c5c(F)c(F)c(F)c(F)c5F)c5ccc2[nH]5)C=C4)C=C3)cc1)c1ccccc1
REMARK SMILES IDX 20 1 19 2 17 3 18 4 6 6 5 7 4 9 3 10 2 11 1 12 89 13 90 14
REMARK SMILES IDX 94 15 91 16 93 17 92 18 7 19 8 20 9 21 16 22 10 23 11 24
REMARK SMILES IDX 15 25 12 27 14 28 13 29 21 30 22 31 23 32 24 33 25 35 26 36
REMARK SMILES IDX 27 37 88 38 28 39 87 40 29 41 30 42 31 43 81 44 32 45 86 46
REMARK SMILES IDX 80 47 82 48 33 49 85 50 79 51 78 52 34 54 66 55 46 56 65 57
REMARK SMILES IDX 47 58 50 59 64 60 83 61 48 62 49 63 63 65 84 66 51 67 35 68
REMARK SMILES IDX 36 69 44 70 37 71 38 72 42 73 45 74 39 75 40 76 43 77 41 78
REMARK SMILES IDX 67 79 68 80 76 81 69 82 70 83 74 84 77 85 71 86 72 87 75 88
REMARK SMILES IDX 73 89 52 90 53 91 61 92 54 93 55 94 59 95 62 96 56 97 57 98
REMARK SMILES IDX 60 99 58 100
REMARK H PARENT 19 5 5 8 10 26 23 34 82 53 50 64
REMARK Flexibility Score: inf
ROOT
ATOM      1  C   UNL A   1      36.309  20.533  24.993  1.00  0.00     0.117 C 
ENDROOT
BRANCH   1   2
ATOM      2  N   UNL A   1      35.097  19.725  25.000  1.00  0.00    -0.354 N 
ATOM      3  C   UNL A   1      33.764  19.984  24.959  1.00  0.00     0.242 C 
ATOM      4  O   UNL A   1      33.059  18.966  25.092  1.00  0.00    -0.273 OA
ATOM      5  H   UNL A   1      35.290  18.761  25.047  1.00  0.00     0.163 HD
BRANCH   3   6
ATOM      6  C   UNL A   1      33.060  21.356  24.725  1.00  0.00     0.173 C 
BRANCH   6   7
ATOM      7  N   UNL A   1      32.934  21.714  23.304  1.00  0.00    -0.379 N 
ATOM      8  H   UNL A   1      32.555  21.016  22.721  1.00  0.00     0.160 HD
BRANCH   7   9
ATOM      9  C   UNL A   1      33.273  22.888  22.680  1.00  0.00     0.082 C 
ATOM     10  C   UNL A   1      32.403  23.869  22.415  1.00  0.00     0.070 C 
BRANCH  10  11
ATOM     11  C   UNL A   1      32.676  25.209  21.837  1.00  0.00     0.187 C 
ATOM     12  O   UNL A   1      33.277  25.308  20.774  1.00  0.00    -0.289 OA
BRANCH  11  13
ATOM     13  C   UNL A   1      32.066  26.406  22.443  1.00  0.00     0.022 A 
ATOM     14  C   UNL A   1      30.783  26.382  22.990  1.00  0.00     0.012 A 
ATOM     15  C   UNL A   1      32.837  27.574  22.483  1.00  0.00     0.012 A 
ATOM     16  C   UNL A   1      30.251  27.551  23.537  1.00  0.00     0.001 A 
ATOM     17  C   UNL A   1      32.302  28.736  23.034  1.00  0.00     0.001 A 
ATOM     18  C   UNL A   1      31.007  28.726  23.553  1.00  0.00     0.000 A 
ENDBRANCH  11  13
ENDBRANCH  10  11
ENDBRANCH   7   9
ENDBRANCH   6   7
BRANCH   6  19
ATOM     19  C   UNL A   1      31.803  21.754  25.490  1.00  0.00     0.072 C 
BRANCH  19  20
ATOM     20  C   UNL A   1      31.544  23.169  25.964  1.00  0.00    -0.020 A 
ATOM     21  C   UNL A   1      30.299  23.516  26.468  1.00  0.00     0.087 A 
ATOM     22  C   UNL A   1      32.341  24.377  26.014  1.00  0.00     0.003 A 
ATOM     23  N   UNL A   1      30.289  24.845  26.770  1.00  0.00    -0.361 N 
ATOM     24  C   UNL A   1      31.505  25.403  26.473  1.00  0.00     0.046 A 
ATOM     25  C   UNL A   1      33.661  24.756  25.659  1.00  0.00     0.010 A 
ATOM     26  H   UNL A   1      29.521  25.332  27.147  1.00  0.00     0.166 HD
ATOM     27  C   UNL A   1      31.900  26.746  26.558  1.00  0.00     0.026 A 
ATOM     28  C   UNL A   1      34.074  26.093  25.741  1.00  0.00     0.001 A 
ATOM     29  C   UNL A   1      33.199  27.076  26.174  1.00  0.00     0.002 A 
ENDBRANCH  19  20
ENDBRANCH   6  19
ENDBRANCH   3   6
ENDBRANCH   1   2
BRANCH   1  30
ATOM     30  C   UNL A   1      37.563  19.661  24.980  1.00  0.00     0.042 C 
BRANCH  30  31
ATOM     31  C   UNL A   1      38.838  20.319  25.492  1.00  0.00     0.118 C 
BRANCH  31  32
ATOM     32  N   UNL A   1      39.873  19.329  25.764  1.00  0.00    -0.352 N 
ATOM     33  C   UNL A   1      41.231  19.428  25.953  1.00  0.00     0.251 C 
ATOM     34  H   UNL A   1      39.533  18.407  25.821  1.00  0.00     0.163 HD
ATOM     35  O   UNL A   1      41.890  18.392  25.845  1.00  0.00    -0.269 OA
BRANCH  33  36
ATOM     36  C   UNL A   1      41.949  20.690  26.307  1.00  0.00     0.039 A 
ATOM     37  C   UNL A   1      42.113  20.985  27.671  1.00  0.00     0.014 A 
ATOM     38  C   UNL A   1      42.319  21.663  25.376  1.00  0.00     0.014 A 
ATOM     39  C   UNL A   1      42.626  22.222  28.093  1.00  0.00     0.010 A 
ATOM     40  C   UNL A   1      42.902  22.869  25.793  1.00  0.00     0.010 A 
ATOM     41  C   UNL A   1      43.030  23.181  27.155  1.00  0.00    -0.014 A 
BRANCH  41  42
ATOM     42  C   UNL A   1      43.502  24.534  27.574  1.00  0.00     0.031 A 
ATOM     43  C   UNL A   1      42.504  25.601  27.957  1.00  0.00     0.074 A 
ATOM     44  C   UNL A   1      44.814  24.836  27.586  1.00  0.00     0.049 A 
ATOM     45  N   UNL A   1      42.703  26.867  28.237  1.00  0.00    -0.248 NA
ATOM     46  C   UNL A   1      41.092  25.193  28.019  1.00  0.00     0.031 C 
ATOM     47  C   UNL A   1      45.898  23.918  27.238  1.00  0.00     0.029 A 
ATOM     48  N   UNL A   1      45.459  26.012  27.890  1.00  0.00    -0.354 N 
ATOM     49  C   UNL A   1      41.445  27.409  28.470  1.00  0.00     0.074 A 
ATOM     50  C   UNL A   1      40.485  26.343  28.276  1.00  0.00     0.031 C 
ATOM     51  C   UNL A   1      47.072  24.561  27.357  1.00  0.00     0.029 A 
ATOM     52  C   UNL A   1      46.824  25.946  27.750  1.00  0.00     0.049 A 
ATOM     53  H   UNL A   1      44.987  26.825  28.183  1.00  0.00     0.167 HD
ATOM     54  C   UNL A   1      41.115  28.675  28.825  1.00  0.00     0.037 A 
ATOM     55  C   UNL A   1      47.769  26.895  27.902  1.00  0.00     0.037 A 
ATOM     56  C   UNL A   1      42.059  29.733  29.077  1.00  0.00     0.049 A 
ATOM     57  C   UNL A   1      47.377  28.293  28.298  1.00  0.00     0.074 A 
ATOM     58  C   UNL A   1      41.810  31.027  29.502  1.00  0.00     0.029 A 
ATOM     59  N   UNL A   1      43.432  29.616  28.935  1.00  0.00    -0.354 N 
ATOM     60  N   UNL A   1      46.187  28.783  28.539  1.00  0.00    -0.248 NA
ATOM     61  C   UNL A   1      48.466  29.272  28.442  1.00  0.00     0.031 C 
ATOM     62  C   UNL A   1      43.032  31.704  29.589  1.00  0.00     0.029 A 
ATOM     63  C   UNL A   1      44.042  30.820  29.252  1.00  0.00     0.049 A 
ATOM     64  H   UNL A   1      43.903  28.799  28.652  1.00  0.00     0.167 HD
ATOM     65  C   UNL A   1      46.384  30.114  28.883  1.00  0.00     0.074 A 
ATOM     66  C   UNL A   1      47.809  30.356  28.831  1.00  0.00     0.031 C 
ATOM     67  C   UNL A   1      45.462  31.050  29.211  1.00  0.00     0.037 A 
BRANCH  54  68
ATOM     68  C   UNL A   1      39.657  28.998  28.970  1.00  0.00     0.064 A 
ATOM     69  C   UNL A   1      38.877  29.386  27.872  1.00  0.00     0.173 A 
ATOM     70  C   UNL A   1      39.023  28.866  30.215  1.00  0.00     0.173 A 
ATOM     71  F   UNL A   1      39.441  29.534  26.663  1.00  0.00    -0.203 F 
ATOM     72  C   UNL A   1      37.518  29.649  28.017  1.00  0.00     0.198 A 
ATOM     73  C   UNL A   1      37.659  29.107  30.352  1.00  0.00     0.198 A 
ATOM     74  F   UNL A   1      39.724  28.489  31.295  1.00  0.00    -0.203 F 
ATOM     75  F   UNL A   1      36.799  30.052  26.961  1.00  0.00    -0.200 F 
ATOM     76  C   UNL A   1      36.909  29.503  29.255  1.00  0.00     0.200 A 
ATOM     77  F   UNL A   1      37.069  28.955  31.545  1.00  0.00    -0.200 F 
ATOM     78  F   UNL A   1      35.599  29.749  29.391  1.00  0.00    -0.200 F 
ENDBRANCH  54  68
BRANCH  55  79
ATOM     79  C   UNL A   1      49.197  26.555  27.681  1.00  0.00     0.064 A 
ATOM     80  C   UNL A   1      50.066  26.368  28.764  1.00  0.00     0.173 A 
ATOM     81  C   UNL A   1      49.724  26.431  26.388  1.00  0.00     0.173 A 
ATOM     82  F   UNL A   1      49.611  26.506  30.018  1.00  0.00    -0.203 F 
ATOM     83  C   UNL A   1      51.415  26.083  28.562  1.00  0.00     0.198 A 
ATOM     84  C   UNL A   1      51.067  26.122  26.188  1.00  0.00     0.198 A 
ATOM     85  F   UNL A   1      48.932  26.605  25.321  1.00  0.00    -0.203 F 
ATOM     86  F   UNL A   1      52.233  25.950  29.615  1.00  0.00    -0.200 F 
ATOM     87  C   UNL A   1      51.913  25.955  27.274  1.00  0.00     0.200 A 
ATOM     88  F   UNL A   1      51.545  25.994  24.942  1.00  0.00    -0.200 F 
ATOM     89  F   UNL A   1      53.210  25.680  27.081  1.00  0.00    -0.200 F 
ENDBRANCH  55  79
BRANCH  67  90
ATOM     90  C   UNL A   1      45.963  32.417  29.576  1.00  0.00     0.064 A 
ATOM     91  C   UNL A   1      46.080  33.433  28.618  1.00  0.00     0.173 A 
ATOM     92  C   UNL A   1      46.288  32.722  30.905  1.00  0.00     0.173 A 
ATOM     93  F   UNL A   1      45.795  33.185  27.331  1.00  0.00    -0.203 F 
ATOM     94  C   UNL A   1      46.523  34.705  28.977  1.00  0.00     0.198 A 
ATOM     95  C   UNL A   1      46.709  34.000  31.263  1.00  0.00     0.198 A 
ATOM     96  F   UNL A   1      46.188  31.784  31.859  1.00  0.00    -0.203 F 
ATOM     97  F   UNL A   1      46.662  35.653  28.039  1.00  0.00    -0.200 F 
ATOM     98  C   UNL A   1      46.831  34.989  30.298  1.00  0.00     0.200 A 
ATOM     99  F   UNL A   1      46.999  34.275  32.543  1.00  0.00    -0.200 F 
ATOM    100  F   UNL A   1      47.252  36.214  30.642  1.00  0.00    -0.200 F 
ENDBRANCH  67  90
ENDBRANCH  41  42
ENDBRANCH  33  36
ENDBRANCH  31  32
ENDBRANCH  30  31
ENDBRANCH   1  30
TORSDOF 16
ENDMDL
MODEL 2
REMARK VINA RESULT:     -12.6      4.353      9.318
REMARK SMILES O=C(/C=C/N[C@@H](Cc1c[nH]c2ccccc12)C(=O)NCCCNC(=O)c1ccc(-c2c3nc(c(-c4c(F)c(F)c(F)c(F)c4F)c4ccc([nH]4)c(-c4c(F)c(F)c(F)c(F)c4F)c4nc(c(-c5c(F)c(F)c(F)c(F)c5F)c5ccc2[nH]5)C=C4)C=C3)cc1)c1ccccc1
REMARK SMILES IDX 20 1 19 2 17 3 18 4 6 6 5 7 4 9 3 10 2 11 1 12 89 13 90 14
REMARK SMILES IDX 94 15 91 16 93 17 92 18 7 19 8 20 9 21 16 22 10 23 11 24
REMARK SMILES IDX 15 25 12 27 14 28 13 29 21 30 22 31 23 32 24 33 25 35 26 36
REMARK SMILES IDX 27 37 88 38 28 39 87 40 29 41 30 42 31 43 81 44 32 45 86 46
REMARK SMILES IDX 80 47 82 48 33 49 85 50 79 51 78 52 34 54 66 55 46 56 65 57
REMARK SMILES IDX 47 58 50 59 64 60 83 61 48 62 49 63 63 65 84 66 51 67 35 68
REMARK SMILES IDX 36 69 44 70 37 71 38 72 42 73 45 74 39 75 40 76 43 77 41 78
REMARK SMILES IDX 67 79 68 80 76 81 69 82 70 83 74 84 77 85 71 86 72 87 75 88
REMARK SMILES IDX 73 89 52 90 53 91 61 92 54 93 55 94 59 95 62 96 56 97 57 98
REMARK SMILES IDX 60 99 58 100
REMARK H PARENT 19 5 5 8 10 26 23 34 82 53 50 64
REMARK Flexibility Score: inf
ROOT
ATOM      1  C   UNL A   1      32.849  26.265  25.688  1.00  0.00     0.117 C 
ENDROOT
BRANCH   1   2
ATOM      2  N   UNL A   1      32.234  25.265  26.548  1.00  0.00    -0.354 N 
ATOM      3  C   UNL A   1      31.516  24.128  26.348  1.00  0.00     0.242 C 
ATOM      4  O   UNL A   1      31.090  23.621  27.402  1.00  0.00    -0.273 OA
ATOM      5  H   UNL A   1      32.370  25.458  27.504  1.00  0.00     0.163 HD
BRANCH   3   6
ATOM      6  C   UNL A   1      31.226  23.402  24.998  1.00  0.00     0.173 C 
BRANCH   6   7
ATOM      7  N   UNL A   1      30.234  24.096  24.163  1.00  0.00    -0.379 N 
ATOM      8  H   UNL A   1      29.316  23.742  24.210  1.00  0.00     0.160 HD
BRANCH   7   9
ATOM      9  C   UNL A   1      30.414  25.169  23.328  1.00  0.00     0.082 C 
ATOM     10  C   UNL A   1      29.948  26.397  23.580  1.00  0.00     0.070 C 
BRANCH  10  11
ATOM     11  C   UNL A   1      30.165  27.643  22.801  1.00  0.00     0.187 C 
ATOM     12  O   UNL A   1      30.908  27.635  21.827  1.00  0.00    -0.289 OA
BRANCH  11  13
ATOM     13  C   UNL A   1      29.349  28.836  23.086  1.00  0.00     0.022 A 
ATOM     14  C   UNL A   1      29.922  30.038  23.505  1.00  0.00     0.012 A 
ATOM     15  C   UNL A   1      27.967  28.736  22.888  1.00  0.00     0.012 A 
ATOM     16  C   UNL A   1      29.097  31.131  23.774  1.00  0.00     0.001 A 
ATOM     17  C   UNL A   1      27.149  29.832  23.155  1.00  0.00     0.001 A 
ATOM     18  C   UNL A   1      27.714  31.026  23.606  1.00  0.00     0.000 A 
ENDBRANCH  11  13
ENDBRANCH  10  11
ENDBRANCH   7   9
ENDBRANCH   6   7
BRANCH   6  19
ATOM     19  C   UNL A   1      32.348  22.834  24.136  1.00  0.00     0.072 C 
BRANCH  19  20
ATOM     20  C   UNL A   1      33.071  21.548  24.476  1.00  0.00    -0.020 A 
ATOM     21  C   UNL A   1      34.093  21.552  25.414  1.00  0.00     0.087 A 
ATOM     22  C   UNL A   1      32.968  20.180  24.011  1.00  0.00     0.003 A 
ATOM     23  N   UNL A   1      34.627  20.302  25.506  1.00  0.00    -0.361 N 
ATOM     24  C   UNL A   1      33.987  19.454  24.640  1.00  0.00     0.046 A 
ATOM     25  C   UNL A   1      32.179  19.467  23.074  1.00  0.00     0.010 A 
ATOM     26  H   UNL A   1      35.364  20.047  26.106  1.00  0.00     0.166 HD
ATOM     27  C   UNL A   1      34.267  18.108  24.362  1.00  0.00     0.026 A 
ATOM     28  C   UNL A   1      32.440  18.121  22.786  1.00  0.00     0.001 A 
ATOM     29  C   UNL A   1      33.480  17.454  23.415  1.00  0.00     0.002 A 
ENDBRANCH  19  20
ENDBRANCH   6  19
ENDBRANCH   3   6
ENDBRANCH   1   2
BRANCH   1  30
ATOM     30  C   UNL A   1      32.398  27.677  26.059  1.00  0.00     0.042 C 
BRANCH  30  31
ATOM     31  C   UNL A   1      32.986  28.807  25.223  1.00  0.00     0.118 C 
BRANCH  31  32
ATOM     32  N   UNL A   1      32.629  30.110  25.768  1.00  0.00    -0.352 N 
ATOM     33  C   UNL A   1      33.150  30.869  26.788  1.00  0.00     0.251 C 
ATOM     34  H   UNL A   1      31.861  30.531  25.316  1.00  0.00     0.163 HD
ATOM     35  O   UNL A   1      32.444  31.779  27.228  1.00  0.00    -0.269 OA
BRANCH  33  36
ATOM     36  C   UNL A   1      34.511  30.684  27.374  1.00  0.00     0.039 A 
ATOM     37  C   UNL A   1      34.859  29.397  27.820  1.00  0.00     0.014 A 
ATOM     38  C   UNL A   1      35.389  31.734  27.652  1.00  0.00     0.014 A 
ATOM     39  C   UNL A   1      36.048  29.169  28.531  1.00  0.00     0.010 A 
ATOM     40  C   UNL A   1      36.613  31.494  28.296  1.00  0.00     0.010 A 
ATOM     41  C   UNL A   1      36.943  30.218  28.776  1.00  0.00    -0.014 A 
BRANCH  41  42
ATOM     42  C   UNL A   1      38.173  30.021  29.599  1.00  0.00     0.031 A 
ATOM     43  C   UNL A   1      39.303  29.163  29.082  1.00  0.00     0.074 A 
ATOM     44  C   UNL A   1      38.284  30.574  30.823  1.00  0.00     0.049 A 
ATOM     45  N   UNL A   1      40.400  28.776  29.687  1.00  0.00    -0.248 NA
ATOM     46  C   UNL A   1      39.174  28.661  27.705  1.00  0.00     0.031 C 
ATOM     47  C   UNL A   1      37.279  31.422  31.463  1.00  0.00     0.029 A 
ATOM     48  N   UNL A   1      39.292  30.491  31.754  1.00  0.00    -0.354 N 
ATOM     49  C   UNL A   1      41.067  27.959  28.781  1.00  0.00     0.074 A 
ATOM     50  C   UNL A   1      40.243  27.887  27.594  1.00  0.00     0.031 C 
ATOM     51  C   UNL A   1      37.723  31.788  32.677  1.00  0.00     0.029 A 
ATOM     52  C   UNL A   1      39.025  31.170  32.918  1.00  0.00     0.049 A 
ATOM     53  H   UNL A   1      40.127  29.992  31.601  1.00  0.00     0.167 HD
ATOM     54  C   UNL A   1      42.264  27.336  28.917  1.00  0.00     0.037 A 
ATOM     55  C   UNL A   1      39.737  31.269  34.059  1.00  0.00     0.037 A 
ATOM     56  C   UNL A   1      43.123  27.443  30.068  1.00  0.00     0.049 A 
ATOM     57  C   UNL A   1      41.062  30.569  34.184  1.00  0.00     0.074 A 
ATOM     58  C   UNL A   1      44.379  26.893  30.260  1.00  0.00     0.029 A 
ATOM     59  N   UNL A   1      42.817  28.152  31.218  1.00  0.00    -0.354 N 
ATOM     60  N   UNL A   1      41.691  29.823  33.311  1.00  0.00    -0.248 NA
ATOM     61  C   UNL A   1      41.777  30.725  35.461  1.00  0.00     0.031 C 
ATOM     62  C   UNL A   1      44.823  27.245  31.539  1.00  0.00     0.029 A 
ATOM     63  C   UNL A   1      43.857  28.043  32.129  1.00  0.00     0.049 A 
ATOM     64  H   UNL A   1      41.986  28.658  31.366  1.00  0.00     0.167 HD
ATOM     65  C   UNL A   1      42.880  29.442  33.919  1.00  0.00     0.074 A 
ATOM     66  C   UNL A   1      42.893  30.046  35.233  1.00  0.00     0.031 C 
ATOM     67  C   UNL A   1      43.870  28.658  33.429  1.00  0.00     0.037 A 
BRANCH  54  68
ATOM     68  C   UNL A   1      42.730  26.473  27.782  1.00  0.00     0.064 A 
ATOM     69  C   UNL A   1      42.287  25.151  27.634  1.00  0.00     0.173 A 
ATOM     70  C   UNL A   1      43.588  26.994  26.802  1.00  0.00     0.173 A 
ATOM     71  F   UNL A   1      41.473  24.606  28.550  1.00  0.00    -0.203 F 
ATOM     72  C   UNL A   1      42.703  24.374  26.556  1.00  0.00     0.198 A 
ATOM     73  C   UNL A   1      43.983  26.222  25.713  1.00  0.00     0.198 A 
ATOM     74  F   UNL A   1      44.033  28.257  26.894  1.00  0.00    -0.203 F 
ATOM     75  F   UNL A   1      42.295  23.102  26.453  1.00  0.00    -0.200 F 
ATOM     76  C   UNL A   1      43.544  24.912  25.593  1.00  0.00     0.200 A 
ATOM     77  F   UNL A   1      44.786  26.746  24.777  1.00  0.00    -0.200 F 
ATOM     78  F   UNL A   1      43.936  24.166  24.552  1.00  0.00    -0.200 F 
ENDBRANCH  54  68
BRANCH  55  79
ATOM     79  C   UNL A   1      39.210  32.077  35.188  1.00  0.00     0.064 A 
ATOM     80  C   UNL A   1      39.446  33.456  35.256  1.00  0.00     0.173 A 
ATOM     81  C   UNL A   1      38.480  31.484  36.228  1.00  0.00     0.173 A 
ATOM     82  F   UNL A   1      40.164  34.059  34.298  1.00  0.00    -0.203 F 
ATOM     83  C   UNL A   1      38.983  34.212  36.331  1.00  0.00     0.198 A 
ATOM     84  C   UNL A   1      37.998  32.245  37.290  1.00  0.00     0.198 A 
ATOM     85  F   UNL A   1      38.232  30.166  36.208  1.00  0.00    -0.203 F 
ATOM     86  F   UNL A   1      39.258  35.522  36.392  1.00  0.00    -0.200 F 
ATOM     87  C   UNL A   1      38.255  33.606  37.344  1.00  0.00     0.200 A 
ATOM     88  F   UNL A   1      37.289  31.658  38.265  1.00  0.00    -0.200 F 
ATOM     89  F   UNL A   1      37.810  34.335  38.377  1.00  0.00    -0.200 F 
ENDBRANCH  55  79
BRANCH  67  90
ATOM     90  C   UNL A   1      45.070  28.434  34.301  1.00  0.00     0.064 A 
ATOM     91  C   UNL A   1      46.155  29.322  34.295  1.00  0.00     0.173 A 
ATOM     92  C   UNL A   1      45.115  27.344  35.182  1.00  0.00     0.173 A 
ATOM     93  F   UNL A   1      46.165  30.371  33.459  1.00  0.00    -0.203 F 
ATOM     94  C   UNL A   1      47.252  29.115  35.129  1.00  0.00     0.198 A 
ATOM     95  C   UNL A   1      46.203  27.153  36.029  1.00  0.00     0.198 A 
ATOM     96  F   UNL A   1      44.099  26.469  35.227  1.00  0.00    -0.203 F 
ATOM     97  F   UNL A   1      48.295  29.957  35.083  1.00  0.00    -0.200 F 
ATOM     98  C   UNL A   1      47.273  28.035  35.998  1.00  0.00     0.200 A 
ATOM     99  F   UNL A   1      46.218  26.113  36.875  1.00  0.00    -0.200 F 
ATOM    100  F   UNL A   1      48.327  27.841  36.804  1.00  0.00    -0.200 F 
ENDBRANCH  67  90
ENDBRANCH  41  42
ENDBRANCH  33  36
ENDBRANCH  31  32
ENDBRANCH  30  31
ENDBRANCH   1  30
TORSDOF 16
ENDMDL
MODEL 3
REMARK VINA RESULT:     -12.5      3.034      8.227
REMARK SMILES O=C(/C=C/N[C@@H](Cc1c[nH]c2ccccc12)C(=O)NCCCNC(=O)c1ccc(-c2c3nc(c(-c4c(F)c(F)c(F)c(F)c4F)c4ccc([nH]4)c(-c4c(F)c(F)c(F)c(F)c4F)c4nc(c(-c5c(F)c(F)c(F)c(F)c5F)c5ccc2[nH]5)C=C4)C=C3)cc1)c1ccccc1
REMARK SMILES IDX 20 1 19 2 17 3 18 4 6 6 5 7 4 9 3 10 2 11 1 12 89 13 90 14
REMARK SMILES IDX 94 15 91 16 93 17 92 18 7 19 8 20 9 21 16 22 10 23 11 24
REMARK SMILES IDX 15 25 12 27 14 28 13 29 21 30 22 31 23 32 24 33 25 35 26 36
REMARK SMILES IDX 27 37 88 38 28 39 87 40 29 41 30 42 31 43 81 44 32 45 86 46
REMARK SMILES IDX 80 47 82 48 33 49 85 50 79 51 78 52 34 54 66 55 46 56 65 57
REMARK SMILES IDX 47 58 50 59 64 60 83 61 48 62 49 63 63 65 84 66 51 67 35 68
REMARK SMILES IDX 36 69 44 70 37 71 38 72 42 73 45 74 39 75 40 76 43 77 41 78
REMARK SMILES IDX 67 79 68 80 76 81 69 82 70 83 74 84 77 85 71 86 72 87 75 88
REMARK SMILES IDX 73 89 52 90 53 91 61 92 54 93 55 94 59 95 62 96 56 97 57 98
REMARK SMILES IDX 60 99 58 100
REMARK H PARENT 19 5 5 8 10 26 23 34 82 53 50 64
REMARK Flexibility Score: inf
ROOT
ATOM      1  C   UNL A   1      35.819  20.642  25.028  1.00  0.00     0.117 C 
ENDROOT
BRANCH   1   2
ATOM      2  N   UNL A   1      34.561  19.926  25.190  1.00  0.00    -0.354 N 
ATOM      3  C   UNL A   1      33.245  20.259  25.128  1.00  0.00     0.242 C 
ATOM      4  O   UNL A   1      32.484  19.324  25.442  1.00  0.00    -0.273 OA
ATOM      5  H   UNL A   1      34.697  18.972  25.394  1.00  0.00     0.163 HD
BRANCH   3   6
ATOM      6  C   UNL A   1      32.619  21.615  24.680  1.00  0.00     0.173 C 
BRANCH   6   7
ATOM      7  N   UNL A   1      32.488  21.744  23.220  1.00  0.00    -0.379 N 
ATOM      8  H   UNL A   1      32.571  20.906  22.710  1.00  0.00     0.160 HD
BRANCH   7   9
ATOM      9  C   UNL A   1      32.267  22.874  22.474  1.00  0.00     0.082 C 
ATOM     10  C   UNL A   1      33.140  23.882  22.371  1.00  0.00     0.070 C 
BRANCH  10  11
ATOM     11  C   UNL A   1      33.046  25.098  21.524  1.00  0.00     0.187 C 
ATOM     12  O   UNL A   1      33.190  25.011  20.310  1.00  0.00    -0.289 OA
BRANCH  11  13
ATOM     13  C   UNL A   1      32.601  26.372  22.116  1.00  0.00     0.022 A 
ATOM     14  C   UNL A   1      31.317  26.532  22.640  1.00  0.00     0.012 A 
ATOM     15  C   UNL A   1      33.529  27.419  22.169  1.00  0.00     0.012 A 
ATOM     16  C   UNL A   1      30.947  27.767  23.175  1.00  0.00     0.001 A 
ATOM     17  C   UNL A   1      33.154  28.648  22.707  1.00  0.00     0.001 A 
ATOM     18  C   UNL A   1      31.861  28.823  23.202  1.00  0.00     0.000 A 
ENDBRANCH  11  13
ENDBRANCH  10  11
ENDBRANCH   7   9
ENDBRANCH   6   7
BRANCH   6  19
ATOM     19  C   UNL A   1      31.402  22.208  25.380  1.00  0.00     0.072 C 
BRANCH  19  20
ATOM     20  C   UNL A   1      31.348  23.645  25.853  1.00  0.00    -0.020 A 
ATOM     21  C   UNL A   1      30.160  24.172  26.341  1.00  0.00     0.087 A 
ATOM     22  C   UNL A   1      32.312  24.724  25.917  1.00  0.00     0.003 A 
ATOM     23  N   UNL A   1      30.341  25.487  26.646  1.00  0.00    -0.361 N 
ATOM     24  C   UNL A   1      31.630  25.861  26.367  1.00  0.00     0.046 A 
ATOM     25  C   UNL A   1      33.678  24.905  25.581  1.00  0.00     0.010 A 
ATOM     26  H   UNL A   1      29.648  26.081  27.013  1.00  0.00     0.166 HD
ATOM     27  C   UNL A   1      32.216  27.131  26.460  1.00  0.00     0.026 A 
ATOM     28  C   UNL A   1      34.282  26.166  25.671  1.00  0.00     0.001 A 
ATOM     29  C   UNL A   1      33.555  27.267  26.095  1.00  0.00     0.002 A 
ENDBRANCH  19  20
ENDBRANCH   6  19
ENDBRANCH   3   6
ENDBRANCH   1   2
BRANCH   1  30
ATOM     30  C   UNL A   1      35.894  21.856  25.952  1.00  0.00     0.042 C 
BRANCH  30  31
ATOM     31  C   UNL A   1      36.980  22.875  25.626  1.00  0.00     0.118 C 
BRANCH  31  32
ATOM     32  N   UNL A   1      38.309  22.327  25.863  1.00  0.00    -0.352 N 
ATOM     33  C   UNL A   1      39.497  22.898  26.253  1.00  0.00     0.251 C 
ATOM     34  H   UNL A   1      38.369  21.355  25.714  1.00  0.00     0.163 HD
ATOM     35  O   UNL A   1      40.524  22.244  26.061  1.00  0.00    -0.269 OA
BRANCH  33  36
ATOM     36  C   UNL A   1      39.621  24.232  26.913  1.00  0.00     0.039 A 
ATOM     37  C   UNL A   1      40.282  25.251  26.203  1.00  0.00     0.014 A 
ATOM     38  C   UNL A   1      39.270  24.480  28.241  1.00  0.00     0.014 A 
ATOM     39  C   UNL A   1      40.590  26.479  26.809  1.00  0.00     0.010 A 
ATOM     40  C   UNL A   1      39.509  25.735  28.824  1.00  0.00     0.010 A 
ATOM     41  C   UNL A   1      40.204  26.737  28.131  1.00  0.00    -0.014 A 
BRANCH  41  42
ATOM     42  C   UNL A   1      40.588  28.001  28.826  1.00  0.00     0.031 A 
ATOM     43  C   UNL A   1      41.996  28.187  29.339  1.00  0.00     0.074 A 
ATOM     44  C   UNL A   1      39.684  28.978  29.035  1.00  0.00     0.049 A 
ATOM     45  N   UNL A   1      42.497  29.158  30.066  1.00  0.00    -0.248 NA
ATOM     46  C   UNL A   1      42.966  27.134  29.003  1.00  0.00     0.031 C 
ATOM     47  C   UNL A   1      38.287  28.946  28.604  1.00  0.00     0.029 A 
ATOM     48  N   UNL A   1      39.807  30.187  29.679  1.00  0.00    -0.354 N 
ATOM     49  C   UNL A   1      43.822  28.812  30.303  1.00  0.00     0.074 A 
ATOM     50  C   UNL A   1      44.044  27.533  29.663  1.00  0.00     0.031 C 
ATOM     51  C   UNL A   1      37.684  30.084  28.988  1.00  0.00     0.029 A 
ATOM     52  C   UNL A   1      38.639  30.909  29.725  1.00  0.00     0.049 A 
ATOM     53  H   UNL A   1      40.653  30.506  30.069  1.00  0.00     0.167 HD
ATOM     54  C   UNL A   1      44.774  29.500  30.979  1.00  0.00     0.037 A 
ATOM     55  C   UNL A   1      38.360  32.092  30.309  1.00  0.00     0.037 A 
ATOM     56  C   UNL A   1      44.587  30.799  31.573  1.00  0.00     0.049 A 
ATOM     57  C   UNL A   1      39.435  32.837  31.053  1.00  0.00     0.074 A 
ATOM     58  C   UNL A   1      45.518  31.592  32.222  1.00  0.00     0.029 A 
ATOM     59  N   UNL A   1      43.391  31.497  31.583  1.00  0.00    -0.354 N 
ATOM     60  N   UNL A   1      40.688  32.509  31.246  1.00  0.00    -0.248 NA
ATOM     61  C   UNL A   1      39.052  34.119  31.664  1.00  0.00     0.031 C 
ATOM     62  C   UNL A   1      44.878  32.760  32.652  1.00  0.00     0.029 A 
ATOM     63  C   UNL A   1      43.557  32.707  32.239  1.00  0.00     0.049 A 
ATOM     64  H   UNL A   1      42.548  31.181  31.183  1.00  0.00     0.167 HD
ATOM     65  C   UNL A   1      41.247  33.551  31.976  1.00  0.00     0.074 A 
ATOM     66  C   UNL A   1      40.201  34.527  32.185  1.00  0.00     0.031 C 
ATOM     67  C   UNL A   1      42.516  33.681  32.432  1.00  0.00     0.037 A 
BRANCH  54  68
ATOM     68  C   UNL A   1      46.125  28.864  31.117  1.00  0.00     0.064 A 
ATOM     69  C   UNL A   1      46.446  28.051  32.212  1.00  0.00     0.173 A 
ATOM     70  C   UNL A   1      47.091  29.027  30.111  1.00  0.00     0.173 A 
ATOM     71  F   UNL A   1      45.560  27.871  33.202  1.00  0.00    -0.203 F 
ATOM     72  C   UNL A   1      47.694  27.440  32.308  1.00  0.00     0.198 A 
ATOM     73  C   UNL A   1      48.328  28.395  30.199  1.00  0.00     0.198 A 
ATOM     74  F   UNL A   1      46.829  29.789  29.038  1.00  0.00    -0.203 F 
ATOM     75  F   UNL A   1      47.992  26.694  33.381  1.00  0.00    -0.200 F 
ATOM     76  C   UNL A   1      48.630  27.607  31.298  1.00  0.00     0.200 A 
ATOM     77  F   UNL A   1      49.228  28.548  29.218  1.00  0.00    -0.200 F 
ATOM     78  F   UNL A   1      49.827  27.011  31.388  1.00  0.00    -0.200 F 
ENDBRANCH  54  68
BRANCH  55  79
ATOM     79  C   UNL A   1      36.991  32.658  30.211  1.00  0.00     0.064 A 
ATOM     80  C   UNL A   1      36.615  33.441  29.112  1.00  0.00     0.173 A 
ATOM     81  C   UNL A   1      36.042  32.445  31.220  1.00  0.00     0.173 A 
ATOM     82  F   UNL A   1      37.501  33.694  28.137  1.00  0.00    -0.203 F 
ATOM     83  C   UNL A   1      35.343  34.003  29.032  1.00  0.00     0.198 A 
ATOM     84  C   UNL A   1      34.763  32.987  31.128  1.00  0.00     0.198 A 
ATOM     85  F   UNL A   1      36.357  31.705  32.293  1.00  0.00    -0.203 F 
ATOM     86  F   UNL A   1      35.022  34.782  27.990  1.00  0.00    -0.200 F 
ATOM     87  C   UNL A   1      34.417  33.771  30.038  1.00  0.00     0.200 A 
ATOM     88  F   UNL A   1      33.867  32.757  32.098  1.00  0.00    -0.200 F 
ATOM     89  F   UNL A   1      33.193  34.312  29.959  1.00  0.00    -0.200 F 
ENDBRANCH  55  79
BRANCH  67  90
ATOM     90  C   UNL A   1      42.858  34.939  33.174  1.00  0.00     0.064 A 
ATOM     91  C   UNL A   1      43.360  36.067  32.511  1.00  0.00     0.173 A 
ATOM     92  C   UNL A   1      42.641  35.030  34.557  1.00  0.00     0.173 A 
ATOM     93  F   UNL A   1      43.598  36.024  31.191  1.00  0.00    -0.203 F 
ATOM     94  C   UNL A   1      43.649  37.237  33.209  1.00  0.00     0.198 A 
ATOM     95  C   UNL A   1      42.910  36.208  35.248  1.00  0.00     0.198 A 
ATOM     96  F   UNL A   1      42.158  33.979  35.236  1.00  0.00    -0.203 F 
ATOM     97  F   UNL A   1      44.161  38.293  32.561  1.00  0.00    -0.200 F 
ATOM     98  C   UNL A   1      43.418  37.309  34.574  1.00  0.00     0.200 A 
ATOM     99  F   UNL A   1      42.679  36.278  36.566  1.00  0.00    -0.200 F 
ATOM    100  F   UNL A   1      43.692  38.438  35.244  1.00  0.00    -0.200 F 
ENDBRANCH  67  90
ENDBRANCH  41  42
ENDBRANCH  33  36
ENDBRANCH  31  32
ENDBRANCH  30  31
ENDBRANCH   1  30
TORSDOF 16
ENDMDL
