MODEL 1
REMARK VINA RESULT:     -11.5      0.000      0.000
REMARK SMILES CCC[C@H]([NH2+]Cc1nc(C(C)(C)C)cs1)C(=O)NCCCNC(=O)c1ccc(-c2c3nc(c(-c4c(F)c(F)c(F)c(F)c4F)c4ccc([nH]4)c(-c4c(F)c(F)c(F)c(F)c4F)c4nc(c(-c5c(F)c(F)c(F)c(F)c5F)c5ccc2[nH]5)C=C4)C=C3)cc1
REMARK SMILES IDX 19 1 18 2 16 3 17 4 4 6 3 7 2 8 1 9 5 10 6 13 7 14 8 15
REMARK SMILES IDX 15 16 9 17 14 18 10 19 11 20 12 21 13 22 20 23 21 24 22 25
REMARK SMILES IDX 23 26 24 28 25 29 26 30 87 31 27 32 86 33 28 34 29 35 30 36
REMARK SMILES IDX 80 37 31 38 85 39 79 40 81 41 32 42 84 43 78 44 77 45 33 47
REMARK SMILES IDX 65 48 45 49 64 50 46 51 49 52 63 53 82 54 47 55 48 56 62 58
REMARK SMILES IDX 83 59 50 60 34 61 35 62 43 63 36 64 37 65 41 66 44 67 38 68
REMARK SMILES IDX 39 69 42 70 40 71 66 72 67 73 75 74 68 75 69 76 73 77 76 78
REMARK SMILES IDX 70 79 71 80 74 81 72 82 51 83 52 84 60 85 53 86 54 87 58 88
REMARK SMILES IDX 61 89 55 90 56 91 59 92 57 93
REMARK H PARENT 18 5 5 11 5 12 22 27 81 46 49 57
REMARK Flexibility Score: inf
ROOT
ATOM      1  C   UNL A   1      36.946  20.824  24.993  1.00  0.00     0.118 C 
ENDROOT
BRANCH   1   2
ATOM      2  N   UNL A   1      35.624  20.264  25.218  1.00  0.00    -0.351 N 
ATOM      3  C   UNL A   1      34.401  20.844  25.037  1.00  0.00     0.278 C 
ATOM      4  O   UNL A   1      33.399  20.182  25.326  1.00  0.00    -0.268 OA
ATOM      5  H   UNL A   1      35.608  19.336  25.546  1.00  0.00     0.163 HD
BRANCH   3   6
ATOM      6  C   UNL A   1      34.266  22.293  24.510  1.00  0.00     0.272 C 
BRANCH   6   7
ATOM      7  C   UNL A   1      34.418  23.303  25.681  1.00  0.00     0.075 C 
BRANCH   7   8
ATOM      8  C   UNL A   1      34.927  24.718  25.354  1.00  0.00     0.003 C 
ATOM      9  C   UNL A   1      33.970  25.859  25.693  1.00  0.00     0.004 C 
ENDBRANCH   7   8
ENDBRANCH   6   7
BRANCH   6  10
ATOM     10  N   UNL A   1      33.021  22.465  23.760  1.00  0.00    -0.330 N 
ATOM     11  H   UNL A   1      32.405  23.059  24.317  1.00  0.00     0.347 HD
ATOM     12  H   UNL A   1      32.669  21.521  23.601  1.00  0.00     0.347 HD
BRANCH  10  13
ATOM     13  C   UNL A   1      33.135  23.067  22.429  1.00  0.00     0.330 C 
BRANCH  13  14
ATOM     14  C   UNL A   1      32.392  24.387  22.438  1.00  0.00     0.147 A 
ATOM     15  N   UNL A   1      31.564  24.756  23.397  1.00  0.00    -0.240 NA
ATOM     16  S   UNL A   1      32.633  25.552  21.203  1.00  0.00    -0.121 S 
ATOM     17  C   UNL A   1      31.128  26.056  23.206  1.00  0.00     0.057 A 
ATOM     18  C   UNL A   1      31.606  26.638  22.044  1.00  0.00     0.091 A 
BRANCH  17  19
ATOM     19  C   UNL A   1      30.214  26.688  24.247  1.00  0.00     0.005 C 
ATOM     20  C   UNL A   1      30.282  25.895  25.568  1.00  0.00     0.017 C 
ATOM     21  C   UNL A   1      30.638  28.146  24.507  1.00  0.00     0.017 C 
ATOM     22  C   UNL A   1      28.742  26.694  23.778  1.00  0.00     0.017 C 
ENDBRANCH  17  19
ENDBRANCH  13  14
ENDBRANCH  10  13
ENDBRANCH   6  10
ENDBRANCH   3   6
ENDBRANCH   1   2
BRANCH   1  23
ATOM     23  C   UNL A   1      38.050  19.781  24.997  1.00  0.00     0.042 C 
BRANCH  23  24
ATOM     24  C   UNL A   1      39.267  20.167  25.822  1.00  0.00     0.118 C 
BRANCH  24  25
ATOM     25  N   UNL A   1      40.264  19.106  25.904  1.00  0.00    -0.352 N 
ATOM     26  C   UNL A   1      41.621  19.170  26.097  1.00  0.00     0.251 C 
ATOM     27  H   UNL A   1      39.904  18.195  25.807  1.00  0.00     0.163 HD
ATOM     28  O   UNL A   1      42.305  18.155  25.966  1.00  0.00    -0.269 OA
BRANCH  26  29
ATOM     29  C   UNL A   1      42.275  20.453  26.428  1.00  0.00     0.039 A 
ATOM     30  C   UNL A   1      42.894  21.177  25.406  1.00  0.00     0.014 A 
ATOM     31  C   UNL A   1      42.282  20.947  27.735  1.00  0.00     0.014 A 
ATOM     32  C   UNL A   1      43.435  22.435  25.677  1.00  0.00     0.010 A 
ATOM     33  C   UNL A   1      42.735  22.239  27.984  1.00  0.00     0.010 A 
ATOM     34  C   UNL A   1      43.309  23.000  26.957  1.00  0.00    -0.014 A 
BRANCH  34  35
ATOM     35  C   UNL A   1      43.737  24.396  27.228  1.00  0.00     0.031 A 
ATOM     36  C   UNL A   1      42.751  25.413  27.731  1.00  0.00     0.074 A 
ATOM     37  C   UNL A   1      45.002  24.764  26.946  1.00  0.00     0.049 A 
ATOM     38  N   UNL A   1      42.926  26.690  27.963  1.00  0.00    -0.248 NA
ATOM     39  C   UNL A   1      41.382  24.939  27.982  1.00  0.00     0.031 C 
ATOM     40  C   UNL A   1      46.037  23.882  26.404  1.00  0.00     0.029 A 
ATOM     41  N   UNL A   1      45.631  25.978  27.066  1.00  0.00    -0.354 N 
ATOM     42  C   UNL A   1      41.691  27.171  28.376  1.00  0.00     0.074 A 
ATOM     43  C   UNL A   1      40.762  26.064  28.307  1.00  0.00     0.031 C 
ATOM     44  C   UNL A   1      47.178  24.574  26.267  1.00  0.00     0.029 A 
ATOM     45  C   UNL A   1      46.944  25.958  26.663  1.00  0.00     0.049 A 
ATOM     46  H   UNL A   1      45.185  26.785  27.410  1.00  0.00     0.167 HD
ATOM     47  C   UNL A   1      41.367  28.418  28.797  1.00  0.00     0.037 A 
ATOM     48  C   UNL A   1      47.855  26.949  26.606  1.00  0.00     0.037 A 
ATOM     49  C   UNL A   1      42.299  29.513  28.872  1.00  0.00     0.049 A 
ATOM     50  C   UNL A   1      47.462  28.333  27.049  1.00  0.00     0.074 A 
ATOM     51  C   UNL A   1      42.087  30.796  29.345  1.00  0.00     0.029 A 
ATOM     52  N   UNL A   1      43.620  29.458  28.449  1.00  0.00    -0.354 N 
ATOM     53  N   UNL A   1      46.313  28.757  27.516  1.00  0.00    -0.248 NA
ATOM     54  C   UNL A   1      48.493  29.374  26.956  1.00  0.00     0.031 C 
ATOM     55  C   UNL A   1      43.258  31.535  29.149  1.00  0.00     0.029 A 
ATOM     56  C   UNL A   1      44.222  30.696  28.614  1.00  0.00     0.049 A 
ATOM     57  H   UNL A   1      44.064  28.658  28.086  1.00  0.00     0.167 HD
ATOM     58  C   UNL A   1      46.488  30.107  27.792  1.00  0.00     0.074 A 
ATOM     59  C   UNL A   1      47.862  30.425  27.461  1.00  0.00     0.031 C 
ATOM     60  C   UNL A   1      45.590  31.002  28.272  1.00  0.00     0.037 A 
BRANCH  47  61
ATOM     61  C   UNL A   1      39.941  28.665  29.202  1.00  0.00     0.064 A 
ATOM     62  C   UNL A   1      38.979  29.115  28.283  1.00  0.00     0.173 A 
ATOM     63  C   UNL A   1      39.522  28.419  30.519  1.00  0.00     0.173 A 
ATOM     64  F   UNL A   1      39.326  29.372  27.013  1.00  0.00    -0.203 F 
ATOM     65  C   UNL A   1      37.663  29.346  28.676  1.00  0.00     0.198 A 
ATOM     66  C   UNL A   1      38.197  28.618  30.899  1.00  0.00     0.198 A 
ATOM     67  F   UNL A   1      40.395  27.981  31.437  1.00  0.00    -0.203 F 
ATOM     68  F   UNL A   1      36.779  29.832  27.794  1.00  0.00    -0.200 F 
ATOM     69  C   UNL A   1      37.272  29.091  29.981  1.00  0.00     0.200 A 
ATOM     70  F   UNL A   1      37.816  28.356  32.157  1.00  0.00    -0.200 F 
ATOM     71  F   UNL A   1      36.004  29.310  30.356  1.00  0.00    -0.200 F 
ENDBRANCH  47  61
BRANCH  48  72
ATOM     72  C   UNL A   1      49.232  26.661  26.126  1.00  0.00     0.064 A 
ATOM     73  C   UNL A   1      49.594  26.906  24.793  1.00  0.00     0.173 A 
ATOM     74  C   UNL A   1      50.214  26.146  26.984  1.00  0.00     0.173 A 
ATOM     75  F   UNL A   1      48.686  27.381  23.929  1.00  0.00    -0.203 F 
ATOM     76  C   UNL A   1      50.880  26.630  24.335  1.00  0.00     0.198 A 
ATOM     77  C   UNL A   1      51.509  25.901  26.532  1.00  0.00     0.198 A 
ATOM     78  F   UNL A   1      49.923  25.900  28.270  1.00  0.00    -0.203 F 
ATOM     79  F   UNL A   1      51.187  26.831  23.045  1.00  0.00    -0.200 F 
ATOM     80  C   UNL A   1      51.838  26.134  25.205  1.00  0.00     0.200 A 
ATOM     81  F   UNL A   1      52.437  25.440  27.382  1.00  0.00    -0.200 F 
ATOM     82  F   UNL A   1      53.078  25.876  24.766  1.00  0.00    -0.200 F 
ENDBRANCH  48  72
BRANCH  60  83
ATOM     83  C   UNL A   1      46.068  32.410  28.482  1.00  0.00     0.064 A 
ATOM     84  C   UNL A   1      46.685  32.808  29.678  1.00  0.00     0.173 A 
ATOM     85  C   UNL A   1      45.941  33.366  27.462  1.00  0.00     0.173 A 
ATOM     86  F   UNL A   1      46.816  31.937  30.691  1.00  0.00    -0.203 F 
ATOM     87  C   UNL A   1      47.134  34.114  29.853  1.00  0.00     0.198 A 
ATOM     88  C   UNL A   1      46.423  34.661  27.628  1.00  0.00     0.198 A 
ATOM     89  F   UNL A   1      45.364  33.039  26.296  1.00  0.00    -0.203 F 
ATOM     90  F   UNL A   1      47.673  34.483  31.024  1.00  0.00    -0.200 F 
ATOM     91  C   UNL A   1      47.010  35.037  28.826  1.00  0.00     0.200 A 
ATOM     92  F   UNL A   1      46.316  35.548  26.628  1.00  0.00    -0.200 F 
ATOM     93  F   UNL A   1      47.452  36.291  28.994  1.00  0.00    -0.200 F 
ENDBRANCH  60  83
ENDBRANCH  34  35
ENDBRANCH  26  29
ENDBRANCH  24  25
ENDBRANCH  23  24
ENDBRANCH   1  23
TORSDOF 16
ENDMDL
MODEL 2
REMARK VINA RESULT:     -11.5      6.029     11.485
REMARK SMILES CCC[C@H]([NH2+]Cc1nc(C(C)(C)C)cs1)C(=O)NCCCNC(=O)c1ccc(-c2c3nc(c(-c4c(F)c(F)c(F)c(F)c4F)c4ccc([nH]4)c(-c4c(F)c(F)c(F)c(F)c4F)c4nc(c(-c5c(F)c(F)c(F)c(F)c5F)c5ccc2[nH]5)C=C4)C=C3)cc1
REMARK SMILES IDX 19 1 18 2 16 3 17 4 4 6 3 7 2 8 1 9 5 10 6 13 7 14 8 15
REMARK SMILES IDX 15 16 9 17 14 18 10 19 11 20 12 21 13 22 20 23 21 24 22 25
REMARK SMILES IDX 23 26 24 28 25 29 26 30 87 31 27 32 86 33 28 34 29 35 30 36
REMARK SMILES IDX 80 37 31 38 85 39 79 40 81 41 32 42 84 43 78 44 77 45 33 47
REMARK SMILES IDX 65 48 45 49 64 50 46 51 49 52 63 53 82 54 47 55 48 56 62 58
REMARK SMILES IDX 83 59 50 60 34 61 35 62 43 63 36 64 37 65 41 66 44 67 38 68
REMARK SMILES IDX 39 69 42 70 40 71 66 72 67 73 75 74 68 75 69 76 73 77 76 78
REMARK SMILES IDX 70 79 71 80 74 81 72 82 51 83 52 84 60 85 53 86 54 87 58 88
REMARK SMILES IDX 61 89 55 90 56 91 59 92 57 93
REMARK H PARENT 18 5 5 11 5 12 22 27 81 46 49 57
REMARK Flexibility Score: inf
ROOT
ATOM      1  C   UNL A   1      31.816  30.704  26.074  1.00  0.00     0.118 C 
ENDROOT
BRANCH   1   2
ATOM      2  N   UNL A   1      30.992  30.324  24.939  1.00  0.00    -0.351 N 
ATOM      3  C   UNL A   1      31.160  29.292  24.060  1.00  0.00     0.278 C 
ATOM      4  O   UNL A   1      30.343  29.177  23.141  1.00  0.00    -0.268 OA
ATOM      5  H   UNL A   1      30.203  30.891  24.781  1.00  0.00     0.163 HD
BRANCH   3   6
ATOM      6  C   UNL A   1      32.347  28.307  24.192  1.00  0.00     0.272 C 
BRANCH   6   7
ATOM      7  C   UNL A   1      32.772  27.794  22.789  1.00  0.00     0.075 C 
BRANCH   7   8
ATOM      8  C   UNL A   1      32.223  26.435  22.318  1.00  0.00     0.003 C 
ATOM      9  C   UNL A   1      33.275  25.380  21.979  1.00  0.00     0.004 C 
ENDBRANCH   7   8
ENDBRANCH   6   7
BRANCH   6  10
ATOM     10  N   UNL A   1      32.031  27.227  25.128  1.00  0.00    -0.330 N 
ATOM     11  H   UNL A   1      31.741  26.417  24.578  1.00  0.00     0.347 HD
ATOM     12  H   UNL A   1      31.310  27.604  25.742  1.00  0.00     0.347 HD
BRANCH  10  13
ATOM     13  C   UNL A   1      33.112  26.795  26.019  1.00  0.00     0.330 C 
BRANCH  13  14
ATOM     14  C   UNL A   1      33.464  25.361  25.680  1.00  0.00     0.147 A 
ATOM     15  N   UNL A   1      34.669  24.970  25.309  1.00  0.00    -0.240 NA
ATOM     16  S   UNL A   1      32.308  24.103  25.822  1.00  0.00    -0.121 S 
ATOM     17  C   UNL A   1      34.730  23.593  25.185  1.00  0.00     0.057 A 
ATOM     18  C   UNL A   1      33.520  22.960  25.416  1.00  0.00     0.091 A 
BRANCH  17  19
ATOM     19  C   UNL A   1      36.059  22.942  24.828  1.00  0.00     0.005 C 
ATOM     20  C   UNL A   1      36.266  22.954  23.300  1.00  0.00     0.017 C 
ATOM     21  C   UNL A   1      37.218  23.700  25.504  1.00  0.00     0.017 C 
ATOM     22  C   UNL A   1      36.111  21.471  25.298  1.00  0.00     0.017 C 
ENDBRANCH  17  19
ENDBRANCH  13  14
ENDBRANCH  10  13
ENDBRANCH   6  10
ENDBRANCH   3   6
ENDBRANCH   1   2
BRANCH   1  23
ATOM     23  C   UNL A   1      31.506  32.093  26.604  1.00  0.00     0.042 C 
BRANCH  23  24
ATOM     24  C   UNL A   1      32.673  32.763  27.312  1.00  0.00     0.118 C 
BRANCH  24  25
ATOM     25  N   UNL A   1      32.425  34.165  27.626  1.00  0.00    -0.352 N 
ATOM     26  C   UNL A   1      33.006  34.987  28.559  1.00  0.00     0.251 C 
ATOM     27  H   UNL A   1      31.727  34.592  27.079  1.00  0.00     0.163 HD
ATOM     28  O   UNL A   1      32.529  36.100  28.774  1.00  0.00    -0.269 OA
BRANCH  26  29
ATOM     29  C   UNL A   1      34.181  34.535  29.333  1.00  0.00     0.039 A 
ATOM     30  C   UNL A   1      33.988  34.048  30.629  1.00  0.00     0.014 A 
ATOM     31  C   UNL A   1      35.468  34.586  28.793  1.00  0.00     0.014 A 
ATOM     32  C   UNL A   1      35.069  33.528  31.342  1.00  0.00     0.010 A 
ATOM     33  C   UNL A   1      36.526  33.982  29.465  1.00  0.00     0.010 A 
ATOM     34  C   UNL A   1      36.337  33.440  30.744  1.00  0.00    -0.014 A 
BRANCH  34  35
ATOM     35  C   UNL A   1      37.463  32.750  31.424  1.00  0.00     0.031 A 
ATOM     36  C   UNL A   1      38.141  31.575  30.778  1.00  0.00     0.074 A 
ATOM     37  C   UNL A   1      37.823  33.141  32.662  1.00  0.00     0.049 A 
ATOM     38  N   UNL A   1      39.095  30.811  31.247  1.00  0.00    -0.248 NA
ATOM     39  C   UNL A   1      37.666  31.191  29.440  1.00  0.00     0.031 C 
ATOM     40  C   UNL A   1      37.206  34.234  33.415  1.00  0.00     0.029 A 
ATOM     41  N   UNL A   1      38.789  32.658  33.510  1.00  0.00    -0.354 N 
ATOM     42  C   UNL A   1      39.327  29.853  30.268  1.00  0.00     0.074 A 
ATOM     43  C   UNL A   1      38.374  30.095  29.206  1.00  0.00     0.031 C 
ATOM     44  C   UNL A   1      37.826  34.358  34.598  1.00  0.00     0.029 A 
ATOM     45  C   UNL A   1      38.850  33.325  34.709  1.00  0.00     0.049 A 
ATOM     46  H   UNL A   1      39.381  31.907  33.279  1.00  0.00     0.167 HD
ATOM     47  C   UNL A   1      40.265  28.875  30.247  1.00  0.00     0.037 A 
ATOM     48  C   UNL A   1      39.634  33.117  35.784  1.00  0.00     0.037 A 
ATOM     49  C   UNL A   1      41.215  28.645  31.304  1.00  0.00     0.049 A 
ATOM     50  C   UNL A   1      40.646  32.003  35.750  1.00  0.00     0.074 A 
ATOM     51  C   UNL A   1      42.246  27.723  31.351  1.00  0.00     0.029 A 
ATOM     52  N   UNL A   1      41.243  29.336  32.508  1.00  0.00    -0.354 N 
ATOM     53  N   UNL A   1      40.912  31.156  34.785  1.00  0.00    -0.248 NA
ATOM     54  C   UNL A   1      41.466  31.818  36.954  1.00  0.00     0.031 C 
ATOM     55  C   UNL A   1      42.857  27.811  32.606  1.00  0.00     0.029 A 
ATOM     56  C   UNL A   1      42.249  28.832  33.319  1.00  0.00     0.049 A 
ATOM     57  H   UNL A   1      40.639  30.074  32.749  1.00  0.00     0.167 HD
ATOM     58  C   UNL A   1      41.941  30.352  35.256  1.00  0.00     0.074 A 
ATOM     59  C   UNL A   1      42.268  30.829  36.584  1.00  0.00     0.031 C 
ATOM     60  C   UNL A   1      42.557  29.311  34.644  1.00  0.00     0.037 A 
BRANCH  47  61
ATOM     61  C   UNL A   1      40.301  27.974  29.045  1.00  0.00     0.064 A 
ATOM     62  C   UNL A   1      41.036  28.306  27.895  1.00  0.00     0.173 A 
ATOM     63  C   UNL A   1      39.616  26.749  29.052  1.00  0.00     0.173 A 
ATOM     64  F   UNL A   1      41.703  29.467  27.831  1.00  0.00    -0.203 F 
ATOM     65  C   UNL A   1      41.052  27.464  26.786  1.00  0.00     0.198 A 
ATOM     66  C   UNL A   1      39.664  25.894  27.953  1.00  0.00     0.198 A 
ATOM     67  F   UNL A   1      38.905  26.377  30.125  1.00  0.00    -0.203 F 
ATOM     68  F   UNL A   1      41.713  27.830  25.679  1.00  0.00    -0.200 F 
ATOM     69  C   UNL A   1      40.372  26.257  26.818  1.00  0.00     0.200 A 
ATOM     70  F   UNL A   1      39.019  24.719  27.993  1.00  0.00    -0.200 F 
ATOM     71  F   UNL A   1      40.393  25.445  25.752  1.00  0.00    -0.200 F 
ENDBRANCH  47  61
BRANCH  48  72
ATOM     72  C   UNL A   1      39.501  33.995  36.977  1.00  0.00     0.064 A 
ATOM     73  C   UNL A   1      38.723  33.602  38.075  1.00  0.00     0.173 A 
ATOM     74  C   UNL A   1      40.153  35.234  37.049  1.00  0.00     0.173 A 
ATOM     75  F   UNL A   1      38.066  32.434  38.046  1.00  0.00    -0.203 F 
ATOM     76  C   UNL A   1      38.588  34.424  39.192  1.00  0.00     0.198 A 
ATOM     77  C   UNL A   1      40.043  36.041  38.180  1.00  0.00     0.198 A 
ATOM     78  F   UNL A   1      40.916  35.655  36.030  1.00  0.00    -0.203 F 
ATOM     79  F   UNL A   1      37.801  34.045  40.209  1.00  0.00    -0.200 F 
ATOM     80  C   UNL A   1      39.253  35.639  39.246  1.00  0.00     0.200 A 
ATOM     81  F   UNL A   1      40.704  37.206  38.236  1.00  0.00    -0.200 F 
ATOM     82  F   UNL A   1      39.129  36.426  40.324  1.00  0.00    -0.200 F 
ENDBRANCH  48  72
BRANCH  60  83
ATOM     83  C   UNL A   1      43.659  28.623  35.400  1.00  0.00     0.064 A 
ATOM     84  C   UNL A   1      43.394  27.582  36.302  1.00  0.00     0.173 A 
ATOM     85  C   UNL A   1      45.000  28.984  35.192  1.00  0.00     0.173 A 
ATOM     86  F   UNL A   1      42.128  27.210  36.550  1.00  0.00    -0.203 F 
ATOM     87  C   UNL A   1      44.426  26.946  36.987  1.00  0.00     0.198 A 
ATOM     88  C   UNL A   1      46.031  28.322  35.852  1.00  0.00     0.198 A 
ATOM     89  F   UNL A   1      45.310  29.969  34.336  1.00  0.00    -0.203 F 
ATOM     90  F   UNL A   1      44.144  25.990  37.883  1.00  0.00    -0.200 F 
ATOM     91  C   UNL A   1      45.744  27.310  36.755  1.00  0.00     0.200 A 
ATOM     92  F   UNL A   1      47.305  28.665  35.614  1.00  0.00    -0.200 F 
ATOM     93  F   UNL A   1      46.736  26.690  37.407  1.00  0.00    -0.200 F 
ENDBRANCH  60  83
ENDBRANCH  34  35
ENDBRANCH  26  29
ENDBRANCH  24  25
ENDBRANCH  23  24
ENDBRANCH   1  23
TORSDOF 16
ENDMDL
MODEL 3
REMARK VINA RESULT:     -11.4      5.831     10.119
REMARK SMILES CCC[C@H]([NH2+]Cc1nc(C(C)(C)C)cs1)C(=O)NCCCNC(=O)c1ccc(-c2c3nc(c(-c4c(F)c(F)c(F)c(F)c4F)c4ccc([nH]4)c(-c4c(F)c(F)c(F)c(F)c4F)c4nc(c(-c5c(F)c(F)c(F)c(F)c5F)c5ccc2[nH]5)C=C4)C=C3)cc1
REMARK SMILES IDX 19 1 18 2 16 3 17 4 4 6 3 7 2 8 1 9 5 10 6 13 7 14 8 15
REMARK SMILES IDX 15 16 9 17 14 18 10 19 11 20 12 21 13 22 20 23 21 24 22 25
REMARK SMILES IDX 23 26 24 28 25 29 26 30 87 31 27 32 86 33 28 34 29 35 30 36
REMARK SMILES IDX 80 37 31 38 85 39 79 40 81 41 32 42 84 43 78 44 77 45 33 47
REMARK SMILES IDX 65 48 45 49 64 50 46 51 49 52 63 53 82 54 47 55 48 56 62 58
REMARK SMILES IDX 83 59 50 60 34 61 35 62 43 63 36 64 37 65 41 66 44 67 38 68
REMARK SMILES IDX 39 69 42 70 40 71 66 72 67 73 75 74 68 75 69 76 73 77 76 78
REMARK SMILES IDX 70 79 71 80 74 81 72 82 51 83 52 84 60 85 53 86 54 87 58 88
REMARK SMILES IDX 61 89 55 90 56 91 59 92 57 93
REMARK H PARENT 18 5 5 11 5 12 22 27 81 46 49 57
REMARK Flexibility Score: inf
ROOT
ATOM      1  C   UNL A   1      31.627  30.749  26.076  1.00  0.00     0.118 C 
ENDROOT
BRANCH   1   2
ATOM      2  N   UNL A   1      30.984  30.456  24.806  1.00  0.00    -0.351 N 
ATOM      3  C   UNL A   1      30.759  29.246  24.213  1.00  0.00     0.278 C 
ATOM      4  O   UNL A   1      30.217  29.238  23.103  1.00  0.00    -0.268 OA
ATOM      5  H   UNL A   1      30.667  31.240  24.301  1.00  0.00     0.163 HD
BRANCH   3   6
ATOM      6  C   UNL A   1      31.187  27.924  24.894  1.00  0.00     0.272 C 
BRANCH   6   7
ATOM      7  C   UNL A   1      32.721  27.723  24.752  1.00  0.00     0.075 C 
BRANCH   7   8
ATOM      8  C   UNL A   1      33.459  26.968  25.872  1.00  0.00     0.003 C 
ATOM      9  C   UNL A   1      34.227  25.721  25.433  1.00  0.00     0.004 C 
ENDBRANCH   7   8
ENDBRANCH   6   7
BRANCH   6  10
ATOM     10  N   UNL A   1      30.410  26.794  24.382  1.00  0.00    -0.330 N 
ATOM     11  H   UNL A   1      31.021  26.250  23.772  1.00  0.00     0.347 HD
ATOM     12  H   UNL A   1      29.605  27.210  23.914  1.00  0.00     0.347 HD
BRANCH  10  13
ATOM     13  C   UNL A   1      29.848  25.878  25.380  1.00  0.00     0.330 C 
BRANCH  13  14
ATOM     14  C   UNL A   1      30.586  24.559  25.284  1.00  0.00     0.147 A 
ATOM     15  N   UNL A   1      31.284  24.184  24.229  1.00  0.00    -0.240 NA
ATOM     16  S   UNL A   1      30.621  23.462  26.602  1.00  0.00    -0.121 S 
ATOM     17  C   UNL A   1      31.949  22.994  24.469  1.00  0.00     0.057 A 
ATOM     18  C   UNL A   1      31.687  22.452  25.716  1.00  0.00     0.091 A 
BRANCH  17  19
ATOM     19  C   UNL A   1      32.865  22.430  23.391  1.00  0.00     0.005 C 
ATOM     20  C   UNL A   1      32.123  21.355  22.571  1.00  0.00     0.017 C 
ATOM     21  C   UNL A   1      33.331  23.556  22.449  1.00  0.00     0.017 C 
ATOM     22  C   UNL A   1      34.120  21.769  24.004  1.00  0.00     0.017 C 
ENDBRANCH  17  19
ENDBRANCH  13  14
ENDBRANCH  10  13
ENDBRANCH   6  10
ENDBRANCH   3   6
ENDBRANCH   1   2
BRANCH   1  23
ATOM     23  C   UNL A   1      31.405  32.176  26.546  1.00  0.00     0.042 C 
BRANCH  23  24
ATOM     24  C   UNL A   1      32.605  32.792  27.249  1.00  0.00     0.118 C 
BRANCH  24  25
ATOM     25  N   UNL A   1      32.389  34.179  27.642  1.00  0.00    -0.352 N 
ATOM     26  C   UNL A   1      32.993  34.935  28.615  1.00  0.00     0.251 C 
ATOM     27  H   UNL A   1      31.697  34.650  27.125  1.00  0.00     0.163 HD
ATOM     28  O   UNL A   1      32.541  36.045  28.895  1.00  0.00    -0.269 OA
BRANCH  26  29
ATOM     29  C   UNL A   1      34.163  34.416  29.354  1.00  0.00     0.039 A 
ATOM     30  C   UNL A   1      33.954  33.756  30.568  1.00  0.00     0.014 A 
ATOM     31  C   UNL A   1      35.460  34.573  28.860  1.00  0.00     0.014 A 
ATOM     32  C   UNL A   1      35.034  33.174  31.235  1.00  0.00     0.010 A 
ATOM     33  C   UNL A   1      36.520  33.914  29.476  1.00  0.00     0.010 A 
ATOM     34  C   UNL A   1      36.318  33.201  30.665  1.00  0.00    -0.014 A 
BRANCH  34  35
ATOM     35  C   UNL A   1      37.448  32.458  31.278  1.00  0.00     0.031 A 
ATOM     36  C   UNL A   1      37.959  32.832  32.640  1.00  0.00     0.074 A 
ATOM     37  C   UNL A   1      38.062  31.490  30.569  1.00  0.00     0.049 A 
ATOM     38  N   UNL A   1      38.973  32.340  33.307  1.00  0.00    -0.248 NA
ATOM     39  C   UNL A   1      37.255  33.921  33.335  1.00  0.00     0.031 C 
ATOM     40  C   UNL A   1      37.692  31.072  29.215  1.00  0.00     0.029 A 
ATOM     41  N   UNL A   1      39.132  30.690  30.882  1.00  0.00    -0.354 N 
ATOM     42  C   UNL A   1      39.034  33.064  34.491  1.00  0.00     0.074 A 
ATOM     43  C   UNL A   1      37.993  34.068  34.426  1.00  0.00     0.031 C 
ATOM     44  C   UNL A   1      38.500  30.074  28.827  1.00  0.00     0.029 A 
ATOM     45  C   UNL A   1      39.476  29.815  29.880  1.00  0.00     0.049 A 
ATOM     46  H   UNL A   1      39.607  30.739  31.743  1.00  0.00     0.167 HD
ATOM     47  C   UNL A   1      39.867  32.892  35.546  1.00  0.00     0.037 A 
ATOM     48  C   UNL A   1      40.475  28.915  29.813  1.00  0.00     0.037 A 
ATOM     49  C   UNL A   1      40.896  31.885  35.607  1.00  0.00     0.049 A 
ATOM     50  C   UNL A   1      41.407  28.764  30.985  1.00  0.00     0.074 A 
ATOM     51  C   UNL A   1      41.749  31.587  36.654  1.00  0.00     0.029 A 
ATOM     52  N   UNL A   1      41.219  31.020  34.570  1.00  0.00    -0.354 N 
ATOM     53  N   UNL A   1      41.403  29.398  32.132  1.00  0.00    -0.248 NA
ATOM     54  C   UNL A   1      42.483  27.774  30.850  1.00  0.00     0.031 C 
ATOM     55  C   UNL A   1      42.630  30.587  36.231  1.00  0.00     0.029 A 
ATOM     56  C   UNL A   1      42.286  30.216  34.941  1.00  0.00     0.049 A 
ATOM     57  H   UNL A   1      40.759  30.984  33.701  1.00  0.00     0.167 HD
ATOM     58  C   UNL A   1      42.459  28.870  32.864  1.00  0.00     0.074 A 
ATOM     59  C   UNL A   1      43.067  27.847  32.038  1.00  0.00     0.031 C 
ATOM     60  C   UNL A   1      42.887  29.206  34.105  1.00  0.00     0.037 A 
BRANCH  47  61
ATOM     61  C   UNL A   1      39.705  33.820  36.716  1.00  0.00     0.064 A 
ATOM     62  C   UNL A   1      38.921  33.475  37.829  1.00  0.00     0.173 A 
ATOM     63  C   UNL A   1      40.366  35.058  36.740  1.00  0.00     0.173 A 
ATOM     64  F   UNL A   1      38.262  32.308  37.856  1.00  0.00    -0.203 F 
ATOM     65  C   UNL A   1      38.774  34.351  38.902  1.00  0.00     0.198 A 
ATOM     66  C   UNL A   1      40.244  35.915  37.831  1.00  0.00     0.198 A 
ATOM     67  F   UNL A   1      41.134  35.436  35.709  1.00  0.00    -0.203 F 
ATOM     68  F   UNL A   1      37.973  34.024  39.926  1.00  0.00    -0.200 F 
ATOM     69  C   UNL A   1      39.441  35.566  38.906  1.00  0.00     0.200 A 
ATOM     70  F   UNL A   1      40.903  37.083  37.840  1.00  0.00    -0.200 F 
ATOM     71  F   UNL A   1      39.302  36.405  39.942  1.00  0.00    -0.200 F 
ENDBRANCH  47  61
BRANCH  48  72
ATOM     72  C   UNL A   1      40.632  28.074  28.596  1.00  0.00     0.064 A 
ATOM     73  C   UNL A   1      40.009  26.821  28.503  1.00  0.00     0.173 A 
ATOM     74  C   UNL A   1      41.396  28.506  27.502  1.00  0.00     0.173 A 
ATOM     75  F   UNL A   1      39.283  26.357  29.530  1.00  0.00    -0.203 F 
ATOM     76  C   UNL A   1      40.161  26.025  27.369  1.00  0.00     0.198 A 
ATOM     77  C   UNL A   1      41.520  27.723  26.357  1.00  0.00     0.198 A 
ATOM     78  F   UNL A   1      42.007  29.700  27.536  1.00  0.00    -0.203 F 
ATOM     79  F   UNL A   1      39.592  24.813  27.325  1.00  0.00    -0.200 F 
ATOM     80  C   UNL A   1      40.910  26.480  26.295  1.00  0.00     0.200 A 
ATOM     81  F   UNL A   1      42.229  28.175  25.313  1.00  0.00    -0.200 F 
ATOM     82  F   UNL A   1      41.048  25.717  25.202  1.00  0.00    -0.200 F 
ENDBRANCH  48  72
BRANCH  60  83
ATOM     83  C   UNL A   1      44.063  28.450  34.654  1.00  0.00     0.064 A 
ATOM     84  C   UNL A   1      43.904  27.235  35.339  1.00  0.00     0.173 A 
ATOM     85  C   UNL A   1      45.370  28.926  34.461  1.00  0.00     0.173 A 
ATOM     86  F   UNL A   1      42.675  26.745  35.565  1.00  0.00    -0.203 F 
ATOM     87  C   UNL A   1      45.005  26.540  35.832  1.00  0.00     0.198 A 
ATOM     88  C   UNL A   1      46.470  28.210  34.925  1.00  0.00     0.198 A 
ATOM     89  F   UNL A   1      45.581  30.078  33.808  1.00  0.00    -0.203 F 
ATOM     90  F   UNL A   1      44.823  25.410  36.529  1.00  0.00    -0.200 F 
ATOM     91  C   UNL A   1      46.287  27.023  35.618  1.00  0.00     0.200 A 
ATOM     92  F   UNL A   1      47.710  28.670  34.703  1.00  0.00    -0.200 F 
ATOM     93  F   UNL A   1      47.346  26.347  36.085  1.00  0.00    -0.200 F 
ENDBRANCH  60  83
ENDBRANCH  34  35
ENDBRANCH  26  29
ENDBRANCH  24  25
ENDBRANCH  23  24
ENDBRANCH   1  23
TORSDOF 16
ENDMDL
