MODEL 1
REMARK VINA RESULT:     -13.6      0.000      0.000
REMARK SMILES O=C1Nc2ccccc2/C1=C/c1cccc(C(=O)NCCCNC(=O)c2ccc(-c3c4nc(c(-c5c(F)c(F)c(F)c(F)c5F)c5ccc([nH]5)c(-c5c(F)c(F)c(F)c(F)c5F)c5nc(c(-c6c(F)c(F)c(F)c(F)c6F)c6ccc3[nH]6)C=C5)C=C4)cc2)c1
REMARK SMILES IDX 21 1 20 2 19 3 17 4 18 5 16 7 12 8 13 9 89 10 14 11 15 12
REMARK SMILES IDX 11 13 1 14 2 15 3 16 10 17 4 18 9 20 5 21 8 22 6 23 7 24
REMARK SMILES IDX 22 25 23 26 24 27 25 29 26 30 27 31 88 32 28 33 87 34 29 35
REMARK SMILES IDX 30 36 31 37 81 38 32 39 86 40 80 41 82 42 33 43 85 44 79 45
REMARK SMILES IDX 78 46 34 48 66 49 46 50 65 51 47 52 50 53 64 54 83 55 48 56
REMARK SMILES IDX 49 57 63 59 84 60 51 61 35 62 36 63 44 64 37 65 38 66 42 67
REMARK SMILES IDX 45 68 39 69 40 70 43 71 41 72 67 73 68 74 76 75 69 76 70 77
REMARK SMILES IDX 74 78 77 79 71 80 72 81 75 82 73 83 52 84 53 85 61 86 54 87
REMARK SMILES IDX 55 88 59 89 62 90 56 91 57 92 60 93 58 94
REMARK H PARENT 19 6 3 19 23 28 82 47 50 58
REMARK Flexibility Score: inf
ROOT
ATOM      1  C   UNL A   1      37.792  19.565  24.991  1.00  0.00     0.042 C 
ENDROOT
BRANCH   1   2
ATOM      2  C   UNL A   1      36.566  20.480  24.967  1.00  0.00     0.118 C 
BRANCH   2   3
ATOM      3  N   UNL A   1      35.353  19.725  25.230  1.00  0.00    -0.352 N 
ATOM      4  C   UNL A   1      34.021  19.994  25.032  1.00  0.00     0.251 C 
ATOM      5  O   UNL A   1      33.223  19.107  25.343  1.00  0.00    -0.269 OA
ATOM      6  H   UNL A   1      35.521  18.842  25.632  1.00  0.00     0.163 HD
BRANCH   4   7
ATOM      7  C   UNL A   1      33.500  21.257  24.432  1.00  0.00     0.040 A 
ATOM      8  C   UNL A   1      33.275  23.681  24.331  1.00  0.00    -0.024 A 
ATOM      9  C   UNL A   1      32.671  23.588  23.079  1.00  0.00     0.008 A 
ATOM     10  C   UNL A   1      33.599  22.509  25.032  1.00  0.00     0.022 A 
ATOM     11  C   UNL A   1      32.453  22.331  22.512  1.00  0.00     0.001 A 
ATOM     12  C   UNL A   1      32.889  21.177  23.172  1.00  0.00     0.014 A 
BRANCH   8  13
ATOM     13  C   UNL A   1      33.645  24.968  24.930  1.00  0.00     0.022 C 
ATOM     14  O   UNL A   1      30.795  24.287  25.941  1.00  0.00    -0.269 OA
ATOM     15  C   UNL A   1      31.403  25.320  26.126  1.00  0.00     0.256 C 
ATOM     16  N   UNL A   1      30.934  26.425  26.818  1.00  0.00    -0.321 N 
ATOM     17  C   UNL A   1      32.796  25.708  25.665  1.00  0.00     0.050 C 
ATOM     18  C   UNL A   1      31.867  27.453  26.830  1.00  0.00     0.049 A 
ATOM     19  H   UNL A   1      30.049  26.476  27.247  1.00  0.00     0.170 HD
ATOM     20  C   UNL A   1      33.028  27.075  26.146  1.00  0.00     0.011 A 
ATOM     21  C   UNL A   1      31.707  28.700  27.397  1.00  0.00     0.027 A 
ATOM     22  C   UNL A   1      34.069  27.973  25.991  1.00  0.00     0.011 A 
ATOM     23  C   UNL A   1      32.757  29.607  27.251  1.00  0.00     0.002 A 
ATOM     24  C   UNL A   1      33.925  29.249  26.552  1.00  0.00     0.001 A 
ENDBRANCH   8  13
ENDBRANCH   4   7
ENDBRANCH   2   3
ENDBRANCH   1   2
BRANCH   1  25
ATOM     25  C   UNL A   1      38.965  20.176  25.751  1.00  0.00     0.118 C 
BRANCH  25  26
ATOM     26  N   UNL A   1      40.029  19.203  25.969  1.00  0.00    -0.352 N 
ATOM     27  C   UNL A   1      41.378  19.382  26.126  1.00  0.00     0.251 C 
ATOM     28  H   UNL A   1      39.729  18.266  26.012  1.00  0.00     0.163 HD
ATOM     29  O   UNL A   1      42.134  18.420  26.030  1.00  0.00    -0.269 OA
BRANCH  27  30
ATOM     30  C   UNL A   1      41.931  20.723  26.409  1.00  0.00     0.039 A 
ATOM     31  C   UNL A   1      42.156  21.599  25.344  1.00  0.00     0.014 A 
ATOM     32  C   UNL A   1      42.273  21.101  27.710  1.00  0.00     0.014 A 
ATOM     33  C   UNL A   1      42.675  22.869  25.590  1.00  0.00     0.010 A 
ATOM     34  C   UNL A   1      42.705  22.397  27.964  1.00  0.00     0.010 A 
ATOM     35  C   UNL A   1      42.922  23.292  26.906  1.00  0.00    -0.014 A 
BRANCH  35  36
ATOM     36  C   UNL A   1      43.410  24.663  27.196  1.00  0.00     0.031 A 
ATOM     37  C   UNL A   1      42.475  25.695  27.762  1.00  0.00     0.074 A 
ATOM     38  C   UNL A   1      44.679  24.992  26.889  1.00  0.00     0.049 A 
ATOM     39  N   UNL A   1      42.697  26.959  28.024  1.00  0.00    -0.248 NA
ATOM     40  C   UNL A   1      41.099  25.257  28.042  1.00  0.00     0.031 C 
ATOM     41  C   UNL A   1      45.665  24.088  26.295  1.00  0.00     0.029 A 
ATOM     42  N   UNL A   1      45.355  26.177  27.027  1.00  0.00    -0.354 N 
ATOM     43  C   UNL A   1      41.489  27.465  28.488  1.00  0.00     0.074 A 
ATOM     44  C   UNL A   1      40.523  26.391  28.406  1.00  0.00     0.031 C 
ATOM     45  C   UNL A   1      46.829  24.740  26.151  1.00  0.00     0.029 A 
ATOM     46  C   UNL A   1      46.658  26.119  26.597  1.00  0.00     0.049 A 
ATOM     47  H   UNL A   1      44.946  26.992  27.400  1.00  0.00     0.167 HD
ATOM     48  C   UNL A   1      41.218  28.704  28.963  1.00  0.00     0.037 A 
ATOM     49  C   UNL A   1      47.606  27.074  26.559  1.00  0.00     0.037 A 
ATOM     50  C   UNL A   1      42.191  29.763  29.046  1.00  0.00     0.049 A 
ATOM     51  C   UNL A   1      47.272  28.453  27.063  1.00  0.00     0.074 A 
ATOM     52  C   UNL A   1      42.035  31.040  29.555  1.00  0.00     0.029 A 
ATOM     53  N   UNL A   1      43.501  29.669  28.598  1.00  0.00    -0.354 N 
ATOM     54  N   UNL A   1      46.148  28.902  27.564  1.00  0.00    -0.248 NA
ATOM     55  C   UNL A   1      48.344  29.455  26.999  1.00  0.00     0.031 C 
ATOM     56  C   UNL A   1      43.231  31.738  29.358  1.00  0.00     0.029 A 
ATOM     57  C   UNL A   1      44.156  30.876  28.790  1.00  0.00     0.049 A 
ATOM     58  H   UNL A   1      43.905  28.864  28.201  1.00  0.00     0.167 HD
ATOM     59  C   UNL A   1      46.383  30.228  27.905  1.00  0.00     0.074 A 
ATOM     60  C   UNL A   1      47.765  30.503  27.567  1.00  0.00     0.031 C 
ATOM     61  C   UNL A   1      45.534  31.133  28.451  1.00  0.00     0.037 A 
BRANCH  48  62
ATOM     62  C   UNL A   1      39.811  28.979  29.418  1.00  0.00     0.064 A 
ATOM     63  C   UNL A   1      39.410  28.767  30.747  1.00  0.00     0.173 A 
ATOM     64  C   UNL A   1      38.854  29.472  28.519  1.00  0.00     0.173 A 
ATOM     65  F   UNL A   1      40.281  28.288  31.647  1.00  0.00    -0.203 F 
ATOM     66  C   UNL A   1      38.095  28.993  31.146  1.00  0.00     0.198 A 
ATOM     67  C   UNL A   1      37.549  29.734  28.931  1.00  0.00     0.198 A 
ATOM     68  F   UNL A   1      39.181  29.703  27.238  1.00  0.00    -0.203 F 
ATOM     69  F   UNL A   1      37.721  28.717  32.402  1.00  0.00    -0.200 F 
ATOM     70  C   UNL A   1      37.167  29.483  30.240  1.00  0.00     0.200 A 
ATOM     71  F   UNL A   1      36.658  30.224  28.057  1.00  0.00    -0.200 F 
ATOM     72  F   UNL A   1      35.903  29.703  30.625  1.00  0.00    -0.200 F 
ENDBRANCH  48  62
BRANCH  49  73
ATOM     73  C   UNL A   1      48.967  26.749  26.058  1.00  0.00     0.064 A 
ATOM     74  C   UNL A   1      49.326  27.013  24.729  1.00  0.00     0.173 A 
ATOM     75  C   UNL A   1      49.939  26.179  26.894  1.00  0.00     0.173 A 
ATOM     76  F   UNL A   1      48.426  27.542  23.887  1.00  0.00    -0.203 F 
ATOM     77  C   UNL A   1      50.596  26.703  24.250  1.00  0.00     0.198 A 
ATOM     78  C   UNL A   1      51.219  25.899  26.422  1.00  0.00     0.198 A 
ATOM     79  F   UNL A   1      49.651  25.915  28.177  1.00  0.00    -0.203 F 
ATOM     80  F   UNL A   1      50.897  26.925  22.963  1.00  0.00    -0.200 F 
ATOM     81  C   UNL A   1      51.545  26.153  25.099  1.00  0.00     0.200 A 
ATOM     82  F   UNL A   1      52.139  25.386  27.251  1.00  0.00    -0.200 F 
ATOM     83  F   UNL A   1      52.770  25.863  24.640  1.00  0.00    -0.200 F 
ENDBRANCH  49  73
BRANCH  61  84
ATOM     84  C   UNL A   1      46.086  32.498  28.755  1.00  0.00     0.064 A 
ATOM     85  C   UNL A   1      46.009  33.551  27.832  1.00  0.00     0.173 A 
ATOM     86  C   UNL A   1      46.668  32.762  30.005  1.00  0.00     0.173 A 
ATOM     87  F   UNL A   1      45.476  33.348  26.618  1.00  0.00    -0.203 F 
ATOM     88  C   UNL A   1      46.522  34.810  28.138  1.00  0.00     0.198 A 
ATOM     89  C   UNL A   1      47.146  34.030  30.320  1.00  0.00     0.198 A 
ATOM     90  F   UNL A   1      46.760  31.793  30.928  1.00  0.00    -0.203 F 
ATOM     91  F   UNL A   1      46.491  35.785  27.219  1.00  0.00    -0.200 F 
ATOM     92  C   UNL A   1      47.082  35.050  29.384  1.00  0.00     0.200 A 
ATOM     93  F   UNL A   1      47.669  34.265  31.532  1.00  0.00    -0.200 F 
ATOM     94  F   UNL A   1      47.568  36.264  29.679  1.00  0.00    -0.200 F 
ENDBRANCH  61  84
ENDBRANCH  35  36
ENDBRANCH  27  30
ENDBRANCH  25  26
ENDBRANCH   1  25
TORSDOF 11
ENDMDL
MODEL 2
REMARK VINA RESULT:     -13.4      4.473      8.010
REMARK SMILES O=C1Nc2ccccc2/C1=C/c1cccc(C(=O)NCCCNC(=O)c2ccc(-c3c4nc(c(-c5c(F)c(F)c(F)c(F)c5F)c5ccc([nH]5)c(-c5c(F)c(F)c(F)c(F)c5F)c5nc(c(-c6c(F)c(F)c(F)c(F)c6F)c6ccc3[nH]6)C=C5)C=C4)cc2)c1
REMARK SMILES IDX 21 1 20 2 19 3 17 4 18 5 16 7 12 8 13 9 89 10 14 11 15 12
REMARK SMILES IDX 11 13 1 14 2 15 3 16 10 17 4 18 9 20 5 21 8 22 6 23 7 24
REMARK SMILES IDX 22 25 23 26 24 27 25 29 26 30 27 31 88 32 28 33 87 34 29 35
REMARK SMILES IDX 30 36 31 37 81 38 32 39 86 40 80 41 82 42 33 43 85 44 79 45
REMARK SMILES IDX 78 46 34 48 66 49 46 50 65 51 47 52 50 53 64 54 83 55 48 56
REMARK SMILES IDX 49 57 63 59 84 60 51 61 35 62 36 63 44 64 37 65 38 66 42 67
REMARK SMILES IDX 45 68 39 69 40 70 43 71 41 72 67 73 68 74 76 75 69 76 70 77
REMARK SMILES IDX 74 78 77 79 71 80 72 81 75 82 73 83 52 84 53 85 61 86 54 87
REMARK SMILES IDX 55 88 59 89 62 90 56 91 57 92 60 93 58 94
REMARK H PARENT 19 6 3 19 23 28 82 47 50 58
REMARK Flexibility Score: inf
ROOT
ATOM      1  C   UNL A   1      33.432  28.953  23.689  1.00  0.00     0.042 C 
ENDROOT
BRANCH   1   2
ATOM      2  C   UNL A   1      31.956  28.958  23.286  1.00  0.00     0.118 C 
BRANCH   2   3
ATOM      3  N   UNL A   1      31.698  27.962  22.261  1.00  0.00    -0.352 N 
ATOM      4  C   UNL A   1      31.757  26.589  22.253  1.00  0.00     0.251 C 
ATOM      5  O   UNL A   1      31.438  26.026  21.204  1.00  0.00    -0.269 OA
ATOM      6  H   UNL A   1      31.425  28.349  21.399  1.00  0.00     0.163 HD
BRANCH   4   7
ATOM      7  C   UNL A   1      32.135  25.759  23.433  1.00  0.00     0.040 A 
ATOM      8  C   UNL A   1      33.751  24.803  24.987  1.00  0.00    -0.024 A 
ATOM      9  C   UNL A   1      32.719  24.372  25.818  1.00  0.00     0.008 A 
ATOM     10  C   UNL A   1      33.443  25.410  23.759  1.00  0.00     0.022 A 
ATOM     11  C   UNL A   1      31.393  24.606  25.447  1.00  0.00     0.001 A 
ATOM     12  C   UNL A   1      31.106  25.318  24.277  1.00  0.00     0.014 A 
BRANCH   8  13
ATOM     13  C   UNL A   1      35.163  24.700  25.372  1.00  0.00     0.022 C 
ATOM     14  O   UNL A   1      34.405  22.031  23.990  1.00  0.00    -0.269 OA
ATOM     15  C   UNL A   1      35.453  22.289  24.545  1.00  0.00     0.256 C 
ATOM     16  N   UNL A   1      36.528  21.428  24.692  1.00  0.00    -0.321 N 
ATOM     17  C   UNL A   1      35.883  23.574  25.229  1.00  0.00     0.050 C 
ATOM     18  C   UNL A   1      37.567  22.024  25.394  1.00  0.00     0.049 A 
ATOM     19  H   UNL A   1      36.553  20.507  24.342  1.00  0.00     0.170 HD
ATOM     20  C   UNL A   1      37.236  23.337  25.748  1.00  0.00     0.011 A 
ATOM     21  C   UNL A   1      38.764  21.434  25.746  1.00  0.00     0.027 A 
ATOM     22  C   UNL A   1      38.111  24.097  26.502  1.00  0.00     0.011 A 
ATOM     23  C   UNL A   1      39.653  22.200  26.500  1.00  0.00     0.002 A 
ATOM     24  C   UNL A   1      39.329  23.517  26.878  1.00  0.00     0.001 A 
ENDBRANCH   8  13
ENDBRANCH   4   7
ENDBRANCH   2   3
ENDBRANCH   1   2
BRANCH   1  25
ATOM     25  C   UNL A   1      33.630  29.029  25.200  1.00  0.00     0.118 C 
BRANCH  25  26
ATOM     26  N   UNL A   1      33.178  30.307  25.737  1.00  0.00    -0.352 N 
ATOM     27  C   UNL A   1      33.554  30.975  26.873  1.00  0.00     0.251 C 
ATOM     28  H   UNL A   1      32.495  30.765  25.196  1.00  0.00     0.163 HD
ATOM     29  O   UNL A   1      32.866  31.903  27.288  1.00  0.00    -0.269 OA
BRANCH  27  30
ATOM     30  C   UNL A   1      34.778  30.588  27.603  1.00  0.00     0.039 A 
ATOM     31  C   UNL A   1      35.841  31.493  27.665  1.00  0.00     0.014 A 
ATOM     32  C   UNL A   1      34.902  29.323  28.183  1.00  0.00     0.014 A 
ATOM     33  C   UNL A   1      37.005  31.148  28.351  1.00  0.00     0.010 A 
ATOM     34  C   UNL A   1      36.025  29.014  28.941  1.00  0.00     0.010 A 
ATOM     35  C   UNL A   1      37.094  29.918  29.024  1.00  0.00    -0.014 A 
BRANCH  35  36
ATOM     36  C   UNL A   1      38.296  29.559  29.816  1.00  0.00     0.031 A 
ATOM     37  C   UNL A   1      38.503  30.145  31.185  1.00  0.00     0.074 A 
ATOM     38  C   UNL A   1      39.230  28.755  29.274  1.00  0.00     0.049 A 
ATOM     39  N   UNL A   1      39.515  30.001  32.004  1.00  0.00    -0.248 NA
ATOM     40  C   UNL A   1      37.446  31.036  31.689  1.00  0.00     0.031 C 
ATOM     41  C   UNL A   1      39.159  28.161  27.938  1.00  0.00     0.029 A 
ATOM     42  N   UNL A   1      40.422  28.302  29.777  1.00  0.00    -0.354 N 
ATOM     43  C   UNL A   1      39.221  30.790  33.109  1.00  0.00     0.074 A 
ATOM     44  C   UNL A   1      37.971  31.461  32.827  1.00  0.00     0.031 C 
ATOM     45  C   UNL A   1      40.243  27.397  27.739  1.00  0.00     0.029 A 
ATOM     46  C   UNL A   1      41.107  27.483  28.912  1.00  0.00     0.049 A 
ATOM     47  H   UNL A   1      40.757  28.540  30.671  1.00  0.00     0.167 HD
ATOM     48  C   UNL A   1      39.917  30.920  34.264  1.00  0.00     0.037 A 
ATOM     49  C   UNL A   1      42.301  26.877  29.048  1.00  0.00     0.037 A 
ATOM     50  C   UNL A   1      41.157  30.240  34.536  1.00  0.00     0.049 A 
ATOM     51  C   UNL A   1      43.071  27.063  30.328  1.00  0.00     0.074 A 
ATOM     52  C   UNL A   1      41.919  30.263  35.691  1.00  0.00     0.029 A 
ATOM     53  N   UNL A   1      41.822  29.421  33.635  1.00  0.00    -0.354 N 
ATOM     54  N   UNL A   1      42.752  27.754  31.395  1.00  0.00    -0.248 NA
ATOM     55  C   UNL A   1      44.368  26.378  30.422  1.00  0.00     0.031 C 
ATOM     56  C   UNL A   1      43.076  29.510  35.466  1.00  0.00     0.029 A 
ATOM     57  C   UNL A   1      43.002  28.957  34.197  1.00  0.00     0.049 A 
ATOM     58  H   UNL A   1      41.503  29.202  32.730  1.00  0.00     0.167 HD
ATOM     59  C   UNL A   1      43.788  27.563  32.299  1.00  0.00     0.074 A 
ATOM     60  C   UNL A   1      44.739  26.677  31.659  1.00  0.00     0.031 C 
ATOM     61  C   UNL A   1      43.937  28.073  33.547  1.00  0.00     0.037 A 
BRANCH  48  62
ATOM     62  C   UNL A   1      39.353  31.840  35.312  1.00  0.00     0.064 A 
ATOM     63  C   UNL A   1      38.503  31.372  36.327  1.00  0.00     0.173 A 
ATOM     64  C   UNL A   1      39.674  33.206  35.310  1.00  0.00     0.173 A 
ATOM     65  F   UNL A   1      38.155  30.077  36.372  1.00  0.00    -0.203 F 
ATOM     66  C   UNL A   1      37.962  32.242  37.270  1.00  0.00     0.198 A 
ATOM     67  C   UNL A   1      39.162  34.067  36.278  1.00  0.00     0.198 A 
ATOM     68  F   UNL A   1      40.489  33.709  34.370  1.00  0.00    -0.203 F 
ATOM     69  F   UNL A   1      37.099  31.782  38.186  1.00  0.00    -0.200 F 
ATOM     70  C   UNL A   1      38.296  33.587  37.249  1.00  0.00     0.200 A 
ATOM     71  F   UNL A   1      39.501  35.364  36.266  1.00  0.00    -0.200 F 
ATOM     72  F   UNL A   1      37.777  34.423  38.158  1.00  0.00    -0.200 F 
ENDBRANCH  48  62
BRANCH  49  73
ATOM     73  C   UNL A   1      42.823  26.013  27.958  1.00  0.00     0.064 A 
ATOM     74  C   UNL A   1      43.578  26.556  26.909  1.00  0.00     0.173 A 
ATOM     75  C   UNL A   1      42.588  24.629  27.943  1.00  0.00     0.173 A 
ATOM     76  F   UNL A   1      43.815  27.875  26.869  1.00  0.00    -0.203 F 
ATOM     77  C   UNL A   1      44.062  25.754  25.879  1.00  0.00     0.198 A 
ATOM     78  C   UNL A   1      43.100  23.823  26.929  1.00  0.00     0.198 A 
ATOM     79  F   UNL A   1      41.880  24.057  28.927  1.00  0.00    -0.203 F 
ATOM     80  F   UNL A   1      44.744  26.307  24.865  1.00  0.00    -0.200 F 
ATOM     81  C   UNL A   1      43.830  24.387  25.893  1.00  0.00     0.200 A 
ATOM     82  F   UNL A   1      42.890  22.500  26.957  1.00  0.00    -0.200 F 
ATOM     83  F   UNL A   1      44.304  23.613  24.906  1.00  0.00    -0.200 F 
ENDBRANCH  49  73
BRANCH  61  84
ATOM     84  C   UNL A   1      45.156  27.653  34.321  1.00  0.00     0.064 A 
ATOM     85  C   UNL A   1      46.347  28.392  34.286  1.00  0.00     0.173 A 
ATOM     86  C   UNL A   1      45.116  26.511  35.137  1.00  0.00     0.173 A 
ATOM     87  F   UNL A   1      46.443  29.483  33.511  1.00  0.00    -0.203 F 
ATOM     88  C   UNL A   1      47.463  27.987  35.016  1.00  0.00     0.198 A 
ATOM     89  C   UNL A   1      46.220  26.131  35.893  1.00  0.00     0.198 A 
ATOM     90  F   UNL A   1      43.999  25.772  35.212  1.00  0.00    -0.203 F 
ATOM     91  F   UNL A   1      48.608  28.676  34.922  1.00  0.00    -0.200 F 
ATOM     92  C   UNL A   1      47.395  26.863  35.824  1.00  0.00     0.200 A 
ATOM     93  F   UNL A   1      46.147  25.054  36.688  1.00  0.00    -0.200 F 
ATOM     94  F   UNL A   1      48.467  26.479  36.532  1.00  0.00    -0.200 F 
ENDBRANCH  61  84
ENDBRANCH  35  36
ENDBRANCH  27  30
ENDBRANCH  25  26
ENDBRANCH   1  25
TORSDOF 11
ENDMDL
MODEL 3
REMARK VINA RESULT:     -13.4      0.521      7.424
REMARK SMILES O=C1Nc2ccccc2/C1=C/c1cccc(C(=O)NCCCNC(=O)c2ccc(-c3c4nc(c(-c5c(F)c(F)c(F)c(F)c5F)c5ccc([nH]5)c(-c5c(F)c(F)c(F)c(F)c5F)c5nc(c(-c6c(F)c(F)c(F)c(F)c6F)c6ccc3[nH]6)C=C5)C=C4)cc2)c1
REMARK SMILES IDX 21 1 20 2 19 3 17 4 18 5 16 7 12 8 13 9 89 10 14 11 15 12
REMARK SMILES IDX 11 13 1 14 2 15 3 16 10 17 4 18 9 20 5 21 8 22 6 23 7 24
REMARK SMILES IDX 22 25 23 26 24 27 25 29 26 30 27 31 88 32 28 33 87 34 29 35
REMARK SMILES IDX 30 36 31 37 81 38 32 39 86 40 80 41 82 42 33 43 85 44 79 45
REMARK SMILES IDX 78 46 34 48 66 49 46 50 65 51 47 52 50 53 64 54 83 55 48 56
REMARK SMILES IDX 49 57 63 59 84 60 51 61 35 62 36 63 44 64 37 65 38 66 42 67
REMARK SMILES IDX 45 68 39 69 40 70 43 71 41 72 67 73 68 74 76 75 69 76 70 77
REMARK SMILES IDX 74 78 77 79 71 80 72 81 75 82 73 83 52 84 53 85 61 86 54 87
REMARK SMILES IDX 55 88 59 89 62 90 56 91 57 92 60 93 58 94
REMARK H PARENT 19 6 3 19 23 28 82 47 50 58
REMARK Flexibility Score: inf
ROOT
ATOM      1  C   UNL A   1      37.720  19.493  24.966  1.00  0.00     0.042 C 
ENDROOT
BRANCH   1   2
ATOM      2  C   UNL A   1      36.463  20.365  24.925  1.00  0.00     0.118 C 
BRANCH   2   3
ATOM      3  N   UNL A   1      35.274  19.569  25.172  1.00  0.00    -0.352 N 
ATOM      4  C   UNL A   1      33.933  19.810  24.999  1.00  0.00     0.251 C 
ATOM      5  O   UNL A   1      33.162  18.890  25.283  1.00  0.00    -0.269 OA
ATOM      6  H   UNL A   1      35.469  18.675  25.536  1.00  0.00     0.163 HD
BRANCH   4   7
ATOM      7  C   UNL A   1      33.372  21.081  24.455  1.00  0.00     0.040 A 
ATOM      8  C   UNL A   1      33.148  23.506  24.401  1.00  0.00    -0.024 A 
ATOM      9  C   UNL A   1      32.451  23.431  23.197  1.00  0.00     0.008 A 
ATOM     10  C   UNL A   1      33.520  22.326  25.061  1.00  0.00     0.022 A 
ATOM     11  C   UNL A   1      32.186  22.181  22.633  1.00  0.00     0.001 A 
ATOM     12  C   UNL A   1      32.668  21.018  23.245  1.00  0.00     0.014 A 
BRANCH   8  13
ATOM     13  C   UNL A   1      33.566  24.786  24.985  1.00  0.00     0.022 C 
ATOM     14  O   UNL A   1      30.693  24.223  26.003  1.00  0.00    -0.269 OA
ATOM     15  C   UNL A   1      31.339  25.235  26.176  1.00  0.00     0.256 C 
ATOM     16  N   UNL A   1      30.912  26.364  26.856  1.00  0.00    -0.321 N 
ATOM     17  C   UNL A   1      32.746  25.564  25.712  1.00  0.00     0.050 C 
ATOM     18  C   UNL A   1      31.884  27.356  26.857  1.00  0.00     0.049 A 
ATOM     19  H   UNL A   1      30.030  26.453  27.284  1.00  0.00     0.170 HD
ATOM     20  C   UNL A   1      33.029  26.927  26.177  1.00  0.00     0.011 A 
ATOM     21  C   UNL A   1      31.770  28.615  27.410  1.00  0.00     0.027 A 
ATOM     22  C   UNL A   1      34.103  27.784  26.013  1.00  0.00     0.011 A 
ATOM     23  C   UNL A   1      32.854  29.480  27.254  1.00  0.00     0.002 A 
ATOM     24  C   UNL A   1      34.007  29.070  26.559  1.00  0.00     0.001 A 
ENDBRANCH   8  13
ENDBRANCH   4   7
ENDBRANCH   2   3
ENDBRANCH   1   2
BRANCH   1  25
ATOM     25  C   UNL A   1      38.921  20.221  25.562  1.00  0.00     0.118 C 
BRANCH  25  26
ATOM     26  N   UNL A   1      40.006  19.299  25.876  1.00  0.00    -0.352 N 
ATOM     27  C   UNL A   1      41.330  19.540  26.132  1.00  0.00     0.251 C 
ATOM     28  H   UNL A   1      39.745  18.350  25.911  1.00  0.00     0.163 HD
ATOM     29  O   UNL A   1      42.133  18.612  26.109  1.00  0.00    -0.269 OA
BRANCH  27  30
ATOM     30  C   UNL A   1      41.801  20.908  26.435  1.00  0.00     0.039 A 
ATOM     31  C   UNL A   1      42.045  21.787  25.376  1.00  0.00     0.014 A 
ATOM     32  C   UNL A   1      42.048  21.309  27.749  1.00  0.00     0.014 A 
ATOM     33  C   UNL A   1      42.487  23.083  25.641  1.00  0.00     0.010 A 
ATOM     34  C   UNL A   1      42.402  22.627  28.017  1.00  0.00     0.010 A 
ATOM     35  C   UNL A   1      42.637  23.524  26.966  1.00  0.00    -0.014 A 
BRANCH  35  36
ATOM     36  C   UNL A   1      43.041  24.919  27.271  1.00  0.00     0.031 A 
ATOM     37  C   UNL A   1      44.450  25.373  27.009  1.00  0.00     0.074 A 
ATOM     38  C   UNL A   1      42.153  25.755  27.843  1.00  0.00     0.049 A 
ATOM     39  N   UNL A   1      45.009  26.530  27.264  1.00  0.00    -0.248 NA
ATOM     40  C   UNL A   1      45.361  24.387  26.408  1.00  0.00     0.031 C 
ATOM     41  C   UNL A   1      40.772  25.414  28.184  1.00  0.00     0.029 A 
ATOM     42  N   UNL A   1      42.282  27.060  28.242  1.00  0.00    -0.354 N 
ATOM     43  C   UNL A   1      46.333  26.404  26.866  1.00  0.00     0.074 A 
ATOM     44  C   UNL A   1      46.511  25.041  26.417  1.00  0.00     0.031 C 
ATOM     45  C   UNL A   1      40.170  26.491  28.711  1.00  0.00     0.029 A 
ATOM     46  C   UNL A   1      41.135  27.583  28.788  1.00  0.00     0.049 A 
ATOM     47  H   UNL A   1      43.116  27.575  28.147  1.00  0.00     0.167 HD
ATOM     48  C   UNL A   1      47.305  27.348  26.851  1.00  0.00     0.037 A 
ATOM     49  C   UNL A   1      40.893  28.804  29.301  1.00  0.00     0.037 A 
ATOM     50  C   UNL A   1      47.114  28.705  27.294  1.00  0.00     0.049 A 
ATOM     51  C   UNL A   1      41.998  29.826  29.303  1.00  0.00     0.074 A 
ATOM     52  C   UNL A   1      48.016  29.754  27.278  1.00  0.00     0.029 A 
ATOM     53  N   UNL A   1      45.939  29.198  27.844  1.00  0.00    -0.354 N 
ATOM     54  N   UNL A   1      43.226  29.720  28.861  1.00  0.00    -0.248 NA
ATOM     55  C   UNL A   1      41.677  31.141  29.874  1.00  0.00     0.031 C 
ATOM     56  C   UNL A   1      47.408  30.863  27.875  1.00  0.00     0.029 A 
ATOM     57  C   UNL A   1      46.102  30.528  28.200  1.00  0.00     0.049 A 
ATOM     58  H   UNL A   1      45.111  28.679  27.965  1.00  0.00     0.167 HD
ATOM     59  C   UNL A   1      43.817  30.959  29.068  1.00  0.00     0.074 A 
ATOM     60  C   UNL A   1      42.803  31.807  29.663  1.00  0.00     0.031 C 
ATOM     61  C   UNL A   1      45.082  31.360  28.788  1.00  0.00     0.037 A 
BRANCH  48  62
ATOM     62  C   UNL A   1      48.662  26.938  26.349  1.00  0.00     0.064 A 
ATOM     63  C   UNL A   1      49.640  26.411  27.208  1.00  0.00     0.173 A 
ATOM     64  C   UNL A   1      48.987  27.061  24.990  1.00  0.00     0.173 A 
ATOM     65  F   UNL A   1      49.388  26.279  28.519  1.00  0.00    -0.203 F 
ATOM     66  C   UNL A   1      50.904  26.067  26.734  1.00  0.00     0.198 A 
ATOM     67  C   UNL A   1      50.239  26.680  24.512  1.00  0.00     0.198 A 
ATOM     68  F   UNL A   1      48.090  27.549  24.120  1.00  0.00    -0.203 F 
ATOM     69  F   UNL A   1      51.841  25.632  27.586  1.00  0.00    -0.200 F 
ATOM     70  C   UNL A   1      51.200  26.195  25.386  1.00  0.00     0.200 A 
ATOM     71  F   UNL A   1      50.518  26.788  23.205  1.00  0.00    -0.200 F 
ATOM     72  F   UNL A   1      52.415  25.862  24.930  1.00  0.00    -0.200 F 
ENDBRANCH  48  62
BRANCH  49  73
ATOM     73  C   UNL A   1      39.541  29.135  29.821  1.00  0.00     0.064 A 
ATOM     74  C   UNL A   1      39.217  28.925  31.169  1.00  0.00     0.173 A 
ATOM     75  C   UNL A   1      38.547  29.674  28.990  1.00  0.00     0.173 A 
ATOM     76  F   UNL A   1      40.128  28.396  32.000  1.00  0.00    -0.203 F 
ATOM     77  C   UNL A   1      37.950  29.224  31.661  1.00  0.00     0.198 A 
ATOM     78  C   UNL A   1      37.289  30.002  29.491  1.00  0.00     0.198 A 
ATOM     79  F   UNL A   1      38.806  29.903  27.694  1.00  0.00    -0.203 F 
ATOM     80  F   UNL A   1      37.655  28.972  32.945  1.00  0.00    -0.200 F 
ATOM     81  C   UNL A   1      36.989  29.770  30.824  1.00  0.00     0.200 A 
ATOM     82  F   UNL A   1      36.370  30.548  28.682  1.00  0.00    -0.200 F 
ATOM     83  F   UNL A   1      35.771  30.066  31.300  1.00  0.00    -0.200 F 
ENDBRANCH  49  73
BRANCH  61  84
ATOM     84  C   UNL A   1      45.432  32.791  29.086  1.00  0.00     0.064 A 
ATOM     85  C   UNL A   1      46.018  33.174  30.302  1.00  0.00     0.173 A 
ATOM     86  C   UNL A   1      45.209  33.788  28.123  1.00  0.00     0.173 A 
ATOM     87  F   UNL A   1      46.239  32.263  31.262  1.00  0.00    -0.203 F 
ATOM     88  C   UNL A   1      46.339  34.506  30.554  1.00  0.00     0.198 A 
ATOM     89  C   UNL A   1      45.565  35.111  28.364  1.00  0.00     0.198 A 
ATOM     90  F   UNL A   1      44.658  33.475  26.941  1.00  0.00    -0.203 F 
ATOM     91  F   UNL A   1      46.844  34.857  31.744  1.00  0.00    -0.200 F 
ATOM     92  C   UNL A   1      46.121  35.471  29.582  1.00  0.00     0.200 A 
ATOM     93  F   UNL A   1      45.370  36.039  27.417  1.00  0.00    -0.200 F 
ATOM     94  F   UNL A   1      46.438  36.751  29.824  1.00  0.00    -0.200 F 
ENDBRANCH  61  84
ENDBRANCH  35  36
ENDBRANCH  27  30
ENDBRANCH  25  26
ENDBRANCH   1  25
TORSDOF 11
ENDMDL
