MODEL 1
REMARK VINA RESULT:     -12.8      0.000      0.000
REMARK SMILES O=C(NCCCNC(=O)[C@H]1C[C@H]2CCCC[C@@H]2[N@@H+]1C1CCS(=O)(=O)CC1)c1ccc(-c2c3nc(c(-c4c(F)c(F)c(F)c(F)c4F)c4ccc([nH]4)c(-c4c(F)c(F)c(F)c(F)c4F)c4nc(c(-c5c(F)c(F)c(F)c(F)c5F)c5ccc2[nH]5)C=C4)C=C3)cc1
REMARK SMILES IDX 4 1 3 2 1 3 2 4 27 6 28 7 89 8 29 9 88 10 30 11 31 12 32 13
REMARK SMILES IDX 82 14 33 15 87 16 81 17 83 18 34 19 86 20 80 21 79 22 35 24
REMARK SMILES IDX 67 25 47 26 66 27 48 28 51 29 65 30 84 31 49 32 50 33 64 35
REMARK SMILES IDX 85 36 52 37 36 38 37 39 45 40 38 41 39 42 43 43 46 44 40 45
REMARK SMILES IDX 41 46 44 47 42 48 68 49 69 50 77 51 70 52 71 53 75 54 78 55
REMARK SMILES IDX 72 56 73 57 76 58 74 59 53 60 54 61 62 62 55 63 56 64 60 65
REMARK SMILES IDX 63 66 57 67 58 68 61 69 59 70 5 71 6 72 7 73 8 74 9 76 10 77
REMARK SMILES IDX 11 78 18 79 12 80 17 81 13 83 16 84 14 85 15 86 19 87 20 88
REMARK SMILES IDX 26 89 21 90 25 91 22 92 23 93 24 94
REMARK H PARENT 3 5 83 23 51 34 7 75 18 82
REMARK Flexibility Score: inf
ROOT
ATOM      1  C   UNL A   1      32.803  32.792  26.967  1.00  0.00     0.118 C 
ENDROOT
BRANCH   1   2
ATOM      2  N   UNL A   1      32.546  34.077  27.602  1.00  0.00    -0.352 N 
ATOM      3  O   UNL A   1      32.528  35.566  29.292  1.00  0.00    -0.269 OA
ATOM      4  C   UNL A   1      33.065  34.601  28.760  1.00  0.00     0.251 C 
ATOM      5  H   UNL A   1      31.906  34.657  27.130  1.00  0.00     0.163 HD
BRANCH   4   6
ATOM      6  C   UNL A   1      34.268  33.993  29.365  1.00  0.00     0.039 A 
ATOM      7  C   UNL A   1      34.136  32.993  30.327  1.00  0.00     0.014 A 
ATOM      8  C   UNL A   1      35.540  34.403  28.953  1.00  0.00     0.014 A 
ATOM      9  C   UNL A   1      35.251  32.540  31.011  1.00  0.00     0.010 A 
ATOM     10  C   UNL A   1      36.673  33.833  29.540  1.00  0.00     0.010 A 
ATOM     11  C   UNL A   1      36.535  32.913  30.590  1.00  0.00    -0.014 A 
BRANCH  11  12
ATOM     12  C   UNL A   1      37.699  32.231  31.205  1.00  0.00     0.031 A 
ATOM     13  C   UNL A   1      38.155  32.559  32.596  1.00  0.00     0.074 A 
ATOM     14  C   UNL A   1      38.314  31.266  30.493  1.00  0.00     0.049 A 
ATOM     15  N   UNL A   1      39.144  32.041  33.281  1.00  0.00    -0.248 NA
ATOM     16  C   UNL A   1      37.415  33.609  33.314  1.00  0.00     0.031 C 
ATOM     17  C   UNL A   1      37.957  30.873  29.124  1.00  0.00     0.029 A 
ATOM     18  N   UNL A   1      39.343  30.421  30.817  1.00  0.00    -0.354 N 
ATOM     19  C   UNL A   1      39.152  32.704  34.500  1.00  0.00     0.074 A 
ATOM     20  C   UNL A   1      38.094  33.690  34.450  1.00  0.00     0.031 C 
ATOM     21  C   UNL A   1      38.708  29.830  28.752  1.00  0.00     0.029 A 
ATOM     22  C   UNL A   1      39.662  29.539  29.812  1.00  0.00     0.049 A 
ATOM     23  H   UNL A   1      39.808  30.444  31.684  1.00  0.00     0.167 HD
ATOM     24  C   UNL A   1      39.962  32.492  35.566  1.00  0.00     0.037 A 
ATOM     25  C   UNL A   1      40.637  28.617  29.738  1.00  0.00     0.037 A 
ATOM     26  C   UNL A   1      41.015  31.508  35.597  1.00  0.00     0.049 A 
ATOM     27  C   UNL A   1      41.552  28.447  30.917  1.00  0.00     0.074 A 
ATOM     28  C   UNL A   1      41.893  31.214  36.626  1.00  0.00     0.029 A 
ATOM     29  N   UNL A   1      41.334  30.657  34.547  1.00  0.00    -0.354 N 
ATOM     30  N   UNL A   1      41.535  29.065  32.073  1.00  0.00    -0.248 NA
ATOM     31  C   UNL A   1      42.622  27.453  30.780  1.00  0.00     0.031 C 
ATOM     32  C   UNL A   1      42.774  30.224  36.181  1.00  0.00     0.029 A 
ATOM     33  C   UNL A   1      42.408  29.852  34.899  1.00  0.00     0.049 A 
ATOM     34  H   UNL A   1      40.866  30.628  33.681  1.00  0.00     0.167 HD
ATOM     35  C   UNL A   1      42.575  28.520  32.810  1.00  0.00     0.074 A 
ATOM     36  C   UNL A   1      43.183  27.501  31.978  1.00  0.00     0.031 C 
ATOM     37  C   UNL A   1      42.995  28.839  34.059  1.00  0.00     0.037 A 
BRANCH  24  38
ATOM     38  C   UNL A   1      39.753  33.348  36.783  1.00  0.00     0.064 A 
ATOM     39  C   UNL A   1      40.445  34.557  36.961  1.00  0.00     0.173 A 
ATOM     40  C   UNL A   1      38.815  32.984  37.762  1.00  0.00     0.173 A 
ATOM     41  F   UNL A   1      41.363  34.948  36.063  1.00  0.00    -0.203 F 
ATOM     42  C   UNL A   1      40.222  35.355  38.081  1.00  0.00     0.198 A 
ATOM     43  C   UNL A   1      38.571  33.800  38.864  1.00  0.00     0.198 A 
ATOM     44  F   UNL A   1      38.121  31.843  37.642  1.00  0.00    -0.203 F 
ATOM     45  F   UNL A   1      40.929  36.481  38.250  1.00  0.00    -0.200 F 
ATOM     46  C   UNL A   1      39.280  34.980  39.027  1.00  0.00     0.200 A 
ATOM     47  F   UNL A   1      37.649  33.443  39.770  1.00  0.00    -0.200 F 
ATOM     48  F   UNL A   1      39.059  35.755  40.098  1.00  0.00    -0.200 F 
ENDBRANCH  24  38
BRANCH  25  49
ATOM     49  C   UNL A   1      40.814  27.815  28.499  1.00  0.00     0.064 A 
ATOM     50  C   UNL A   1      41.612  28.274  27.443  1.00  0.00     0.173 A 
ATOM     51  C   UNL A   1      40.173  26.575  28.340  1.00  0.00     0.173 A 
ATOM     52  F   UNL A   1      42.235  29.457  27.541  1.00  0.00    -0.203 F 
ATOM     53  C   UNL A   1      41.736  27.541  26.265  1.00  0.00     0.198 A 
ATOM     54  C   UNL A   1      40.331  25.826  27.178  1.00  0.00     0.198 A 
ATOM     55  F   UNL A   1      39.406  26.083  29.325  1.00  0.00    -0.203 F 
ATOM     56  F   UNL A   1      42.454  28.034  25.246  1.00  0.00    -0.200 F 
ATOM     57  C   UNL A   1      41.099  26.316  26.136  1.00  0.00     0.200 A 
ATOM     58  F   UNL A   1      39.733  24.631  27.069  1.00  0.00    -0.200 F 
ATOM     59  F   UNL A   1      41.219  25.612  25.001  1.00  0.00    -0.200 F 
ENDBRANCH  25  49
BRANCH  37  60
ATOM     60  C   UNL A   1      44.141  28.041  34.611  1.00  0.00     0.064 A 
ATOM     61  C   UNL A   1      45.471  28.463  34.472  1.00  0.00     0.173 A 
ATOM     62  C   UNL A   1      43.901  26.841  35.297  1.00  0.00     0.173 A 
ATOM     63  F   UNL A   1      45.756  29.595  33.809  1.00  0.00    -0.203 F 
ATOM     64  C   UNL A   1      46.521  27.694  34.966  1.00  0.00     0.198 A 
ATOM     65  C   UNL A   1      44.950  26.094  35.823  1.00  0.00     0.198 A 
ATOM     66  F   UNL A   1      42.647  26.394  35.463  1.00  0.00    -0.203 F 
ATOM     67  F   UNL A   1      47.787  28.083  34.763  1.00  0.00    -0.200 F 
ATOM     68  C   UNL A   1      46.260  26.514  35.646  1.00  0.00     0.200 A 
ATOM     69  F   UNL A   1      44.696  24.961  36.493  1.00  0.00    -0.200 F 
ATOM     70  F   UNL A   1      47.272  25.776  36.123  1.00  0.00    -0.200 F 
ENDBRANCH  37  60
ENDBRANCH  11  12
ENDBRANCH   4   6
ENDBRANCH   1   2
BRANCH   1  71
ATOM     71  C   UNL A   1      31.547  31.950  26.876  1.00  0.00     0.042 C 
BRANCH  71  72
ATOM     72  C   UNL A   1      31.778  30.648  26.126  1.00  0.00     0.118 C 
BRANCH  72  73
ATOM     73  N   UNL A   1      31.448  29.495  26.933  1.00  0.00    -0.351 N 
ATOM     74  C   UNL A   1      31.565  28.161  26.733  1.00  0.00     0.278 C 
ATOM     75  H   UNL A   1      31.061  29.728  27.808  1.00  0.00     0.163 HD
ATOM     76  O   UNL A   1      31.107  27.453  27.642  1.00  0.00    -0.268 OA
BRANCH  74  77
ATOM     77  C   UNL A   1      32.265  27.492  25.523  1.00  0.00     0.275 C 
ATOM     78  C   UNL A   1      33.638  26.848  25.726  1.00  0.00     0.085 C 
ATOM     79  N   UNL A   1      31.378  26.453  24.943  1.00  0.00    -0.320 N 
ATOM     80  C   UNL A   1      33.470  25.418  25.241  1.00  0.00     0.054 C 
ATOM     81  C   UNL A   1      31.968  25.168  25.330  1.00  0.00     0.188 C 
ATOM     82  H   UNL A   1      30.446  26.571  25.339  1.00  0.00     0.349 HD
ATOM     83  C   UNL A   1      34.255  24.353  25.994  1.00  0.00     0.010 C 
ATOM     84  C   UNL A   1      31.609  23.830  24.685  1.00  0.00     0.065 C 
ATOM     85  C   UNL A   1      33.905  22.968  25.442  1.00  0.00     0.001 C 
ATOM     86  C   UNL A   1      32.393  22.708  25.390  1.00  0.00     0.006 C 
BRANCH  79  87
ATOM     87  C   UNL A   1      30.856  26.592  23.578  1.00  0.00     0.186 C 
ATOM     88  C   UNL A   1      29.323  26.780  23.501  1.00  0.00     0.081 C 
ATOM     89  C   UNL A   1      31.554  27.578  22.624  1.00  0.00     0.081 C 
ATOM     90  C   UNL A   1      28.771  28.164  23.793  1.00  0.00     0.143 C 
ATOM     91  C   UNL A   1      31.318  29.044  22.914  1.00  0.00     0.143 C 
ATOM     92  S   UNL A   1      29.593  29.474  22.912  1.00  0.00     0.150 S 
ATOM     93  O   UNL A   1      29.459  30.687  23.694  1.00  0.00    -0.229 OA
ATOM     94  O   UNL A   1      29.143  29.428  21.532  1.00  0.00    -0.229 OA
ENDBRANCH  79  87
ENDBRANCH  74  77
ENDBRANCH  72  73
ENDBRANCH  71  72
ENDBRANCH   1  71
TORSDOF 11
ENDMDL
MODEL 2
REMARK VINA RESULT:     -12.7      5.796     11.010
REMARK SMILES O=C(NCCCNC(=O)[C@H]1C[C@H]2CCCC[C@@H]2[N@@H+]1C1CCS(=O)(=O)CC1)c1ccc(-c2c3nc(c(-c4c(F)c(F)c(F)c(F)c4F)c4ccc([nH]4)c(-c4c(F)c(F)c(F)c(F)c4F)c4nc(c(-c5c(F)c(F)c(F)c(F)c5F)c5ccc2[nH]5)C=C4)C=C3)cc1
REMARK SMILES IDX 4 1 3 2 1 3 2 4 27 6 28 7 89 8 29 9 88 10 30 11 31 12 32 13
REMARK SMILES IDX 82 14 33 15 87 16 81 17 83 18 34 19 86 20 80 21 79 22 35 24
REMARK SMILES IDX 67 25 47 26 66 27 48 28 51 29 65 30 84 31 49 32 50 33 64 35
REMARK SMILES IDX 85 36 52 37 36 38 37 39 45 40 38 41 39 42 43 43 46 44 40 45
REMARK SMILES IDX 41 46 44 47 42 48 68 49 69 50 77 51 70 52 71 53 75 54 78 55
REMARK SMILES IDX 72 56 73 57 76 58 74 59 53 60 54 61 62 62 55 63 56 64 60 65
REMARK SMILES IDX 63 66 57 67 58 68 61 69 59 70 5 71 6 72 7 73 8 74 9 76 10 77
REMARK SMILES IDX 11 78 18 79 12 80 17 81 13 83 16 84 14 85 15 86 19 87 20 88
REMARK SMILES IDX 26 89 21 90 25 91 22 92 23 93 24 94
REMARK H PARENT 3 5 83 23 51 34 7 75 18 82
REMARK Flexibility Score: inf
ROOT
ATOM      1  C   UNL A   1      39.181  20.081  26.080  1.00  0.00     0.118 C 
ENDROOT
BRANCH   1   2
ATOM      2  N   UNL A   1      40.325  19.183  26.015  1.00  0.00    -0.352 N 
ATOM      3  O   UNL A   1      42.477  18.619  25.658  1.00  0.00    -0.269 OA
ATOM      4  C   UNL A   1      41.667  19.473  26.001  1.00  0.00     0.251 C 
ATOM      5  H   UNL A   1      40.104  18.224  25.976  1.00  0.00     0.163 HD
BRANCH   4   6
ATOM      6  C   UNL A   1      42.129  20.820  26.394  1.00  0.00     0.039 A 
ATOM      7  C   UNL A   1      42.272  21.818  25.431  1.00  0.00     0.014 A 
ATOM      8  C   UNL A   1      42.397  21.102  27.737  1.00  0.00     0.014 A 
ATOM      9  C   UNL A   1      42.859  23.025  25.768  1.00  0.00     0.010 A 
ATOM     10  C   UNL A   1      42.848  22.375  28.100  1.00  0.00     0.010 A 
ATOM     11  C   UNL A   1      43.103  23.339  27.113  1.00  0.00    -0.014 A 
BRANCH  11  12
ATOM     12  C   UNL A   1      43.520  24.722  27.445  1.00  0.00     0.031 A 
ATOM     13  C   UNL A   1      44.923  25.197  27.205  1.00  0.00     0.074 A 
ATOM     14  C   UNL A   1      42.585  25.564  27.929  1.00  0.00     0.049 A 
ATOM     15  N   UNL A   1      45.440  26.380  27.427  1.00  0.00    -0.248 NA
ATOM     16  C   UNL A   1      45.876  24.221  26.653  1.00  0.00     0.031 C 
ATOM     17  C   UNL A   1      41.191  25.203  28.210  1.00  0.00     0.029 A 
ATOM     18  N   UNL A   1      42.647  26.896  28.246  1.00  0.00    -0.354 N 
ATOM     19  C   UNL A   1      46.773  26.289  27.052  1.00  0.00     0.074 A 
ATOM     20  C   UNL A   1      46.999  24.925  26.624  1.00  0.00     0.031 C 
ATOM     21  C   UNL A   1      40.519  26.293  28.597  1.00  0.00     0.029 A 
ATOM     22  C   UNL A   1      41.449  27.409  28.682  1.00  0.00     0.049 A 
ATOM     23  H   UNL A   1      43.468  27.432  28.169  1.00  0.00     0.167 HD
ATOM     24  C   UNL A   1      47.713  27.266  27.053  1.00  0.00     0.037 A 
ATOM     25  C   UNL A   1      41.138  28.637  29.133  1.00  0.00     0.037 A 
ATOM     26  C   UNL A   1      47.472  28.619  27.487  1.00  0.00     0.049 A 
ATOM     27  C   UNL A   1      42.219  29.679  29.173  1.00  0.00     0.074 A 
ATOM     28  C   UNL A   1      48.356  29.683  27.529  1.00  0.00     0.029 A 
ATOM     29  N   UNL A   1      46.256  29.094  27.958  1.00  0.00    -0.354 N 
ATOM     30  N   UNL A   1      43.471  29.587  28.794  1.00  0.00    -0.248 NA
ATOM     31  C   UNL A   1      41.844  30.994  29.702  1.00  0.00     0.031 C 
ATOM     32  C   UNL A   1      47.690  30.786  28.073  1.00  0.00     0.029 A 
ATOM     33  C   UNL A   1      46.373  30.431  28.310  1.00  0.00     0.049 A 
ATOM     34  H   UNL A   1      45.431  28.561  28.030  1.00  0.00     0.167 HD
ATOM     35  C   UNL A   1      44.028  30.836  29.019  1.00  0.00     0.074 A 
ATOM     36  C   UNL A   1      42.967  31.675  29.539  1.00  0.00     0.031 C 
ATOM     37  C   UNL A   1      45.303  31.251  28.820  1.00  0.00     0.037 A 
BRANCH  24  38
ATOM     38  C   UNL A   1      49.095  26.905  26.583  1.00  0.00     0.064 A 
ATOM     39  C   UNL A   1      50.066  26.405  27.466  1.00  0.00     0.173 A 
ATOM     40  C   UNL A   1      49.440  27.012  25.227  1.00  0.00     0.173 A 
ATOM     41  F   UNL A   1      49.794  26.294  28.775  1.00  0.00    -0.203 F 
ATOM     42  C   UNL A   1      51.334  26.050  27.013  1.00  0.00     0.198 A 
ATOM     43  C   UNL A   1      50.698  26.625  24.771  1.00  0.00     0.198 A 
ATOM     44  F   UNL A   1      48.551  27.479  24.337  1.00  0.00    -0.203 F 
ATOM     45  F   UNL A   1      52.258  25.619  27.883  1.00  0.00    -0.200 F 
ATOM     46  C   UNL A   1      51.646  26.152  25.666  1.00  0.00     0.200 A 
ATOM     47  F   UNL A   1      50.994  26.711  23.467  1.00  0.00    -0.200 F 
ATOM     48  F   UNL A   1      52.863  25.798  25.230  1.00  0.00    -0.200 F 
ENDBRANCH  24  38
BRANCH  25  49
ATOM     49  C   UNL A   1      39.761  28.931  29.609  1.00  0.00     0.064 A 
ATOM     50  C   UNL A   1      39.386  28.698  30.938  1.00  0.00     0.173 A 
ATOM     51  C   UNL A   1      38.785  29.439  28.736  1.00  0.00     0.173 A 
ATOM     52  F   UNL A   1      40.278  28.203  31.808  1.00  0.00    -0.203 F 
ATOM     53  C   UNL A   1      38.081  28.930  31.368  1.00  0.00     0.198 A 
ATOM     54  C   UNL A   1      37.493  29.707  29.177  1.00  0.00     0.198 A 
ATOM     55  F   UNL A   1      39.093  29.691  27.455  1.00  0.00    -0.203 F 
ATOM     56  F   UNL A   1      37.733  28.639  32.629  1.00  0.00    -0.200 F 
ATOM     57  C   UNL A   1      37.138  29.439  30.488  1.00  0.00     0.200 A 
ATOM     58  F   UNL A   1      36.592  30.222  28.328  1.00  0.00    -0.200 F 
ATOM     59  F   UNL A   1      35.883  29.662  30.903  1.00  0.00    -0.200 F 
ENDBRANCH  25  49
BRANCH  37  60
ATOM     60  C   UNL A   1      45.602  32.690  29.127  1.00  0.00     0.064 A 
ATOM     61  C   UNL A   1      46.072  33.096  30.386  1.00  0.00     0.173 A 
ATOM     62  C   UNL A   1      45.422  33.675  28.144  1.00  0.00     0.173 A 
ATOM     63  F   UNL A   1      46.243  32.195  31.365  1.00  0.00    -0.203 F 
ATOM     64  C   UNL A   1      46.315  34.439  30.659  1.00  0.00     0.198 A 
ATOM     65  C   UNL A   1      45.703  35.012  28.410  1.00  0.00     0.198 A 
ATOM     66  F   UNL A   1      44.980  33.340  26.923  1.00  0.00    -0.203 F 
ATOM     67  F   UNL A   1      46.700  34.811  31.887  1.00  0.00    -0.200 F 
ATOM     68  C   UNL A   1      46.137  35.394  29.670  1.00  0.00     0.200 A 
ATOM     69  F   UNL A   1      45.545  35.932  27.448  1.00  0.00    -0.200 F 
ATOM     70  F   UNL A   1      46.374  36.687  29.934  1.00  0.00    -0.200 F 
ENDBRANCH  37  60
ENDBRANCH  11  12
ENDBRANCH   4   6
ENDBRANCH   1   2
BRANCH   1  71
ATOM     71  C   UNL A   1      38.191  19.810  24.965  1.00  0.00     0.042 C 
BRANCH  71  72
ATOM     72  C   UNL A   1      36.943  20.670  25.079  1.00  0.00     0.118 C 
BRANCH  72  73
ATOM     73  N   UNL A   1      36.822  21.594  23.974  1.00  0.00    -0.351 N 
ATOM     74  C   UNL A   1      35.966  22.608  23.704  1.00  0.00     0.278 C 
ATOM     75  H   UNL A   1      37.503  21.460  23.275  1.00  0.00     0.163 HD
ATOM     76  O   UNL A   1      36.129  23.153  22.603  1.00  0.00    -0.268 OA
BRANCH  74  77
ATOM     77  C   UNL A   1      34.884  23.151  24.672  1.00  0.00     0.275 C 
ATOM     78  C   UNL A   1      35.090  24.524  25.316  1.00  0.00     0.085 C 
ATOM     79  N   UNL A   1      33.568  23.185  23.984  1.00  0.00    -0.320 N 
ATOM     80  C   UNL A   1      33.843  25.312  24.953  1.00  0.00     0.054 C 
ATOM     81  C   UNL A   1      33.299  24.601  23.718  1.00  0.00     0.188 C 
ATOM     82  H   UNL A   1      33.646  22.650  23.119  1.00  0.00     0.349 HD
ATOM     83  C   UNL A   1      34.036  26.800  24.696  1.00  0.00     0.010 C 
ATOM     84  C   UNL A   1      31.926  25.156  23.343  1.00  0.00     0.065 C 
ATOM     85  C   UNL A   1      32.709  27.423  24.256  1.00  0.00     0.001 C 
ATOM     86  C   UNL A   1      32.049  26.670  23.092  1.00  0.00     0.006 C 
BRANCH  79  87
ATOM     87  C   UNL A   1      32.460  22.344  24.449  1.00  0.00     0.186 C 
ATOM     88  C   UNL A   1      31.941  21.338  23.395  1.00  0.00     0.081 C 
ATOM     89  C   UNL A   1      32.590  21.650  25.818  1.00  0.00     0.081 C 
ATOM     90  C   UNL A   1      32.744  20.066  23.186  1.00  0.00     0.143 C 
ATOM     91  C   UNL A   1      33.556  20.487  25.869  1.00  0.00     0.143 C 
ATOM     92  S   UNL A   1      33.160  19.214  24.693  1.00  0.00     0.150 S 
ATOM     93  O   UNL A   1      34.377  18.463  24.457  1.00  0.00    -0.229 OA
ATOM     94  O   UNL A   1      31.960  18.550  25.170  1.00  0.00    -0.229 OA
ENDBRANCH  79  87
ENDBRANCH  74  77
ENDBRANCH  72  73
ENDBRANCH  71  72
ENDBRANCH   1  71
TORSDOF 11
ENDMDL
MODEL 3
REMARK VINA RESULT:     -12.7      1.915      2.803
REMARK SMILES O=C(NCCCNC(=O)[C@H]1C[C@H]2CCCC[C@@H]2[N@@H+]1C1CCS(=O)(=O)CC1)c1ccc(-c2c3nc(c(-c4c(F)c(F)c(F)c(F)c4F)c4ccc([nH]4)c(-c4c(F)c(F)c(F)c(F)c4F)c4nc(c(-c5c(F)c(F)c(F)c(F)c5F)c5ccc2[nH]5)C=C4)C=C3)cc1
REMARK SMILES IDX 4 1 3 2 1 3 2 4 27 6 28 7 89 8 29 9 88 10 30 11 31 12 32 13
REMARK SMILES IDX 82 14 33 15 87 16 81 17 83 18 34 19 86 20 80 21 79 22 35 24
REMARK SMILES IDX 67 25 47 26 66 27 48 28 51 29 65 30 84 31 49 32 50 33 64 35
REMARK SMILES IDX 85 36 52 37 36 38 37 39 45 40 38 41 39 42 43 43 46 44 40 45
REMARK SMILES IDX 41 46 44 47 42 48 68 49 69 50 77 51 70 52 71 53 75 54 78 55
REMARK SMILES IDX 72 56 73 57 76 58 74 59 53 60 54 61 62 62 55 63 56 64 60 65
REMARK SMILES IDX 63 66 57 67 58 68 61 69 59 70 5 71 6 72 7 73 8 74 9 76 10 77
REMARK SMILES IDX 11 78 18 79 12 80 17 81 13 83 16 84 14 85 15 86 19 87 20 88
REMARK SMILES IDX 26 89 21 90 25 91 22 92 23 93 24 94
REMARK H PARENT 3 5 83 23 51 34 7 75 18 82
REMARK Flexibility Score: inf
ROOT
ATOM      1  C   UNL A   1      33.087  29.094  26.298  1.00  0.00     0.118 C 
ENDROOT
BRANCH   1   2
ATOM      2  N   UNL A   1      32.845  30.528  26.372  1.00  0.00    -0.352 N 
ATOM      3  O   UNL A   1      32.902  32.575  27.311  1.00  0.00    -0.269 OA
ATOM      4  C   UNL A   1      33.424  31.473  27.183  1.00  0.00     0.251 C 
ATOM      5  H   UNL A   1      32.166  30.871  25.747  1.00  0.00     0.163 HD
BRANCH   4   6
ATOM      6  C   UNL A   1      34.672  31.153  27.905  1.00  0.00     0.039 A 
ATOM      7  C   UNL A   1      34.827  29.909  28.514  1.00  0.00     0.014 A 
ATOM      8  C   UNL A   1      35.709  32.089  27.955  1.00  0.00     0.014 A 
ATOM      9  C   UNL A   1      35.922  29.668  29.327  1.00  0.00     0.010 A 
ATOM     10  C   UNL A   1      36.882  31.786  28.653  1.00  0.00     0.010 A 
ATOM     11  C   UNL A   1      36.986  30.580  29.363  1.00  0.00    -0.014 A 
BRANCH  11  12
ATOM     12  C   UNL A   1      38.229  30.179  30.066  1.00  0.00     0.031 A 
ATOM     13  C   UNL A   1      38.546  30.679  31.444  1.00  0.00     0.074 A 
ATOM     14  C   UNL A   1      39.050  29.307  29.447  1.00  0.00     0.049 A 
ATOM     15  N   UNL A   1      39.582  30.409  32.198  1.00  0.00    -0.248 NA
ATOM     16  C   UNL A   1      37.586  31.609  32.057  1.00  0.00     0.031 C 
ATOM     17  C   UNL A   1      38.841  28.764  28.100  1.00  0.00     0.029 A 
ATOM     18  N   UNL A   1      40.205  28.701  29.867  1.00  0.00    -0.354 N 
ATOM     19  C   UNL A   1      39.404  31.139  33.365  1.00  0.00     0.074 A 
ATOM     20  C   UNL A   1      38.181  31.895  33.207  1.00  0.00     0.031 C 
ATOM     21  C   UNL A   1      39.795  27.865  27.830  1.00  0.00     0.029 A 
ATOM     22  C   UNL A   1      40.734  27.835  28.941  1.00  0.00     0.049 A 
ATOM     23  H   UNL A   1      40.615  28.870  30.746  1.00  0.00     0.167 HD
ATOM     24  C   UNL A   1      40.188  31.158  34.471  1.00  0.00     0.037 A 
ATOM     25  C   UNL A   1      41.871  27.117  28.969  1.00  0.00     0.037 A 
ATOM     26  C   UNL A   1      41.407  30.401  34.610  1.00  0.00     0.049 A 
ATOM     27  C   UNL A   1      42.744  27.205  30.187  1.00  0.00     0.074 A 
ATOM     28  C   UNL A   1      42.275  30.351  35.687  1.00  0.00     0.029 A 
ATOM     29  N   UNL A   1      41.934  29.562  33.637  1.00  0.00    -0.354 N 
ATOM     30  N   UNL A   1      42.554  27.882  31.294  1.00  0.00    -0.248 NA
ATOM     31  C   UNL A   1      43.990  26.431  30.160  1.00  0.00     0.031 C 
ATOM     32  C   UNL A   1      43.351  29.525  35.346  1.00  0.00     0.029 A 
ATOM     33  C   UNL A   1      43.124  29.006  34.083  1.00  0.00     0.049 A 
ATOM     34  H   UNL A   1      41.522  29.387  32.760  1.00  0.00     0.167 HD
ATOM     35  C   UNL A   1      43.642  27.599  32.104  1.00  0.00     0.074 A 
ATOM     36  C   UNL A   1      44.473  26.666  31.370  1.00  0.00     0.031 C 
ATOM     37  C   UNL A   1      43.933  28.073  33.339  1.00  0.00     0.037 A 
BRANCH  24  38
ATOM     38  C   UNL A   1      39.762  32.035  35.614  1.00  0.00     0.064 A 
ATOM     39  C   UNL A   1      40.277  33.330  35.782  1.00  0.00     0.173 A 
ATOM     40  C   UNL A   1      38.789  31.597  36.527  1.00  0.00     0.173 A 
ATOM     41  F   UNL A   1      41.219  33.794  34.947  1.00  0.00    -0.203 F 
ATOM     42  C   UNL A   1      39.854  34.142  36.831  1.00  0.00     0.198 A 
ATOM     43  C   UNL A   1      38.343  32.424  37.556  1.00  0.00     0.198 A 
ATOM     44  F   UNL A   1      38.257  30.371  36.413  1.00  0.00    -0.203 F 
ATOM     45  F   UNL A   1      40.395  35.357  36.996  1.00  0.00    -0.200 F 
ATOM     46  C   UNL A   1      38.881  33.692  37.711  1.00  0.00     0.200 A 
ATOM     47  F   UNL A   1      37.393  31.993  38.397  1.00  0.00    -0.200 F 
ATOM     48  F   UNL A   1      38.466  34.480  38.713  1.00  0.00    -0.200 F 
ENDBRANCH  24  38
BRANCH  25  49
ATOM     49  C   UNL A   1      42.257  26.285  27.798  1.00  0.00     0.064 A 
ATOM     50  C   UNL A   1      41.753  24.989  27.629  1.00  0.00     0.173 A 
ATOM     51  C   UNL A   1      43.153  26.767  26.830  1.00  0.00     0.173 A 
ATOM     52  F   UNL A   1      40.903  24.478  28.532  1.00  0.00    -0.203 F 
ATOM     53  C   UNL A   1      42.154  24.196  26.556  1.00  0.00     0.198 A 
ATOM     54  C   UNL A   1      43.522  25.988  25.738  1.00  0.00     0.198 A 
ATOM     55  F   UNL A   1      43.658  28.005  26.937  1.00  0.00    -0.203 F 
ATOM     56  F   UNL A   1      41.705  22.937  26.454  1.00  0.00    -0.200 F 
ATOM     57  C   UNL A   1      43.034  24.698  25.610  1.00  0.00     0.200 A 
ATOM     58  F   UNL A   1      44.354  26.487  24.813  1.00  0.00    -0.200 F 
ATOM     59  F   UNL A   1      43.420  23.933  24.578  1.00  0.00    -0.200 F 
ENDBRANCH  25  49
BRANCH  37  60
ATOM     60  C   UNL A   1      45.183  27.551  33.988  1.00  0.00     0.064 A 
ATOM     61  C   UNL A   1      46.418  28.201  33.844  1.00  0.00     0.173 A 
ATOM     62  C   UNL A   1      45.140  26.388  34.771  1.00  0.00     0.173 A 
ATOM     63  F   UNL A   1      46.516  29.308  33.092  1.00  0.00    -0.203 F 
ATOM     64  C   UNL A   1      47.570  27.684  34.430  1.00  0.00     0.198 A 
ATOM     65  C   UNL A   1      46.287  25.895  35.386  1.00  0.00     0.198 A 
ATOM     66  F   UNL A   1      43.983  25.730  34.945  1.00  0.00    -0.203 F 
ATOM     67  F   UNL A   1      48.751  28.285  34.224  1.00  0.00    -0.200 F 
ATOM     68  C   UNL A   1      47.503  26.537  35.205  1.00  0.00     0.200 A 
ATOM     69  F   UNL A   1      46.218  24.794  36.147  1.00  0.00    -0.200 F 
ATOM     70  F   UNL A   1      48.613  26.041  35.769  1.00  0.00    -0.200 F 
ENDBRANCH  37  60
ENDBRANCH  11  12
ENDBRANCH   4   6
ENDBRANCH   1   2
BRANCH   1  71
ATOM     71  C   UNL A   1      32.044  28.309  27.067  1.00  0.00     0.042 C 
BRANCH  71  72
ATOM     72  C   UNL A   1      31.391  27.231  26.218  1.00  0.00     0.118 C 
BRANCH  72  73
ATOM     73  N   UNL A   1      31.373  25.951  26.891  1.00  0.00    -0.351 N 
ATOM     74  C   UNL A   1      31.910  24.743  26.597  1.00  0.00     0.278 C 
ATOM     75  H   UNL A   1      30.868  25.960  27.737  1.00  0.00     0.163 HD
ATOM     76  O   UNL A   1      31.626  23.836  27.393  1.00  0.00    -0.268 OA
BRANCH  74  77
ATOM     77  C   UNL A   1      32.871  24.450  25.416  1.00  0.00     0.275 C 
ATOM     78  C   UNL A   1      34.362  24.266  25.705  1.00  0.00     0.085 C 
ATOM     79  N   UNL A   1      32.415  23.240  24.688  1.00  0.00    -0.320 N 
ATOM     80  C   UNL A   1      34.705  22.909  25.113  1.00  0.00     0.054 C 
ATOM     81  C   UNL A   1      33.366  22.182  25.044  1.00  0.00     0.188 C 
ATOM     82  H   UNL A   1      31.471  23.015  25.002  1.00  0.00     0.349 HD
ATOM     83  C   UNL A   1      35.744  22.088  25.865  1.00  0.00     0.010 C 
ATOM     84  C   UNL A   1      33.510  20.866  24.281  1.00  0.00     0.065 C 
ATOM     85  C   UNL A   1      35.905  20.721  25.192  1.00  0.00     0.001 C 
ATOM     86  C   UNL A   1      34.569  19.996  24.981  1.00  0.00     0.006 C 
BRANCH  79  87
ATOM     87  C   UNL A   1      31.970  23.330  23.293  1.00  0.00     0.186 C 
ATOM     88  C   UNL A   1      30.602  24.027  23.107  1.00  0.00     0.081 C 
ATOM     89  C   UNL A   1      32.967  23.842  22.237  1.00  0.00     0.081 C 
ATOM     90  C   UNL A   1      30.576  25.545  23.155  1.00  0.00     0.143 C 
ATOM     91  C   UNL A   1      33.266  25.325  22.288  1.00  0.00     0.143 C 
ATOM     92  S   UNL A   1      31.804  26.324  22.129  1.00  0.00     0.150 S 
ATOM     93  O   UNL A   1      32.111  27.617  22.708  1.00  0.00    -0.229 OA
ATOM     94  O   UNL A   1      31.360  26.216  20.751  1.00  0.00    -0.229 OA
ENDBRANCH  79  87
ENDBRANCH  74  77
ENDBRANCH  72  73
ENDBRANCH  71  72
ENDBRANCH   1  71
TORSDOF 11
ENDMDL
