MODEL 1
REMARK VINA RESULT:     -12.9      0.000      0.000
REMARK SMILES C[C@@H]1CC[C@@H](C(=O)NCCCNC(=O)c2ccc(-c3c4nc(c(-c5c(F)c(F)c(F)c(F)c5F)c5ccc([nH]5)c(-c5c(F)c(F)c(F)c(F)c5F)c5nc(c(-c6c(F)c(F)c(F)c(F)c6F)c6ccc3[nH]6)C=C5)C=C4)cc2)[C@H]2C(=O)N(c3ccccc3)C(=O)[C@@H]21
REMARK SMILES IDX 10 1 9 2 8 3 6 4 7 5 5 7 1 8 2 9 3 10 90 11 4 12 78 13 88 14
REMARK SMILES IDX 79 15 81 16 89 17 80 18 82 19 83 20 87 21 84 22 86 23 85 24
REMARK SMILES IDX 11 25 12 26 13 27 14 29 15 30 16 31 77 32 17 33 76 34 18 35
REMARK SMILES IDX 19 36 20 37 70 38 21 39 75 40 69 41 71 42 22 43 74 44 68 45
REMARK SMILES IDX 67 46 23 48 55 49 35 50 54 51 36 52 39 53 53 54 72 55 37 56
REMARK SMILES IDX 38 57 52 59 73 60 40 61 24 62 25 63 33 64 26 65 27 66 31 67
REMARK SMILES IDX 34 68 28 69 29 70 32 71 30 72 56 73 57 74 65 75 58 76 59 77
REMARK SMILES IDX 63 78 66 79 60 80 61 81 64 82 62 83 41 84 42 85 50 86 43 87
REMARK SMILES IDX 44 88 48 89 51 90 45 91 46 92 49 93 47 94
REMARK H PARENT 8 6 12 28 71 47 39 58
REMARK Flexibility Score: inf
ROOT
ATOM      1  C   UNL A   1      35.671  23.844  26.054  1.00  0.00     0.042 C 
ENDROOT
BRANCH   1   2
ATOM      2  C   UNL A   1      34.647  22.716  25.983  1.00  0.00     0.117 C 
BRANCH   2   3
ATOM      3  N   UNL A   1      33.493  22.967  26.817  1.00  0.00    -0.356 N 
ATOM      4  C   UNL A   1      32.216  23.339  26.567  1.00  0.00     0.223 C 
ATOM      5  O   UNL A   1      31.455  23.270  27.541  1.00  0.00    -0.275 OA
ATOM      6  H   UNL A   1      33.676  22.839  27.776  1.00  0.00     0.163 HD
BRANCH   4   7
ATOM      7  C   UNL A   1      31.661  23.828  25.216  1.00  0.00     0.092 C 
ATOM      8  C   UNL A   1      32.702  25.370  21.636  1.00  0.00     0.008 C 
ATOM      9  C   UNL A   1      33.383  24.717  22.835  1.00  0.00    -0.001 C 
ATOM     10  C   UNL A   1      32.960  23.233  22.982  1.00  0.00     0.005 C 
ATOM     11  C   UNL A   1      33.220  25.470  24.145  1.00  0.00     0.095 C 
ATOM     12  C   UNL A   1      31.850  22.901  24.003  1.00  0.00     0.014 C 
ATOM     13  C   UNL A   1      31.899  25.276  24.829  1.00  0.00     0.104 C 
ATOM     14  C   UNL A   1      33.423  26.959  24.254  1.00  0.00     0.237 C 
ATOM     15  C   UNL A   1      31.969  26.326  25.913  1.00  0.00     0.238 C 
ATOM     16  N   UNL A   1      32.789  27.341  25.431  1.00  0.00    -0.250 N 
ATOM     17  O   UNL A   1      34.157  27.595  23.513  1.00  0.00    -0.274 OA
ATOM     18  O   UNL A   1      31.306  26.288  26.932  1.00  0.00    -0.274 OA
BRANCH  16  19
ATOM     19  C   UNL A   1      32.998  28.588  26.085  1.00  0.00     0.052 A 
ATOM     20  C   UNL A   1      34.170  28.839  26.814  1.00  0.00     0.027 A 
ATOM     21  C   UNL A   1      32.026  29.601  26.050  1.00  0.00     0.027 A 
ATOM     22  C   UNL A   1      34.363  30.052  27.485  1.00  0.00     0.002 A 
ATOM     23  C   UNL A   1      32.206  30.805  26.739  1.00  0.00     0.002 A 
ATOM     24  C   UNL A   1      33.376  31.030  27.456  1.00  0.00     0.000 A 
ENDBRANCH  16  19
ENDBRANCH   4   7
ENDBRANCH   2   3
ENDBRANCH   1   2
BRANCH   1  25
ATOM     25  C   UNL A   1      36.804  23.691  25.060  1.00  0.00     0.118 C 
BRANCH  25  26
ATOM     26  N   UNL A   1      37.780  22.699  25.490  1.00  0.00    -0.352 N 
ATOM     27  C   UNL A   1      38.982  22.856  26.135  1.00  0.00     0.251 C 
ATOM     28  H   UNL A   1      37.538  21.766  25.287  1.00  0.00     0.163 HD
ATOM     29  O   UNL A   1      39.755  21.906  26.213  1.00  0.00    -0.269 OA
BRANCH  27  30
ATOM     30  C   UNL A   1      39.357  24.161  26.723  1.00  0.00     0.039 A 
ATOM     31  C   UNL A   1      39.003  24.443  28.045  1.00  0.00     0.014 A 
ATOM     32  C   UNL A   1      40.038  25.118  25.969  1.00  0.00     0.014 A 
ATOM     33  C   UNL A   1      39.381  25.658  28.621  1.00  0.00     0.010 A 
ATOM     34  C   UNL A   1      40.526  26.266  26.579  1.00  0.00     0.010 A 
ATOM     35  C   UNL A   1      40.176  26.565  27.901  1.00  0.00    -0.014 A 
BRANCH  35  36
ATOM     36  C   UNL A   1      40.612  27.858  28.482  1.00  0.00     0.031 A 
ATOM     37  C   UNL A   1      42.062  28.067  28.827  1.00  0.00     0.074 A 
ATOM     38  C   UNL A   1      39.702  28.808  28.765  1.00  0.00     0.049 A 
ATOM     39  N   UNL A   1      42.638  29.081  29.421  1.00  0.00    -0.248 NA
ATOM     40  C   UNL A   1      42.983  26.967  28.498  1.00  0.00     0.031 C 
ATOM     41  C   UNL A   1      38.263  28.701  28.521  1.00  0.00     0.029 A 
ATOM     42  N   UNL A   1      39.853  30.050  29.324  1.00  0.00    -0.354 N 
ATOM     43  C   UNL A   1      43.975  28.728  29.554  1.00  0.00     0.074 A 
ATOM     44  C   UNL A   1      44.110  27.378  29.057  1.00  0.00     0.031 C 
ATOM     45  C   UNL A   1      37.669  29.848  28.887  1.00  0.00     0.029 A 
ATOM     46  C   UNL A   1      38.677  30.751  29.434  1.00  0.00     0.049 A 
ATOM     47  H   UNL A   1      40.722  30.407  29.620  1.00  0.00     0.167 HD
ATOM     48  C   UNL A   1      45.007  29.475  30.017  1.00  0.00     0.037 A 
ATOM     49  C   UNL A   1      38.443  31.984  29.920  1.00  0.00     0.037 A 
ATOM     50  C   UNL A   1      44.866  30.827  30.488  1.00  0.00     0.049 A 
ATOM     51  C   UNL A   1      39.600  32.790  30.447  1.00  0.00     0.074 A 
ATOM     52  C   UNL A   1      45.847  31.696  30.929  1.00  0.00     0.029 A 
ATOM     53  N   UNL A   1      43.657  31.505  30.580  1.00  0.00    -0.354 N 
ATOM     54  N   UNL A   1      40.871  32.474  30.510  1.00  0.00    -0.248 NA
ATOM     55  C   UNL A   1      39.286  34.125  30.971  1.00  0.00     0.031 C 
ATOM     56  C   UNL A   1      45.225  32.881  31.339  1.00  0.00     0.029 A 
ATOM     57  C   UNL A   1      43.865  32.774  31.096  1.00  0.00     0.049 A 
ATOM     58  H   UNL A   1      42.782  31.137  30.318  1.00  0.00     0.167 HD
ATOM     59  C   UNL A   1      41.514  33.581  31.046  1.00  0.00     0.074 A 
ATOM     60  C   UNL A   1      40.492  34.580  31.283  1.00  0.00     0.031 C 
ATOM     61  C   UNL A   1      42.832  33.755  31.316  1.00  0.00     0.037 A 
BRANCH  48  62
ATOM     62  C   UNL A   1      46.366  28.833  30.033  1.00  0.00     0.064 A 
ATOM     63  C   UNL A   1      47.231  28.903  28.927  1.00  0.00     0.173 A 
ATOM     64  C   UNL A   1      46.808  28.122  31.159  1.00  0.00     0.173 A 
ATOM     65  F   UNL A   1      46.856  29.559  27.817  1.00  0.00    -0.203 F 
ATOM     66  C   UNL A   1      48.456  28.241  28.927  1.00  0.00     0.198 A 
ATOM     67  C   UNL A   1      48.052  27.495  31.171  1.00  0.00     0.198 A 
ATOM     68  F   UNL A   1      46.030  28.027  32.247  1.00  0.00    -0.203 F 
ATOM     69  F   UNL A   1      49.223  28.255  27.828  1.00  0.00    -0.200 F 
ATOM     70  C   UNL A   1      48.867  27.541  30.050  1.00  0.00     0.200 A 
ATOM     71  F   UNL A   1      48.456  26.832  32.263  1.00  0.00    -0.200 F 
ATOM     72  F   UNL A   1      50.044  26.900  30.047  1.00  0.00    -0.200 F 
ENDBRANCH  48  62
BRANCH  49  73
ATOM     73  C   UNL A   1      37.070  32.547  29.874  1.00  0.00     0.064 A 
ATOM     74  C   UNL A   1      36.193  32.372  30.956  1.00  0.00     0.173 A 
ATOM     75  C   UNL A   1      36.610  33.285  28.775  1.00  0.00     0.173 A 
ATOM     76  F   UNL A   1      36.581  31.659  32.023  1.00  0.00    -0.203 F 
ATOM     77  C   UNL A   1      34.906  32.904  30.932  1.00  0.00     0.198 A 
ATOM     78  C   UNL A   1      35.331  33.839  28.765  1.00  0.00     0.198 A 
ATOM     79  F   UNL A   1      37.410  33.486  27.718  1.00  0.00    -0.203 F 
ATOM     80  F   UNL A   1      34.077  32.690  31.963  1.00  0.00    -0.200 F 
ATOM     81  C   UNL A   1      34.478  33.643  29.840  1.00  0.00     0.200 A 
ATOM     82  F   UNL A   1      34.926  34.565  27.714  1.00  0.00    -0.200 F 
ATOM     83  F   UNL A   1      33.243  34.163  29.822  1.00  0.00    -0.200 F 
ENDBRANCH  49  73
BRANCH  61  84
ATOM     84  C   UNL A   1      43.250  35.091  31.860  1.00  0.00     0.064 A 
ATOM     85  C   UNL A   1      43.684  36.129  31.023  1.00  0.00     0.173 A 
ATOM     86  C   UNL A   1      43.172  35.348  33.238  1.00  0.00     0.173 A 
ATOM     87  F   UNL A   1      43.791  35.929  29.701  1.00  0.00    -0.203 F 
ATOM     88  C   UNL A   1      44.050  37.365  31.547  1.00  0.00     0.198 A 
ATOM     89  C   UNL A   1      43.505  36.596  33.755  1.00  0.00     0.198 A 
ATOM     90  F   UNL A   1      42.755  34.391  34.083  1.00  0.00    -0.203 F 
ATOM     91  F   UNL A   1      44.510  38.326  30.734  1.00  0.00    -0.200 F 
ATOM     92  C   UNL A   1      43.952  37.601  32.911  1.00  0.00     0.200 A 
ATOM     93  F   UNL A   1      43.394  36.827  35.071  1.00  0.00    -0.200 F 
ATOM     94  F   UNL A   1      44.295  38.795  33.412  1.00  0.00    -0.200 F 
ENDBRANCH  61  84
ENDBRANCH  35  36
ENDBRANCH  27  30
ENDBRANCH  25  26
ENDBRANCH   1  25
TORSDOF 11
ENDMDL
MODEL 2
REMARK VINA RESULT:     -12.9      3.058      8.718
REMARK SMILES C[C@@H]1CC[C@@H](C(=O)NCCCNC(=O)c2ccc(-c3c4nc(c(-c5c(F)c(F)c(F)c(F)c5F)c5ccc([nH]5)c(-c5c(F)c(F)c(F)c(F)c5F)c5nc(c(-c6c(F)c(F)c(F)c(F)c6F)c6ccc3[nH]6)C=C5)C=C4)cc2)[C@H]2C(=O)N(c3ccccc3)C(=O)[C@@H]21
REMARK SMILES IDX 10 1 9 2 8 3 6 4 7 5 5 7 1 8 2 9 3 10 90 11 4 12 78 13 88 14
REMARK SMILES IDX 79 15 81 16 89 17 80 18 82 19 83 20 87 21 84 22 86 23 85 24
REMARK SMILES IDX 11 25 12 26 13 27 14 29 15 30 16 31 77 32 17 33 76 34 18 35
REMARK SMILES IDX 19 36 20 37 70 38 21 39 75 40 69 41 71 42 22 43 74 44 68 45
REMARK SMILES IDX 67 46 23 48 55 49 35 50 54 51 36 52 39 53 53 54 72 55 37 56
REMARK SMILES IDX 38 57 52 59 73 60 40 61 24 62 25 63 33 64 26 65 27 66 31 67
REMARK SMILES IDX 34 68 28 69 29 70 32 71 30 72 56 73 57 74 65 75 58 76 59 77
REMARK SMILES IDX 63 78 66 79 60 80 61 81 64 82 62 83 41 84 42 85 50 86 43 87
REMARK SMILES IDX 44 88 48 89 51 90 45 91 46 92 49 93 47 94
REMARK H PARENT 8 6 12 28 71 47 39 58
REMARK Flexibility Score: inf
ROOT
ATOM      1  C   UNL A   1      34.028  27.721  25.566  1.00  0.00     0.042 C 
ENDROOT
BRANCH   1   2
ATOM      2  C   UNL A   1      32.953  27.838  24.491  1.00  0.00     0.117 C 
BRANCH   2   3
ATOM      3  N   UNL A   1      33.379  27.289  23.224  1.00  0.00    -0.356 N 
ATOM      4  C   UNL A   1      33.047  26.183  22.519  1.00  0.00     0.223 C 
ATOM      5  O   UNL A   1      33.497  26.147  21.366  1.00  0.00    -0.275 OA
ATOM      6  H   UNL A   1      34.060  27.841  22.775  1.00  0.00     0.163 HD
BRANCH   4   7
ATOM      7  C   UNL A   1      32.189  25.009  23.025  1.00  0.00     0.092 C 
ATOM      8  C   UNL A   1      30.691  23.263  26.340  1.00  0.00     0.008 C 
ATOM      9  C   UNL A   1      31.367  24.575  25.950  1.00  0.00    -0.001 C 
ATOM     10  C   UNL A   1      30.468  25.411  25.003  1.00  0.00     0.005 C 
ATOM     11  C   UNL A   1      32.771  24.423  25.390  1.00  0.00     0.095 C 
ATOM     12  C   UNL A   1      30.757  25.334  23.488  1.00  0.00     0.014 C 
ATOM     13  C   UNL A   1      32.838  23.998  23.952  1.00  0.00     0.104 C 
ATOM     14  C   UNL A   1      33.810  23.542  26.034  1.00  0.00     0.237 C 
ATOM     15  C   UNL A   1      34.310  23.699  23.799  1.00  0.00     0.238 C 
ATOM     16  N   UNL A   1      34.770  23.314  25.055  1.00  0.00    -0.250 N 
ATOM     17  O   UNL A   1      33.822  23.276  27.226  1.00  0.00    -0.274 OA
ATOM     18  O   UNL A   1      34.889  23.690  22.729  1.00  0.00    -0.274 OA
BRANCH  16  19
ATOM     19  C   UNL A   1      36.074  22.805  25.314  1.00  0.00     0.052 A 
ATOM     20  C   UNL A   1      37.064  23.608  25.899  1.00  0.00     0.027 A 
ATOM     21  C   UNL A   1      36.425  21.489  24.969  1.00  0.00     0.027 A 
ATOM     22  C   UNL A   1      38.356  23.119  26.125  1.00  0.00     0.002 A 
ATOM     23  C   UNL A   1      37.722  21.006  25.172  1.00  0.00     0.002 A 
ATOM     24  C   UNL A   1      38.687  21.822  25.752  1.00  0.00     0.000 A 
ENDBRANCH  16  19
ENDBRANCH   4   7
ENDBRANCH   2   3
ENDBRANCH   1   2
BRANCH   1  25
ATOM     25  C   UNL A   1      33.571  28.203  26.928  1.00  0.00     0.118 C 
BRANCH  25  26
ATOM     26  N   UNL A   1      33.483  29.655  26.994  1.00  0.00    -0.352 N 
ATOM     27  C   UNL A   1      34.321  30.571  27.583  1.00  0.00     0.251 C 
ATOM     28  H   UNL A   1      32.699  30.043  26.542  1.00  0.00     0.163 HD
ATOM     29  O   UNL A   1      33.950  31.734  27.711  1.00  0.00    -0.269 OA
BRANCH  27  30
ATOM     30  C   UNL A   1      35.655  30.164  28.076  1.00  0.00     0.039 A 
ATOM     31  C   UNL A   1      35.791  29.720  29.394  1.00  0.00     0.014 A 
ATOM     32  C   UNL A   1      36.778  30.240  27.251  1.00  0.00     0.014 A 
ATOM     33  C   UNL A   1      37.039  29.300  29.860  1.00  0.00     0.010 A 
ATOM     34  C   UNL A   1      37.987  29.703  27.671  1.00  0.00     0.010 A 
ATOM     35  C   UNL A   1      38.141  29.257  28.990  1.00  0.00    -0.014 A 
BRANCH  35  36
ATOM     36  C   UNL A   1      39.479  28.804  29.441  1.00  0.00     0.031 A 
ATOM     37  C   UNL A   1      40.266  29.651  30.403  1.00  0.00     0.074 A 
ATOM     38  C   UNL A   1      40.013  27.678  28.932  1.00  0.00     0.049 A 
ATOM     39  N   UNL A   1      41.484  29.486  30.853  1.00  0.00    -0.248 NA
ATOM     40  C   UNL A   1      39.610  30.875  30.892  1.00  0.00     0.031 C 
ATOM     41  C   UNL A   1      39.366  26.800  27.957  1.00  0.00     0.029 A 
ATOM     42  N   UNL A   1      41.225  27.081  29.165  1.00  0.00    -0.354 N 
ATOM     43  C   UNL A   1      41.741  30.591  31.654  1.00  0.00     0.074 A 
ATOM     44  C   UNL A   1      40.589  31.460  31.564  1.00  0.00     0.031 C 
ATOM     45  C   UNL A   1      40.169  25.753  27.708  1.00  0.00     0.029 A 
ATOM     46  C   UNL A   1      41.404  25.911  28.469  1.00  0.00     0.049 A 
ATOM     47  H   UNL A   1      41.903  27.455  29.772  1.00  0.00     0.167 HD
ATOM     48  C   UNL A   1      42.825  30.846  32.427  1.00  0.00     0.037 A 
ATOM     49  C   UNL A   1      42.449  25.062  28.452  1.00  0.00     0.037 A 
ATOM     50  C   UNL A   1      43.957  29.963  32.529  1.00  0.00     0.049 A 
ATOM     51  C   UNL A   1      43.652  25.372  29.300  1.00  0.00     0.074 A 
ATOM     52  C   UNL A   1      45.086  30.091  33.317  1.00  0.00     0.029 A 
ATOM     53  N   UNL A   1      44.101  28.783  31.810  1.00  0.00    -0.354 N 
ATOM     54  N   UNL A   1      43.861  26.387  30.106  1.00  0.00    -0.248 NA
ATOM     55  C   UNL A   1      44.766  24.416  29.238  1.00  0.00     0.031 C 
ATOM     56  C   UNL A   1      45.936  29.016  33.036  1.00  0.00     0.029 A 
ATOM     57  C   UNL A   1      45.312  28.186  32.118  1.00  0.00     0.049 A 
ATOM     58  H   UNL A   1      43.439  28.425  31.175  1.00  0.00     0.167 HD
ATOM     59  C   UNL A   1      45.111  26.175  30.671  1.00  0.00     0.074 A 
ATOM     60  C   UNL A   1      45.609  24.929  30.123  1.00  0.00     0.031 C 
ATOM     61  C   UNL A   1      45.785  26.941  31.565  1.00  0.00     0.037 A 
BRANCH  48  62
ATOM     62  C   UNL A   1      42.826  32.129  33.209  1.00  0.00     0.064 A 
ATOM     63  C   UNL A   1      42.290  32.205  34.506  1.00  0.00     0.173 A 
ATOM     64  C   UNL A   1      43.352  33.305  32.654  1.00  0.00     0.173 A 
ATOM     65  F   UNL A   1      41.762  31.114  35.084  1.00  0.00    -0.203 F 
ATOM     66  C   UNL A   1      42.229  33.416  35.191  1.00  0.00     0.198 A 
ATOM     67  C   UNL A   1      43.326  34.506  33.357  1.00  0.00     0.198 A 
ATOM     68  F   UNL A   1      43.884  33.293  31.422  1.00  0.00    -0.203 F 
ATOM     69  F   UNL A   1      41.638  33.475  36.392  1.00  0.00    -0.200 F 
ATOM     70  C   UNL A   1      42.751  34.565  34.618  1.00  0.00     0.200 A 
ATOM     71  F   UNL A   1      43.845  35.614  32.809  1.00  0.00    -0.200 F 
ATOM     72  F   UNL A   1      42.687  35.731  35.275  1.00  0.00    -0.200 F 
ENDBRANCH  48  62
BRANCH  49  73
ATOM     73  C   UNL A   1      42.375  23.816  27.647  1.00  0.00     0.064 A 
ATOM     74  C   UNL A   1      42.781  23.811  26.304  1.00  0.00     0.173 A 
ATOM     75  C   UNL A   1      41.924  22.609  28.197  1.00  0.00     0.173 A 
ATOM     76  F   UNL A   1      43.204  24.946  25.729  1.00  0.00    -0.203 F 
ATOM     77  C   UNL A   1      42.727  22.647  25.541  1.00  0.00     0.198 A 
ATOM     78  C   UNL A   1      41.896  21.439  27.438  1.00  0.00     0.198 A 
ATOM     79  F   UNL A   1      41.529  22.558  29.477  1.00  0.00    -0.203 F 
ATOM     80  F   UNL A   1      43.088  22.679  24.250  1.00  0.00    -0.200 F 
ATOM     81  C   UNL A   1      42.292  21.461  26.110  1.00  0.00     0.200 A 
ATOM     82  F   UNL A   1      41.489  20.290  27.996  1.00  0.00    -0.200 F 
ATOM     83  F   UNL A   1      42.250  20.340  25.377  1.00  0.00    -0.200 F 
ENDBRANCH  49  73
BRANCH  61  84
ATOM     84  C   UNL A   1      47.116  26.433  32.038  1.00  0.00     0.064 A 
ATOM     85  C   UNL A   1      47.230  25.561  33.130  1.00  0.00     0.173 A 
ATOM     86  C   UNL A   1      48.290  26.792  31.357  1.00  0.00     0.173 A 
ATOM     87  F   UNL A   1      46.140  25.201  33.823  1.00  0.00    -0.203 F 
ATOM     88  C   UNL A   1      48.474  25.088  33.541  1.00  0.00     0.198 A 
ATOM     89  C   UNL A   1      49.528  26.289  31.749  1.00  0.00     0.198 A 
ATOM     90  F   UNL A   1      48.236  27.618  30.301  1.00  0.00    -0.203 F 
ATOM     91  F   UNL A   1      48.564  24.297  34.618  1.00  0.00    -0.200 F 
ATOM     92  C   UNL A   1      49.620  25.446  32.845  1.00  0.00     0.200 A 
ATOM     93  F   UNL A   1      50.631  26.623  31.066  1.00  0.00    -0.200 F 
ATOM     94  F   UNL A   1      50.814  24.981  33.236  1.00  0.00    -0.200 F 
ENDBRANCH  61  84
ENDBRANCH  35  36
ENDBRANCH  27  30
ENDBRANCH  25  26
ENDBRANCH   1  25
TORSDOF 11
ENDMDL
MODEL 3
REMARK VINA RESULT:     -12.8      0.160      1.592
REMARK SMILES C[C@@H]1CC[C@@H](C(=O)NCCCNC(=O)c2ccc(-c3c4nc(c(-c5c(F)c(F)c(F)c(F)c5F)c5ccc([nH]5)c(-c5c(F)c(F)c(F)c(F)c5F)c5nc(c(-c6c(F)c(F)c(F)c(F)c6F)c6ccc3[nH]6)C=C5)C=C4)cc2)[C@H]2C(=O)N(c3ccccc3)C(=O)[C@@H]21
REMARK SMILES IDX 10 1 9 2 8 3 6 4 7 5 5 7 1 8 2 9 3 10 90 11 4 12 78 13 88 14
REMARK SMILES IDX 79 15 81 16 89 17 80 18 82 19 83 20 87 21 84 22 86 23 85 24
REMARK SMILES IDX 11 25 12 26 13 27 14 29 15 30 16 31 77 32 17 33 76 34 18 35
REMARK SMILES IDX 19 36 20 37 70 38 21 39 75 40 69 41 71 42 22 43 74 44 68 45
REMARK SMILES IDX 67 46 23 48 55 49 35 50 54 51 36 52 39 53 53 54 72 55 37 56
REMARK SMILES IDX 38 57 52 59 73 60 40 61 24 62 25 63 33 64 26 65 27 66 31 67
REMARK SMILES IDX 34 68 28 69 29 70 32 71 30 72 56 73 57 74 65 75 58 76 59 77
REMARK SMILES IDX 63 78 66 79 60 80 61 81 64 82 62 83 41 84 42 85 50 86 43 87
REMARK SMILES IDX 44 88 48 89 51 90 45 91 46 92 49 93 47 94
REMARK H PARENT 8 6 12 28 71 47 39 58
REMARK Flexibility Score: inf
ROOT
ATOM      1  C   UNL A   1      35.595  23.835  26.028  1.00  0.00     0.042 C 
ENDROOT
BRANCH   1   2
ATOM      2  C   UNL A   1      34.571  22.706  26.016  1.00  0.00     0.117 C 
BRANCH   2   3
ATOM      3  N   UNL A   1      33.426  22.991  26.851  1.00  0.00    -0.356 N 
ATOM      4  C   UNL A   1      32.148  23.359  26.601  1.00  0.00     0.223 C 
ATOM      5  O   UNL A   1      31.396  23.328  27.584  1.00  0.00    -0.275 OA
ATOM      6  H   UNL A   1      33.618  22.897  27.812  1.00  0.00     0.163 HD
BRANCH   4   7
ATOM      7  C   UNL A   1      31.582  23.801  25.239  1.00  0.00     0.092 C 
ATOM      8  C   UNL A   1      32.588  25.246  21.608  1.00  0.00     0.008 C 
ATOM      9  C   UNL A   1      33.282  24.636  22.824  1.00  0.00    -0.001 C 
ATOM     10  C   UNL A   1      32.876  23.152  23.017  1.00  0.00     0.005 C 
ATOM     11  C   UNL A   1      33.117  25.427  24.110  1.00  0.00     0.095 C 
ATOM     12  C   UNL A   1      31.774  22.840  24.053  1.00  0.00     0.014 C 
ATOM     13  C   UNL A   1      31.801  25.239  24.807  1.00  0.00     0.104 C 
ATOM     14  C   UNL A   1      33.305  26.920  24.174  1.00  0.00     0.237 C 
ATOM     15  C   UNL A   1      31.866  26.322  25.858  1.00  0.00     0.238 C 
ATOM     16  N   UNL A   1      32.673  27.331  25.342  1.00  0.00    -0.250 N 
ATOM     17  O   UNL A   1      34.028  27.542  23.410  1.00  0.00    -0.274 OA
ATOM     18  O   UNL A   1      31.208  26.307  26.882  1.00  0.00    -0.274 OA
BRANCH  16  19
ATOM     19  C   UNL A   1      32.871  28.599  25.957  1.00  0.00     0.052 A 
ATOM     20  C   UNL A   1      34.025  28.870  26.707  1.00  0.00     0.027 A 
ATOM     21  C   UNL A   1      31.905  29.615  25.861  1.00  0.00     0.027 A 
ATOM     22  C   UNL A   1      34.206  30.105  27.340  1.00  0.00     0.002 A 
ATOM     23  C   UNL A   1      32.074  30.841  26.512  1.00  0.00     0.002 A 
ATOM     24  C   UNL A   1      33.226  31.086  27.251  1.00  0.00     0.000 A 
ENDBRANCH  16  19
ENDBRANCH   4   7
ENDBRANCH   2   3
ENDBRANCH   1   2
BRANCH   1  25
ATOM     25  C   UNL A   1      36.716  23.642  25.028  1.00  0.00     0.118 C 
BRANCH  25  26
ATOM     26  N   UNL A   1      37.684  22.650  25.477  1.00  0.00    -0.352 N 
ATOM     27  C   UNL A   1      38.884  22.810  26.126  1.00  0.00     0.251 C 
ATOM     28  H   UNL A   1      37.439  21.716  25.285  1.00  0.00     0.163 HD
ATOM     29  O   UNL A   1      39.652  21.856  26.220  1.00  0.00    -0.269 OA
BRANCH  27  30
ATOM     30  C   UNL A   1      39.263  24.120  26.698  1.00  0.00     0.039 A 
ATOM     31  C   UNL A   1      38.904  24.421  28.015  1.00  0.00     0.014 A 
ATOM     32  C   UNL A   1      39.953  25.064  25.935  1.00  0.00     0.014 A 
ATOM     33  C   UNL A   1      39.286  25.642  28.576  1.00  0.00     0.010 A 
ATOM     34  C   UNL A   1      40.444  26.216  26.532  1.00  0.00     0.010 A 
ATOM     35  C   UNL A   1      40.089  26.535  27.849  1.00  0.00    -0.014 A 
BRANCH  35  36
ATOM     36  C   UNL A   1      40.530  27.833  28.415  1.00  0.00     0.031 A 
ATOM     37  C   UNL A   1      41.982  28.046  28.744  1.00  0.00     0.074 A 
ATOM     38  C   UNL A   1      39.621  28.784  28.698  1.00  0.00     0.049 A 
ATOM     39  N   UNL A   1      42.563  29.066  29.324  1.00  0.00    -0.248 NA
ATOM     40  C   UNL A   1      42.901  26.944  28.416  1.00  0.00     0.031 C 
ATOM     41  C   UNL A   1      38.181  28.674  28.468  1.00  0.00     0.029 A 
ATOM     42  N   UNL A   1      39.776  30.032  29.246  1.00  0.00    -0.354 N 
ATOM     43  C   UNL A   1      43.901  28.715  29.448  1.00  0.00     0.074 A 
ATOM     44  C   UNL A   1      44.033  27.361  28.961  1.00  0.00     0.031 C 
ATOM     45  C   UNL A   1      37.589  29.824  28.830  1.00  0.00     0.029 A 
ATOM     46  C   UNL A   1      38.601  30.732  29.360  1.00  0.00     0.049 A 
ATOM     47  H   UNL A   1      40.647  30.391  29.530  1.00  0.00     0.167 HD
ATOM     48  C   UNL A   1      44.937  29.467  29.895  1.00  0.00     0.037 A 
ATOM     49  C   UNL A   1      38.370  31.969  29.837  1.00  0.00     0.037 A 
ATOM     50  C   UNL A   1      44.799  30.823  30.356  1.00  0.00     0.049 A 
ATOM     51  C   UNL A   1      39.530  32.780  30.348  1.00  0.00     0.074 A 
ATOM     52  C   UNL A   1      45.783  31.696  30.781  1.00  0.00     0.029 A 
ATOM     53  N   UNL A   1      43.591  31.500  30.454  1.00  0.00    -0.354 N 
ATOM     54  N   UNL A   1      40.803  32.466  30.401  1.00  0.00    -0.248 NA
ATOM     55  C   UNL A   1      39.221  34.120  30.863  1.00  0.00     0.031 C 
ATOM     56  C   UNL A   1      45.164  32.884  31.186  1.00  0.00     0.029 A 
ATOM     57  C   UNL A   1      43.802  32.774  30.957  1.00  0.00     0.049 A 
ATOM     58  H   UNL A   1      42.713  31.130  30.203  1.00  0.00     0.167 HD
ATOM     59  C   UNL A   1      41.450  33.578  30.922  1.00  0.00     0.074 A 
ATOM     60  C   UNL A   1      40.429  34.579  31.160  1.00  0.00     0.031 C 
ATOM     61  C   UNL A   1      42.770  33.756  31.179  1.00  0.00     0.037 A 
BRANCH  48  62
ATOM     62  C   UNL A   1      46.297  28.826  29.903  1.00  0.00     0.064 A 
ATOM     63  C   UNL A   1      46.789  28.150  31.033  1.00  0.00     0.173 A 
ATOM     64  C   UNL A   1      47.130  28.901  28.777  1.00  0.00     0.173 A 
ATOM     65  F   UNL A   1      46.041  28.057  32.144  1.00  0.00    -0.203 F 
ATOM     66  C   UNL A   1      48.079  27.625  31.053  1.00  0.00     0.198 A 
ATOM     67  C   UNL A   1      48.404  28.340  28.786  1.00  0.00     0.198 A 
ATOM     68  F   UNL A   1      46.712  29.527  27.667  1.00  0.00    -0.203 F 
ATOM     69  F   UNL A   1      48.552  27.059  32.171  1.00  0.00    -0.200 F 
ATOM     70  C   UNL A   1      48.884  27.717  29.929  1.00  0.00     0.200 A 
ATOM     71  F   UNL A   1      49.176  28.415  27.694  1.00  0.00    -0.200 F 
ATOM     72  F   UNL A   1      50.127  27.217  29.951  1.00  0.00    -0.200 F 
ENDBRANCH  48  62
BRANCH  49  73
ATOM     73  C   UNL A   1      36.995  32.531  29.800  1.00  0.00     0.064 A 
ATOM     74  C   UNL A   1      36.132  32.372  30.895  1.00  0.00     0.173 A 
ATOM     75  C   UNL A   1      36.522  33.251  28.695  1.00  0.00     0.173 A 
ATOM     76  F   UNL A   1      36.534  31.675  31.968  1.00  0.00    -0.203 F 
ATOM     77  C   UNL A   1      34.844  32.902  30.878  1.00  0.00     0.198 A 
ATOM     78  C   UNL A   1      35.242  33.804  28.692  1.00  0.00     0.198 A 
ATOM     79  F   UNL A   1      37.309  33.436  27.626  1.00  0.00    -0.203 F 
ATOM     80  F   UNL A   1      34.028  32.704  31.923  1.00  0.00    -0.200 F 
ATOM     81  C   UNL A   1      34.403  33.624  29.780  1.00  0.00     0.200 A 
ATOM     82  F   UNL A   1      34.824  34.514  27.635  1.00  0.00    -0.200 F 
ATOM     83  F   UNL A   1      33.167  34.143  29.770  1.00  0.00    -0.200 F 
ENDBRANCH  49  73
BRANCH  61  84
ATOM     84  C   UNL A   1      43.191  35.097  31.707  1.00  0.00     0.064 A 
ATOM     85  C   UNL A   1      43.160  35.396  33.077  1.00  0.00     0.173 A 
ATOM     86  C   UNL A   1      43.676  36.080  30.831  1.00  0.00     0.173 A 
ATOM     87  F   UNL A   1      42.691  34.495  33.954  1.00  0.00    -0.203 F 
ATOM     88  C   UNL A   1      43.572  36.639  33.547  1.00  0.00     0.198 A 
ATOM     89  C   UNL A   1      44.120  37.310  31.308  1.00  0.00     0.198 A 
ATOM     90  F   UNL A   1      43.734  35.843  29.511  1.00  0.00    -0.203 F 
ATOM     91  F   UNL A   1      43.486  36.921  34.854  1.00  0.00    -0.200 F 
ATOM     92  C   UNL A   1      44.060  37.592  32.664  1.00  0.00     0.200 A 
ATOM     93  F   UNL A   1      44.607  38.222  30.455  1.00  0.00    -0.200 F 
ATOM     94  F   UNL A   1      44.466  38.784  33.120  1.00  0.00    -0.200 F 
ENDBRANCH  61  84
ENDBRANCH  35  36
ENDBRANCH  27  30
ENDBRANCH  25  26
ENDBRANCH   1  25
TORSDOF 11
ENDMDL
