MODEL 1
REMARK VINA RESULT:     -10.5      0.000      0.000
REMARK SMILES COc1ccc([C@H]2CC(c3ccc(S(C)(=O)=O)cc3)=NN2c2ccc(C(=O)NCCCNC(=O)c3ccc(-c4c5nc(c(-c6c(F)c(F)c(F)c(F)c6F)c6ccc([nH]6)c(-c6c(F)c(F)c(F)c(F)c6F)c6nc(c(-c7c(F)c(F)c(F)c(F)c7F)c7ccc4[nH]7)C=C6)C=C5)cc3)cc2)cc1
REMARK SMILES IDX 29 1 28 2 26 3 27 4 25 6 22 7 23 8 99 9 24 10 98 11 21 12
REMARK SMILES IDX 7 13 8 14 9 15 20 16 6 17 3 18 4 19 101 20 5 21 100 22 2 23
REMARK SMILES IDX 1 24 10 25 11 26 19 27 12 28 18 29 13 30 14 31 15 32 16 33
REMARK SMILES IDX 17 34 30 35 31 36 32 37 33 38 34 40 35 41 36 42 97 43 37 44
REMARK SMILES IDX 96 45 38 46 39 47 40 48 90 49 41 50 95 51 89 52 91 53 42 54
REMARK SMILES IDX 94 55 88 56 87 57 43 59 75 60 55 61 74 62 56 63 59 64 73 65
REMARK SMILES IDX 92 66 57 67 58 68 72 70 93 71 60 72 44 73 45 74 53 75 46 76
REMARK SMILES IDX 47 77 51 78 54 79 48 80 49 81 52 82 50 83 76 84 77 85 85 86
REMARK SMILES IDX 78 87 79 88 83 89 86 90 80 91 81 92 84 93 82 94 61 95 62 96
REMARK SMILES IDX 70 97 63 98 64 99 68 100 71 101 65 102 66 103 69 104 67 105
REMARK H PARENT 28 5 32 39 91 58 59 69
REMARK Flexibility Score: inf
ROOT
ATOM      1  C   UNL A   1      42.718  20.763  26.963  1.00  0.00     0.118 C 
ENDROOT
BRANCH   1   2
ATOM      2  N   UNL A   1      42.624  21.432  28.246  1.00  0.00    -0.352 N 
ATOM      3  C   UNL A   1      43.063  22.654  28.685  1.00  0.00     0.251 C 
ATOM      4  O   UNL A   1      42.793  22.964  29.846  1.00  0.00    -0.269 OA
ATOM      5  H   UNL A   1      42.154  20.908  28.934  1.00  0.00     0.163 HD
BRANCH   3   6
ATOM      6  C   UNL A   1      43.792  23.625  27.821  1.00  0.00     0.039 A 
ATOM      7  C   UNL A   1      45.323  25.472  26.321  1.00  0.00     0.060 A 
ATOM      8  C   UNL A   1      45.891  24.769  27.387  1.00  0.00     0.029 A 
ATOM      9  C   UNL A   1      43.997  25.200  25.982  1.00  0.00     0.029 A 
ATOM     10  C   UNL A   1      45.133  23.872  28.143  1.00  0.00     0.016 A 
ATOM     11  C   UNL A   1      43.250  24.259  26.701  1.00  0.00     0.016 A 
BRANCH   7  12
ATOM     12  N   UNL A   1      46.082  26.392  25.620  1.00  0.00    -0.257 N 
ATOM     13  C   UNL A   1      45.576  27.649  25.074  1.00  0.00     0.144 C 
ATOM     14  C   UNL A   1      46.769  28.165  24.255  1.00  0.00     0.091 C 
ATOM     15  C   UNL A   1      47.715  27.009  24.420  1.00  0.00     0.071 C 
ATOM     16  N   UNL A   1      47.313  26.040  25.179  1.00  0.00    -0.176 NA
BRANCH  13  17
ATOM     17  C   UNL A   1      45.161  28.603  26.182  1.00  0.00    -0.023 A 
ATOM     18  C   UNL A   1      44.404  30.396  28.227  1.00  0.00     0.118 A 
ATOM     19  C   UNL A   1      45.750  30.202  27.914  1.00  0.00     0.047 A 
ATOM     20  C   UNL A   1      43.431  29.714  27.500  1.00  0.00     0.047 A 
ATOM     21  C   UNL A   1      46.130  29.310  26.907  1.00  0.00     0.010 A 
ATOM     22  C   UNL A   1      43.807  28.828  26.485  1.00  0.00     0.010 A 
BRANCH  18  23
ATOM     23  O   UNL A   1      44.166  31.293  29.232  1.00  0.00    -0.497 OA
ATOM     24  C   UNL A   1      42.947  32.022  29.146  1.00  0.00     0.278 C 
ENDBRANCH  18  23
ENDBRANCH  13  17
BRANCH  15  25
ATOM     25  C   UNL A   1      49.001  26.971  23.723  1.00  0.00    -0.002 A 
ATOM     26  C   UNL A   1      50.152  26.694  24.468  1.00  0.00     0.011 A 
ATOM     27  C   UNL A   1      49.076  27.263  22.361  1.00  0.00     0.011 A 
ATOM     28  C   UNL A   1      51.396  26.700  23.844  1.00  0.00     0.021 A 
ATOM     29  C   UNL A   1      50.325  27.297  21.738  1.00  0.00     0.021 A 
ATOM     30  C   UNL A   1      51.477  27.023  22.485  1.00  0.00     0.067 A 
BRANCH  30  31
ATOM     31  S   UNL A   1      53.076  27.085  21.709  1.00  0.00     0.175 S 
ATOM     32  C   UNL A   1      53.337  28.814  21.401  1.00  0.00     0.163 C 
ATOM     33  O   UNL A   1      54.037  26.642  22.699  1.00  0.00    -0.224 OA
ATOM     34  O   UNL A   1      52.965  26.424  20.422  1.00  0.00    -0.224 OA
ENDBRANCH  30  31
ENDBRANCH  15  25
ENDBRANCH   7  12
ENDBRANCH   3   6
ENDBRANCH   1   2
BRANCH   1  35
ATOM     35  C   UNL A   1      41.469  21.019  26.119  1.00  0.00     0.042 C 
BRANCH  35  36
ATOM     36  C   UNL A   1      40.337  21.686  26.897  1.00  0.00     0.118 C 
BRANCH  36  37
ATOM     37  N   UNL A   1      39.346  22.271  26.010  1.00  0.00    -0.352 N 
ATOM     38  C   UNL A   1      38.757  23.507  26.027  1.00  0.00     0.251 C 
ATOM     39  H   UNL A   1      39.050  21.685  25.277  1.00  0.00     0.163 HD
ATOM     40  O   UNL A   1      37.776  23.708  25.313  1.00  0.00    -0.269 OA
BRANCH  38  41
ATOM     41  C   UNL A   1      39.272  24.603  26.879  1.00  0.00     0.039 A 
ATOM     42  C   UNL A   1      38.893  24.625  28.225  1.00  0.00     0.014 A 
ATOM     43  C   UNL A   1      40.029  25.658  26.356  1.00  0.00     0.014 A 
ATOM     44  C   UNL A   1      39.272  25.689  29.044  1.00  0.00     0.010 A 
ATOM     45  C   UNL A   1      40.461  26.690  27.191  1.00  0.00     0.010 A 
ATOM     46  C   UNL A   1      40.066  26.730  28.536  1.00  0.00    -0.014 A 
BRANCH  46  47
ATOM     47  C   UNL A   1      40.435  27.884  29.394  1.00  0.00     0.031 A 
ATOM     48  C   UNL A   1      41.791  27.939  30.046  1.00  0.00     0.074 A 
ATOM     49  C   UNL A   1      39.546  28.873  29.602  1.00  0.00     0.049 A 
ATOM     50  N   UNL A   1      42.293  28.855  30.836  1.00  0.00    -0.248 NA
ATOM     51  C   UNL A   1      42.695  26.804  29.796  1.00  0.00     0.031 C 
ATOM     52  C   UNL A   1      38.185  28.914  29.063  1.00  0.00     0.029 A 
ATOM     53  N   UNL A   1      39.652  30.034  30.327  1.00  0.00    -0.354 N 
ATOM     54  C   UNL A   1      43.557  28.398  31.190  1.00  0.00     0.074 A 
ATOM     55  C   UNL A   1      43.732  27.106  30.564  1.00  0.00     0.031 C 
ATOM     56  C   UNL A   1      37.590  30.052  29.459  1.00  0.00     0.029 A 
ATOM     57  C   UNL A   1      38.516  30.807  30.298  1.00  0.00     0.049 A 
ATOM     58  H   UNL A   1      40.464  30.289  30.821  1.00  0.00     0.167 HD
ATOM     59  C   UNL A   1      44.495  29.011  31.951  1.00  0.00     0.037 A 
ATOM     60  C   UNL A   1      38.254  31.991  30.882  1.00  0.00     0.037 A 
ATOM     61  C   UNL A   1      44.339  30.318  32.533  1.00  0.00     0.049 A 
ATOM     62  C   UNL A   1      39.327  32.662  31.698  1.00  0.00     0.074 A 
ATOM     63  C   UNL A   1      45.262  31.058  33.251  1.00  0.00     0.029 A 
ATOM     64  N   UNL A   1      43.185  31.082  32.459  1.00  0.00    -0.354 N 
ATOM     65  N   UNL A   1      40.546  32.255  31.958  1.00  0.00    -0.248 NA
ATOM     66  C   UNL A   1      38.990  33.963  32.292  1.00  0.00     0.031 C 
ATOM     67  C   UNL A   1      44.654  32.255  33.643  1.00  0.00     0.029 A 
ATOM     68  C   UNL A   1      43.366  32.277  33.135  1.00  0.00     0.049 A 
ATOM     69  H   UNL A   1      42.359  30.814  31.994  1.00  0.00     0.167 HD
ATOM     70  C   UNL A   1      41.128  33.259  32.721  1.00  0.00     0.074 A 
ATOM     71  C   UNL A   1      40.136  34.303  32.865  1.00  0.00     0.031 C 
ATOM     72  C   UNL A   1      42.371  33.309  33.259  1.00  0.00     0.037 A 
BRANCH  59  73
ATOM     73  C   UNL A   1      45.785  28.284  32.194  1.00  0.00     0.064 A 
ATOM     74  C   UNL A   1      46.942  28.575  31.457  1.00  0.00     0.173 A 
ATOM     75  C   UNL A   1      45.882  27.333  33.221  1.00  0.00     0.173 A 
ATOM     76  F   UNL A   1      46.899  29.471  30.458  1.00  0.00    -0.203 F 
ATOM     77  C   UNL A   1      48.145  27.927  31.727  1.00  0.00     0.198 A 
ATOM     78  C   UNL A   1      47.092  26.706  33.504  1.00  0.00     0.198 A 
ATOM     79  F   UNL A   1      44.806  27.023  33.959  1.00  0.00    -0.203 F 
ATOM     80  F   UNL A   1      49.229  28.197  30.987  1.00  0.00    -0.200 F 
ATOM     81  C   UNL A   1      48.221  27.000  32.755  1.00  0.00     0.200 A 
ATOM     82  F   UNL A   1      47.167  25.818  34.505  1.00  0.00    -0.200 F 
ATOM     83  F   UNL A   1      49.383  26.388  33.022  1.00  0.00    -0.200 F 
ENDBRANCH  59  73
BRANCH  60  84
ATOM     84  C   UNL A   1      36.929  32.638  30.702  1.00  0.00     0.064 A 
ATOM     85  C   UNL A   1      36.654  33.414  29.567  1.00  0.00     0.173 A 
ATOM     86  C   UNL A   1      35.922  32.519  31.671  1.00  0.00     0.173 A 
ATOM     87  F   UNL A   1      37.593  33.574  28.623  1.00  0.00    -0.203 F 
ATOM     88  C   UNL A   1      35.435  34.070  29.422  1.00  0.00     0.198 A 
ATOM     89  C   UNL A   1      34.692  33.154  31.511  1.00  0.00     0.198 A 
ATOM     90  F   UNL A   1      36.134  31.785  32.773  1.00  0.00    -0.203 F 
ATOM     91  F   UNL A   1      35.218  34.850  28.354  1.00  0.00    -0.200 F 
ATOM     92  C   UNL A   1      34.454  33.937  30.393  1.00  0.00     0.200 A 
ATOM     93  F   UNL A   1      33.742  33.013  32.446  1.00  0.00    -0.200 F 
ATOM     94  F   UNL A   1      33.282  34.573  30.256  1.00  0.00    -0.200 F 
ENDBRANCH  60  84
BRANCH  72  95
ATOM     95  C   UNL A   1      42.734  34.545  34.027  1.00  0.00     0.064 A 
ATOM     96  C   UNL A   1      42.562  34.621  35.416  1.00  0.00     0.173 A 
ATOM     97  C   UNL A   1      43.288  35.654  33.368  1.00  0.00     0.173 A 
ATOM     98  F   UNL A   1      42.023  33.594  36.087  1.00  0.00    -0.203 F 
ATOM     99  C   UNL A   1      42.906  35.775  36.115  1.00  0.00     0.198 A 
ATOM    100  C   UNL A   1      43.656  36.795  34.075  1.00  0.00     0.198 A 
ATOM    101  F   UNL A   1      43.477  35.627  32.040  1.00  0.00    -0.203 F 
ATOM    102  F   UNL A   1      42.688  35.845  37.436  1.00  0.00    -0.200 F 
ATOM    103  C   UNL A   1      43.458  36.858  35.446  1.00  0.00     0.200 A 
ATOM    104  F   UNL A   1      44.200  37.835  33.429  1.00  0.00    -0.200 F 
ATOM    105  F   UNL A   1      43.791  37.965  36.122  1.00  0.00    -0.200 F 
ENDBRANCH  72  95
ENDBRANCH  46  47
ENDBRANCH  38  41
ENDBRANCH  36  37
ENDBRANCH  35  36
ENDBRANCH   1  35
TORSDOF 15
ENDMDL
MODEL 2
REMARK VINA RESULT:     -10.5      0.635      6.911
REMARK SMILES COc1ccc([C@H]2CC(c3ccc(S(C)(=O)=O)cc3)=NN2c2ccc(C(=O)NCCCNC(=O)c3ccc(-c4c5nc(c(-c6c(F)c(F)c(F)c(F)c6F)c6ccc([nH]6)c(-c6c(F)c(F)c(F)c(F)c6F)c6nc(c(-c7c(F)c(F)c(F)c(F)c7F)c7ccc4[nH]7)C=C6)C=C5)cc3)cc2)cc1
REMARK SMILES IDX 29 1 28 2 26 3 27 4 25 6 22 7 23 8 99 9 24 10 98 11 21 12
REMARK SMILES IDX 7 13 8 14 9 15 20 16 6 17 3 18 4 19 101 20 5 21 100 22 2 23
REMARK SMILES IDX 1 24 10 25 11 26 19 27 12 28 18 29 13 30 14 31 15 32 16 33
REMARK SMILES IDX 17 34 30 35 31 36 32 37 33 38 34 40 35 41 36 42 97 43 37 44
REMARK SMILES IDX 96 45 38 46 39 47 40 48 90 49 41 50 95 51 89 52 91 53 42 54
REMARK SMILES IDX 94 55 88 56 87 57 43 59 75 60 55 61 74 62 56 63 59 64 73 65
REMARK SMILES IDX 92 66 57 67 58 68 72 70 93 71 60 72 44 73 45 74 53 75 46 76
REMARK SMILES IDX 47 77 51 78 54 79 48 80 49 81 52 82 50 83 76 84 77 85 85 86
REMARK SMILES IDX 78 87 79 88 83 89 86 90 80 91 81 92 84 93 82 94 61 95 62 96
REMARK SMILES IDX 70 97 63 98 64 99 68 100 71 101 65 102 66 103 69 104 67 105
REMARK H PARENT 28 5 32 39 91 58 59 69
REMARK Flexibility Score: inf
ROOT
ATOM      1  C   UNL A   1      42.445  20.722  26.898  1.00  0.00     0.118 C 
ENDROOT
BRANCH   1   2
ATOM      2  N   UNL A   1      42.402  21.349  28.205  1.00  0.00    -0.352 N 
ATOM      3  C   UNL A   1      42.906  22.531  28.680  1.00  0.00     0.251 C 
ATOM      4  O   UNL A   1      42.669  22.812  29.855  1.00  0.00    -0.269 OA
ATOM      5  H   UNL A   1      41.916  20.824  28.881  1.00  0.00     0.163 HD
BRANCH   3   6
ATOM      6  C   UNL A   1      43.670  23.496  27.839  1.00  0.00     0.039 A 
ATOM      7  C   UNL A   1      45.253  25.345  26.395  1.00  0.00     0.060 A 
ATOM      8  C   UNL A   1      45.750  24.716  27.541  1.00  0.00     0.029 A 
ATOM      9  C   UNL A   1      43.976  24.997  25.953  1.00  0.00     0.029 A 
ATOM     10  C   UNL A   1      44.964  23.819  28.268  1.00  0.00     0.016 A 
ATOM     11  C   UNL A   1      43.207  24.054  26.645  1.00  0.00     0.016 A 
BRANCH   7  12
ATOM     12  N   UNL A   1      46.034  26.266  25.722  1.00  0.00    -0.257 N 
ATOM     13  C   UNL A   1      45.520  27.435  25.011  1.00  0.00     0.144 C 
ATOM     14  C   UNL A   1      46.773  27.982  24.312  1.00  0.00     0.091 C 
ATOM     15  C   UNL A   1      47.766  26.921  24.694  1.00  0.00     0.071 C 
ATOM     16  N   UNL A   1      47.335  25.983  25.475  1.00  0.00    -0.176 NA
BRANCH  13  17
ATOM     17  C   UNL A   1      44.894  28.434  25.972  1.00  0.00    -0.023 A 
ATOM     18  C   UNL A   1      43.716  30.267  27.766  1.00  0.00     0.118 A 
ATOM     19  C   UNL A   1      42.924  29.514  26.898  1.00  0.00     0.047 A 
ATOM     20  C   UNL A   1      45.097  30.086  27.758  1.00  0.00     0.047 A 
ATOM     21  C   UNL A   1      43.504  28.610  26.003  1.00  0.00     0.010 A 
ATOM     22  C   UNL A   1      45.680  29.175  26.871  1.00  0.00     0.010 A 
BRANCH  18  23
ATOM     23  O   UNL A   1      43.027  31.115  28.590  1.00  0.00    -0.497 OA
ATOM     24  C   UNL A   1      43.735  32.264  29.041  1.00  0.00     0.278 C 
ENDBRANCH  18  23
ENDBRANCH  13  17
BRANCH  15  25
ATOM     25  C   UNL A   1      49.134  26.933  24.174  1.00  0.00    -0.002 A 
ATOM     26  C   UNL A   1      50.176  26.579  25.037  1.00  0.00     0.011 A 
ATOM     27  C   UNL A   1      49.389  27.347  22.866  1.00  0.00     0.011 A 
ATOM     28  C   UNL A   1      51.492  26.630  24.587  1.00  0.00     0.021 A 
ATOM     29  C   UNL A   1      50.710  27.425  22.420  1.00  0.00     0.021 A 
ATOM     30  C   UNL A   1      51.753  27.073  23.286  1.00  0.00     0.067 A 
BRANCH  30  31
ATOM     31  S   UNL A   1      53.441  27.190  22.738  1.00  0.00     0.175 S 
ATOM     32  C   UNL A   1      54.374  26.479  24.071  1.00  0.00     0.163 C 
ATOM     33  O   UNL A   1      53.563  26.329  21.578  1.00  0.00    -0.224 OA
ATOM     34  O   UNL A   1      53.782  28.598  22.667  1.00  0.00    -0.224 OA
ENDBRANCH  30  31
ENDBRANCH  15  25
ENDBRANCH   7  12
ENDBRANCH   3   6
ENDBRANCH   1   2
BRANCH   1  35
ATOM     35  C   UNL A   1      41.132  20.938  26.144  1.00  0.00     0.042 C 
BRANCH  35  36
ATOM     36  C   UNL A   1      40.100  21.737  26.936  1.00  0.00     0.118 C 
BRANCH  36  37
ATOM     37  N   UNL A   1      39.126  22.372  26.066  1.00  0.00    -0.352 N 
ATOM     38  C   UNL A   1      38.609  23.640  26.085  1.00  0.00     0.251 C 
ATOM     39  H   UNL A   1      38.782  21.799  25.344  1.00  0.00     0.163 HD
ATOM     40  O   UNL A   1      37.626  23.892  25.390  1.00  0.00    -0.269 OA
BRANCH  38  41
ATOM     41  C   UNL A   1      39.203  24.711  26.918  1.00  0.00     0.039 A 
ATOM     42  C   UNL A   1      38.830  24.782  28.264  1.00  0.00     0.014 A 
ATOM     43  C   UNL A   1      40.032  25.699  26.377  1.00  0.00     0.014 A 
ATOM     44  C   UNL A   1      39.287  25.830  29.065  1.00  0.00     0.010 A 
ATOM     45  C   UNL A   1      40.540  26.711  27.193  1.00  0.00     0.010 A 
ATOM     46  C   UNL A   1      40.152  26.802  28.538  1.00  0.00    -0.014 A 
BRANCH  46  47
ATOM     47  C   UNL A   1      40.605  27.941  29.375  1.00  0.00     0.031 A 
ATOM     48  C   UNL A   1      39.676  29.092  29.654  1.00  0.00     0.074 A 
ATOM     49  C   UNL A   1      41.857  27.951  29.869  1.00  0.00     0.049 A 
ATOM     50  N   UNL A   1      39.890  30.180  30.352  1.00  0.00    -0.248 NA
ATOM     51  C   UNL A   1      38.334  29.024  29.052  1.00  0.00     0.031 C 
ATOM     52  C   UNL A   1      42.866  26.917  29.633  1.00  0.00     0.029 A 
ATOM     53  N   UNL A   1      42.497  28.863  30.670  1.00  0.00    -0.354 N 
ATOM     54  C   UNL A   1      38.724  30.929  30.255  1.00  0.00     0.074 A 
ATOM     55  C   UNL A   1      37.818  30.194  29.400  1.00  0.00     0.031 C 
ATOM     56  C   UNL A   1      43.991  27.242  30.291  1.00  0.00     0.029 A 
ATOM     57  C   UNL A   1      43.792  28.518  30.974  1.00  0.00     0.049 A 
ATOM     58  H   UNL A   1      42.069  29.688  30.996  1.00  0.00     0.167 HD
ATOM     59  C   UNL A   1      38.428  32.112  30.844  1.00  0.00     0.037 A 
ATOM     60  C   UNL A   1      44.711  29.159  31.720  1.00  0.00     0.037 A 
ATOM     61  C   UNL A   1      39.311  32.818  31.735  1.00  0.00     0.049 A 
ATOM     62  C   UNL A   1      44.342  30.457  32.386  1.00  0.00     0.074 A 
ATOM     63  C   UNL A   1      39.072  33.982  32.445  1.00  0.00     0.029 A 
ATOM     64  N   UNL A   1      40.604  32.422  32.039  1.00  0.00    -0.354 N 
ATOM     65  N   UNL A   1      43.209  31.113  32.351  1.00  0.00    -0.248 NA
ATOM     66  C   UNL A   1      45.381  31.098  33.206  1.00  0.00     0.031 C 
ATOM     67  C   UNL A   1      40.232  34.310  33.151  1.00  0.00     0.029 A 
ATOM     68  C   UNL A   1      41.182  33.330  32.912  1.00  0.00     0.049 A 
ATOM     69  H   UNL A   1      41.046  31.616  31.688  1.00  0.00     0.167 HD
ATOM     70  C   UNL A   1      43.387  32.227  33.161  1.00  0.00     0.074 A 
ATOM     71  C   UNL A   1      44.731  32.148  33.691  1.00  0.00     0.031 C 
ATOM     72  C   UNL A   1      42.517  33.229  33.438  1.00  0.00     0.037 A 
BRANCH  59  73
ATOM     73  C   UNL A   1      37.087  32.721  30.559  1.00  0.00     0.064 A 
ATOM     74  C   UNL A   1      36.809  33.346  29.335  1.00  0.00     0.173 A 
ATOM     75  C   UNL A   1      36.046  32.618  31.495  1.00  0.00     0.173 A 
ATOM     76  F   UNL A   1      37.772  33.477  28.410  1.00  0.00    -0.203 F 
ATOM     77  C   UNL A   1      35.544  33.862  29.065  1.00  0.00     0.198 A 
ATOM     78  C   UNL A   1      34.777  33.113  31.213  1.00  0.00     0.198 A 
ATOM     79  F   UNL A   1      36.258  32.024  32.679  1.00  0.00    -0.203 F 
ATOM     80  F   UNL A   1      35.311  34.486  27.902  1.00  0.00    -0.200 F 
ATOM     81  C   UNL A   1      34.528  33.739  30.001  1.00  0.00     0.200 A 
ATOM     82  F   UNL A   1      33.792  32.983  32.112  1.00  0.00    -0.200 F 
ATOM     83  F   UNL A   1      33.307  34.224  29.733  1.00  0.00    -0.200 F 
ENDBRANCH  59  73
BRANCH  60  84
ATOM     84  C   UNL A   1      46.066  28.576  31.902  1.00  0.00     0.064 A 
ATOM     85  C   UNL A   1      47.141  28.989  31.103  1.00  0.00     0.173 A 
ATOM     86  C   UNL A   1      46.306  27.576  32.855  1.00  0.00     0.173 A 
ATOM     87  F   UNL A   1      46.955  29.928  30.163  1.00  0.00    -0.203 F 
ATOM     88  C   UNL A   1      48.399  28.404  31.230  1.00  0.00     0.198 A 
ATOM     89  C   UNL A   1      47.572  27.011  33.000  1.00  0.00     0.198 A 
ATOM     90  F   UNL A   1      45.312  27.149  33.646  1.00  0.00    -0.203 F 
ATOM     91  F   UNL A   1      49.396  28.779  30.417  1.00  0.00    -0.200 F 
ATOM     92  C   UNL A   1      48.613  27.417  32.181  1.00  0.00     0.200 A 
ATOM     93  F   UNL A   1      47.779  26.066  33.928  1.00  0.00    -0.200 F 
ATOM     94  F   UNL A   1      49.821  26.850  32.300  1.00  0.00    -0.200 F 
ENDBRANCH  60  84
BRANCH  72  95
ATOM     95  C   UNL A   1      42.985  34.301  34.376  1.00  0.00     0.064 A 
ATOM     96  C   UNL A   1      43.627  35.456  33.907  1.00  0.00     0.173 A 
ATOM     97  C   UNL A   1      42.762  34.184  35.756  1.00  0.00     0.173 A 
ATOM     98  F   UNL A   1      43.875  35.606  32.598  1.00  0.00    -0.203 F 
ATOM     99  C   UNL A   1      44.054  36.444  34.790  1.00  0.00     0.198 A 
ATOM    100  C   UNL A   1      43.166  35.187  36.633  1.00  0.00     0.198 A 
ATOM    101  F   UNL A   1      42.148  33.100  36.253  1.00  0.00    -0.203 F 
ATOM    102  F   UNL A   1      44.709  37.517  34.326  1.00  0.00    -0.200 F 
ATOM    103  C   UNL A   1      43.819  36.311  36.151  1.00  0.00     0.200 A 
ATOM    104  F   UNL A   1      42.928  35.062  37.946  1.00  0.00    -0.200 F 
ATOM    105  F   UNL A   1      44.227  37.265  36.998  1.00  0.00    -0.200 F 
ENDBRANCH  72  95
ENDBRANCH  46  47
ENDBRANCH  38  41
ENDBRANCH  36  37
ENDBRANCH  35  36
ENDBRANCH   1  35
TORSDOF 15
ENDMDL
MODEL 3
REMARK VINA RESULT:     -10.3      2.111      4.685
REMARK SMILES COc1ccc([C@H]2CC(c3ccc(S(C)(=O)=O)cc3)=NN2c2ccc(C(=O)NCCCNC(=O)c3ccc(-c4c5nc(c(-c6c(F)c(F)c(F)c(F)c6F)c6ccc([nH]6)c(-c6c(F)c(F)c(F)c(F)c6F)c6nc(c(-c7c(F)c(F)c(F)c(F)c7F)c7ccc4[nH]7)C=C6)C=C5)cc3)cc2)cc1
REMARK SMILES IDX 29 1 28 2 26 3 27 4 25 6 22 7 23 8 99 9 24 10 98 11 21 12
REMARK SMILES IDX 7 13 8 14 9 15 20 16 6 17 3 18 4 19 101 20 5 21 100 22 2 23
REMARK SMILES IDX 1 24 10 25 11 26 19 27 12 28 18 29 13 30 14 31 15 32 16 33
REMARK SMILES IDX 17 34 30 35 31 36 32 37 33 38 34 40 35 41 36 42 97 43 37 44
REMARK SMILES IDX 96 45 38 46 39 47 40 48 90 49 41 50 95 51 89 52 91 53 42 54
REMARK SMILES IDX 94 55 88 56 87 57 43 59 75 60 55 61 74 62 56 63 59 64 73 65
REMARK SMILES IDX 92 66 57 67 58 68 72 70 93 71 60 72 44 73 45 74 53 75 46 76
REMARK SMILES IDX 47 77 51 78 54 79 48 80 49 81 52 82 50 83 76 84 77 85 85 86
REMARK SMILES IDX 78 87 79 88 83 89 86 90 80 91 81 92 84 93 82 94 61 95 62 96
REMARK SMILES IDX 70 97 63 98 64 99 68 100 71 101 65 102 66 103 69 104 67 105
REMARK H PARENT 28 5 32 39 91 58 59 69
REMARK Flexibility Score: inf
ROOT
ATOM      1  C   UNL A   1      43.998  22.295  25.932  1.00  0.00     0.118 C 
ENDROOT
BRANCH   1   2
ATOM      2  N   UNL A   1      44.020  22.162  27.375  1.00  0.00    -0.352 N 
ATOM      3  C   UNL A   1      44.338  23.039  28.379  1.00  0.00     0.251 C 
ATOM      4  O   UNL A   1      44.223  22.634  29.537  1.00  0.00    -0.269 OA
ATOM      5  H   UNL A   1      43.754  21.270  27.696  1.00  0.00     0.163 HD
BRANCH   3   6
ATOM      6  C   UNL A   1      44.760  24.447  28.138  1.00  0.00     0.039 A 
ATOM      7  C   UNL A   1      45.418  27.132  27.532  1.00  0.00     0.060 A 
ATOM      8  C   UNL A   1      44.232  26.561  27.062  1.00  0.00     0.029 A 
ATOM      9  C   UNL A   1      46.243  26.360  28.352  1.00  0.00     0.029 A 
ATOM     10  C   UNL A   1      43.914  25.230  27.341  1.00  0.00     0.016 A 
ATOM     11  C   UNL A   1      45.899  25.044  28.682  1.00  0.00     0.016 A 
BRANCH   7  12
ATOM     12  N   UNL A   1      45.734  28.437  27.200  1.00  0.00    -0.257 N 
ATOM     13  C   UNL A   1      47.071  28.909  26.847  1.00  0.00     0.144 C 
ATOM     14  C   UNL A   1      46.880  30.430  26.762  1.00  0.00     0.091 C 
ATOM     15  C   UNL A   1      45.446  30.536  27.198  1.00  0.00     0.071 C 
ATOM     16  N   UNL A   1      44.832  29.420  27.435  1.00  0.00    -0.176 NA
BRANCH  13  17
ATOM     17  C   UNL A   1      47.544  28.297  25.538  1.00  0.00    -0.023 A 
ATOM     18  C   UNL A   1      48.423  27.135  23.121  1.00  0.00     0.118 A 
ATOM     19  C   UNL A   1      49.174  26.997  24.289  1.00  0.00     0.047 A 
ATOM     20  C   UNL A   1      47.217  27.831  23.163  1.00  0.00     0.047 A 
ATOM     21  C   UNL A   1      48.745  27.577  25.487  1.00  0.00     0.010 A 
ATOM     22  C   UNL A   1      46.781  28.404  24.363  1.00  0.00     0.010 A 
BRANCH  18  23
ATOM     23  O   UNL A   1      48.951  26.522  22.018  1.00  0.00    -0.497 OA
ATOM     24  C   UNL A   1      48.650  27.121  20.762  1.00  0.00     0.278 C 
ENDBRANCH  18  23
ENDBRANCH  13  17
BRANCH  15  25
ATOM     25  C   UNL A   1      44.798  31.835  27.383  1.00  0.00    -0.002 A 
ATOM     26  C   UNL A   1      44.367  32.186  28.666  1.00  0.00     0.011 A 
ATOM     27  C   UNL A   1      44.566  32.671  26.289  1.00  0.00     0.011 A 
ATOM     28  C   UNL A   1      43.703  33.393  28.864  1.00  0.00     0.021 A 
ATOM     29  C   UNL A   1      43.876  33.869  26.481  1.00  0.00     0.021 A 
ATOM     30  C   UNL A   1      43.442  34.219  27.765  1.00  0.00     0.067 A 
BRANCH  30  31
ATOM     31  S   UNL A   1      42.542  35.731  28.019  1.00  0.00     0.175 S 
ATOM     32  C   UNL A   1      43.805  36.927  28.378  1.00  0.00     0.163 C 
ATOM     33  O   UNL A   1      41.933  36.071  26.748  1.00  0.00    -0.224 OA
ATOM     34  O   UNL A   1      41.740  35.569  29.217  1.00  0.00    -0.224 OA
ENDBRANCH  30  31
ENDBRANCH  15  25
ENDBRANCH   7  12
ENDBRANCH   3   6
ENDBRANCH   1   2
BRANCH   1  35
ATOM     35  C   UNL A   1      42.562  22.397  25.413  1.00  0.00     0.042 C 
BRANCH  35  36
ATOM     36  C   UNL A   1      41.520  22.487  26.525  1.00  0.00     0.118 C 
BRANCH  36  37
ATOM     37  N   UNL A   1      40.169  22.543  25.994  1.00  0.00    -0.352 N 
ATOM     38  C   UNL A   1      39.132  23.387  26.290  1.00  0.00     0.251 C 
ATOM     39  H   UNL A   1      39.966  21.866  25.310  1.00  0.00     0.163 HD
ATOM     40  O   UNL A   1      38.005  23.109  25.883  1.00  0.00    -0.269 OA
BRANCH  38  41
ATOM     41  C   UNL A   1      39.334  24.622  27.082  1.00  0.00     0.039 A 
ATOM     42  C   UNL A   1      40.055  25.668  26.497  1.00  0.00     0.014 A 
ATOM     43  C   UNL A   1      38.922  24.726  28.415  1.00  0.00     0.014 A 
ATOM     44  C   UNL A   1      40.356  26.813  27.237  1.00  0.00     0.010 A 
ATOM     45  C   UNL A   1      39.168  25.897  29.135  1.00  0.00     0.010 A 
ATOM     46  C   UNL A   1      39.910  26.940  28.562  1.00  0.00    -0.014 A 
BRANCH  46  47
ATOM     47  C   UNL A   1      40.264  28.138  29.365  1.00  0.00     0.031 A 
ATOM     48  C   UNL A   1      41.609  28.228  30.036  1.00  0.00     0.074 A 
ATOM     49  C   UNL A   1      39.371  29.136  29.507  1.00  0.00     0.049 A 
ATOM     50  N   UNL A   1      42.098  29.184  30.786  1.00  0.00    -0.248 NA
ATOM     51  C   UNL A   1      42.518  27.083  29.860  1.00  0.00     0.031 C 
ATOM     52  C   UNL A   1      38.020  29.147  28.944  1.00  0.00     0.029 A 
ATOM     53  N   UNL A   1      39.465  30.333  30.172  1.00  0.00    -0.354 N 
ATOM     54  C   UNL A   1      43.356  28.748  31.183  1.00  0.00     0.074 A 
ATOM     55  C   UNL A   1      43.542  27.426  30.628  1.00  0.00     0.031 C 
ATOM     56  C   UNL A   1      37.418  30.302  29.270  1.00  0.00     0.029 A 
ATOM     57  C   UNL A   1      38.330  31.102  30.085  1.00  0.00     0.049 A 
ATOM     58  H   UNL A   1      40.269  30.614  30.666  1.00  0.00     0.167 HD
ATOM     59  C   UNL A   1      44.281  29.401  31.927  1.00  0.00     0.037 A 
ATOM     60  C   UNL A   1      38.058  32.314  30.603  1.00  0.00     0.037 A 
ATOM     61  C   UNL A   1      44.116  30.736  32.438  1.00  0.00     0.049 A 
ATOM     62  C   UNL A   1      39.117  33.027  31.399  1.00  0.00     0.074 A 
ATOM     63  C   UNL A   1      45.026  31.514  33.132  1.00  0.00     0.029 A 
ATOM     64  N   UNL A   1      42.962  31.493  32.305  1.00  0.00    -0.354 N 
ATOM     65  N   UNL A   1      40.331  32.636  31.701  1.00  0.00    -0.248 NA
ATOM     66  C   UNL A   1      38.770  34.357  31.920  1.00  0.00     0.031 C 
ATOM     67  C   UNL A   1      44.411  32.728  33.451  1.00  0.00     0.029 A 
ATOM     68  C   UNL A   1      43.131  32.722  32.921  1.00  0.00     0.049 A 
ATOM     69  H   UNL A   1      42.144  31.201  31.841  1.00  0.00     0.167 HD
ATOM     70  C   UNL A   1      40.901  33.679  32.420  1.00  0.00     0.074 A 
ATOM     71  C   UNL A   1      39.906  34.728  32.494  1.00  0.00     0.031 C 
ATOM     72  C   UNL A   1      42.134  33.758  32.975  1.00  0.00     0.037 A 
BRANCH  59  73
ATOM     73  C   UNL A   1      45.567  28.689  32.228  1.00  0.00     0.064 A 
ATOM     74  C   UNL A   1      45.734  27.937  33.401  1.00  0.00     0.173 A 
ATOM     75  C   UNL A   1      46.622  28.705  31.302  1.00  0.00     0.173 A 
ATOM     76  F   UNL A   1      44.759  27.898  34.321  1.00  0.00    -0.203 F 
ATOM     77  C   UNL A   1      46.916  27.242  33.643  1.00  0.00     0.198 A 
ATOM     78  C   UNL A   1      47.792  27.989  31.536  1.00  0.00     0.198 A 
ATOM     79  F   UNL A   1      46.510  29.404  30.163  1.00  0.00    -0.203 F 
ATOM     80  F   UNL A   1      47.066  26.558  34.785  1.00  0.00    -0.200 F 
ATOM     81  C   UNL A   1      47.940  27.262  32.708  1.00  0.00     0.200 A 
ATOM     82  F   UNL A   1      48.776  27.998  30.627  1.00  0.00    -0.200 F 
ATOM     83  F   UNL A   1      49.071  26.580  32.937  1.00  0.00    -0.200 F 
ENDBRANCH  59  73
BRANCH  60  84
ATOM     84  C   UNL A   1      36.736  32.949  30.367  1.00  0.00     0.064 A 
ATOM     85  C   UNL A   1      36.413  33.501  29.119  1.00  0.00     0.173 A 
ATOM     86  C   UNL A   1      35.780  33.044  31.389  1.00  0.00     0.173 A 
ATOM     87  F   UNL A   1      37.303  33.453  28.116  1.00  0.00    -0.203 F 
ATOM     88  C   UNL A   1      35.198  34.149  28.911  1.00  0.00     0.198 A 
ATOM     89  C   UNL A   1      34.554  33.668  31.172  1.00  0.00     0.198 A 
ATOM     90  F   UNL A   1      36.039  32.528  32.600  1.00  0.00    -0.203 F 
ATOM     91  F   UNL A   1      34.938  34.716  27.725  1.00  0.00    -0.200 F 
ATOM     92  C   UNL A   1      34.269  34.230  29.937  1.00  0.00     0.200 A 
ATOM     93  F   UNL A   1      33.653  33.733  32.162  1.00  0.00    -0.200 F 
ATOM     94  F   UNL A   1      33.102  34.858  29.739  1.00  0.00    -0.200 F 
ENDBRANCH  60  84
BRANCH  72  95
ATOM     95  C   UNL A   1      42.484  35.033  33.683  1.00  0.00     0.064 A 
ATOM     96  C   UNL A   1      42.245  35.198  35.055  1.00  0.00     0.173 A 
ATOM     97  C   UNL A   1      43.093  36.088  32.988  1.00  0.00     0.173 A 
ATOM     98  F   UNL A   1      41.651  34.224  35.758  1.00  0.00    -0.203 F 
ATOM     99  C   UNL A   1      42.577  36.387  35.699  1.00  0.00     0.198 A 
ATOM    100  C   UNL A   1      43.449  37.264  33.642  1.00  0.00     0.198 A 
ATOM    101  F   UNL A   1      43.348  35.976  31.675  1.00  0.00    -0.203 F 
ATOM    102  F   UNL A   1      42.295  36.543  37.000  1.00  0.00    -0.200 F 
ATOM    103  C   UNL A   1      43.184  37.416  34.994  1.00  0.00     0.200 A 
ATOM    104  F   UNL A   1      44.046  38.253  32.962  1.00  0.00    -0.200 F 
ATOM    105  F   UNL A   1      43.506  38.557  35.618  1.00  0.00    -0.200 F 
ENDBRANCH  72  95
ENDBRANCH  46  47
ENDBRANCH  38  41
ENDBRANCH  36  37
ENDBRANCH  35  36
ENDBRANCH   1  35
TORSDOF 15
ENDMDL
