MODEL 1
REMARK VINA RESULT:     -12.6      0.000      0.000
REMARK SMILES C[C@H]([C@@H](C)C(=O)NCCCNC(=O)c1ccc(-c2c3nc(c(-c4c(F)c(F)c(F)c(F)c4F)c4ccc([nH]4)c(-c4c(F)c(F)c(F)c(F)c4F)c4nc(c(-c5c(F)c(F)c(F)c(F)c5F)c5ccc2[nH]5)C=C4)C=C3)cc1)[S@@](=O)c1ccc2ccccc2c1
REMARK SMILES IDX 8 1 7 2 5 3 6 4 3 6 4 7 2 8 1 9 77 10 78 11 79 12 80 13
REMARK SMILES IDX 88 14 81 15 87 16 82 17 86 18 83 19 85 20 84 21 9 22 10 23
REMARK SMILES IDX 11 24 12 25 13 27 14 28 15 29 76 30 16 31 75 32 17 33 18 34
REMARK SMILES IDX 19 35 69 36 20 37 74 38 68 39 70 40 21 41 73 42 67 43 66 44
REMARK SMILES IDX 22 46 54 47 34 48 53 49 35 50 38 51 52 52 71 53 36 54 37 55
REMARK SMILES IDX 51 57 72 58 39 59 23 60 24 61 32 62 25 63 26 64 30 65 33 66
REMARK SMILES IDX 27 67 28 68 31 69 29 70 55 71 56 72 64 73 57 74 58 75 62 76
REMARK SMILES IDX 65 77 59 78 60 79 63 80 61 81 40 82 41 83 49 84 42 85 43 86
REMARK SMILES IDX 47 87 50 88 44 89 45 90 48 91 46 92
REMARK H PARENT 7 5 11 26 70 45 38 56
REMARK Flexibility Score: inf
ROOT
ATOM      1  C   UNL A   1      31.589  30.849  25.965  1.00  0.00     0.117 C 
ENDROOT
BRANCH   1   2
ATOM      2  N   UNL A   1      32.781  30.209  26.499  1.00  0.00    -0.356 N 
ATOM      3  C   UNL A   1      33.418  29.049  26.198  1.00  0.00     0.224 C 
ATOM      4  O   UNL A   1      34.360  28.731  26.931  1.00  0.00    -0.275 OA
ATOM      5  H   UNL A   1      33.211  30.718  27.223  1.00  0.00     0.163 HD
BRANCH   3   6
ATOM      6  C   UNL A   1      33.029  28.135  25.033  1.00  0.00     0.091 C 
ATOM      7  C   UNL A   1      33.486  28.701  23.688  1.00  0.00     0.019 C 
BRANCH   6   8
ATOM      8  C   UNL A   1      31.583  27.601  25.184  1.00  0.00     0.093 C 
ATOM      9  C   UNL A   1      30.607  27.854  24.040  1.00  0.00     0.023 C 
BRANCH   8  10
ATOM     10  S   UNL A   1      31.485  25.862  25.804  1.00  0.00     0.057 S 
ATOM     11  O   UNL A   1      30.315  25.201  25.138  1.00  0.00    -0.254 OA
BRANCH  10  12
ATOM     12  C   UNL A   1      32.938  25.087  25.084  1.00  0.00     0.040 A 
ATOM     13  C   UNL A   1      32.861  24.692  23.746  1.00  0.00     0.018 A 
ATOM     14  C   UNL A   1      34.114  24.849  25.800  1.00  0.00     0.026 A 
ATOM     15  C   UNL A   1      33.918  24.002  23.151  1.00  0.00     0.010 A 
ATOM     16  C   UNL A   1      35.157  24.094  25.238  1.00  0.00    -0.017 A 
ATOM     17  C   UNL A   1      35.057  23.668  23.894  1.00  0.00    -0.018 A 
ATOM     18  C   UNL A   1      36.285  23.724  25.991  1.00  0.00     0.009 A 
ATOM     19  C   UNL A   1      36.093  22.908  23.332  1.00  0.00     0.009 A 
ATOM     20  C   UNL A   1      37.294  22.941  25.425  1.00  0.00     0.001 A 
ATOM     21  C   UNL A   1      37.201  22.541  24.096  1.00  0.00     0.001 A 
ENDBRANCH  10  12
ENDBRANCH   8  10
ENDBRANCH   6   8
ENDBRANCH   3   6
ENDBRANCH   1   2
BRANCH   1  22
ATOM     22  C   UNL A   1      31.325  32.186  26.652  1.00  0.00     0.042 C 
BRANCH  22  23
ATOM     23  C   UNL A   1      32.566  32.811  27.269  1.00  0.00     0.118 C 
BRANCH  23  24
ATOM     24  N   UNL A   1      32.351  34.203  27.635  1.00  0.00    -0.352 N 
ATOM     25  C   UNL A   1      32.956  34.963  28.603  1.00  0.00     0.251 C 
ATOM     26  H   UNL A   1      31.666  34.671  27.104  1.00  0.00     0.163 HD
ATOM     27  O   UNL A   1      32.467  36.050  28.913  1.00  0.00    -0.269 OA
BRANCH  25  28
ATOM     28  C   UNL A   1      34.172  34.485  29.298  1.00  0.00     0.039 A 
ATOM     29  C   UNL A   1      34.042  33.899  30.561  1.00  0.00     0.014 A 
ATOM     30  C   UNL A   1      35.440  34.635  28.730  1.00  0.00     0.014 A 
ATOM     31  C   UNL A   1      35.169  33.387  31.212  1.00  0.00     0.010 A 
ATOM     32  C   UNL A   1      36.551  34.059  29.344  1.00  0.00     0.010 A 
ATOM     33  C   UNL A   1      36.425  33.421  30.587  1.00  0.00    -0.014 A 
BRANCH  33  34
ATOM     34  C   UNL A   1      37.611  32.760  31.192  1.00  0.00     0.031 A 
ATOM     35  C   UNL A   1      38.244  31.572  30.523  1.00  0.00     0.074 A 
ATOM     36  C   UNL A   1      38.053  33.176  32.396  1.00  0.00     0.049 A 
ATOM     37  N   UNL A   1      39.205  30.796  30.957  1.00  0.00    -0.248 NA
ATOM     38  C   UNL A   1      37.713  31.189  29.206  1.00  0.00     0.031 C 
ATOM     39  C   UNL A   1      37.489  34.286  33.166  1.00  0.00     0.029 A 
ATOM     40  N   UNL A   1      39.063  32.700  33.195  1.00  0.00    -0.354 N 
ATOM     41  C   UNL A   1      39.378  29.824  29.980  1.00  0.00     0.074 A 
ATOM     42  C   UNL A   1      38.402  30.087  28.944  1.00  0.00     0.031 C 
ATOM     43  C   UNL A   1      38.160  34.407  34.322  1.00  0.00     0.029 A 
ATOM     44  C   UNL A   1      39.171  33.358  34.398  1.00  0.00     0.049 A 
ATOM     45  H   UNL A   1      39.653  31.957  32.933  1.00  0.00     0.167 HD
ATOM     46  C   UNL A   1      40.280  28.814  29.948  1.00  0.00     0.037 A 
ATOM     47  C   UNL A   1      39.975  33.125  35.453  1.00  0.00     0.037 A 
ATOM     48  C   UNL A   1      41.275  28.583  30.961  1.00  0.00     0.049 A 
ATOM     49  C   UNL A   1      40.958  31.987  35.389  1.00  0.00     0.074 A 
ATOM     50  C   UNL A   1      42.304  27.657  30.962  1.00  0.00     0.029 A 
ATOM     51  N   UNL A   1      41.363  29.280  32.156  1.00  0.00    -0.354 N 
ATOM     52  N   UNL A   1      41.176  31.137  34.415  1.00  0.00    -0.248 NA
ATOM     53  C   UNL A   1      41.802  31.772  36.573  1.00  0.00     0.031 C 
ATOM     54  C   UNL A   1      42.979  27.755  32.182  1.00  0.00     0.029 A 
ATOM     55  C   UNL A   1      42.401  28.774  32.921  1.00  0.00     0.049 A 
ATOM     56  H   UNL A   1      40.775  30.024  32.422  1.00  0.00     0.167 HD
ATOM     57  C   UNL A   1      42.191  30.300  34.860  1.00  0.00     0.074 A 
ATOM     58  C   UNL A   1      42.563  30.760  36.182  1.00  0.00     0.031 C 
ATOM     59  C   UNL A   1      42.758  29.241  34.234  1.00  0.00     0.037 A 
BRANCH  46  60
ATOM     60  C   UNL A   1      40.250  27.873  28.780  1.00  0.00     0.064 A 
ATOM     61  C   UNL A   1      40.979  28.131  27.610  1.00  0.00     0.173 A 
ATOM     62  C   UNL A   1      39.564  26.653  28.872  1.00  0.00     0.173 A 
ATOM     63  F   UNL A   1      41.646  29.286  27.471  1.00  0.00    -0.203 F 
ATOM     64  C   UNL A   1      41.015  27.204  26.572  1.00  0.00     0.198 A 
ATOM     65  C   UNL A   1      39.621  25.719  27.842  1.00  0.00     0.198 A 
ATOM     66  F   UNL A   1      38.858  26.356  29.974  1.00  0.00    -0.203 F 
ATOM     67  F   UNL A   1      41.699  27.480  25.452  1.00  0.00    -0.200 F 
ATOM     68  C   UNL A   1      40.346  25.996  26.692  1.00  0.00     0.200 A 
ATOM     69  F   UNL A   1      38.985  24.545  27.967  1.00  0.00    -0.200 F 
ATOM     70  F   UNL A   1      40.400  25.096  25.701  1.00  0.00    -0.200 F 
ENDBRANCH  46  60
BRANCH  47  71
ATOM     71  C   UNL A   1      39.876  33.970  36.672  1.00  0.00     0.064 A 
ATOM     72  C   UNL A   1      39.066  33.589  37.750  1.00  0.00     0.173 A 
ATOM     73  C   UNL A   1      40.559  35.192  36.771  1.00  0.00     0.173 A 
ATOM     74  F   UNL A   1      38.373  32.442  37.695  1.00  0.00    -0.203 F 
ATOM     75  C   UNL A   1      38.917  34.411  38.866  1.00  0.00     0.198 A 
ATOM     76  C   UNL A   1      40.435  35.998  37.900  1.00  0.00     0.198 A 
ATOM     77  F   UNL A   1      41.351  35.602  35.768  1.00  0.00    -0.203 F 
ATOM     78  F   UNL A   1      38.089  34.050  39.856  1.00  0.00    -0.200 F 
ATOM     79  C   UNL A   1      39.605  35.613  38.942  1.00  0.00     0.200 A 
ATOM     80  F   UNL A   1      41.112  37.151  37.975  1.00  0.00    -0.200 F 
ATOM     81  F   UNL A   1      39.458  36.404  40.012  1.00  0.00    -0.200 F 
ENDBRANCH  47  71
BRANCH  59  82
ATOM     82  C   UNL A   1      43.846  28.512  34.965  1.00  0.00     0.064 A 
ATOM     83  C   UNL A   1      43.561  27.412  35.786  1.00  0.00     0.173 A 
ATOM     84  C   UNL A   1      45.188  28.887  34.807  1.00  0.00     0.173 A 
ATOM     85  F   UNL A   1      42.291  27.028  35.983  1.00  0.00    -0.203 F 
ATOM     86  C   UNL A   1      44.581  26.723  36.437  1.00  0.00     0.198 A 
ATOM     87  C   UNL A   1      46.208  28.178  35.435  1.00  0.00     0.198 A 
ATOM     88  F   UNL A   1      45.512  29.930  34.027  1.00  0.00    -0.203 F 
ATOM     89  F   UNL A   1      44.283  25.700  37.250  1.00  0.00    -0.200 F 
ATOM     90  C   UNL A   1      45.902  27.101  36.254  1.00  0.00     0.200 A 
ATOM     91  F   UNL A   1      47.485  28.535  35.247  1.00  0.00    -0.200 F 
ATOM     92  F   UNL A   1      46.884  26.430  36.873  1.00  0.00    -0.200 F 
ENDBRANCH  59  82
ENDBRANCH  33  34
ENDBRANCH  25  28
ENDBRANCH  23  24
ENDBRANCH  22  23
ENDBRANCH   1  22
TORSDOF 13
ENDMDL
MODEL 2
REMARK VINA RESULT:     -12.6      1.196      3.567
REMARK SMILES C[C@H]([C@@H](C)C(=O)NCCCNC(=O)c1ccc(-c2c3nc(c(-c4c(F)c(F)c(F)c(F)c4F)c4ccc([nH]4)c(-c4c(F)c(F)c(F)c(F)c4F)c4nc(c(-c5c(F)c(F)c(F)c(F)c5F)c5ccc2[nH]5)C=C4)C=C3)cc1)[S@@](=O)c1ccc2ccccc2c1
REMARK SMILES IDX 8 1 7 2 5 3 6 4 3 6 4 7 2 8 1 9 77 10 78 11 79 12 80 13
REMARK SMILES IDX 88 14 81 15 87 16 82 17 86 18 83 19 85 20 84 21 9 22 10 23
REMARK SMILES IDX 11 24 12 25 13 27 14 28 15 29 76 30 16 31 75 32 17 33 18 34
REMARK SMILES IDX 19 35 69 36 20 37 74 38 68 39 70 40 21 41 73 42 67 43 66 44
REMARK SMILES IDX 22 46 54 47 34 48 53 49 35 50 38 51 52 52 71 53 36 54 37 55
REMARK SMILES IDX 51 57 72 58 39 59 23 60 24 61 32 62 25 63 26 64 30 65 33 66
REMARK SMILES IDX 27 67 28 68 31 69 29 70 55 71 56 72 64 73 57 74 58 75 62 76
REMARK SMILES IDX 65 77 59 78 60 79 63 80 61 81 40 82 41 83 49 84 42 85 43 86
REMARK SMILES IDX 47 87 50 88 44 89 45 90 48 91 46 92
REMARK H PARENT 7 5 11 26 70 45 38 56
REMARK Flexibility Score: inf
ROOT
ATOM      1  C   UNL A   1      31.674  30.632  26.012  1.00  0.00     0.117 C 
ENDROOT
BRANCH   1   2
ATOM      2  N   UNL A   1      33.015  30.166  26.324  1.00  0.00    -0.356 N 
ATOM      3  C   UNL A   1      33.582  28.932  26.341  1.00  0.00     0.224 C 
ATOM      4  O   UNL A   1      34.738  28.863  26.772  1.00  0.00    -0.275 OA
ATOM      5  H   UNL A   1      33.636  30.888  26.574  1.00  0.00     0.163 HD
BRANCH   3   6
ATOM      6  C   UNL A   1      32.874  27.657  25.877  1.00  0.00     0.091 C 
ATOM      7  C   UNL A   1      32.058  27.018  27.001  1.00  0.00     0.019 C 
BRANCH   6   8
ATOM      8  C   UNL A   1      33.801  26.772  25.008  1.00  0.00     0.093 C 
ATOM      9  C   UNL A   1      34.324  25.476  25.618  1.00  0.00     0.023 C 
BRANCH   8  10
ATOM     10  S   UNL A   1      33.201  26.527  23.277  1.00  0.00     0.057 S 
ATOM     11  O   UNL A   1      32.993  25.057  23.065  1.00  0.00    -0.254 OA
BRANCH  10  12
ATOM     12  C   UNL A   1      31.551  27.237  23.310  1.00  0.00     0.040 A 
ATOM     13  C   UNL A   1      30.492  26.393  23.655  1.00  0.00     0.018 A 
ATOM     14  C   UNL A   1      31.283  28.572  22.991  1.00  0.00     0.026 A 
ATOM     15  C   UNL A   1      29.176  26.854  23.610  1.00  0.00     0.010 A 
ATOM     16  C   UNL A   1      29.961  29.032  22.873  1.00  0.00    -0.017 A 
ATOM     17  C   UNL A   1      28.894  28.161  23.191  1.00  0.00    -0.018 A 
ATOM     18  C   UNL A   1      29.672  30.329  22.415  1.00  0.00     0.009 A 
ATOM     19  C   UNL A   1      27.573  28.614  23.066  1.00  0.00     0.009 A 
ATOM     20  C   UNL A   1      28.351  30.755  22.269  1.00  0.00     0.001 A 
ATOM     21  C   UNL A   1      27.303  29.901  22.601  1.00  0.00     0.001 A 
ENDBRANCH  10  12
ENDBRANCH   8  10
ENDBRANCH   6   8
ENDBRANCH   3   6
ENDBRANCH   1   2
BRANCH   1  22
ATOM     22  C   UNL A   1      31.396  31.987  26.656  1.00  0.00     0.042 C 
BRANCH  22  23
ATOM     23  C   UNL A   1      32.629  32.639  27.263  1.00  0.00     0.118 C 
BRANCH  23  24
ATOM     24  N   UNL A   1      32.412  34.048  27.554  1.00  0.00    -0.352 N 
ATOM     25  C   UNL A   1      32.992  34.852  28.503  1.00  0.00     0.251 C 
ATOM     26  H   UNL A   1      31.746  34.494  26.980  1.00  0.00     0.163 HD
ATOM     27  O   UNL A   1      32.501  35.955  28.745  1.00  0.00    -0.269 OA
BRANCH  25  28
ATOM     28  C   UNL A   1      34.183  34.401  29.257  1.00  0.00     0.039 A 
ATOM     29  C   UNL A   1      34.004  33.815  30.515  1.00  0.00     0.014 A 
ATOM     30  C   UNL A   1      35.473  34.576  28.750  1.00  0.00     0.014 A 
ATOM     31  C   UNL A   1      35.109  33.330  31.221  1.00  0.00     0.010 A 
ATOM     32  C   UNL A   1      36.565  34.025  29.419  1.00  0.00     0.010 A 
ATOM     33  C   UNL A   1      36.393  33.388  30.657  1.00  0.00    -0.014 A 
BRANCH  33  34
ATOM     34  C   UNL A   1      37.562  32.754  31.321  1.00  0.00     0.031 A 
ATOM     35  C   UNL A   1      38.241  31.567  30.696  1.00  0.00     0.074 A 
ATOM     36  C   UNL A   1      37.946  33.193  32.536  1.00  0.00     0.049 A 
ATOM     37  N   UNL A   1      39.194  30.812  31.181  1.00  0.00    -0.248 NA
ATOM     38  C   UNL A   1      37.772  31.158  29.363  1.00  0.00     0.031 C 
ATOM     39  C   UNL A   1      37.333  34.304  33.266  1.00  0.00     0.029 A 
ATOM     40  N   UNL A   1      38.929  32.743  33.384  1.00  0.00    -0.354 N 
ATOM     41  C   UNL A   1      39.423  29.829  30.226  1.00  0.00     0.074 A 
ATOM     42  C   UNL A   1      38.488  30.063  29.146  1.00  0.00     0.031 C 
ATOM     43  C   UNL A   1      37.953  34.451  34.448  1.00  0.00     0.029 A 
ATOM     44  C   UNL A   1      38.975  33.420  34.581  1.00  0.00     0.049 A 
ATOM     45  H   UNL A   1      39.540  32.006  33.158  1.00  0.00     0.167 HD
ATOM     46  C   UNL A   1      40.340  28.833  30.246  1.00  0.00     0.037 A 
ATOM     47  C   UNL A   1      39.737  33.213  35.672  1.00  0.00     0.037 A 
ATOM     48  C   UNL A   1      41.295  28.632  31.304  1.00  0.00     0.049 A 
ATOM     49  C   UNL A   1      40.739  32.089  35.666  1.00  0.00     0.074 A 
ATOM     50  C   UNL A   1      42.336  27.722  31.361  1.00  0.00     0.029 A 
ATOM     51  N   UNL A   1      41.321  29.346  32.491  1.00  0.00    -0.354 N 
ATOM     52  N   UNL A   1      41.011  31.230  34.714  1.00  0.00    -0.248 NA
ATOM     53  C   UNL A   1      41.535  31.904  36.887  1.00  0.00     0.031 C 
ATOM     54  C   UNL A   1      42.958  27.847  32.607  1.00  0.00     0.029 A 
ATOM     55  C   UNL A   1      42.333  28.867  33.306  1.00  0.00     0.049 A 
ATOM     56  H   UNL A   1      40.711  30.084  32.722  1.00  0.00     0.167 HD
ATOM     57  C   UNL A   1      42.018  30.416  35.214  1.00  0.00     0.074 A 
ATOM     58  C   UNL A   1      42.327  30.898  36.543  1.00  0.00     0.031 C 
ATOM     59  C   UNL A   1      42.628  29.357  34.627  1.00  0.00     0.037 A 
BRANCH  46  60
ATOM     60  C   UNL A   1      40.374  27.877  29.091  1.00  0.00     0.064 A 
ATOM     61  C   UNL A   1      39.592  26.713  29.077  1.00  0.00     0.173 A 
ATOM     62  C   UNL A   1      41.124  28.180  27.945  1.00  0.00     0.173 A 
ATOM     63  F   UNL A   1      38.864  26.376  30.152  1.00  0.00    -0.203 F 
ATOM     64  C   UNL A   1      39.565  25.883  27.960  1.00  0.00     0.198 A 
ATOM     65  C   UNL A   1      41.077  27.360  26.821  1.00  0.00     0.198 A 
ATOM     66  F   UNL A   1      41.883  29.285  27.905  1.00  0.00    -0.203 F 
ATOM     67  F   UNL A   1      38.828  24.764  27.975  1.00  0.00    -0.200 F 
ATOM     68  C   UNL A   1      40.298  26.212  26.829  1.00  0.00     0.200 A 
ATOM     69  F   UNL A   1      41.774  27.688  25.724  1.00  0.00    -0.200 F 
ATOM     70  F   UNL A   1      40.254  25.424  25.747  1.00  0.00    -0.200 F 
ENDBRANCH  46  60
BRANCH  47  71
ATOM     71  C   UNL A   1      39.574  34.073  36.874  1.00  0.00     0.064 A 
ATOM     72  C   UNL A   1      40.239  35.303  36.978  1.00  0.00     0.173 A 
ATOM     73  C   UNL A   1      38.784  33.667  37.960  1.00  0.00     0.173 A 
ATOM     74  F   UNL A   1      41.027  35.724  35.977  1.00  0.00    -0.203 F 
ATOM     75  C   UNL A   1      40.143  36.079  38.131  1.00  0.00     0.198 A 
ATOM     76  C   UNL A   1      38.663  34.459  39.099  1.00  0.00     0.198 A 
ATOM     77  F   UNL A   1      38.124  32.500  37.911  1.00  0.00    -0.203 F 
ATOM     78  F   UNL A   1      40.837  37.222  38.226  1.00  0.00    -0.200 F 
ATOM     79  C   UNL A   1      39.352  35.659  39.189  1.00  0.00     0.200 A 
ATOM     80  F   UNL A   1      37.887  34.055  40.114  1.00  0.00    -0.200 F 
ATOM     81  F   UNL A   1      39.265  36.403  40.299  1.00  0.00    -0.200 F 
ENDBRANCH  47  71
BRANCH  59  82
ATOM     82  C   UNL A   1      43.694  28.655  35.413  1.00  0.00     0.064 A 
ATOM     83  C   UNL A   1      45.045  29.011  35.288  1.00  0.00     0.173 A 
ATOM     84  C   UNL A   1      43.360  27.651  36.333  1.00  0.00     0.173 A 
ATOM     85  F   UNL A   1      45.416  29.952  34.407  1.00  0.00    -0.203 F 
ATOM     86  C   UNL A   1      46.025  28.373  36.043  1.00  0.00     0.198 A 
ATOM     87  C   UNL A   1      44.338  27.036  37.109  1.00  0.00     0.198 A 
ATOM     88  F   UNL A   1      42.081  27.279  36.493  1.00  0.00    -0.203 F 
ATOM     89  F   UNL A   1      47.314  28.700  35.878  1.00  0.00    -0.200 F 
ATOM     90  C   UNL A   1      45.670  27.394  36.958  1.00  0.00     0.200 A 
ATOM     91  F   UNL A   1      43.993  26.100  38.003  1.00  0.00    -0.200 F 
ATOM     92  F   UNL A   1      46.613  26.789  37.694  1.00  0.00    -0.200 F 
ENDBRANCH  59  82
ENDBRANCH  33  34
ENDBRANCH  25  28
ENDBRANCH  23  24
ENDBRANCH  22  23
ENDBRANCH   1  22
TORSDOF 13
ENDMDL
MODEL 3
REMARK VINA RESULT:     -12.5      1.364      2.896
REMARK SMILES C[C@H]([C@@H](C)C(=O)NCCCNC(=O)c1ccc(-c2c3nc(c(-c4c(F)c(F)c(F)c(F)c4F)c4ccc([nH]4)c(-c4c(F)c(F)c(F)c(F)c4F)c4nc(c(-c5c(F)c(F)c(F)c(F)c5F)c5ccc2[nH]5)C=C4)C=C3)cc1)[S@@](=O)c1ccc2ccccc2c1
REMARK SMILES IDX 8 1 7 2 5 3 6 4 3 6 4 7 2 8 1 9 77 10 78 11 79 12 80 13
REMARK SMILES IDX 88 14 81 15 87 16 82 17 86 18 83 19 85 20 84 21 9 22 10 23
REMARK SMILES IDX 11 24 12 25 13 27 14 28 15 29 76 30 16 31 75 32 17 33 18 34
REMARK SMILES IDX 19 35 69 36 20 37 74 38 68 39 70 40 21 41 73 42 67 43 66 44
REMARK SMILES IDX 22 46 54 47 34 48 53 49 35 50 38 51 52 52 71 53 36 54 37 55
REMARK SMILES IDX 51 57 72 58 39 59 23 60 24 61 32 62 25 63 26 64 30 65 33 66
REMARK SMILES IDX 27 67 28 68 31 69 29 70 55 71 56 72 64 73 57 74 58 75 62 76
REMARK SMILES IDX 65 77 59 78 60 79 63 80 61 81 40 82 41 83 49 84 42 85 43 86
REMARK SMILES IDX 47 87 50 88 44 89 45 90 48 91 46 92
REMARK H PARENT 7 5 11 26 70 45 38 56
REMARK Flexibility Score: inf
ROOT
ATOM      1  C   UNL A   1      31.633  30.872  25.891  1.00  0.00     0.117 C 
ENDROOT
BRANCH   1   2
ATOM      2  N   UNL A   1      32.898  30.277  26.294  1.00  0.00    -0.356 N 
ATOM      3  C   UNL A   1      33.266  29.004  26.591  1.00  0.00     0.224 C 
ATOM      4  O   UNL A   1      34.414  28.849  27.018  1.00  0.00    -0.275 OA
ATOM      5  H   UNL A   1      33.633  30.927  26.366  1.00  0.00     0.163 HD
BRANCH   3   6
ATOM      6  C   UNL A   1      32.348  27.790  26.437  1.00  0.00     0.091 C 
ATOM      7  C   UNL A   1      31.440  27.605  27.653  1.00  0.00     0.019 C 
BRANCH   6   8
ATOM      8  C   UNL A   1      33.106  26.570  25.859  1.00  0.00     0.093 C 
ATOM      9  C   UNL A   1      32.677  25.181  26.319  1.00  0.00     0.023 C 
BRANCH   8  10
ATOM     10  S   UNL A   1      33.364  26.643  24.030  1.00  0.00     0.057 S 
ATOM     11  O   UNL A   1      33.229  25.250  23.490  1.00  0.00    -0.254 OA
BRANCH  10  12
ATOM     12  C   UNL A   1      31.909  27.519  23.445  1.00  0.00     0.040 A 
ATOM     13  C   UNL A   1      32.111  28.732  22.780  1.00  0.00     0.018 A 
ATOM     14  C   UNL A   1      30.605  27.057  23.641  1.00  0.00     0.026 A 
ATOM     15  C   UNL A   1      31.023  29.509  22.381  1.00  0.00     0.010 A 
ATOM     16  C   UNL A   1      29.500  27.859  23.309  1.00  0.00    -0.017 A 
ATOM     17  C   UNL A   1      29.714  29.100  22.668  1.00  0.00    -0.018 A 
ATOM     18  C   UNL A   1      28.187  27.472  23.629  1.00  0.00     0.009 A 
ATOM     19  C   UNL A   1      28.614  29.907  22.342  1.00  0.00     0.009 A 
ATOM     20  C   UNL A   1      27.106  28.300  23.325  1.00  0.00     0.001 A 
ATOM     21  C   UNL A   1      27.319  29.513  22.676  1.00  0.00     0.001 A 
ENDBRANCH  10  12
ENDBRANCH   8  10
ENDBRANCH   6   8
ENDBRANCH   3   6
ENDBRANCH   1   2
BRANCH   1  22
ATOM     22  C   UNL A   1      31.355  32.157  26.665  1.00  0.00     0.042 C 
BRANCH  22  23
ATOM     23  C   UNL A   1      32.604  32.804  27.242  1.00  0.00     0.118 C 
BRANCH  23  24
ATOM     24  N   UNL A   1      32.374  34.192  27.617  1.00  0.00    -0.352 N 
ATOM     25  C   UNL A   1      32.962  34.948  28.600  1.00  0.00     0.251 C 
ATOM     26  H   UNL A   1      31.693  34.660  27.082  1.00  0.00     0.163 HD
ATOM     27  O   UNL A   1      32.462  36.029  28.913  1.00  0.00    -0.269 OA
BRANCH  25  28
ATOM     28  C   UNL A   1      34.172  34.472  29.305  1.00  0.00     0.039 A 
ATOM     29  C   UNL A   1      34.032  33.888  30.569  1.00  0.00     0.014 A 
ATOM     30  C   UNL A   1      35.445  34.621  28.748  1.00  0.00     0.014 A 
ATOM     31  C   UNL A   1      35.154  33.378  31.230  1.00  0.00     0.010 A 
ATOM     32  C   UNL A   1      36.551  34.047  29.372  1.00  0.00     0.010 A 
ATOM     33  C   UNL A   1      36.415  33.411  30.615  1.00  0.00    -0.014 A 
BRANCH  33  34
ATOM     34  C   UNL A   1      37.597  32.753  31.232  1.00  0.00     0.031 A 
ATOM     35  C   UNL A   1      38.242  31.569  30.566  1.00  0.00     0.074 A 
ATOM     36  C   UNL A   1      38.023  33.165  32.442  1.00  0.00     0.049 A 
ATOM     37  N   UNL A   1      39.200  30.794  31.007  1.00  0.00    -0.248 NA
ATOM     38  C   UNL A   1      37.728  31.190  29.241  1.00  0.00     0.031 C 
ATOM     39  C   UNL A   1      37.446  34.270  33.210  1.00  0.00     0.029 A 
ATOM     40  N   UNL A   1      39.026  32.689  33.251  1.00  0.00    -0.354 N 
ATOM     41  C   UNL A   1      39.388  29.827  30.029  1.00  0.00     0.074 A 
ATOM     42  C   UNL A   1      38.423  30.090  28.983  1.00  0.00     0.031 C 
ATOM     43  C   UNL A   1      38.103  34.389  34.374  1.00  0.00     0.029 A 
ATOM     44  C   UNL A   1      39.117  33.344  34.457  1.00  0.00     0.049 A 
ATOM     45  H   UNL A   1      39.621  31.949  32.993  1.00  0.00     0.167 HD
ATOM     46  C   UNL A   1      40.294  28.820  30.003  1.00  0.00     0.037 A 
ATOM     47  C   UNL A   1      39.909  33.109  35.521  1.00  0.00     0.037 A 
ATOM     48  C   UNL A   1      41.278  28.590  31.027  1.00  0.00     0.049 A 
ATOM     49  C   UNL A   1      40.897  31.974  35.464  1.00  0.00     0.074 A 
ATOM     50  C   UNL A   1      42.310  27.667  31.036  1.00  0.00     0.029 A 
ATOM     51  N   UNL A   1      41.349  29.282  32.226  1.00  0.00    -0.354 N 
ATOM     52  N   UNL A   1      41.130  31.129  34.490  1.00  0.00    -0.248 NA
ATOM     53  C   UNL A   1      41.728  31.758  36.657  1.00  0.00     0.031 C 
ATOM     54  C   UNL A   1      42.971  27.763  32.264  1.00  0.00     0.029 A 
ATOM     55  C   UNL A   1      42.380  28.776  33.001  1.00  0.00     0.049 A 
ATOM     56  H   UNL A   1      40.756  30.022  32.488  1.00  0.00     0.167 HD
ATOM     57  C   UNL A   1      42.142  30.295  34.943  1.00  0.00     0.074 A 
ATOM     58  C   UNL A   1      42.497  30.750  36.271  1.00  0.00     0.031 C 
ATOM     59  C   UNL A   1      42.721  29.240  34.320  1.00  0.00     0.037 A 
BRANCH  46  60
ATOM     60  C   UNL A   1      40.281  27.884  28.831  1.00  0.00     0.064 A 
ATOM     61  C   UNL A   1      41.024  28.148  27.672  1.00  0.00     0.173 A 
ATOM     62  C   UNL A   1      39.597  26.663  28.910  1.00  0.00     0.173 A 
ATOM     63  F   UNL A   1      41.690  29.306  27.545  1.00  0.00    -0.203 F 
ATOM     64  C   UNL A   1      41.075  27.226  26.631  1.00  0.00     0.198 A 
ATOM     65  C   UNL A   1      39.669  25.732  27.877  1.00  0.00     0.198 A 
ATOM     66  F   UNL A   1      38.877  26.359  30.002  1.00  0.00    -0.203 F 
ATOM     67  F   UNL A   1      41.773  27.507  25.521  1.00  0.00    -0.200 F 
ATOM     68  C   UNL A   1      40.408  26.015  26.738  1.00  0.00     0.200 A 
ATOM     69  F   UNL A   1      39.034  24.557  27.990  1.00  0.00    -0.200 F 
ATOM     70  F   UNL A   1      40.476  25.120  25.744  1.00  0.00    -0.200 F 
ENDBRANCH  46  60
BRANCH  47  71
ATOM     71  C   UNL A   1      39.794  33.949  36.742  1.00  0.00     0.064 A 
ATOM     72  C   UNL A   1      38.963  33.567  37.805  1.00  0.00     0.173 A 
ATOM     73  C   UNL A   1      40.480  35.167  36.858  1.00  0.00     0.173 A 
ATOM     74  F   UNL A   1      38.266  32.423  37.732  1.00  0.00    -0.203 F 
ATOM     75  C   UNL A   1      38.799  34.384  38.922  1.00  0.00     0.198 A 
ATOM     76  C   UNL A   1      40.340  35.968  37.989  1.00  0.00     0.198 A 
ATOM     77  F   UNL A   1      41.290  35.578  35.871  1.00  0.00    -0.203 F 
ATOM     78  F   UNL A   1      37.952  34.023  39.895  1.00  0.00    -0.200 F 
ATOM     79  C   UNL A   1      39.491  35.583  39.015  1.00  0.00     0.200 A 
ATOM     80  F   UNL A   1      41.020  37.118  38.081  1.00  0.00    -0.200 F 
ATOM     81  F   UNL A   1      39.329  36.370  40.086  1.00  0.00    -0.200 F 
ENDBRANCH  47  71
BRANCH  59  82
ATOM     82  C   UNL A   1      43.802  28.512  35.060  1.00  0.00     0.064 A 
ATOM     83  C   UNL A   1      43.518  27.383  35.841  1.00  0.00     0.173 A 
ATOM     84  C   UNL A   1      45.141  28.918  34.952  1.00  0.00     0.173 A 
ATOM     85  F   UNL A   1      42.251  26.967  35.990  1.00  0.00    -0.203 F 
ATOM     86  C   UNL A   1      44.533  26.696  36.501  1.00  0.00     0.198 A 
ATOM     87  C   UNL A   1      46.157  28.212  35.588  1.00  0.00     0.198 A 
ATOM     88  F   UNL A   1      45.464  29.990  34.212  1.00  0.00    -0.203 F 
ATOM     89  F   UNL A   1      44.234  25.644  37.276  1.00  0.00    -0.200 F 
ATOM     90  C   UNL A   1      45.851  27.106  36.367  1.00  0.00     0.200 A 
ATOM     91  F   UNL A   1      47.431  28.600  35.448  1.00  0.00    -0.200 F 
ATOM     92  F   UNL A   1      46.829  26.437  36.994  1.00  0.00    -0.200 F 
ENDBRANCH  59  82
ENDBRANCH  33  34
ENDBRANCH  25  28
ENDBRANCH  23  24
ENDBRANCH  22  23
ENDBRANCH   1  22
TORSDOF 13
ENDMDL
