MODEL 1
REMARK VINA RESULT:     -10.8      0.000      0.000
REMARK SMILES CN(CC(=O)NCC(=O)NCCCNC(=O)c1ccc(-c2c3nc(c(-c4c(F)c(F)c(F)c(F)c4F)c4ccc([nH]4)c(-c4c(F)c(F)c(F)c(F)c4F)c4nc(c(-c5c(F)c(F)c(F)c(F)c5F)c5ccc2[nH]5)C=C4)C=C3)cc1)c1ncccn1
REMARK SMILES IDX 11 1 10 2 8 3 9 4 7 6 6 7 4 8 5 9 3 11 2 12 1 13 80 14 81 15
REMARK SMILES IDX 85 16 82 17 84 18 83 19 12 20 13 21 14 22 15 23 16 25 17 26
REMARK SMILES IDX 18 27 79 28 19 29 78 30 20 31 21 32 22 33 72 34 23 35 77 36
REMARK SMILES IDX 71 37 73 38 24 39 76 40 70 41 69 42 25 44 57 45 37 46 56 47
REMARK SMILES IDX 38 48 41 49 55 50 74 51 39 52 40 53 54 55 75 56 42 57 26 58
REMARK SMILES IDX 27 59 35 60 28 61 29 62 33 63 36 64 30 65 31 66 34 67 32 68
REMARK SMILES IDX 58 69 59 70 67 71 60 72 61 73 65 74 68 75 62 76 63 77 66 78
REMARK SMILES IDX 64 79 43 80 44 81 52 82 45 83 46 84 50 85 53 86 47 87 48 88
REMARK SMILES IDX 51 89 49 90
REMARK H PARENT 10 5 6 10 14 24 73 43 41 54
REMARK Flexibility Score: inf
ROOT
ATOM      1  C   UNL A   1      35.376  34.686  28.747  1.00  0.00     0.117 C 
ENDROOT
BRANCH   1   2
ATOM      2  N   UNL A   1      34.643  35.885  28.411  1.00  0.00    -0.355 N 
ATOM      3  C   UNL A   1      33.567  36.409  29.075  1.00  0.00     0.239 C 
ATOM      4  O   UNL A   1      33.222  37.560  28.802  1.00  0.00    -0.273 OA
ATOM      5  H   UNL A   1      34.950  36.380  27.617  1.00  0.00     0.163 HD
BRANCH   3   6
ATOM      6  C   UNL A   1      32.912  35.633  30.232  1.00  0.00     0.216 C 
BRANCH   6   7
ATOM      7  N   UNL A   1      32.910  36.357  31.493  1.00  0.00    -0.345 N 
ATOM      8  C   UNL A   1      33.852  36.404  32.483  1.00  0.00     0.240 C 
ATOM      9  O   UNL A   1      33.646  37.198  33.406  1.00  0.00    -0.273 OA
ATOM     10  H   UNL A   1      32.104  36.897  31.661  1.00  0.00     0.164 HD
BRANCH   8  11
ATOM     11  C   UNL A   1      35.143  35.567  32.395  1.00  0.00     0.219 C 
BRANCH  11  12
ATOM     12  N   UNL A   1      35.142  34.358  33.219  1.00  0.00    -0.335 N 
ATOM     13  C   UNL A   1      34.000  33.470  33.251  1.00  0.00     0.147 C 
BRANCH  12  14
ATOM     14  C   UNL A   1      36.278  33.974  33.900  1.00  0.00     0.225 A 
ATOM     15  N   UNL A   1      36.371  32.722  34.364  1.00  0.00    -0.221 NA
ATOM     16  N   UNL A   1      37.295  34.850  33.997  1.00  0.00    -0.221 NA
ATOM     17  C   UNL A   1      37.529  32.341  34.937  1.00  0.00     0.117 A 
ATOM     18  C   UNL A   1      38.432  34.435  34.591  1.00  0.00     0.117 A 
ATOM     19  C   UNL A   1      38.611  33.169  35.079  1.00  0.00     0.040 A 
ENDBRANCH  12  14
ENDBRANCH  11  12
ENDBRANCH   8  11
ENDBRANCH   6   7
ENDBRANCH   3   6
ENDBRANCH   1   2
BRANCH   1  20
ATOM     20  C   UNL A   1      34.831  33.438  28.072  1.00  0.00     0.042 C 
BRANCH  20  21
ATOM     21  C   UNL A   1      34.448  32.324  29.038  1.00  0.00     0.118 C 
BRANCH  21  22
ATOM     22  N   UNL A   1      33.993  31.106  28.374  1.00  0.00    -0.352 N 
ATOM     23  C   UNL A   1      34.642  29.984  27.934  1.00  0.00     0.251 C 
ATOM     24  H   UNL A   1      33.022  31.089  28.208  1.00  0.00     0.163 HD
ATOM     25  O   UNL A   1      34.002  29.163  27.274  1.00  0.00    -0.269 OA
BRANCH  23  26
ATOM     26  C   UNL A   1      36.083  29.745  28.176  1.00  0.00     0.039 A 
ATOM     27  C   UNL A   1      36.456  29.201  29.412  1.00  0.00     0.014 A 
ATOM     28  C   UNL A   1      37.073  30.073  27.250  1.00  0.00     0.014 A 
ATOM     29  C   UNL A   1      37.796  28.930  29.689  1.00  0.00     0.010 A 
ATOM     30  C   UNL A   1      38.397  29.707  27.482  1.00  0.00     0.010 A 
ATOM     31  C   UNL A   1      38.775  29.144  28.708  1.00  0.00    -0.014 A 
BRANCH  31  32
ATOM     32  C   UNL A   1      40.195  28.799  28.960  1.00  0.00     0.031 A 
ATOM     33  C   UNL A   1      41.105  29.773  29.653  1.00  0.00     0.074 A 
ATOM     34  C   UNL A   1      40.679  27.624  28.512  1.00  0.00     0.049 A 
ATOM     35  N   UNL A   1      42.380  29.663  29.933  1.00  0.00    -0.248 NA
ATOM     36  C   UNL A   1      40.513  31.058  30.055  1.00  0.00     0.031 C 
ATOM     37  C   UNL A   1      39.915  26.627  27.762  1.00  0.00     0.029 A 
ATOM     38  N   UNL A   1      41.932  27.075  28.617  1.00  0.00    -0.354 N 
ATOM     39  C   UNL A   1      42.741  30.866  30.525  1.00  0.00     0.074 A 
ATOM     40  C   UNL A   1      41.570  31.715  30.507  1.00  0.00     0.031 C 
ATOM     41  C   UNL A   1      40.707  25.575  27.497  1.00  0.00     0.029 A 
ATOM     42  C   UNL A   1      42.039  25.837  28.032  1.00  0.00     0.049 A 
ATOM     43  H   UNL A   1      42.682  27.525  29.067  1.00  0.00     0.167 HD
ATOM     44  C   UNL A   1      43.933  31.221  31.063  1.00  0.00     0.037 A 
ATOM     45  C   UNL A   1      43.093  25.004  27.944  1.00  0.00     0.037 A 
ATOM     46  C   UNL A   1      45.089  30.364  31.100  1.00  0.00     0.049 A 
ATOM     47  C   UNL A   1      44.393  25.400  28.584  1.00  0.00     0.074 A 
ATOM     48  C   UNL A   1      46.328  30.604  31.668  1.00  0.00     0.029 A 
ATOM     49  N   UNL A   1      45.146  29.095  30.540  1.00  0.00    -0.354 N 
ATOM     50  N   UNL A   1      44.704  26.510  29.208  1.00  0.00    -0.248 NA
ATOM     51  C   UNL A   1      45.484  24.417  28.525  1.00  0.00     0.031 C 
ATOM     52  C   UNL A   1      47.145  29.495  31.421  1.00  0.00     0.029 A 
ATOM     53  C   UNL A   1      46.402  28.544  30.739  1.00  0.00     0.049 A 
ATOM     54  H   UNL A   1      44.403  28.651  30.070  1.00  0.00     0.167 HD
ATOM     55  C   UNL A   1      46.016  26.355  29.633  1.00  0.00     0.074 A 
ATOM     56  C   UNL A   1      46.435  25.032  29.212  1.00  0.00     0.031 C 
ATOM     57  C   UNL A   1      46.803  27.228  30.309  1.00  0.00     0.037 A 
BRANCH  44  58
ATOM     58  C   UNL A   1      44.035  32.598  31.655  1.00  0.00     0.064 A 
ATOM     59  C   UNL A   1      43.730  32.843  33.005  1.00  0.00     0.173 A 
ATOM     60  C   UNL A   1      44.435  33.687  30.868  1.00  0.00     0.173 A 
ATOM     61  F   UNL A   1      43.328  31.839  33.798  1.00  0.00    -0.203 F 
ATOM     62  C   UNL A   1      43.780  34.131  33.530  1.00  0.00     0.198 A 
ATOM     63  C   UNL A   1      44.516  34.970  31.405  1.00  0.00     0.198 A 
ATOM     64  F   UNL A   1      44.743  33.511  29.574  1.00  0.00    -0.203 F 
ATOM     65  F   UNL A   1      43.418  34.348  34.802  1.00  0.00    -0.200 F 
ATOM     66  C   UNL A   1      44.177  35.193  32.732  1.00  0.00     0.200 A 
ATOM     67  F   UNL A   1      44.910  35.994  30.636  1.00  0.00    -0.200 F 
ATOM     68  F   UNL A   1      44.221  36.433  33.237  1.00  0.00    -0.200 F 
ENDBRANCH  44  58
BRANCH  45  69
ATOM     69  C   UNL A   1      42.934  23.695  27.262  1.00  0.00     0.064 A 
ATOM     70  C   UNL A   1      43.369  23.515  25.941  1.00  0.00     0.173 A 
ATOM     71  C   UNL A   1      42.380  22.591  27.924  1.00  0.00     0.173 A 
ATOM     72  F   UNL A   1      43.892  24.547  25.262  1.00  0.00    -0.203 F 
ATOM     73  C   UNL A   1      43.244  22.282  25.305  1.00  0.00     0.198 A 
ATOM     74  C   UNL A   1      42.278  21.352  27.295  1.00  0.00     0.198 A 
ATOM     75  F   UNL A   1      41.959  22.710  29.192  1.00  0.00    -0.203 F 
ATOM     76  F   UNL A   1      43.639  22.145  24.032  1.00  0.00    -0.200 F 
ATOM     77  C   UNL A   1      42.706  21.200  25.985  1.00  0.00     0.200 A 
ATOM     78  F   UNL A   1      41.772  20.305  27.960  1.00  0.00    -0.200 F 
ATOM     79  F   UNL A   1      42.597  20.012  25.375  1.00  0.00    -0.200 F 
ENDBRANCH  45  69
BRANCH  57  80
ATOM     80  C   UNL A   1      48.189  26.768  30.655  1.00  0.00     0.064 A 
ATOM     81  C   UNL A   1      48.459  26.077  31.846  1.00  0.00     0.173 A 
ATOM     82  C   UNL A   1      49.257  27.009  29.778  1.00  0.00     0.173 A 
ATOM     83  F   UNL A   1      47.474  25.836  32.725  1.00  0.00    -0.203 F 
ATOM     84  C   UNL A   1      49.755  25.674  32.160  1.00  0.00     0.198 A 
ATOM     85  C   UNL A   1      50.544  26.578  30.082  1.00  0.00     0.198 A 
ATOM     86  F   UNL A   1      49.049  27.661  28.623  1.00  0.00    -0.203 F 
ATOM     87  F   UNL A   1      49.999  25.065  33.329  1.00  0.00    -0.200 F 
ATOM     88  C   UNL A   1      50.794  25.921  31.276  1.00  0.00     0.200 A 
ATOM     89  F   UNL A   1      51.546  26.806  29.221  1.00  0.00    -0.200 F 
ATOM     90  F   UNL A   1      52.040  25.532  31.581  1.00  0.00    -0.200 F 
ENDBRANCH  57  80
ENDBRANCH  31  32
ENDBRANCH  23  26
ENDBRANCH  21  22
ENDBRANCH  20  21
ENDBRANCH   1  20
TORSDOF 14
ENDMDL
MODEL 2
REMARK VINA RESULT:     -10.7      1.136      2.255
REMARK SMILES CN(CC(=O)NCC(=O)NCCCNC(=O)c1ccc(-c2c3nc(c(-c4c(F)c(F)c(F)c(F)c4F)c4ccc([nH]4)c(-c4c(F)c(F)c(F)c(F)c4F)c4nc(c(-c5c(F)c(F)c(F)c(F)c5F)c5ccc2[nH]5)C=C4)C=C3)cc1)c1ncccn1
REMARK SMILES IDX 11 1 10 2 8 3 9 4 7 6 6 7 4 8 5 9 3 11 2 12 1 13 80 14 81 15
REMARK SMILES IDX 85 16 82 17 84 18 83 19 12 20 13 21 14 22 15 23 16 25 17 26
REMARK SMILES IDX 18 27 79 28 19 29 78 30 20 31 21 32 22 33 72 34 23 35 77 36
REMARK SMILES IDX 71 37 73 38 24 39 76 40 70 41 69 42 25 44 57 45 37 46 56 47
REMARK SMILES IDX 38 48 41 49 55 50 74 51 39 52 40 53 54 55 75 56 42 57 26 58
REMARK SMILES IDX 27 59 35 60 28 61 29 62 33 63 36 64 30 65 31 66 34 67 32 68
REMARK SMILES IDX 58 69 59 70 67 71 60 72 61 73 65 74 68 75 62 76 63 77 66 78
REMARK SMILES IDX 64 79 43 80 44 81 52 82 45 83 46 84 50 85 53 86 47 87 48 88
REMARK SMILES IDX 51 89 49 90
REMARK H PARENT 10 5 6 10 14 24 73 43 41 54
REMARK Flexibility Score: inf
ROOT
ATOM      1  C   UNL A   1      34.031  34.895  29.888  1.00  0.00     0.117 C 
ENDROOT
BRANCH   1   2
ATOM      2  N   UNL A   1      32.850  35.281  30.626  1.00  0.00    -0.355 N 
ATOM      3  C   UNL A   1      32.800  36.006  31.785  1.00  0.00     0.239 C 
ATOM      4  O   UNL A   1      31.708  36.453  32.142  1.00  0.00    -0.273 OA
ATOM      5  H   UNL A   1      31.986  34.989  30.254  1.00  0.00     0.163 HD
BRANCH   3   6
ATOM      6  C   UNL A   1      34.095  36.374  32.531  1.00  0.00     0.216 C 
BRANCH   6   7
ATOM      7  N   UNL A   1      34.336  35.566  33.715  1.00  0.00    -0.345 N 
ATOM      8  C   UNL A   1      35.279  34.602  33.947  1.00  0.00     0.240 C 
ATOM      9  O   UNL A   1      35.336  34.148  35.094  1.00  0.00    -0.273 OA
ATOM     10  H   UNL A   1      33.725  35.738  34.468  1.00  0.00     0.164 HD
BRANCH   8  11
ATOM     11  C   UNL A   1      36.271  34.178  32.847  1.00  0.00     0.219 C 
BRANCH  11  12
ATOM     12  N   UNL A   1      36.389  32.731  32.661  1.00  0.00    -0.335 N 
ATOM     13  C   UNL A   1      35.418  31.990  31.885  1.00  0.00     0.147 C 
BRANCH  12  14
ATOM     14  C   UNL A   1      37.497  32.054  33.126  1.00  0.00     0.225 A 
ATOM     15  N   UNL A   1      38.463  32.734  33.756  1.00  0.00    -0.221 NA
ATOM     16  N   UNL A   1      37.526  30.713  33.007  1.00  0.00    -0.221 NA
ATOM     17  C   UNL A   1      39.485  32.037  34.289  1.00  0.00     0.117 A 
ATOM     18  C   UNL A   1      38.575  30.054  33.540  1.00  0.00     0.117 A 
ATOM     19  C   UNL A   1      39.595  30.674  34.210  1.00  0.00     0.040 A 
ENDBRANCH  12  14
ENDBRANCH  11  12
ENDBRANCH   8  11
ENDBRANCH   6   7
ENDBRANCH   3   6
ENDBRANCH   1   2
BRANCH   1  20
ATOM     20  C   UNL A   1      33.725  34.053  28.660  1.00  0.00     0.042 C 
BRANCH  20  21
ATOM     21  C   UNL A   1      34.677  32.881  28.455  1.00  0.00     0.118 C 
BRANCH  21  22
ATOM     22  N   UNL A   1      34.010  31.656  28.025  1.00  0.00    -0.352 N 
ATOM     23  C   UNL A   1      34.443  30.369  27.852  1.00  0.00     0.251 C 
ATOM     24  H   UNL A   1      33.056  31.780  27.817  1.00  0.00     0.163 HD
ATOM     25  O   UNL A   1      33.670  29.559  27.338  1.00  0.00    -0.269 OA
BRANCH  23  26
ATOM     26  C   UNL A   1      35.811  29.928  28.211  1.00  0.00     0.039 A 
ATOM     27  C   UNL A   1      36.819  30.079  27.250  1.00  0.00     0.014 A 
ATOM     28  C   UNL A   1      36.122  29.340  29.437  1.00  0.00     0.014 A 
ATOM     29  C   UNL A   1      38.132  29.706  27.539  1.00  0.00     0.010 A 
ATOM     30  C   UNL A   1      37.447  29.065  29.765  1.00  0.00     0.010 A 
ATOM     31  C   UNL A   1      38.464  29.232  28.816  1.00  0.00    -0.014 A 
BRANCH  31  32
ATOM     32  C   UNL A   1      39.866  28.894  29.163  1.00  0.00     0.031 A 
ATOM     33  C   UNL A   1      40.704  29.851  29.964  1.00  0.00     0.074 A 
ATOM     34  C   UNL A   1      40.402  27.746  28.706  1.00  0.00     0.049 A 
ATOM     35  N   UNL A   1      41.956  29.745  30.337  1.00  0.00    -0.248 NA
ATOM     36  C   UNL A   1      40.063  31.109  30.371  1.00  0.00     0.031 C 
ATOM     37  C   UNL A   1      39.713  26.772  27.859  1.00  0.00     0.029 A 
ATOM     38  N   UNL A   1      41.651  27.209  28.885  1.00  0.00    -0.354 N 
ATOM     39  C   UNL A   1      42.251  30.926  31.004  1.00  0.00     0.074 A 
ATOM     40  C   UNL A   1      41.072  31.760  30.930  1.00  0.00     0.031 C 
ATOM     41  C   UNL A   1      40.540  25.742  27.613  1.00  0.00     0.029 A 
ATOM     42  C   UNL A   1      41.822  25.998  28.261  1.00  0.00     0.049 A 
ATOM     43  H   UNL A   1      42.358  27.649  29.410  1.00  0.00     0.167 HD
ATOM     44  C   UNL A   1      43.392  31.274  31.647  1.00  0.00     0.037 A 
ATOM     45  C   UNL A   1      42.893  25.183  28.220  1.00  0.00     0.037 A 
ATOM     46  C   UNL A   1      44.555  30.430  31.738  1.00  0.00     0.049 A 
ATOM     47  C   UNL A   1      44.134  25.568  28.975  1.00  0.00     0.074 A 
ATOM     48  C   UNL A   1      45.743  30.662  32.410  1.00  0.00     0.029 A 
ATOM     49  N   UNL A   1      44.676  29.187  31.133  1.00  0.00    -0.354 N 
ATOM     50  N   UNL A   1      44.378  26.655  29.666  1.00  0.00    -0.248 NA
ATOM     51  C   UNL A   1      45.241  24.603  28.960  1.00  0.00     0.031 C 
ATOM     52  C   UNL A   1      46.595  29.575  32.181  1.00  0.00     0.029 A 
ATOM     53  C   UNL A   1      45.921  28.643  31.406  1.00  0.00     0.049 A 
ATOM     54  H   UNL A   1      43.978  28.754  30.589  1.00  0.00     0.167 HD
ATOM     55  C   UNL A   1      45.656  26.499  30.184  1.00  0.00     0.074 A 
ATOM     56  C   UNL A   1      46.127  25.200  29.744  1.00  0.00     0.031 C 
ATOM     57  C   UNL A   1      46.375  27.352  30.955  1.00  0.00     0.037 A 
BRANCH  44  58
ATOM     58  C   UNL A   1      43.426  32.626  32.301  1.00  0.00     0.064 A 
ATOM     59  C   UNL A   1      43.121  32.792  33.662  1.00  0.00     0.173 A 
ATOM     60  C   UNL A   1      43.762  33.769  31.562  1.00  0.00     0.173 A 
ATOM     61  F   UNL A   1      42.779  31.733  34.411  1.00  0.00    -0.203 F 
ATOM     62  C   UNL A   1      43.107  34.056  34.246  1.00  0.00     0.198 A 
ATOM     63  C   UNL A   1      43.780  35.028  32.157  1.00  0.00     0.198 A 
ATOM     64  F   UNL A   1      44.067  33.668  30.260  1.00  0.00    -0.203 F 
ATOM     65  F   UNL A   1      42.745  34.195  35.528  1.00  0.00    -0.200 F 
ATOM     66  C   UNL A   1      43.441  35.173  33.495  1.00  0.00     0.200 A 
ATOM     67  F   UNL A   1      44.112  36.106  31.434  1.00  0.00    -0.200 F 
ATOM     68  F   UNL A   1      43.423  36.389  34.057  1.00  0.00    -0.200 F 
ENDBRANCH  44  58
BRANCH  45  69
ATOM     69  C   UNL A   1      42.809  23.902  27.475  1.00  0.00     0.064 A 
ATOM     70  C   UNL A   1      42.314  22.744  28.090  1.00  0.00     0.173 A 
ATOM     71  C   UNL A   1      43.185  23.817  26.127  1.00  0.00     0.173 A 
ATOM     72  F   UNL A   1      41.956  22.774  29.383  1.00  0.00    -0.203 F 
ATOM     73  C   UNL A   1      42.211  21.544  27.389  1.00  0.00     0.198 A 
ATOM     74  C   UNL A   1      43.058  22.623  25.420  1.00  0.00     0.198 A 
ATOM     75  F   UNL A   1      43.654  24.900  25.491  1.00  0.00    -0.203 F 
ATOM     76  F   UNL A   1      41.765  20.445  28.010  1.00  0.00    -0.200 F 
ATOM     77  C   UNL A   1      42.576  21.488  26.053  1.00  0.00     0.200 A 
ATOM     78  F   UNL A   1      43.397  22.576  24.124  1.00  0.00    -0.200 F 
ATOM     79  F   UNL A   1      42.465  20.336  25.376  1.00  0.00    -0.200 F 
ENDBRANCH  45  69
BRANCH  57  80
ATOM     80  C   UNL A   1      47.737  26.896  31.388  1.00  0.00     0.064 A 
ATOM     81  C   UNL A   1      48.889  27.219  30.657  1.00  0.00     0.173 A 
ATOM     82  C   UNL A   1      47.892  26.137  32.559  1.00  0.00     0.173 A 
ATOM     83  F   UNL A   1      48.791  27.930  29.523  1.00  0.00    -0.203 F 
ATOM     84  C   UNL A   1      50.143  26.772  31.065  1.00  0.00     0.198 A 
ATOM     85  C   UNL A   1      49.150  25.717  32.979  1.00  0.00     0.198 A 
ATOM     86  F   UNL A   1      46.821  25.806  33.297  1.00  0.00    -0.203 F 
ATOM     87  F   UNL A   1      51.224  27.046  30.320  1.00  0.00    -0.200 F 
ATOM     88  C   UNL A   1      50.273  26.026  32.226  1.00  0.00     0.200 A 
ATOM     89  F   UNL A   1      49.276  25.007  34.108  1.00  0.00    -0.200 F 
ATOM     90  F   UNL A   1      51.481  25.596  32.616  1.00  0.00    -0.200 F 
ENDBRANCH  57  80
ENDBRANCH  31  32
ENDBRANCH  23  26
ENDBRANCH  21  22
ENDBRANCH  20  21
ENDBRANCH   1  20
TORSDOF 14
ENDMDL
MODEL 3
REMARK VINA RESULT:     -10.7      1.206      7.448
REMARK SMILES CN(CC(=O)NCC(=O)NCCCNC(=O)c1ccc(-c2c3nc(c(-c4c(F)c(F)c(F)c(F)c4F)c4ccc([nH]4)c(-c4c(F)c(F)c(F)c(F)c4F)c4nc(c(-c5c(F)c(F)c(F)c(F)c5F)c5ccc2[nH]5)C=C4)C=C3)cc1)c1ncccn1
REMARK SMILES IDX 11 1 10 2 8 3 9 4 7 6 6 7 4 8 5 9 3 11 2 12 1 13 80 14 81 15
REMARK SMILES IDX 85 16 82 17 84 18 83 19 12 20 13 21 14 22 15 23 16 25 17 26
REMARK SMILES IDX 18 27 79 28 19 29 78 30 20 31 21 32 22 33 72 34 23 35 77 36
REMARK SMILES IDX 71 37 73 38 24 39 76 40 70 41 69 42 25 44 57 45 37 46 56 47
REMARK SMILES IDX 38 48 41 49 55 50 74 51 39 52 40 53 54 55 75 56 42 57 26 58
REMARK SMILES IDX 27 59 35 60 28 61 29 62 33 63 36 64 30 65 31 66 34 67 32 68
REMARK SMILES IDX 58 69 59 70 67 71 60 72 61 73 65 74 68 75 62 76 63 77 66 78
REMARK SMILES IDX 64 79 43 80 44 81 52 82 45 83 46 84 50 85 53 86 47 87 48 88
REMARK SMILES IDX 51 89 49 90
REMARK H PARENT 10 5 6 10 14 24 73 43 41 54
REMARK Flexibility Score: inf
ROOT
ATOM      1  C   UNL A   1      35.324  34.589  28.773  1.00  0.00     0.117 C 
ENDROOT
BRANCH   1   2
ATOM      2  N   UNL A   1      34.496  35.726  28.439  1.00  0.00    -0.355 N 
ATOM      3  C   UNL A   1      33.458  36.235  29.170  1.00  0.00     0.239 C 
ATOM      4  O   UNL A   1      33.025  37.348  28.865  1.00  0.00    -0.273 OA
ATOM      5  H   UNL A   1      34.702  36.185  27.592  1.00  0.00     0.163 HD
BRANCH   3   6
ATOM      6  C   UNL A   1      32.955  35.501  30.426  1.00  0.00     0.216 C 
BRANCH   6   7
ATOM      7  N   UNL A   1      33.022  36.303  31.637  1.00  0.00    -0.345 N 
ATOM      8  C   UNL A   1      34.004  36.388  32.585  1.00  0.00     0.240 C 
ATOM      9  O   UNL A   1      33.856  37.244  33.462  1.00  0.00    -0.273 OA
ATOM     10  H   UNL A   1      32.237  36.875  31.801  1.00  0.00     0.164 HD
BRANCH   8  11
ATOM     11  C   UNL A   1      35.271  35.513  32.500  1.00  0.00     0.219 C 
BRANCH  11  12
ATOM     12  N   UNL A   1      35.231  34.306  33.327  1.00  0.00    -0.335 N 
ATOM     13  C   UNL A   1      34.035  33.498  33.424  1.00  0.00     0.147 C 
BRANCH  12  14
ATOM     14  C   UNL A   1      36.375  33.844  33.945  1.00  0.00     0.225 A 
ATOM     15  N   UNL A   1      36.510  32.532  34.174  1.00  0.00    -0.221 NA
ATOM     16  N   UNL A   1      37.356  34.723  34.218  1.00  0.00    -0.221 NA
ATOM     17  C   UNL A   1      37.676  32.094  34.687  1.00  0.00     0.117 A 
ATOM     18  C   UNL A   1      38.503  34.247  34.745  1.00  0.00     0.117 A 
ATOM     19  C   UNL A   1      38.724  32.920  34.997  1.00  0.00     0.040 A 
ENDBRANCH  12  14
ENDBRANCH  11  12
ENDBRANCH   8  11
ENDBRANCH   6   7
ENDBRANCH   3   6
ENDBRANCH   1   2
BRANCH   1  20
ATOM     20  C   UNL A   1      34.963  33.333  27.995  1.00  0.00     0.042 C 
BRANCH  20  21
ATOM     21  C   UNL A   1      34.082  32.356  28.764  1.00  0.00     0.118 C 
BRANCH  21  22
ATOM     22  N   UNL A   1      33.781  31.135  28.023  1.00  0.00    -0.352 N 
ATOM     23  C   UNL A   1      34.532  30.044  27.676  1.00  0.00     0.251 C 
ATOM     24  H   UNL A   1      32.849  31.086  27.709  1.00  0.00     0.163 HD
ATOM     25  O   UNL A   1      34.034  29.212  26.915  1.00  0.00    -0.269 OA
BRANCH  23  26
ATOM     26  C   UNL A   1      35.926  29.852  28.136  1.00  0.00     0.039 A 
ATOM     27  C   UNL A   1      36.125  29.389  29.443  1.00  0.00     0.014 A 
ATOM     28  C   UNL A   1      37.035  30.149  27.344  1.00  0.00     0.014 A 
ATOM     29  C   UNL A   1      37.415  29.164  29.925  1.00  0.00     0.010 A 
ATOM     30  C   UNL A   1      38.317  29.827  27.784  1.00  0.00     0.010 A 
ATOM     31  C   UNL A   1      38.522  29.344  29.084  1.00  0.00    -0.014 A 
BRANCH  31  32
ATOM     32  C   UNL A   1      39.895  29.045  29.557  1.00  0.00     0.031 A 
ATOM     33  C   UNL A   1      40.624  27.829  29.060  1.00  0.00     0.074 A 
ATOM     34  C   UNL A   1      40.465  29.845  30.479  1.00  0.00     0.049 A 
ATOM     35  N   UNL A   1      41.815  27.387  29.382  1.00  0.00    -0.248 NA
ATOM     36  C   UNL A   1      39.908  26.975  28.101  1.00  0.00     0.031 C 
ATOM     37  C   UNL A   1      39.831  31.013  31.091  1.00  0.00     0.029 A 
ATOM     38  N   UNL A   1      41.703  29.791  31.067  1.00  0.00    -0.354 N 
ATOM     39  C   UNL A   1      41.979  26.200  28.679  1.00  0.00     0.074 A 
ATOM     40  C   UNL A   1      40.745  25.958  27.965  1.00  0.00     0.031 C 
ATOM     41  C   UNL A   1      40.693  31.581  31.950  1.00  0.00     0.029 A 
ATOM     42  C   UNL A   1      41.927  30.802  31.968  1.00  0.00     0.049 A 
ATOM     43  H   UNL A   1      42.367  29.094  30.864  1.00  0.00     0.167 HD
ATOM     44  C   UNL A   1      43.070  25.400  28.611  1.00  0.00     0.037 A 
ATOM     45  C   UNL A   1      43.009  31.073  32.721  1.00  0.00     0.037 A 
ATOM     46  C   UNL A   1      44.305  25.658  29.305  1.00  0.00     0.049 A 
ATOM     47  C   UNL A   1      44.224  30.197  32.598  1.00  0.00     0.074 A 
ATOM     48  C   UNL A   1      45.488  24.942  29.263  1.00  0.00     0.029 A 
ATOM     49  N   UNL A   1      44.512  26.721  30.173  1.00  0.00    -0.354 N 
ATOM     50  N   UNL A   1      44.395  29.118  31.873  1.00  0.00    -0.248 NA
ATOM     51  C   UNL A   1      45.402  30.589  33.384  1.00  0.00     0.031 C 
ATOM     52  C   UNL A   1      46.400  25.552  30.133  1.00  0.00     0.029 A 
ATOM     53  C   UNL A   1      45.801  26.675  30.682  1.00  0.00     0.049 A 
ATOM     54  H   UNL A   1      43.842  27.408  30.395  1.00  0.00     0.167 HD
ATOM     55  C   UNL A   1      45.703  28.712  32.098  1.00  0.00     0.074 A 
ATOM     56  C   UNL A   1      46.286  29.675  33.012  1.00  0.00     0.031 C 
ATOM     57  C   UNL A   1      46.362  27.639  31.594  1.00  0.00     0.037 A 
BRANCH  44  58
ATOM     58  C   UNL A   1      42.967  24.173  27.751  1.00  0.00     0.064 A 
ATOM     59  C   UNL A   1      42.563  22.935  28.280  1.00  0.00     0.173 A 
ATOM     60  C   UNL A   1      43.280  24.228  26.385  1.00  0.00     0.173 A 
ATOM     61  F   UNL A   1      42.267  22.824  29.584  1.00  0.00    -0.203 F 
ATOM     62  C   UNL A   1      42.520  21.794  27.484  1.00  0.00     0.198 A 
ATOM     63  C   UNL A   1      43.203  23.091  25.584  1.00  0.00     0.198 A 
ATOM     64  F   UNL A   1      43.666  25.385  25.826  1.00  0.00    -0.203 F 
ATOM     65  F   UNL A   1      42.198  20.612  28.029  1.00  0.00    -0.200 F 
ATOM     66  C   UNL A   1      42.835  21.873  26.137  1.00  0.00     0.200 A 
ATOM     67  F   UNL A   1      43.498  23.170  24.280  1.00  0.00    -0.200 F 
ATOM     68  F   UNL A   1      42.797  20.772  25.373  1.00  0.00    -0.200 F 
ENDBRANCH  44  58
BRANCH  45  69
ATOM     69  C   UNL A   1      42.999  32.258  33.616  1.00  0.00     0.064 A 
ATOM     70  C   UNL A   1      43.488  33.496  33.176  1.00  0.00     0.173 A 
ATOM     71  C   UNL A   1      42.470  32.187  34.913  1.00  0.00     0.173 A 
ATOM     72  F   UNL A   1      44.018  33.607  31.948  1.00  0.00    -0.203 F 
ATOM     73  C   UNL A   1      43.459  34.616  34.004  1.00  0.00     0.198 A 
ATOM     74  C   UNL A   1      42.419  33.314  35.731  1.00  0.00     0.198 A 
ATOM     75  F   UNL A   1      41.981  31.028  35.376  1.00  0.00    -0.203 F 
ATOM     76  F   UNL A   1      43.961  35.779  33.570  1.00  0.00    -0.200 F 
ATOM     77  C   UNL A   1      42.918  34.525  35.277  1.00  0.00     0.200 A 
ATOM     78  F   UNL A   1      41.881  33.226  36.955  1.00  0.00    -0.200 F 
ATOM     79  F   UNL A   1      42.880  35.607  36.068  1.00  0.00    -0.200 F 
ENDBRANCH  45  69
BRANCH  57  80
ATOM     80  C   UNL A   1      47.795  27.466  32.004  1.00  0.00     0.064 A 
ATOM     81  C   UNL A   1      48.154  26.701  33.124  1.00  0.00     0.173 A 
ATOM     82  C   UNL A   1      48.824  28.062  31.258  1.00  0.00     0.173 A 
ATOM     83  F   UNL A   1      47.206  26.124  33.878  1.00  0.00    -0.203 F 
ATOM     84  C   UNL A   1      49.488  26.566  33.500  1.00  0.00     0.198 A 
ATOM     85  C   UNL A   1      50.158  27.899  31.620  1.00  0.00     0.198 A 
ATOM     86  F   UNL A   1      48.534  28.799  30.175  1.00  0.00    -0.203 F 
ATOM     87  F   UNL A   1      49.803  25.876  34.605  1.00  0.00    -0.200 F 
ATOM     88  C   UNL A   1      50.488  27.161  32.745  1.00  0.00     0.200 A 
ATOM     89  F   UNL A   1      51.124  28.465  30.883  1.00  0.00    -0.200 F 
ATOM     90  F   UNL A   1      51.771  27.030  33.110  1.00  0.00    -0.200 F 
ENDBRANCH  57  80
ENDBRANCH  31  32
ENDBRANCH  23  26
ENDBRANCH  21  22
ENDBRANCH  20  21
ENDBRANCH   1  20
TORSDOF 14
ENDMDL
