MODEL 1
REMARK VINA RESULT:     -12.1      0.000      0.000
REMARK SMILES CN(C)c1cccc(C(C)(C)C(=O)NCCCNC(=O)c2ccc(-c3c4nc(c(-c5c(F)c(F)c(F)c(F)c5F)c5ccc([nH]5)c(-c5c(F)c(F)c(F)c(F)c5F)c5nc(c(-c6c(F)c(F)c(F)c(F)c6F)c6ccc3[nH]6)C=C5)C=C4)cc2)c1
REMARK SMILES IDX 16 1 15 2 14 3 12 4 13 5 9 7 10 8 11 9 8 10 4 11 5 12 84 13
REMARK SMILES IDX 6 14 7 15 2 16 1 17 3 18 17 19 18 20 19 21 20 23 21 24 22 25
REMARK SMILES IDX 83 26 23 27 82 28 24 29 25 30 26 31 76 32 27 33 81 34 75 35
REMARK SMILES IDX 77 36 28 37 80 38 74 39 73 40 29 42 61 43 41 44 60 45 42 46
REMARK SMILES IDX 45 47 59 48 78 49 43 50 44 51 58 53 79 54 46 55 30 56 31 57
REMARK SMILES IDX 39 58 32 59 33 60 37 61 40 62 34 63 35 64 38 65 36 66 62 67
REMARK SMILES IDX 63 68 71 69 64 70 65 71 69 72 72 73 66 74 67 75 70 76 68 77
REMARK SMILES IDX 47 78 48 79 56 80 49 81 50 82 54 83 57 84 51 85 52 86 55 87
REMARK SMILES IDX 53 88
REMARK H PARENT 14 6 18 22 77 41 45 52
REMARK Flexibility Score: inf
ROOT
ATOM      1  C   UNL A   1      31.383  31.646  26.430  1.00  0.00     0.042 C 
ENDROOT
BRANCH   1   2
ATOM      2  C   UNL A   1      31.490  30.162  26.092  1.00  0.00     0.117 C 
BRANCH   2   3
ATOM      3  N   UNL A   1      32.464  29.919  25.043  1.00  0.00    -0.355 N 
ATOM      4  C   UNL A   1      32.562  29.016  24.023  1.00  0.00     0.230 C 
ATOM      5  O   UNL A   1      33.685  29.005  23.511  1.00  0.00    -0.274 OA
ATOM      6  H   UNL A   1      33.223  30.546  25.073  1.00  0.00     0.163 HD
BRANCH   4   7
ATOM      7  C   UNL A   1      31.378  28.092  23.592  1.00  0.00     0.068 C 
ATOM      8  C   UNL A   1      30.984  27.212  24.806  1.00  0.00     0.026 C 
ATOM      9  C   UNL A   1      31.870  27.257  22.388  1.00  0.00     0.026 C 
BRANCH   7  10
ATOM     10  C   UNL A   1      30.047  28.784  23.152  1.00  0.00    -0.031 A 
ATOM     11  C   UNL A   1      28.734  30.721  22.318  1.00  0.00     0.036 A 
ATOM     12  C   UNL A   1      27.560  29.991  22.536  1.00  0.00     0.026 A 
ATOM     13  C   UNL A   1      29.956  30.090  22.632  1.00  0.00     0.030 A 
ATOM     14  C   UNL A   1      27.601  28.693  23.036  1.00  0.00     0.002 A 
ATOM     15  C   UNL A   1      28.826  28.101  23.338  1.00  0.00     0.005 A 
BRANCH  11  16
ATOM     16  N   UNL A   1      28.676  32.024  21.824  1.00  0.00    -0.378 N 
ATOM     17  C   UNL A   1      28.741  33.154  22.741  1.00  0.00     0.143 C 
ATOM     18  C   UNL A   1      27.973  32.220  20.562  1.00  0.00     0.143 C 
ENDBRANCH  11  16
ENDBRANCH   7  10
ENDBRANCH   4   7
ENDBRANCH   2   3
ENDBRANCH   1   2
BRANCH   1  19
ATOM     19  C   UNL A   1      32.688  32.285  26.891  1.00  0.00     0.118 C 
BRANCH  19  20
ATOM     20  N   UNL A   1      32.512  33.647  27.372  1.00  0.00    -0.352 N 
ATOM     21  C   UNL A   1      33.160  34.330  28.368  1.00  0.00     0.251 C 
ATOM     22  H   UNL A   1      31.814  34.162  26.906  1.00  0.00     0.163 HD
ATOM     23  O   UNL A   1      32.727  35.423  28.731  1.00  0.00    -0.269 OA
BRANCH  21  24
ATOM     24  C   UNL A   1      34.357  33.763  29.027  1.00  0.00     0.039 A 
ATOM     25  C   UNL A   1      34.181  32.755  29.979  1.00  0.00     0.014 A 
ATOM     26  C   UNL A   1      35.641  34.242  28.752  1.00  0.00     0.014 A 
ATOM     27  C   UNL A   1      35.290  32.193  30.612  1.00  0.00     0.010 A 
ATOM     28  C   UNL A   1      36.754  33.622  29.320  1.00  0.00     0.010 A 
ATOM     29  C   UNL A   1      36.589  32.601  30.265  1.00  0.00    -0.014 A 
BRANCH  29  30
ATOM     30  C   UNL A   1      37.775  31.973  30.902  1.00  0.00     0.031 A 
ATOM     31  C   UNL A   1      38.205  32.386  32.284  1.00  0.00     0.074 A 
ATOM     32  C   UNL A   1      38.484  31.051  30.222  1.00  0.00     0.049 A 
ATOM     33  N   UNL A   1      39.216  31.958  32.999  1.00  0.00    -0.248 NA
ATOM     34  C   UNL A   1      37.410  33.434  32.941  1.00  0.00     0.031 C 
ATOM     35  C   UNL A   1      38.206  30.611  28.854  1.00  0.00     0.029 A 
ATOM     36  N   UNL A   1      39.585  30.318  30.590  1.00  0.00    -0.354 N 
ATOM     37  C   UNL A   1      39.176  32.684  34.182  1.00  0.00     0.074 A 
ATOM     38  C   UNL A   1      38.084  33.625  34.065  1.00  0.00     0.031 C 
ATOM     39  C   UNL A   1      39.093  29.665  28.508  1.00  0.00     0.029 A 
ATOM     40  C   UNL A   1      40.018  29.450  29.617  1.00  0.00     0.049 A 
ATOM     41  H   UNL A   1      40.023  30.406  31.466  1.00  0.00     0.167 HD
ATOM     42  C   UNL A   1      39.959  32.555  35.282  1.00  0.00     0.037 A 
ATOM     43  C   UNL A   1      41.042  28.577  29.622  1.00  0.00     0.037 A 
ATOM     44  C   UNL A   1      41.035  31.608  35.405  1.00  0.00     0.049 A 
ATOM     45  C   UNL A   1      41.884  28.444  30.861  1.00  0.00     0.074 A 
ATOM     46  C   UNL A   1      41.871  31.384  36.485  1.00  0.00     0.029 A 
ATOM     47  N   UNL A   1      41.419  30.721  34.410  1.00  0.00    -0.354 N 
ATOM     48  N   UNL A   1      41.796  29.094  31.997  1.00  0.00    -0.248 NA
ATOM     49  C   UNL A   1      42.958  27.441  30.827  1.00  0.00     0.031 C 
ATOM     50  C   UNL A   1      42.780  30.379  36.135  1.00  0.00     0.029 A 
ATOM     51  C   UNL A   1      42.483  29.949  34.851  1.00  0.00     0.049 A 
ATOM     52  H   UNL A   1      40.999  30.650  33.523  1.00  0.00     0.167 HD
ATOM     53  C   UNL A   1      42.782  28.563  32.817  1.00  0.00     0.074 A 
ATOM     54  C   UNL A   1      43.441  27.521  32.058  1.00  0.00     0.031 C 
ATOM     55  C   UNL A   1      43.118  28.910  34.084  1.00  0.00     0.037 A 
BRANCH  42  56
ATOM     56  C   UNL A   1      39.661  33.449  36.450  1.00  0.00     0.064 A 
ATOM     57  C   UNL A   1      38.758  33.061  37.453  1.00  0.00     0.173 A 
ATOM     58  C   UNL A   1      40.306  34.686  36.594  1.00  0.00     0.173 A 
ATOM     59  F   UNL A   1      38.104  31.893  37.356  1.00  0.00    -0.203 F 
ATOM     60  C   UNL A   1      38.496  33.887  38.543  1.00  0.00     0.198 A 
ATOM     61  C   UNL A   1      40.063  35.497  37.699  1.00  0.00     0.198 A 
ATOM     62  F   UNL A   1      41.181  35.104  35.666  1.00  0.00    -0.203 F 
ATOM     63  F   UNL A   1      37.597  33.513  39.464  1.00  0.00    -0.200 F 
ATOM     64  C   UNL A   1      39.155  35.100  38.668  1.00  0.00     0.200 A 
ATOM     65  F   UNL A   1      40.709  36.665  37.826  1.00  0.00    -0.200 F 
ATOM     66  F   UNL A   1      38.908  35.891  39.722  1.00  0.00    -0.200 F 
ENDBRANCH  42  56
BRANCH  43  67
ATOM     67  C   UNL A   1      41.311  27.734  28.429  1.00  0.00     0.064 A 
ATOM     68  C   UNL A   1      42.221  28.146  27.444  1.00  0.00     0.173 A 
ATOM     69  C   UNL A   1      40.651  26.512  28.237  1.00  0.00     0.173 A 
ATOM     70  F   UNL A   1      42.863  29.316  27.574  1.00  0.00    -0.203 F 
ATOM     71  C   UNL A   1      42.436  27.383  26.298  1.00  0.00     0.198 A 
ATOM     72  C   UNL A   1      40.889  25.735  27.104  1.00  0.00     0.198 A 
ATOM     73  F   UNL A   1      39.777  26.069  29.152  1.00  0.00    -0.203 F 
ATOM     74  F   UNL A   1      43.269  27.828  25.347  1.00  0.00    -0.200 F 
ATOM     75  C   UNL A   1      41.773  26.177  26.130  1.00  0.00     0.200 A 
ATOM     76  F   UNL A   1      40.257  24.564  26.952  1.00  0.00    -0.200 F 
ATOM     77  F   UNL A   1      41.978  25.445  25.027  1.00  0.00    -0.200 F 
ENDBRANCH  43  67
BRANCH  55  78
ATOM     78  C   UNL A   1      44.223  28.130  34.735  1.00  0.00     0.064 A 
ATOM     79  C   UNL A   1      43.969  26.948  35.446  1.00  0.00     0.173 A 
ATOM     80  C   UNL A   1      45.553  28.564  34.632  1.00  0.00     0.173 A 
ATOM     81  F   UNL A   1      42.712  26.501  35.586  1.00  0.00    -0.203 F 
ATOM     82  C   UNL A   1      45.004  26.248  36.060  1.00  0.00     0.198 A 
ATOM     83  C   UNL A   1      46.588  27.845  35.222  1.00  0.00     0.198 A 
ATOM     84  F   UNL A   1      45.848  29.685  33.956  1.00  0.00    -0.203 F 
ATOM     85  F   UNL A   1      44.731  25.152  36.782  1.00  0.00    -0.200 F 
ATOM     86  C   UNL A   1      46.312  26.693  35.943  1.00  0.00     0.200 A 
ATOM     87  F   UNL A   1      47.853  28.270  35.099  1.00  0.00    -0.200 F 
ATOM     88  F   UNL A   1      47.306  26.018  36.537  1.00  0.00    -0.200 F 
ENDBRANCH  55  78
ENDBRANCH  29  30
ENDBRANCH  21  24
ENDBRANCH  19  20
ENDBRANCH   1  19
TORSDOF 12
ENDMDL
MODEL 2
REMARK VINA RESULT:     -12.0      0.395      2.081
REMARK SMILES CN(C)c1cccc(C(C)(C)C(=O)NCCCNC(=O)c2ccc(-c3c4nc(c(-c5c(F)c(F)c(F)c(F)c5F)c5ccc([nH]5)c(-c5c(F)c(F)c(F)c(F)c5F)c5nc(c(-c6c(F)c(F)c(F)c(F)c6F)c6ccc3[nH]6)C=C5)C=C4)cc2)c1
REMARK SMILES IDX 16 1 15 2 14 3 12 4 13 5 9 7 10 8 11 9 8 10 4 11 5 12 84 13
REMARK SMILES IDX 6 14 7 15 2 16 1 17 3 18 17 19 18 20 19 21 20 23 21 24 22 25
REMARK SMILES IDX 83 26 23 27 82 28 24 29 25 30 26 31 76 32 27 33 81 34 75 35
REMARK SMILES IDX 77 36 28 37 80 38 74 39 73 40 29 42 61 43 41 44 60 45 42 46
REMARK SMILES IDX 45 47 59 48 78 49 43 50 44 51 58 53 79 54 46 55 30 56 31 57
REMARK SMILES IDX 39 58 32 59 33 60 37 61 40 62 34 63 35 64 38 65 36 66 62 67
REMARK SMILES IDX 63 68 71 69 64 70 65 71 69 72 72 73 66 74 67 75 70 76 68 77
REMARK SMILES IDX 47 78 48 79 56 80 49 81 50 82 54 83 57 84 51 85 52 86 55 87
REMARK SMILES IDX 53 88
REMARK H PARENT 14 6 18 22 77 41 45 52
REMARK Flexibility Score: inf
ROOT
ATOM      1  C   UNL A   1      31.365  31.553  26.236  1.00  0.00     0.042 C 
ENDROOT
BRANCH   1   2
ATOM      2  C   UNL A   1      31.409  30.085  25.826  1.00  0.00     0.117 C 
BRANCH   2   3
ATOM      3  N   UNL A   1      32.348  29.858  24.741  1.00  0.00    -0.355 N 
ATOM      4  C   UNL A   1      32.442  28.935  23.740  1.00  0.00     0.230 C 
ATOM      5  O   UNL A   1      33.541  28.960  23.180  1.00  0.00    -0.274 OA
ATOM      6  H   UNL A   1      33.079  30.517  24.724  1.00  0.00     0.163 HD
BRANCH   4   7
ATOM      7  C   UNL A   1      31.283  27.951  23.382  1.00  0.00     0.068 C 
ATOM      8  C   UNL A   1      31.069  26.996  24.584  1.00  0.00     0.026 C 
ATOM      9  C   UNL A   1      31.704  27.201  22.097  1.00  0.00     0.026 C 
BRANCH   7  10
ATOM     10  C   UNL A   1      29.872  28.567  23.106  1.00  0.00    -0.031 A 
ATOM     11  C   UNL A   1      28.366  30.421  22.426  1.00  0.00     0.036 A 
ATOM     12  C   UNL A   1      27.269  29.636  22.797  1.00  0.00     0.026 A 
ATOM     13  C   UNL A   1      29.649  29.858  22.589  1.00  0.00     0.030 A 
ATOM     14  C   UNL A   1      27.439  28.351  23.300  1.00  0.00     0.002 A 
ATOM     15  C   UNL A   1      28.722  27.826  23.451  1.00  0.00     0.005 A 
BRANCH  11  16
ATOM     16  N   UNL A   1      28.179  31.712  21.930  1.00  0.00    -0.378 N 
ATOM     17  C   UNL A   1      28.029  31.926  20.497  1.00  0.00     0.143 C 
ATOM     18  C   UNL A   1      28.723  32.807  22.721  1.00  0.00     0.143 C 
ENDBRANCH  11  16
ENDBRANCH   7  10
ENDBRANCH   4   7
ENDBRANCH   2   3
ENDBRANCH   1   2
BRANCH   1  19
ATOM     19  C   UNL A   1      32.648  32.070  26.877  1.00  0.00     0.118 C 
BRANCH  19  20
ATOM     20  N   UNL A   1      32.555  33.464  27.285  1.00  0.00    -0.352 N 
ATOM     21  C   UNL A   1      33.260  34.163  28.230  1.00  0.00     0.251 C 
ATOM     22  H   UNL A   1      31.876  33.989  26.804  1.00  0.00     0.163 HD
ATOM     23  O   UNL A   1      32.894  35.296  28.540  1.00  0.00    -0.269 OA
BRANCH  21  24
ATOM     24  C   UNL A   1      34.439  33.569  28.897  1.00  0.00     0.039 A 
ATOM     25  C   UNL A   1      34.235  32.540  29.822  1.00  0.00     0.014 A 
ATOM     26  C   UNL A   1      35.733  34.040  28.657  1.00  0.00     0.014 A 
ATOM     27  C   UNL A   1      35.326  31.952  30.462  1.00  0.00     0.010 A 
ATOM     28  C   UNL A   1      36.828  33.396  29.231  1.00  0.00     0.010 A 
ATOM     29  C   UNL A   1      36.636  32.354  30.148  1.00  0.00    -0.014 A 
BRANCH  29  30
ATOM     30  C   UNL A   1      37.804  31.699  30.792  1.00  0.00     0.031 A 
ATOM     31  C   UNL A   1      38.206  32.068  32.194  1.00  0.00     0.074 A 
ATOM     32  C   UNL A   1      38.521  30.792  30.100  1.00  0.00     0.049 A 
ATOM     33  N   UNL A   1      39.198  31.612  32.918  1.00  0.00    -0.248 NA
ATOM     34  C   UNL A   1      37.404  33.103  32.865  1.00  0.00     0.031 C 
ATOM     35  C   UNL A   1      38.269  30.394  28.714  1.00  0.00     0.029 A 
ATOM     36  N   UNL A   1      39.608  30.041  30.470  1.00  0.00    -0.354 N 
ATOM     37  C   UNL A   1      39.138  32.303  34.121  1.00  0.00     0.074 A 
ATOM     38  C   UNL A   1      38.055  33.256  34.008  1.00  0.00     0.031 C 
ATOM     39  C   UNL A   1      39.157  29.452  28.359  1.00  0.00     0.029 A 
ATOM     40  C   UNL A   1      40.056  29.198  29.481  1.00  0.00     0.049 A 
ATOM     41  H   UNL A   1      40.028  30.099  31.358  1.00  0.00     0.167 HD
ATOM     42  C   UNL A   1      39.896  32.137  35.232  1.00  0.00     0.037 A 
ATOM     43  C   UNL A   1      41.074  28.318  29.483  1.00  0.00     0.037 A 
ATOM     44  C   UNL A   1      40.962  31.178  35.351  1.00  0.00     0.049 A 
ATOM     45  C   UNL A   1      41.888  28.142  30.735  1.00  0.00     0.074 A 
ATOM     46  C   UNL A   1      41.774  30.916  36.441  1.00  0.00     0.029 A 
ATOM     47  N   UNL A   1      41.362  30.318  34.339  1.00  0.00    -0.354 N 
ATOM     48  N   UNL A   1      41.780  28.759  31.887  1.00  0.00    -0.248 NA
ATOM     49  C   UNL A   1      42.956  27.133  30.694  1.00  0.00     0.031 C 
ATOM     50  C   UNL A   1      42.683  29.915  36.081  1.00  0.00     0.029 A 
ATOM     51  C   UNL A   1      42.410  29.525  34.779  1.00  0.00     0.049 A 
ATOM     52  H   UNL A   1      40.960  30.275  33.441  1.00  0.00     0.167 HD
ATOM     53  C   UNL A   1      42.745  28.198  32.712  1.00  0.00     0.074 A 
ATOM     54  C   UNL A   1      43.412  27.173  31.937  1.00  0.00     0.031 C 
ATOM     55  C   UNL A   1      43.055  28.504  33.996  1.00  0.00     0.037 A 
BRANCH  42  56
ATOM     56  C   UNL A   1      39.578  32.998  36.420  1.00  0.00     0.064 A 
ATOM     57  C   UNL A   1      40.198  34.245  36.602  1.00  0.00     0.173 A 
ATOM     58  C   UNL A   1      38.622  32.599  37.364  1.00  0.00     0.173 A 
ATOM     59  F   UNL A   1      41.130  34.668  35.734  1.00  0.00    -0.203 F 
ATOM     60  C   UNL A   1      39.890  35.048  37.697  1.00  0.00     0.198 A 
ATOM     61  C   UNL A   1      38.295  33.417  38.443  1.00  0.00     0.198 A 
ATOM     62  F   UNL A   1      37.996  31.419  37.236  1.00  0.00    -0.203 F 
ATOM     63  F   UNL A   1      40.528  36.213  37.872  1.00  0.00    -0.200 F 
ATOM     64  C   UNL A   1      38.933  34.636  38.612  1.00  0.00     0.200 A 
ATOM     65  F   UNL A   1      37.361  33.024  39.321  1.00  0.00    -0.200 F 
ATOM     66  F   UNL A   1      38.631  35.414  39.661  1.00  0.00    -0.200 F 
ENDBRANCH  42  56
BRANCH  43  67
ATOM     67  C   UNL A   1      41.363  27.508  28.271  1.00  0.00     0.064 A 
ATOM     68  C   UNL A   1      40.750  26.263  28.072  1.00  0.00     0.173 A 
ATOM     69  C   UNL A   1      42.271  27.950  27.299  1.00  0.00     0.173 A 
ATOM     70  F   UNL A   1      39.888  25.788  28.984  1.00  0.00    -0.203 F 
ATOM     71  C   UNL A   1      41.058  25.476  26.964  1.00  0.00     0.198 A 
ATOM     72  C   UNL A   1      42.557  27.176  26.175  1.00  0.00     0.198 A 
ATOM     73  F   UNL A   1      42.879  29.137  27.437  1.00  0.00    -0.203 F 
ATOM     74  F   UNL A   1      40.500  24.266  26.828  1.00  0.00    -0.200 F 
ATOM     75  C   UNL A   1      41.959  25.935  26.015  1.00  0.00     0.200 A 
ATOM     76  F   UNL A   1      43.416  27.629  25.253  1.00  0.00    -0.200 F 
ATOM     77  F   UNL A   1      42.257  25.177  24.950  1.00  0.00    -0.200 F 
ENDBRANCH  43  67
BRANCH  55  78
ATOM     78  C   UNL A   1      44.140  27.697  34.647  1.00  0.00     0.064 A 
ATOM     79  C   UNL A   1      45.480  28.112  34.622  1.00  0.00     0.173 A 
ATOM     80  C   UNL A   1      43.832  26.503  35.315  1.00  0.00     0.173 A 
ATOM     81  F   UNL A   1      45.826  29.238  33.981  1.00  0.00    -0.203 F 
ATOM     82  C   UNL A   1      46.477  27.341  35.213  1.00  0.00     0.198 A 
ATOM     83  C   UNL A   1      44.828  25.751  35.931  1.00  0.00     0.198 A 
ATOM     84  F   UNL A   1      42.564  26.068  35.374  1.00  0.00    -0.203 F 
ATOM     85  F   UNL A   1      47.758  27.728  35.128  1.00  0.00    -0.200 F 
ATOM     86  C   UNL A   1      46.150  26.165  35.871  1.00  0.00     0.200 A 
ATOM     87  F   UNL A   1      44.510  24.620  36.577  1.00  0.00    -0.200 F 
ATOM     88  F   UNL A   1      47.112  25.424  36.439  1.00  0.00    -0.200 F 
ENDBRANCH  55  78
ENDBRANCH  29  30
ENDBRANCH  21  24
ENDBRANCH  19  20
ENDBRANCH   1  19
TORSDOF 12
ENDMDL
MODEL 3
REMARK VINA RESULT:     -11.9      6.505     11.764
REMARK SMILES CN(C)c1cccc(C(C)(C)C(=O)NCCCNC(=O)c2ccc(-c3c4nc(c(-c5c(F)c(F)c(F)c(F)c5F)c5ccc([nH]5)c(-c5c(F)c(F)c(F)c(F)c5F)c5nc(c(-c6c(F)c(F)c(F)c(F)c6F)c6ccc3[nH]6)C=C5)C=C4)cc2)c1
REMARK SMILES IDX 16 1 15 2 14 3 12 4 13 5 9 7 10 8 11 9 8 10 4 11 5 12 84 13
REMARK SMILES IDX 6 14 7 15 2 16 1 17 3 18 17 19 18 20 19 21 20 23 21 24 22 25
REMARK SMILES IDX 83 26 23 27 82 28 24 29 25 30 26 31 76 32 27 33 81 34 75 35
REMARK SMILES IDX 77 36 28 37 80 38 74 39 73 40 29 42 61 43 41 44 60 45 42 46
REMARK SMILES IDX 45 47 59 48 78 49 43 50 44 51 58 53 79 54 46 55 30 56 31 57
REMARK SMILES IDX 39 58 32 59 33 60 37 61 40 62 34 63 35 64 38 65 36 66 62 67
REMARK SMILES IDX 63 68 71 69 64 70 65 71 69 72 72 73 66 74 67 75 70 76 68 77
REMARK SMILES IDX 47 78 48 79 56 80 49 81 50 82 54 83 57 84 51 85 52 86 55 87
REMARK SMILES IDX 53 88
REMARK H PARENT 14 6 18 22 77 41 45 52
REMARK Flexibility Score: inf
ROOT
ATOM      1  C   UNL A   1      37.679  19.690  25.001  1.00  0.00     0.042 C 
ENDROOT
BRANCH   1   2
ATOM      2  C   UNL A   1      36.568  20.686  24.683  1.00  0.00     0.117 C 
BRANCH   2   3
ATOM      3  N   UNL A   1      35.837  21.075  25.876  1.00  0.00    -0.355 N 
ATOM      4  C   UNL A   1      34.548  21.447  26.125  1.00  0.00     0.230 C 
ATOM      5  O   UNL A   1      34.409  21.936  27.250  1.00  0.00    -0.274 OA
ATOM      6  H   UNL A   1      36.397  21.068  26.687  1.00  0.00     0.163 HD
BRANCH   4   7
ATOM      7  C   UNL A   1      33.401  21.287  25.077  1.00  0.00     0.068 C 
ATOM      8  C   UNL A   1      33.769  22.124  23.825  1.00  0.00     0.026 C 
ATOM      9  C   UNL A   1      32.097  21.771  25.752  1.00  0.00     0.026 C 
BRANCH   7  10
ATOM     10  C   UNL A   1      33.122  19.849  24.527  1.00  0.00    -0.031 A 
ATOM     11  C   UNL A   1      33.285  17.374  24.633  1.00  0.00     0.036 A 
ATOM     12  C   UNL A   1      32.706  17.303  23.361  1.00  0.00     0.026 A 
ATOM     13  C   UNL A   1      33.474  18.656  25.188  1.00  0.00     0.030 A 
ATOM     14  C   UNL A   1      32.330  18.453  22.676  1.00  0.00     0.002 A 
ATOM     15  C   UNL A   1      32.535  19.706  23.252  1.00  0.00     0.005 A 
BRANCH  11  16
ATOM     16  N   UNL A   1      33.664  16.211  25.305  1.00  0.00    -0.378 N 
ATOM     17  C   UNL A   1      35.071  15.838  25.376  1.00  0.00     0.143 C 
ATOM     18  C   UNL A   1      32.679  15.139  25.376  1.00  0.00     0.143 C 
ENDBRANCH  11  16
ENDBRANCH   7  10
ENDBRANCH   4   7
ENDBRANCH   2   3
ENDBRANCH   1   2
BRANCH   1  19
ATOM     19  C   UNL A   1      38.866  20.285  25.751  1.00  0.00     0.118 C 
BRANCH  19  20
ATOM     20  N   UNL A   1      39.973  19.351  25.888  1.00  0.00    -0.352 N 
ATOM     21  C   UNL A   1      41.304  19.578  26.126  1.00  0.00     0.251 C 
ATOM     22  H   UNL A   1      39.727  18.403  25.795  1.00  0.00     0.163 HD
ATOM     23  O   UNL A   1      42.102  18.647  26.025  1.00  0.00    -0.269 OA
BRANCH  21  24
ATOM     24  C   UNL A   1      41.797  20.927  26.479  1.00  0.00     0.039 A 
ATOM     25  C   UNL A   1      41.947  21.871  25.459  1.00  0.00     0.014 A 
ATOM     26  C   UNL A   1      42.153  21.258  27.790  1.00  0.00     0.014 A 
ATOM     27  C   UNL A   1      42.400  23.156  25.761  1.00  0.00     0.010 A 
ATOM     28  C   UNL A   1      42.524  22.564  28.104  1.00  0.00     0.010 A 
ATOM     29  C   UNL A   1      42.664  23.523  27.092  1.00  0.00    -0.014 A 
BRANCH  29  30
ATOM     30  C   UNL A   1      43.102  24.903  27.424  1.00  0.00     0.031 A 
ATOM     31  C   UNL A   1      44.517  25.338  27.153  1.00  0.00     0.074 A 
ATOM     32  C   UNL A   1      42.231  25.757  27.997  1.00  0.00     0.049 A 
ATOM     33  N   UNL A   1      45.085  26.496  27.382  1.00  0.00    -0.248 NA
ATOM     34  C   UNL A   1      45.421  24.334  26.572  1.00  0.00     0.031 C 
ATOM     35  C   UNL A   1      40.851  25.437  28.365  1.00  0.00     0.029 A 
ATOM     36  N   UNL A   1      42.379  27.069  28.372  1.00  0.00    -0.354 N 
ATOM     37  C   UNL A   1      46.405  26.357  26.975  1.00  0.00     0.074 A 
ATOM     38  C   UNL A   1      46.574  24.985  26.547  1.00  0.00     0.031 C 
ATOM     39  C   UNL A   1      40.270  26.528  28.886  1.00  0.00     0.029 A 
ATOM     40  C   UNL A   1      41.241  27.617  28.913  1.00  0.00     0.049 A 
ATOM     41  H   UNL A   1      43.219  27.569  28.264  1.00  0.00     0.167 HD
ATOM     42  C   UNL A   1      47.382  27.296  26.931  1.00  0.00     0.037 A 
ATOM     43  C   UNL A   1      41.009  28.860  29.374  1.00  0.00     0.037 A 
ATOM     44  C   UNL A   1      47.210  28.664  27.341  1.00  0.00     0.049 A 
ATOM     45  C   UNL A   1      42.106  29.887  29.298  1.00  0.00     0.074 A 
ATOM     46  C   UNL A   1      48.130  29.698  27.314  1.00  0.00     0.029 A 
ATOM     47  N   UNL A   1      46.032  29.191  27.850  1.00  0.00    -0.354 N 
ATOM     48  N   UNL A   1      43.333  29.757  28.853  1.00  0.00    -0.248 NA
ATOM     49  C   UNL A   1      41.781  31.239  29.772  1.00  0.00     0.031 C 
ATOM     50  C   UNL A   1      47.518  30.844  27.832  1.00  0.00     0.029 A 
ATOM     51  C   UNL A   1      46.203  30.535  28.143  1.00  0.00     0.049 A 
ATOM     52  H   UNL A   1      45.198  28.685  27.984  1.00  0.00     0.167 HD
ATOM     53  C   UNL A   1      43.915  31.012  28.969  1.00  0.00     0.074 A 
ATOM     54  C   UNL A   1      42.900  31.895  29.504  1.00  0.00     0.031 C 
ATOM     55  C   UNL A   1      45.178  31.399  28.665  1.00  0.00     0.037 A 
BRANCH  42  56
ATOM     56  C   UNL A   1      48.720  26.876  26.396  1.00  0.00     0.064 A 
ATOM     57  C   UNL A   1      49.690  26.299  27.232  1.00  0.00     0.173 A 
ATOM     58  C   UNL A   1      49.026  27.012  25.034  1.00  0.00     0.173 A 
ATOM     59  F   UNL A   1      49.452  26.159  28.545  1.00  0.00    -0.203 F 
ATOM     60  C   UNL A   1      50.925  25.897  26.728  1.00  0.00     0.198 A 
ATOM     61  C   UNL A   1      50.251  26.583  24.529  1.00  0.00     0.198 A 
ATOM     62  F   UNL A   1      48.134  27.553  24.191  1.00  0.00    -0.203 F 
ATOM     63  F   UNL A   1      51.850  25.391  27.554  1.00  0.00    -0.200 F 
ATOM     64  C   UNL A   1      51.200  26.033  25.376  1.00  0.00     0.200 A 
ATOM     65  F   UNL A   1      50.513  26.703  23.220  1.00  0.00    -0.200 F 
ATOM     66  F   UNL A   1      52.386  25.637  24.892  1.00  0.00    -0.200 F 
ENDBRANCH  42  56
BRANCH  43  67
ATOM     67  C   UNL A   1      39.673  29.218  29.919  1.00  0.00     0.064 A 
ATOM     68  C   UNL A   1      39.366  29.008  31.270  1.00  0.00     0.173 A 
ATOM     69  C   UNL A   1      38.672  29.755  29.098  1.00  0.00     0.173 A 
ATOM     70  F   UNL A   1      40.284  28.478  32.092  1.00  0.00    -0.203 F 
ATOM     71  C   UNL A   1      38.097  29.292  31.773  1.00  0.00     0.198 A 
ATOM     72  C   UNL A   1      37.413  30.067  29.608  1.00  0.00     0.198 A 
ATOM     73  F   UNL A   1      38.918  29.983  27.799  1.00  0.00    -0.203 F 
ATOM     74  F   UNL A   1      37.814  29.029  33.056  1.00  0.00    -0.200 F 
ATOM     75  C   UNL A   1      37.123  29.824  30.942  1.00  0.00     0.200 A 
ATOM     76  F   UNL A   1      36.479  30.594  28.806  1.00  0.00    -0.200 F 
ATOM     77  F   UNL A   1      35.903  30.095  31.425  1.00  0.00    -0.200 F 
ENDBRANCH  43  67
BRANCH  55  78
ATOM     78  C   UNL A   1      45.516  32.847  28.874  1.00  0.00     0.064 A 
ATOM     79  C   UNL A   1      46.071  33.306  30.077  1.00  0.00     0.173 A 
ATOM     80  C   UNL A   1      45.295  33.781  27.851  1.00  0.00     0.173 A 
ATOM     81  F   UNL A   1      46.286  32.454  31.090  1.00  0.00    -0.203 F 
ATOM     82  C   UNL A   1      46.360  34.656  30.261  1.00  0.00     0.198 A 
ATOM     83  C   UNL A   1      45.614  35.124  28.028  1.00  0.00     0.198 A 
ATOM     84  F   UNL A   1      44.773  33.389  26.678  1.00  0.00    -0.203 F 
ATOM     85  F   UNL A   1      46.837  35.081  31.439  1.00  0.00    -0.200 F 
ATOM     86  C   UNL A   1      46.136  35.562  29.235  1.00  0.00     0.200 A 
ATOM     87  F   UNL A   1      45.407  35.997  27.032  1.00  0.00    -0.200 F 
ATOM     88  F   UNL A   1      46.414  36.861  29.415  1.00  0.00    -0.200 F 
ENDBRANCH  55  78
ENDBRANCH  29  30
ENDBRANCH  21  24
ENDBRANCH  19  20
ENDBRANCH   1  19
TORSDOF 12
ENDMDL
