MODEL 1
REMARK VINA RESULT:     -13.4      0.000      0.000
REMARK SMILES Cc1cccc(CN(C)c2ccc(C(=O)NCCCNC(=O)c3ccc(-c4c5nc(c(-c6c(F)c(F)c(F)c(F)c6F)c6ccc([nH]6)c(-c6c(F)c(F)c(F)c(F)c6F)c6nc(c(-c7c(F)c(F)c(F)c(F)c7F)c7ccc4[nH]7)C=C6)C=C5)cc3)cc2C)n1
REMARK SMILES IDX 17 1 16 2 14 3 15 4 13 6 10 7 11 8 87 9 12 10 86 11 88 12
REMARK SMILES IDX 8 13 9 14 7 15 6 16 1 17 2 18 3 19 89 20 4 21 5 22 18 23
REMARK SMILES IDX 19 24 20 25 21 26 22 28 23 29 24 30 85 31 25 32 84 33 26 34
REMARK SMILES IDX 27 35 28 36 78 37 29 38 83 39 77 40 79 41 30 42 82 43 76 44
REMARK SMILES IDX 75 45 31 47 63 48 43 49 62 50 44 51 47 52 61 53 80 54 45 55
REMARK SMILES IDX 46 56 60 58 81 59 48 60 32 61 33 62 41 63 34 64 35 65 39 66
REMARK SMILES IDX 42 67 36 68 37 69 40 70 38 71 64 72 65 73 73 74 66 75 67 76
REMARK SMILES IDX 71 77 74 78 68 79 69 80 72 81 70 82 49 83 50 84 58 85 51 86
REMARK SMILES IDX 52 87 56 88 59 89 53 90 54 91 57 92 55 93
REMARK H PARENT 16 5 20 27 79 46 47 57
REMARK Flexibility Score: inf
ROOT
ATOM      1  C   UNL A   1      35.915  21.482  26.048  1.00  0.00     0.118 C 
ENDROOT
BRANCH   1   2
ATOM      2  N   UNL A   1      34.990  20.556  25.402  1.00  0.00    -0.352 N 
ATOM      3  C   UNL A   1      33.781  20.763  24.767  1.00  0.00     0.251 C 
ATOM      4  O   UNL A   1      33.286  19.816  24.154  1.00  0.00    -0.269 OA
ATOM      5  H   UNL A   1      35.279  19.615  25.423  1.00  0.00     0.163 HD
BRANCH   3   6
ATOM      6  C   UNL A   1      33.063  22.070  24.780  1.00  0.00     0.040 A 
ATOM      7  C   UNL A   1      31.729  24.599  24.766  1.00  0.00     0.040 A 
ATOM      8  C   UNL A   1      31.139  23.443  25.274  1.00  0.00     0.027 A 
ATOM      9  C   UNL A   1      32.980  24.448  24.141  1.00  0.00    -0.027 A 
ATOM     10  C   UNL A   1      31.785  22.215  25.288  1.00  0.00     0.016 A 
ATOM     11  C   UNL A   1      33.634  23.187  24.155  1.00  0.00     0.019 A 
ATOM     12  C   UNL A   1      33.618  25.569  23.366  1.00  0.00     0.046 C 
BRANCH   7  13
ATOM     13  N   UNL A   1      31.048  25.812  24.833  1.00  0.00    -0.368 N 
ATOM     14  C   UNL A   1      29.929  25.957  23.914  1.00  0.00     0.144 C 
BRANCH  13  15
ATOM     15  C   UNL A   1      31.002  26.576  26.102  1.00  0.00     0.172 C 
BRANCH  15  16
ATOM     16  C   UNL A   1      31.973  27.750  26.227  1.00  0.00     0.060 A 
ATOM     17  C   UNL A   1      31.705  31.417  26.520  1.00  0.00     0.067 C 
ATOM     18  C   UNL A   1      32.316  30.049  26.451  1.00  0.00     0.038 A 
ATOM     19  C   UNL A   1      33.659  29.860  26.763  1.00  0.00     0.023 A 
ATOM     20  N   UNL A   1      31.479  29.020  26.160  1.00  0.00    -0.256 NA
ATOM     21  C   UNL A   1      34.168  28.567  26.771  1.00  0.00     0.004 A 
ATOM     22  C   UNL A   1      33.318  27.498  26.505  1.00  0.00     0.026 A 
ENDBRANCH  15  16
ENDBRANCH  13  15
ENDBRANCH   7  13
ENDBRANCH   3   6
ENDBRANCH   1   2
BRANCH   1  23
ATOM     23  C   UNL A   1      37.195  21.689  25.236  1.00  0.00     0.042 C 
BRANCH  23  24
ATOM     24  C   UNL A   1      38.015  22.896  25.634  1.00  0.00     0.118 C 
BRANCH  24  25
ATOM     25  N   UNL A   1      39.282  22.587  26.282  1.00  0.00    -0.352 N 
ATOM     26  C   UNL A   1      40.180  23.454  26.890  1.00  0.00     0.251 C 
ATOM     27  H   UNL A   1      39.536  21.637  26.291  1.00  0.00     0.163 HD
ATOM     28  O   UNL A   1      41.227  23.041  27.345  1.00  0.00    -0.269 OA
BRANCH  26  29
ATOM     29  C   UNL A   1      39.774  24.867  27.098  1.00  0.00     0.039 A 
ATOM     30  C   UNL A   1      40.366  25.844  26.289  1.00  0.00     0.014 A 
ATOM     31  C   UNL A   1      39.026  25.237  28.211  1.00  0.00     0.014 A 
ATOM     32  C   UNL A   1      40.430  27.157  26.745  1.00  0.00     0.010 A 
ATOM     33  C   UNL A   1      39.203  26.499  28.728  1.00  0.00     0.010 A 
ATOM     34  C   UNL A   1      39.963  27.440  28.023  1.00  0.00    -0.014 A 
BRANCH  34  35
ATOM     35  C   UNL A   1      40.262  28.660  28.757  1.00  0.00     0.031 A 
ATOM     36  C   UNL A   1      39.265  29.747  28.793  1.00  0.00     0.074 A 
ATOM     37  C   UNL A   1      41.346  28.680  29.566  1.00  0.00     0.049 A 
ATOM     38  N   UNL A   1      39.485  30.906  29.311  1.00  0.00    -0.248 NA
ATOM     39  C   UNL A   1      37.936  29.639  28.188  1.00  0.00     0.031 C 
ATOM     40  C   UNL A   1      41.593  29.569  30.703  1.00  0.00     0.029 A 
ATOM     41  N   UNL A   1      42.570  28.010  29.384  1.00  0.00    -0.354 N 
ATOM     42  C   UNL A   1      38.274  31.544  29.412  1.00  0.00     0.074 A 
ATOM     43  C   UNL A   1      37.380  30.791  28.574  1.00  0.00     0.031 C 
ATOM     44  C   UNL A   1      42.914  29.628  30.932  1.00  0.00     0.029 A 
ATOM     45  C   UNL A   1      43.556  28.924  29.838  1.00  0.00     0.049 A 
ATOM     46  H   UNL A   1      42.711  27.105  29.021  1.00  0.00     0.167 HD
ATOM     47  C   UNL A   1      38.148  32.543  30.325  1.00  0.00     0.037 A 
ATOM     48  C   UNL A   1      44.453  29.493  28.980  1.00  0.00     0.037 A 
ATOM     49  C   UNL A   1      39.462  33.007  30.767  1.00  0.00     0.049 A 
ATOM     50  C   UNL A   1      44.413  31.003  28.962  1.00  0.00     0.074 A 
ATOM     51  C   UNL A   1      40.179  32.890  31.943  1.00  0.00     0.029 A 
ATOM     52  N   UNL A   1      40.351  33.490  29.807  1.00  0.00    -0.354 N 
ATOM     53  N   UNL A   1      43.386  31.709  29.348  1.00  0.00    -0.248 NA
ATOM     54  C   UNL A   1      45.519  31.834  28.494  1.00  0.00     0.031 C 
ATOM     55  C   UNL A   1      41.538  33.203  31.652  1.00  0.00     0.029 A 
ATOM     56  C   UNL A   1      41.630  33.562  30.317  1.00  0.00     0.049 A 
ATOM     57  H   UNL A   1      40.100  33.743  28.889  1.00  0.00     0.167 HD
ATOM     58  C   UNL A   1      43.658  33.043  29.183  1.00  0.00     0.074 A 
ATOM     59  C   UNL A   1      45.012  33.068  28.660  1.00  0.00     0.031 C 
ATOM     60  C   UNL A   1      42.737  34.007  29.480  1.00  0.00     0.037 A 
BRANCH  47  61
ATOM     61  C   UNL A   1      36.848  32.977  30.967  1.00  0.00     0.064 A 
ATOM     62  C   UNL A   1      35.936  33.779  30.246  1.00  0.00     0.173 A 
ATOM     63  C   UNL A   1      36.501  32.767  32.321  1.00  0.00     0.173 A 
ATOM     64  F   UNL A   1      36.148  34.078  28.956  1.00  0.00    -0.203 F 
ATOM     65  C   UNL A   1      34.786  34.323  30.831  1.00  0.00     0.198 A 
ATOM     66  C   UNL A   1      35.325  33.265  32.888  1.00  0.00     0.198 A 
ATOM     67  F   UNL A   1      37.309  32.135  33.177  1.00  0.00    -0.203 F 
ATOM     68  F   UNL A   1      33.990  35.127  30.113  1.00  0.00    -0.200 F 
ATOM     69  C   UNL A   1      34.473  34.055  32.149  1.00  0.00     0.200 A 
ATOM     70  F   UNL A   1      35.044  32.996  34.173  1.00  0.00    -0.200 F 
ATOM     71  F   UNL A   1      33.372  34.571  32.710  1.00  0.00    -0.200 F 
ENDBRANCH  47  61
BRANCH  48  72
ATOM     72  C   UNL A   1      44.761  28.628  27.811  1.00  0.00     0.064 A 
ATOM     73  C   UNL A   1      45.594  27.510  28.018  1.00  0.00     0.173 A 
ATOM     74  C   UNL A   1      43.949  28.628  26.671  1.00  0.00     0.173 A 
ATOM     75  F   UNL A   1      46.395  27.462  29.095  1.00  0.00    -0.203 F 
ATOM     76  C   UNL A   1      45.510  26.385  27.202  1.00  0.00     0.198 A 
ATOM     77  C   UNL A   1      43.885  27.505  25.844  1.00  0.00     0.198 A 
ATOM     78  F   UNL A   1      43.124  29.656  26.426  1.00  0.00    -0.203 F 
ATOM     79  F   UNL A   1      46.217  25.285  27.503  1.00  0.00    -0.200 F 
ATOM     80  C   UNL A   1      44.629  26.371  26.134  1.00  0.00     0.200 A 
ATOM     81  F   UNL A   1      43.013  27.479  24.824  1.00  0.00    -0.200 F 
ATOM     82  F   UNL A   1      44.463  25.252  25.415  1.00  0.00    -0.200 F 
ENDBRANCH  48  72
BRANCH  60  83
ATOM     83  C   UNL A   1      42.813  35.468  29.086  1.00  0.00     0.064 A 
ATOM     84  C   UNL A   1      42.134  36.028  27.989  1.00  0.00     0.173 A 
ATOM     85  C   UNL A   1      43.474  36.402  29.924  1.00  0.00     0.173 A 
ATOM     86  F   UNL A   1      41.358  35.284  27.192  1.00  0.00    -0.203 F 
ATOM     87  C   UNL A   1      42.178  37.398  27.710  1.00  0.00     0.198 A 
ATOM     88  C   UNL A   1      43.462  37.774  29.677  1.00  0.00     0.198 A 
ATOM     89  F   UNL A   1      44.128  36.015  31.028  1.00  0.00    -0.203 F 
ATOM     90  F   UNL A   1      41.551  37.872  26.623  1.00  0.00    -0.200 F 
ATOM     91  C   UNL A   1      42.831  38.272  28.557  1.00  0.00     0.200 A 
ATOM     92  F   UNL A   1      44.049  38.612  30.544  1.00  0.00    -0.200 F 
ATOM     93  F   UNL A   1      42.827  39.588  28.311  1.00  0.00    -0.200 F 
ENDBRANCH  60  83
ENDBRANCH  34  35
ENDBRANCH  26  29
ENDBRANCH  24  25
ENDBRANCH  23  24
ENDBRANCH   1  23
TORSDOF 13
ENDMDL
MODEL 2
REMARK VINA RESULT:     -13.4      1.453      1.899
REMARK SMILES Cc1cccc(CN(C)c2ccc(C(=O)NCCCNC(=O)c3ccc(-c4c5nc(c(-c6c(F)c(F)c(F)c(F)c6F)c6ccc([nH]6)c(-c6c(F)c(F)c(F)c(F)c6F)c6nc(c(-c7c(F)c(F)c(F)c(F)c7F)c7ccc4[nH]7)C=C6)C=C5)cc3)cc2C)n1
REMARK SMILES IDX 17 1 16 2 14 3 15 4 13 6 10 7 11 8 87 9 12 10 86 11 88 12
REMARK SMILES IDX 8 13 9 14 7 15 6 16 1 17 2 18 3 19 89 20 4 21 5 22 18 23
REMARK SMILES IDX 19 24 20 25 21 26 22 28 23 29 24 30 85 31 25 32 84 33 26 34
REMARK SMILES IDX 27 35 28 36 78 37 29 38 83 39 77 40 79 41 30 42 82 43 76 44
REMARK SMILES IDX 75 45 31 47 63 48 43 49 62 50 44 51 47 52 61 53 80 54 45 55
REMARK SMILES IDX 46 56 60 58 81 59 48 60 32 61 33 62 41 63 34 64 35 65 39 66
REMARK SMILES IDX 42 67 36 68 37 69 40 70 38 71 64 72 65 73 73 74 66 75 67 76
REMARK SMILES IDX 71 77 74 78 68 79 69 80 72 81 70 82 49 83 50 84 58 85 51 86
REMARK SMILES IDX 52 87 56 88 59 89 53 90 54 91 57 92 55 93
REMARK H PARENT 16 5 20 27 79 46 47 57
REMARK Flexibility Score: inf
ROOT
ATOM      1  C   UNL A   1      36.075  21.828  24.676  1.00  0.00     0.118 C 
ENDROOT
BRANCH   1   2
ATOM      2  N   UNL A   1      35.256  21.989  25.873  1.00  0.00    -0.352 N 
ATOM      3  C   UNL A   1      34.246  22.879  26.179  1.00  0.00     0.251 C 
ATOM      4  O   UNL A   1      33.600  22.681  27.209  1.00  0.00    -0.269 OA
ATOM      5  H   UNL A   1      35.460  21.348  26.591  1.00  0.00     0.163 HD
BRANCH   3   6
ATOM      6  C   UNL A   1      33.899  24.049  25.322  1.00  0.00     0.040 A 
ATOM      7  C   UNL A   1      33.250  26.331  23.725  1.00  0.00     0.040 A 
ATOM      8  C   UNL A   1      33.357  25.048  23.191  1.00  0.00     0.027 A 
ATOM      9  C   UNL A   1      33.598  26.482  25.081  1.00  0.00    -0.027 A 
ATOM     10  C   UNL A   1      33.665  23.937  23.964  1.00  0.00     0.016 A 
ATOM     11  C   UNL A   1      33.917  25.341  25.864  1.00  0.00     0.019 A 
ATOM     12  C   UNL A   1      33.734  27.839  25.716  1.00  0.00     0.046 C 
BRANCH   7  13
ATOM     13  N   UNL A   1      32.882  27.395  22.906  1.00  0.00    -0.368 N 
ATOM     14  C   UNL A   1      33.957  27.990  22.126  1.00  0.00     0.144 C 
BRANCH  13  15
ATOM     15  C   UNL A   1      31.506  27.481  22.363  1.00  0.00     0.172 C 
BRANCH  15  16
ATOM     16  C   UNL A   1      30.732  28.763  22.666  1.00  0.00     0.060 A 
ATOM     17  C   UNL A   1      28.012  30.680  21.074  1.00  0.00     0.067 C 
ATOM     18  C   UNL A   1      29.054  30.277  22.074  1.00  0.00     0.038 A 
ATOM     19  C   UNL A   1      29.106  30.886  23.323  1.00  0.00     0.023 A 
ATOM     20  N   UNL A   1      29.868  29.246  21.727  1.00  0.00    -0.256 NA
ATOM     21  C   UNL A   1      30.030  30.427  24.254  1.00  0.00     0.004 A 
ATOM     22  C   UNL A   1      30.850  29.352  23.926  1.00  0.00     0.026 A 
ENDBRANCH  15  16
ENDBRANCH  13  15
ENDBRANCH   7  13
ENDBRANCH   3   6
ENDBRANCH   1   2
BRANCH   1  23
ATOM     23  C   UNL A   1      37.562  21.672  25.002  1.00  0.00     0.042 C 
BRANCH  23  24
ATOM     24  C   UNL A   1      38.186  22.853  25.714  1.00  0.00     0.118 C 
BRANCH  24  25
ATOM     25  N   UNL A   1      39.483  22.584  26.320  1.00  0.00    -0.352 N 
ATOM     26  C   UNL A   1      40.365  23.477  26.914  1.00  0.00     0.251 C 
ATOM     27  H   UNL A   1      39.774  21.644  26.306  1.00  0.00     0.163 HD
ATOM     28  O   UNL A   1      41.440  23.099  27.332  1.00  0.00    -0.269 OA
BRANCH  26  29
ATOM     29  C   UNL A   1      39.911  24.870  27.156  1.00  0.00     0.039 A 
ATOM     30  C   UNL A   1      40.405  25.874  26.315  1.00  0.00     0.014 A 
ATOM     31  C   UNL A   1      39.221  25.203  28.317  1.00  0.00     0.014 A 
ATOM     32  C   UNL A   1      40.440  27.188  26.774  1.00  0.00     0.010 A 
ATOM     33  C   UNL A   1      39.376  26.470  28.829  1.00  0.00     0.010 A 
ATOM     34  C   UNL A   1      40.045  27.446  28.081  1.00  0.00    -0.014 A 
BRANCH  34  35
ATOM     35  C   UNL A   1      40.336  28.676  28.800  1.00  0.00     0.031 A 
ATOM     36  C   UNL A   1      39.327  29.752  28.837  1.00  0.00     0.074 A 
ATOM     37  C   UNL A   1      41.428  28.717  29.599  1.00  0.00     0.049 A 
ATOM     38  N   UNL A   1      39.538  30.918  29.341  1.00  0.00    -0.248 NA
ATOM     39  C   UNL A   1      37.994  29.622  28.245  1.00  0.00     0.031 C 
ATOM     40  C   UNL A   1      41.675  29.619  30.725  1.00  0.00     0.029 A 
ATOM     41  N   UNL A   1      42.659  28.060  29.410  1.00  0.00    -0.354 N 
ATOM     42  C   UNL A   1      38.320  31.543  29.448  1.00  0.00     0.074 A 
ATOM     43  C   UNL A   1      37.427  30.771  28.626  1.00  0.00     0.031 C 
ATOM     44  C   UNL A   1      42.998  29.696  30.940  1.00  0.00     0.029 A 
ATOM     45  C   UNL A   1      43.638  28.989  29.846  1.00  0.00     0.049 A 
ATOM     46  H   UNL A   1      42.807  27.153  29.054  1.00  0.00     0.167 HD
ATOM     47  C   UNL A   1      38.192  32.548  30.354  1.00  0.00     0.037 A 
ATOM     48  C   UNL A   1      44.519  29.561  28.974  1.00  0.00     0.037 A 
ATOM     49  C   UNL A   1      39.505  33.032  30.778  1.00  0.00     0.049 A 
ATOM     50  C   UNL A   1      44.461  31.070  28.943  1.00  0.00     0.074 A 
ATOM     51  C   UNL A   1      40.234  32.935  31.948  1.00  0.00     0.029 A 
ATOM     52  N   UNL A   1      40.378  33.516  29.805  1.00  0.00    -0.354 N 
ATOM     53  N   UNL A   1      43.430  31.768  29.332  1.00  0.00    -0.248 NA
ATOM     54  C   UNL A   1      45.552  31.909  28.456  1.00  0.00     0.031 C 
ATOM     55  C   UNL A   1      41.587  33.261  31.640  1.00  0.00     0.029 A 
ATOM     56  C   UNL A   1      41.661  33.609  30.302  1.00  0.00     0.049 A 
ATOM     57  H   UNL A   1      40.115  33.758  28.887  1.00  0.00     0.167 HD
ATOM     58  C   UNL A   1      43.684  33.103  29.152  1.00  0.00     0.074 A 
ATOM     59  C   UNL A   1      45.032  33.139  28.616  1.00  0.00     0.031 C 
ATOM     60  C   UNL A   1      42.755  34.059  29.449  1.00  0.00     0.037 A 
BRANCH  47  61
ATOM     61  C   UNL A   1      36.893  32.973  31.005  1.00  0.00     0.064 A 
ATOM     62  C   UNL A   1      35.975  33.776  30.293  1.00  0.00     0.173 A 
ATOM     63  C   UNL A   1      36.553  32.753  32.359  1.00  0.00     0.173 A 
ATOM     64  F   UNL A   1      36.180  34.085  29.005  1.00  0.00    -0.203 F 
ATOM     65  C   UNL A   1      34.826  34.312  30.887  1.00  0.00     0.198 A 
ATOM     66  C   UNL A   1      35.378  33.242  32.935  1.00  0.00     0.198 A 
ATOM     67  F   UNL A   1      37.368  32.117  33.207  1.00  0.00    -0.203 F 
ATOM     68  F   UNL A   1      34.023  35.118  30.179  1.00  0.00    -0.200 F 
ATOM     69  C   UNL A   1      34.519  34.034  32.204  1.00  0.00     0.200 A 
ATOM     70  F   UNL A   1      35.104  32.963  34.218  1.00  0.00    -0.200 F 
ATOM     71  F   UNL A   1      33.419  34.542  32.774  1.00  0.00    -0.200 F 
ENDBRANCH  47  61
BRANCH  48  72
ATOM     72  C   UNL A   1      44.826  28.688  27.810  1.00  0.00     0.064 A 
ATOM     73  C   UNL A   1      45.673  27.581  28.020  1.00  0.00     0.173 A 
ATOM     74  C   UNL A   1      44.004  28.670  26.677  1.00  0.00     0.173 A 
ATOM     75  F   UNL A   1      46.483  27.551  29.090  1.00  0.00    -0.203 F 
ATOM     76  C   UNL A   1      45.593  26.448  27.214  1.00  0.00     0.198 A 
ATOM     77  C   UNL A   1      43.944  27.539  25.860  1.00  0.00     0.198 A 
ATOM     78  F   UNL A   1      43.167  29.688  26.430  1.00  0.00    -0.203 F 
ATOM     79  F   UNL A   1      46.314  25.358  27.519  1.00  0.00    -0.200 F 
ATOM     80  C   UNL A   1      44.703  26.416  26.154  1.00  0.00     0.200 A 
ATOM     81  F   UNL A   1      43.064  27.495  24.849  1.00  0.00    -0.200 F 
ATOM     82  F   UNL A   1      44.542  25.289  25.446  1.00  0.00    -0.200 F 
ENDBRANCH  48  72
BRANCH  60  83
ATOM     83  C   UNL A   1      42.809  35.517  29.041  1.00  0.00     0.064 A 
ATOM     84  C   UNL A   1      42.110  36.059  27.948  1.00  0.00     0.173 A 
ATOM     85  C   UNL A   1      43.471  36.465  29.862  1.00  0.00     0.173 A 
ATOM     86  F   UNL A   1      41.331  35.300  27.168  1.00  0.00    -0.203 F 
ATOM     87  C   UNL A   1      42.135  37.427  27.656  1.00  0.00     0.198 A 
ATOM     88  C   UNL A   1      43.440  37.835  29.603  1.00  0.00     0.198 A 
ATOM     89  F   UNL A   1      44.144  36.096  30.961  1.00  0.00    -0.203 F 
ATOM     90  F   UNL A   1      41.489  37.884  26.573  1.00  0.00    -0.200 F 
ATOM     91  C   UNL A   1      42.789  38.315  28.487  1.00  0.00     0.200 A 
ATOM     92  F   UNL A   1      44.030  38.688  30.454  1.00  0.00    -0.200 F 
ATOM     93  F   UNL A   1      42.768  39.629  28.228  1.00  0.00    -0.200 F 
ENDBRANCH  60  83
ENDBRANCH  34  35
ENDBRANCH  26  29
ENDBRANCH  24  25
ENDBRANCH  23  24
ENDBRANCH   1  23
TORSDOF 13
ENDMDL
MODEL 3
REMARK VINA RESULT:     -13.2      3.773     10.060
REMARK SMILES Cc1cccc(CN(C)c2ccc(C(=O)NCCCNC(=O)c3ccc(-c4c5nc(c(-c6c(F)c(F)c(F)c(F)c6F)c6ccc([nH]6)c(-c6c(F)c(F)c(F)c(F)c6F)c6nc(c(-c7c(F)c(F)c(F)c(F)c7F)c7ccc4[nH]7)C=C6)C=C5)cc3)cc2C)n1
REMARK SMILES IDX 17 1 16 2 14 3 15 4 13 6 10 7 11 8 87 9 12 10 86 11 88 12
REMARK SMILES IDX 8 13 9 14 7 15 6 16 1 17 2 18 3 19 89 20 4 21 5 22 18 23
REMARK SMILES IDX 19 24 20 25 21 26 22 28 23 29 24 30 85 31 25 32 84 33 26 34
REMARK SMILES IDX 27 35 28 36 78 37 29 38 83 39 77 40 79 41 30 42 82 43 76 44
REMARK SMILES IDX 75 45 31 47 63 48 43 49 62 50 44 51 47 52 61 53 80 54 45 55
REMARK SMILES IDX 46 56 60 58 81 59 48 60 32 61 33 62 41 63 34 64 35 65 39 66
REMARK SMILES IDX 42 67 36 68 37 69 40 70 38 71 64 72 65 73 73 74 66 75 67 76
REMARK SMILES IDX 71 77 74 78 68 79 69 80 72 81 70 82 49 83 50 84 58 85 51 86
REMARK SMILES IDX 52 87 56 88 59 89 53 90 54 91 57 92 55 93
REMARK H PARENT 16 5 20 27 79 46 47 57
REMARK Flexibility Score: inf
ROOT
ATOM      1  C   UNL A   1      31.747  30.153  25.977  1.00  0.00     0.118 C 
ENDROOT
BRANCH   1   2
ATOM      2  N   UNL A   1      31.381  30.053  24.568  1.00  0.00    -0.352 N 
ATOM      3  C   UNL A   1      31.038  28.969  23.785  1.00  0.00     0.251 C 
ATOM      4  O   UNL A   1      30.605  29.192  22.654  1.00  0.00    -0.269 OA
ATOM      5  H   UNL A   1      31.379  30.913  24.089  1.00  0.00     0.163 HD
BRANCH   3   6
ATOM      6  C   UNL A   1      31.156  27.556  24.247  1.00  0.00     0.040 A 
ATOM      7  C   UNL A   1      31.444  24.855  25.144  1.00  0.00     0.040 A 
ATOM      8  C   UNL A   1      30.200  25.447  24.933  1.00  0.00     0.027 A 
ATOM      9  C   UNL A   1      32.570  25.689  25.012  1.00  0.00    -0.027 A 
ATOM     10  C   UNL A   1      30.056  26.755  24.492  1.00  0.00     0.016 A 
ATOM     11  C   UNL A   1      32.415  27.028  24.565  1.00  0.00     0.019 A 
ATOM     12  C   UNL A   1      33.944  25.233  25.423  1.00  0.00     0.046 C 
BRANCH   7  13
ATOM     13  N   UNL A   1      31.521  23.521  25.534  1.00  0.00    -0.368 N 
ATOM     14  C   UNL A   1      30.928  23.208  26.826  1.00  0.00     0.144 C 
BRANCH  13  15
ATOM     15  C   UNL A   1      31.564  22.445  24.516  1.00  0.00     0.172 C 
BRANCH  15  16
ATOM     16  C   UNL A   1      32.594  21.337  24.738  1.00  0.00     0.060 A 
ATOM     17  C   UNL A   1      32.529  17.672  25.139  1.00  0.00     0.067 C 
ATOM     18  C   UNL A   1      33.065  19.066  25.010  1.00  0.00     0.038 A 
ATOM     19  C   UNL A   1      34.427  19.284  24.828  1.00  0.00     0.023 A 
ATOM     20  N   UNL A   1      32.153  20.073  24.994  1.00  0.00    -0.256 NA
ATOM     21  C   UNL A   1      34.875  20.583  24.626  1.00  0.00     0.004 A 
ATOM     22  C   UNL A   1      33.951  21.623  24.576  1.00  0.00     0.026 A 
ENDBRANCH  15  16
ENDBRANCH  13  15
ENDBRANCH   7  13
ENDBRANCH   3   6
ENDBRANCH   1   2
BRANCH   1  23
ATOM     23  C   UNL A   1      33.262  30.145  26.189  1.00  0.00     0.042 C 
BRANCH  23  24
ATOM     24  C   UNL A   1      33.704  30.025  27.631  1.00  0.00     0.118 C 
BRANCH  24  25
ATOM     25  N   UNL A   1      34.376  31.203  28.164  1.00  0.00    -0.352 N 
ATOM     26  C   UNL A   1      35.633  31.296  28.746  1.00  0.00     0.251 C 
ATOM     27  H   UNL A   1      33.871  32.045  28.103  1.00  0.00     0.163 HD
ATOM     28  O   UNL A   1      36.032  32.353  29.189  1.00  0.00    -0.269 OA
BRANCH  26  29
ATOM     29  C   UNL A   1      36.533  30.116  28.686  1.00  0.00     0.039 A 
ATOM     30  C   UNL A   1      36.653  29.328  29.837  1.00  0.00     0.014 A 
ATOM     31  C   UNL A   1      37.408  29.941  27.620  1.00  0.00     0.014 A 
ATOM     32  C   UNL A   1      37.802  28.563  30.020  1.00  0.00     0.010 A 
ATOM     33  C   UNL A   1      38.602  29.297  27.853  1.00  0.00     0.010 A 
ATOM     34  C   UNL A   1      38.823  28.663  29.081  1.00  0.00    -0.014 A 
BRANCH  34  35
ATOM     35  C   UNL A   1      40.186  28.205  29.297  1.00  0.00     0.031 A 
ATOM     36  C   UNL A   1      40.559  26.831  28.910  1.00  0.00     0.074 A 
ATOM     37  C   UNL A   1      41.129  29.113  29.641  1.00  0.00     0.049 A 
ATOM     38  N   UNL A   1      41.702  26.296  29.172  1.00  0.00    -0.248 NA
ATOM     39  C   UNL A   1      39.641  25.909  28.239  1.00  0.00     0.031 C 
ATOM     40  C   UNL A   1      42.578  29.000  29.471  1.00  0.00     0.029 A 
ATOM     41  N   UNL A   1      40.965  30.272  30.423  1.00  0.00    -0.354 N 
ATOM     42  C   UNL A   1      41.790  25.141  28.435  1.00  0.00     0.074 A 
ATOM     43  C   UNL A   1      40.446  24.870  27.998  1.00  0.00     0.031 C 
ATOM     44  C   UNL A   1      43.184  29.826  30.339  1.00  0.00     0.029 A 
ATOM     45  C   UNL A   1      42.146  30.352  31.205  1.00  0.00     0.049 A 
ATOM     46  H   UNL A   1      40.198  30.890  30.427  1.00  0.00     0.167 HD
ATOM     47  C   UNL A   1      43.026  24.650  28.157  1.00  0.00     0.037 A 
ATOM     48  C   UNL A   1      42.120  30.186  32.560  1.00  0.00     0.037 A 
ATOM     49  C   UNL A   1      44.030  25.249  29.035  1.00  0.00     0.049 A 
ATOM     50  C   UNL A   1      42.995  29.061  33.058  1.00  0.00     0.074 A 
ATOM     51  C   UNL A   1      45.051  26.161  28.847  1.00  0.00     0.029 A 
ATOM     52  N   UNL A   1      43.874  25.108  30.413  1.00  0.00    -0.354 N 
ATOM     53  N   UNL A   1      43.391  28.063  32.317  1.00  0.00    -0.248 NA
ATOM     54  C   UNL A   1      43.477  28.962  34.433  1.00  0.00     0.031 C 
ATOM     55  C   UNL A   1      45.434  26.650  30.129  1.00  0.00     0.029 A 
ATOM     56  C   UNL A   1      44.684  25.994  31.091  1.00  0.00     0.049 A 
ATOM     57  H   UNL A   1      43.266  24.463  30.844  1.00  0.00     0.167 HD
ATOM     58  C   UNL A   1      44.146  27.203  33.071  1.00  0.00     0.074 A 
ATOM     59  C   UNL A   1      44.183  27.819  34.384  1.00  0.00     0.031 C 
ATOM     60  C   UNL A   1      44.663  26.051  32.548  1.00  0.00     0.037 A 
BRANCH  47  61
ATOM     61  C   UNL A   1      43.368  23.772  26.972  1.00  0.00     0.064 A 
ATOM     62  C   UNL A   1      42.963  22.420  26.953  1.00  0.00     0.173 A 
ATOM     63  C   UNL A   1      44.205  24.149  25.897  1.00  0.00     0.173 A 
ATOM     64  F   UNL A   1      42.183  21.918  27.921  1.00  0.00    -0.203 F 
ATOM     65  C   UNL A   1      43.366  21.527  25.952  1.00  0.00     0.198 A 
ATOM     66  C   UNL A   1      44.561  23.272  24.870  1.00  0.00     0.198 A 
ATOM     67  F   UNL A   1      44.776  25.356  25.824  1.00  0.00    -0.203 F 
ATOM     68  F   UNL A   1      43.001  20.240  26.021  1.00  0.00    -0.200 F 
ATOM     69  C   UNL A   1      44.154  21.956  24.903  1.00  0.00     0.200 A 
ATOM     70  F   UNL A   1      45.333  23.709  23.863  1.00  0.00    -0.200 F 
ATOM     71  F   UNL A   1      44.538  21.106  23.942  1.00  0.00    -0.200 F 
ENDBRANCH  47  61
BRANCH  48  72
ATOM     72  C   UNL A   1      40.829  30.605  33.167  1.00  0.00     0.064 A 
ATOM     73  C   UNL A   1      40.560  31.984  33.263  1.00  0.00     0.173 A 
ATOM     74  C   UNL A   1      39.741  29.726  33.241  1.00  0.00     0.173 A 
ATOM     75  F   UNL A   1      41.569  32.869  33.201  1.00  0.00    -0.203 F 
ATOM     76  C   UNL A   1      39.254  32.467  33.285  1.00  0.00     0.198 A 
ATOM     77  C   UNL A   1      38.434  30.215  33.284  1.00  0.00     0.198 A 
ATOM     78  F   UNL A   1      39.930  28.403  33.141  1.00  0.00    -0.203 F 
ATOM     79  F   UNL A   1      39.028  33.789  33.240  1.00  0.00    -0.200 F 
ATOM     80  C   UNL A   1      38.190  31.581  33.262  1.00  0.00     0.200 A 
ATOM     81  F   UNL A   1      37.402  29.360  33.235  1.00  0.00    -0.200 F 
ATOM     82  F   UNL A   1      36.935  32.041  33.169  1.00  0.00    -0.200 F 
ENDBRANCH  48  72
BRANCH  60  83
ATOM     83  C   UNL A   1      45.264  24.903  33.332  1.00  0.00     0.064 A 
ATOM     84  C   UNL A   1      46.639  24.749  33.582  1.00  0.00     0.173 A 
ATOM     85  C   UNL A   1      44.425  23.978  34.003  1.00  0.00     0.173 A 
ATOM     86  F   UNL A   1      47.537  25.631  33.125  1.00  0.00    -0.203 F 
ATOM     87  C   UNL A   1      47.139  23.710  34.374  1.00  0.00     0.198 A 
ATOM     88  C   UNL A   1      44.922  22.982  34.843  1.00  0.00     0.198 A 
ATOM     89  F   UNL A   1      43.090  24.029  33.889  1.00  0.00    -0.203 F 
ATOM     90  F   UNL A   1      48.463  23.583  34.541  1.00  0.00    -0.200 F 
ATOM     91  C   UNL A   1      46.282  22.835  35.013  1.00  0.00     0.200 A 
ATOM     92  F   UNL A   1      44.073  22.180  35.502  1.00  0.00    -0.200 F 
ATOM     93  F   UNL A   1      46.764  21.872  35.810  1.00  0.00    -0.200 F 
ENDBRANCH  60  83
ENDBRANCH  34  35
ENDBRANCH  26  29
ENDBRANCH  24  25
ENDBRANCH  23  24
ENDBRANCH   1  23
TORSDOF 13
ENDMDL
