MODEL 1
REMARK VINA RESULT:     -11.1      0.000      0.000
REMARK SMILES CC[C@](C)([NH3+])C(=O)NC[C@](C)(O)C(=O)NCCCNC(=O)c1ccc(-c2c3nc(c(-c4c(F)c(F)c(F)c(F)c4F)c4ccc([nH]4)c(-c4c(F)c(F)c(F)c(F)c4F)c4nc(c(-c5c(F)c(F)c(F)c(F)c5F)c5ccc2[nH]5)C=C4)C=C3)cc1
REMARK SMILES IDX 16 1 15 2 13 3 14 4 10 6 11 7 9 8 8 9 6 10 7 11 3 13 4 14
REMARK SMILES IDX 2 15 1 16 5 17 12 21 17 23 18 24 19 25 20 26 21 28 22 29
REMARK SMILES IDX 23 30 84 31 24 32 83 33 25 34 26 35 27 36 77 37 28 38 82 39
REMARK SMILES IDX 76 40 78 41 29 42 81 43 75 44 74 45 30 47 62 48 42 49 61 50
REMARK SMILES IDX 43 51 46 52 60 53 79 54 44 55 45 56 59 58 80 59 47 60 31 61
REMARK SMILES IDX 32 62 40 63 33 64 34 65 38 66 41 67 35 68 36 69 39 70 37 71
REMARK SMILES IDX 63 72 64 73 72 74 65 75 66 76 70 77 73 78 67 79 68 80 71 81
REMARK SMILES IDX 69 82 48 83 49 84 57 85 50 86 51 87 55 88 58 89 52 90 53 91
REMARK SMILES IDX 56 92 54 93
REMARK H PARENT 15 5 8 12 5 18 5 19 5 20 12 22 19 27 78 46 46 57
REMARK Flexibility Score: inf
ROOT
ATOM      1  C   UNL A   1      31.887  30.558  26.381  1.00  0.00     0.117 C 
ENDROOT
BRANCH   1   2
ATOM      2  N   UNL A   1      31.544  30.163  25.028  1.00  0.00    -0.353 N 
ATOM      3  C   UNL A   1      31.951  29.082  24.302  1.00  0.00     0.253 C 
ATOM      4  O   UNL A   1      31.450  28.944  23.181  1.00  0.00    -0.272 OA
ATOM      5  H   UNL A   1      30.923  30.767  24.562  1.00  0.00     0.163 HD
BRANCH   3   6
ATOM      6  C   UNL A   1      32.990  28.063  24.863  1.00  0.00     0.157 C 
ATOM      7  C   UNL A   1      33.414  27.153  23.687  1.00  0.00     0.055 C 
BRANCH   6   8
ATOM      8  C   UNL A   1      32.382  27.148  25.953  1.00  0.00     0.161 C 
BRANCH   8   9
ATOM      9  N   UNL A   1      32.978  25.828  26.086  1.00  0.00    -0.347 N 
ATOM     10  C   UNL A   1      32.468  24.564  26.080  1.00  0.00     0.281 C 
ATOM     11  O   UNL A   1      33.286  23.672  26.342  1.00  0.00    -0.268 OA
ATOM     12  H   UNL A   1      33.954  25.852  26.206  1.00  0.00     0.163 HD
BRANCH  10  13
ATOM     13  C   UNL A   1      31.002  24.220  25.656  1.00  0.00     0.170 C 
ATOM     14  C   UNL A   1      30.770  22.697  25.845  1.00  0.00     0.090 C 
BRANCH  13  15
ATOM     15  C   UNL A   1      30.778  24.525  24.152  1.00  0.00     0.075 C 
ATOM     16  C   UNL A   1      29.895  25.707  23.780  1.00  0.00     0.011 C 
ENDBRANCH  13  15
BRANCH  13  17
ATOM     17  N   UNL A   1      30.000  24.867  26.530  1.00  0.00    -0.345 N 
ATOM     18  H   UNL A   1      29.086  24.838  26.079  1.00  0.00     0.345 HD
ATOM     19  H   UNL A   1      30.268  25.837  26.694  1.00  0.00     0.345 HD
ATOM     20  H   UNL A   1      29.956  24.372  27.421  1.00  0.00     0.345 HD
ENDBRANCH  13  17
ENDBRANCH  10  13
ENDBRANCH   8   9
ENDBRANCH   6   8
BRANCH   6  21
ATOM     21  O   UNL A   1      34.181  28.652  25.399  1.00  0.00    -0.378 OA
ATOM     22  H   UNL A   1      34.423  28.198  26.222  1.00  0.00     0.212 HD
ENDBRANCH   6  21
ENDBRANCH   3   6
ENDBRANCH   1   2
BRANCH   1  23
ATOM     23  C   UNL A   1      31.585  32.016  26.665  1.00  0.00     0.042 C 
BRANCH  23  24
ATOM     24  C   UNL A   1      32.712  32.740  27.381  1.00  0.00     0.118 C 
BRANCH  24  25
ATOM     25  N   UNL A   1      32.404  34.130  27.699  1.00  0.00    -0.352 N 
ATOM     26  C   UNL A   1      32.969  34.992  28.613  1.00  0.00     0.251 C 
ATOM     27  H   UNL A   1      31.668  34.518  27.171  1.00  0.00     0.163 HD
ATOM     28  O   UNL A   1      32.482  36.094  28.811  1.00  0.00    -0.269 OA
BRANCH  26  29
ATOM     29  C   UNL A   1      34.151  34.565  29.392  1.00  0.00     0.039 A 
ATOM     30  C   UNL A   1      33.966  34.073  30.687  1.00  0.00     0.014 A 
ATOM     31  C   UNL A   1      35.429  34.620  28.840  1.00  0.00     0.014 A 
ATOM     32  C   UNL A   1      35.054  33.544  31.385  1.00  0.00     0.010 A 
ATOM     33  C   UNL A   1      36.482  33.981  29.481  1.00  0.00     0.010 A 
ATOM     34  C   UNL A   1      36.309  33.442  30.765  1.00  0.00    -0.014 A 
BRANCH  34  35
ATOM     35  C   UNL A   1      37.463  32.790  31.431  1.00  0.00     0.031 A 
ATOM     36  C   UNL A   1      38.166  31.643  30.758  1.00  0.00     0.074 A 
ATOM     37  C   UNL A   1      37.813  33.159  32.679  1.00  0.00     0.049 A 
ATOM     38  N   UNL A   1      39.106  30.859  31.221  1.00  0.00    -0.248 NA
ATOM     39  C   UNL A   1      37.715  31.301  29.400  1.00  0.00     0.031 C 
ATOM     40  C   UNL A   1      37.163  34.208  33.468  1.00  0.00     0.029 A 
ATOM     41  N   UNL A   1      38.795  32.680  33.511  1.00  0.00    -0.354 N 
ATOM     42  C   UNL A   1      39.328  29.914  30.228  1.00  0.00     0.074 A 
ATOM     43  C   UNL A   1      38.382  30.182  29.167  1.00  0.00     0.031 C 
ATOM     44  C   UNL A   1      37.781  34.312  34.655  1.00  0.00     0.029 A 
ATOM     45  C   UNL A   1      38.842  33.314  34.728  1.00  0.00     0.049 A 
ATOM     46  H   UNL A   1      39.406  31.951  33.258  1.00  0.00     0.167 HD
ATOM     47  C   UNL A   1      40.257  28.929  30.190  1.00  0.00     0.037 A 
ATOM     48  C   UNL A   1      39.650  33.108  35.786  1.00  0.00     0.037 A 
ATOM     49  C   UNL A   1      41.229  28.702  31.224  1.00  0.00     0.049 A 
ATOM     50  C   UNL A   1      40.704  32.040  35.704  1.00  0.00     0.074 A 
ATOM     51  C   UNL A   1      42.271  27.792  31.247  1.00  0.00     0.029 A 
ATOM     52  N   UNL A   1      41.280  29.401  32.423  1.00  0.00    -0.354 N 
ATOM     53  N   UNL A   1      40.956  31.200  34.730  1.00  0.00    -0.248 NA
ATOM     54  C   UNL A   1      41.591  31.895  36.866  1.00  0.00     0.031 C 
ATOM     55  C   UNL A   1      42.928  27.912  32.476  1.00  0.00     0.029 A 
ATOM     56  C   UNL A   1      42.326  28.929  33.200  1.00  0.00     0.049 A 
ATOM     57  H   UNL A   1      40.664  30.123  32.683  1.00  0.00     0.167 HD
ATOM     58  C   UNL A   1      42.041  30.443  35.148  1.00  0.00     0.074 A 
ATOM     59  C   UNL A   1      42.410  30.934  36.461  1.00  0.00     0.031 C 
ATOM     60  C   UNL A   1      42.677  29.434  34.503  1.00  0.00     0.037 A 
BRANCH  47  61
ATOM     61  C   UNL A   1      40.263  28.035  28.984  1.00  0.00     0.064 A 
ATOM     62  C   UNL A   1      39.560  26.821  28.961  1.00  0.00     0.173 A 
ATOM     63  C   UNL A   1      40.983  28.396  27.834  1.00  0.00     0.173 A 
ATOM     64  F   UNL A   1      38.866  26.422  30.038  1.00  0.00    -0.203 F 
ATOM     65  C   UNL A   1      39.614  25.980  27.852  1.00  0.00     0.198 A 
ATOM     66  C   UNL A   1      41.006  27.569  26.714  1.00  0.00     0.198 A 
ATOM     67  F   UNL A   1      41.669  29.548  27.799  1.00  0.00    -0.203 F 
ATOM     68  F   UNL A   1      38.989  24.794  27.881  1.00  0.00    -0.200 F 
ATOM     69  C   UNL A   1      40.332  26.358  26.727  1.00  0.00     0.200 A 
ATOM     70  F   UNL A   1      41.691  27.941  25.623  1.00  0.00    -0.200 F 
ATOM     71  F   UNL A   1      40.384  25.548  25.662  1.00  0.00    -0.200 F 
ENDBRANCH  47  61
BRANCH  48  72
ATOM     72  C   UNL A   1      39.513  33.965  36.991  1.00  0.00     0.064 A 
ATOM     73  C   UNL A   1      40.128  35.223  37.048  1.00  0.00     0.173 A 
ATOM     74  C   UNL A   1      38.748  33.561  38.094  1.00  0.00     0.173 A 
ATOM     75  F   UNL A   1      40.885  35.644  36.025  1.00  0.00    -0.203 F 
ATOM     76  C   UNL A   1      39.992  36.041  38.168  1.00  0.00     0.198 A 
ATOM     77  C   UNL A   1      38.592  34.390  39.203  1.00  0.00     0.198 A 
ATOM     78  F   UNL A   1      38.134  32.368  38.085  1.00  0.00    -0.203 F 
ATOM     79  F   UNL A   1      40.617  37.225  38.210  1.00  0.00    -0.200 F 
ATOM     80  C   UNL A   1      39.218  35.627  39.241  1.00  0.00     0.200 A 
ATOM     81  F   UNL A   1      37.832  33.992  40.233  1.00  0.00    -0.200 F 
ATOM     82  F   UNL A   1      39.078  36.418  40.314  1.00  0.00    -0.200 F 
ENDBRANCH  48  72
BRANCH  60  83
ATOM     83  C   UNL A   1      43.850  28.807  35.196  1.00  0.00     0.064 A 
ATOM     84  C   UNL A   1      43.703  27.683  36.020  1.00  0.00     0.173 A 
ATOM     85  C   UNL A   1      45.144  29.313  34.995  1.00  0.00     0.173 A 
ATOM     86  F   UNL A   1      42.484  27.173  36.255  1.00  0.00    -0.203 F 
ATOM     87  C   UNL A   1      44.807  27.097  36.633  1.00  0.00     0.198 A 
ATOM     88  C   UNL A   1      46.249  28.709  35.588  1.00  0.00     0.198 A 
ATOM     89  F   UNL A   1      45.337  30.384  34.211  1.00  0.00    -0.203 F 
ATOM     90  F   UNL A   1      44.640  26.048  37.449  1.00  0.00    -0.200 F 
ATOM     91  C   UNL A   1      46.079  27.606  36.411  1.00  0.00     0.200 A 
ATOM     92  F   UNL A   1      47.477  29.192  35.362  1.00  0.00    -0.200 F 
ATOM     93  F   UNL A   1      47.141  27.035  36.995  1.00  0.00    -0.200 F 
ENDBRANCH  60  83
ENDBRANCH  34  35
ENDBRANCH  26  29
ENDBRANCH  24  25
ENDBRANCH  23  24
ENDBRANCH   1  23
TORSDOF 16
ENDMDL
MODEL 2
REMARK VINA RESULT:     -11.1      6.255     11.513
REMARK SMILES CC[C@](C)([NH3+])C(=O)NC[C@](C)(O)C(=O)NCCCNC(=O)c1ccc(-c2c3nc(c(-c4c(F)c(F)c(F)c(F)c4F)c4ccc([nH]4)c(-c4c(F)c(F)c(F)c(F)c4F)c4nc(c(-c5c(F)c(F)c(F)c(F)c5F)c5ccc2[nH]5)C=C4)C=C3)cc1
REMARK SMILES IDX 16 1 15 2 13 3 14 4 10 6 11 7 9 8 8 9 6 10 7 11 3 13 4 14
REMARK SMILES IDX 2 15 1 16 5 17 12 21 17 23 18 24 19 25 20 26 21 28 22 29
REMARK SMILES IDX 23 30 84 31 24 32 83 33 25 34 26 35 27 36 77 37 28 38 82 39
REMARK SMILES IDX 76 40 78 41 29 42 81 43 75 44 74 45 30 47 62 48 42 49 61 50
REMARK SMILES IDX 43 51 46 52 60 53 79 54 44 55 45 56 59 58 80 59 47 60 31 61
REMARK SMILES IDX 32 62 40 63 33 64 34 65 38 66 41 67 35 68 36 69 39 70 37 71
REMARK SMILES IDX 63 72 64 73 72 74 65 75 66 76 70 77 73 78 67 79 68 80 71 81
REMARK SMILES IDX 69 82 48 83 49 84 57 85 50 86 51 87 55 88 58 89 52 90 53 91
REMARK SMILES IDX 56 92 54 93
REMARK H PARENT 15 5 8 12 5 18 5 19 5 20 12 22 19 27 78 46 46 57
REMARK Flexibility Score: inf
ROOT
ATOM      1  C   UNL A   1      36.733  21.233  24.936  1.00  0.00     0.117 C 
ENDROOT
BRANCH   1   2
ATOM      2  N   UNL A   1      36.080  21.454  26.213  1.00  0.00    -0.353 N 
ATOM      3  C   UNL A   1      34.758  21.623  26.502  1.00  0.00     0.253 C 
ATOM      4  O   UNL A   1      34.460  21.729  27.697  1.00  0.00    -0.272 OA
ATOM      5  H   UNL A   1      36.684  21.487  26.990  1.00  0.00     0.163 HD
BRANCH   3   6
ATOM      6  C   UNL A   1      33.675  21.670  25.382  1.00  0.00     0.157 C 
ATOM      7  C   UNL A   1      32.858  22.965  25.595  1.00  0.00     0.055 C 
BRANCH   6   8
ATOM      8  C   UNL A   1      32.684  20.485  25.476  1.00  0.00     0.161 C 
BRANCH   8   9
ATOM      9  N   UNL A   1      32.312  19.859  24.217  1.00  0.00    -0.347 N 
ATOM     10  C   UNL A   1      32.682  18.702  23.599  1.00  0.00     0.281 C 
ATOM     11  O   UNL A   1      32.230  18.556  22.456  1.00  0.00    -0.268 OA
ATOM     12  H   UNL A   1      31.656  20.382  23.702  1.00  0.00     0.163 HD
BRANCH  10  13
ATOM     13  C   UNL A   1      33.503  17.569  24.298  1.00  0.00     0.170 C 
ATOM     14  C   UNL A   1      34.034  16.594  23.213  1.00  0.00     0.090 C 
BRANCH  13  15
ATOM     15  C   UNL A   1      32.599  16.737  25.244  1.00  0.00     0.075 C 
ATOM     16  C   UNL A   1      32.943  15.271  25.466  1.00  0.00     0.011 C 
ENDBRANCH  13  15
BRANCH  13  17
ATOM     17  N   UNL A   1      34.715  18.087  24.967  1.00  0.00    -0.345 N 
ATOM     18  H   UNL A   1      34.957  18.997  24.577  1.00  0.00     0.345 HD
ATOM     19  H   UNL A   1      35.488  17.437  24.821  1.00  0.00     0.345 HD
ATOM     20  H   UNL A   1      34.536  18.182  25.967  1.00  0.00     0.345 HD
ENDBRANCH  13  17
ENDBRANCH  10  13
ENDBRANCH   8   9
ENDBRANCH   6   8
BRANCH   6  21
ATOM     21  O   UNL A   1      34.191  21.706  24.046  1.00  0.00    -0.378 OA
ATOM     22  H   UNL A   1      33.714  21.063  23.498  1.00  0.00     0.212 HD
ENDBRANCH   6  21
ENDBRANCH   3   6
ENDBRANCH   1   2
BRANCH   1  23
ATOM     23  C   UNL A   1      37.741  20.101  24.976  1.00  0.00     0.042 C 
BRANCH  23  24
ATOM     24  C   UNL A   1      39.017  20.453  25.721  1.00  0.00     0.118 C 
BRANCH  24  25
ATOM     25  N   UNL A   1      39.953  19.339  25.833  1.00  0.00    -0.352 N 
ATOM     26  C   UNL A   1      41.311  19.323  26.064  1.00  0.00     0.251 C 
ATOM     27  H   UNL A   1      39.545  18.449  25.727  1.00  0.00     0.163 HD
ATOM     28  O   UNL A   1      41.939  18.278  26.003  1.00  0.00    -0.269 OA
BRANCH  26  29
ATOM     29  C   UNL A   1      42.022  20.588  26.346  1.00  0.00     0.039 A 
ATOM     30  C   UNL A   1      42.291  21.464  25.290  1.00  0.00     0.014 A 
ATOM     31  C   UNL A   1      42.397  20.924  27.645  1.00  0.00     0.014 A 
ATOM     32  C   UNL A   1      42.843  22.719  25.558  1.00  0.00     0.010 A 
ATOM     33  C   UNL A   1      42.827  22.214  27.924  1.00  0.00     0.010 A 
ATOM     34  C   UNL A   1      43.062  23.124  26.884  1.00  0.00    -0.014 A 
BRANCH  34  35
ATOM     35  C   UNL A   1      43.547  24.487  27.217  1.00  0.00     0.031 A 
ATOM     36  C   UNL A   1      42.592  25.504  27.780  1.00  0.00     0.074 A 
ATOM     37  C   UNL A   1      44.813  24.840  26.920  1.00  0.00     0.049 A 
ATOM     38  N   UNL A   1      42.780  26.777  28.017  1.00  0.00    -0.248 NA
ATOM     39  C   UNL A   1      41.227  25.036  28.068  1.00  0.00     0.031 C 
ATOM     40  C   UNL A   1      45.815  23.968  26.304  1.00  0.00     0.029 A 
ATOM     41  N   UNL A   1      45.469  26.034  27.081  1.00  0.00    -0.354 N 
ATOM     42  C   UNL A   1      41.552  27.264  28.444  1.00  0.00     0.074 A 
ATOM     43  C   UNL A   1      40.611  26.167  28.371  1.00  0.00     0.031 C 
ATOM     44  C   UNL A   1      46.965  24.647  26.167  1.00  0.00     0.029 A 
ATOM     45  C   UNL A   1      46.771  26.010  26.646  1.00  0.00     0.049 A 
ATOM     46  H   UNL A   1      45.045  26.833  27.472  1.00  0.00     0.167 HD
ATOM     47  C   UNL A   1      41.241  28.506  28.885  1.00  0.00     0.037 A 
ATOM     48  C   UNL A   1      47.702  26.983  26.633  1.00  0.00     0.037 A 
ATOM     49  C   UNL A   1      42.193  29.576  29.006  1.00  0.00     0.049 A 
ATOM     50  C   UNL A   1      47.349  28.342  27.170  1.00  0.00     0.074 A 
ATOM     51  C   UNL A   1      42.006  30.845  29.525  1.00  0.00     0.029 A 
ATOM     52  N   UNL A   1      43.520  29.499  28.604  1.00  0.00    -0.354 N 
ATOM     53  N   UNL A   1      46.205  28.772  27.642  1.00  0.00    -0.248 NA
ATOM     54  C   UNL A   1      48.419  29.348  27.180  1.00  0.00     0.031 C 
ATOM     55  C   UNL A   1      43.209  31.548  29.401  1.00  0.00     0.029 A 
ATOM     56  C   UNL A   1      44.159  30.703  28.848  1.00  0.00     0.049 A 
ATOM     57  H   UNL A   1      43.944  28.705  28.204  1.00  0.00     0.167 HD
ATOM     58  C   UNL A   1      46.420  30.088  28.025  1.00  0.00     0.074 A 
ATOM     59  C   UNL A   1      47.810  30.382  27.744  1.00  0.00     0.031 C 
ATOM     60  C   UNL A   1      45.545  30.974  28.563  1.00  0.00     0.037 A 
BRANCH  47  61
ATOM     61  C   UNL A   1      39.814  28.761  29.276  1.00  0.00     0.064 A 
ATOM     62  C   UNL A   1      39.356  28.544  30.585  1.00  0.00     0.173 A 
ATOM     63  C   UNL A   1      38.889  29.228  28.329  1.00  0.00     0.173 A 
ATOM     64  F   UNL A   1      40.196  28.086  31.526  1.00  0.00    -0.203 F 
ATOM     65  C   UNL A   1      38.019  28.741  30.921  1.00  0.00     0.198 A 
ATOM     66  C   UNL A   1      37.561  29.457  28.677  1.00  0.00     0.198 A 
ATOM     67  F   UNL A   1      39.273  29.458  27.065  1.00  0.00    -0.203 F 
ATOM     68  F   UNL A   1      37.593  28.461  32.161  1.00  0.00    -0.200 F 
ATOM     69  C   UNL A   1      37.124  29.202  29.968  1.00  0.00     0.200 A 
ATOM     70  F   UNL A   1      36.698  29.915  27.758  1.00  0.00    -0.200 F 
ATOM     71  F   UNL A   1      35.838  29.389  30.292  1.00  0.00    -0.200 F 
ENDBRANCH  47  61
BRANCH  48  72
ATOM     72  C   UNL A   1      49.068  26.685  26.129  1.00  0.00     0.064 A 
ATOM     73  C   UNL A   1      49.435  27.019  24.818  1.00  0.00     0.173 A 
ATOM     74  C   UNL A   1      50.036  26.089  26.949  1.00  0.00     0.173 A 
ATOM     75  F   UNL A   1      48.537  27.573  23.992  1.00  0.00    -0.203 F 
ATOM     76  C   UNL A   1      50.719  26.758  24.343  1.00  0.00     0.198 A 
ATOM     77  C   UNL A   1      51.327  25.851  26.480  1.00  0.00     0.198 A 
ATOM     78  F   UNL A   1      49.735  25.757  28.213  1.00  0.00    -0.203 F 
ATOM     79  F   UNL A   1      51.036  27.057  23.076  1.00  0.00    -0.200 F 
ATOM     80  C   UNL A   1      51.666  26.181  25.176  1.00  0.00     0.200 A 
ATOM     81  F   UNL A   1      52.244  25.307  27.292  1.00  0.00    -0.200 F 
ATOM     82  F   UNL A   1      52.903  25.940  24.721  1.00  0.00    -0.200 F 
ENDBRANCH  48  72
BRANCH  60  83
ATOM     83  C   UNL A   1      46.070  32.337  28.905  1.00  0.00     0.064 A 
ATOM     84  C   UNL A   1      46.011  33.397  27.990  1.00  0.00     0.173 A 
ATOM     85  C   UNL A   1      46.595  32.593  30.180  1.00  0.00     0.173 A 
ATOM     86  F   UNL A   1      45.532  33.197  26.753  1.00  0.00    -0.203 F 
ATOM     87  C   UNL A   1      46.478  34.663  28.334  1.00  0.00     0.198 A 
ATOM     88  C   UNL A   1      47.036  33.867  30.530  1.00  0.00     0.198 A 
ATOM     89  F   UNL A   1      46.667  31.612  31.092  1.00  0.00    -0.203 F 
ATOM     90  F   UNL A   1      46.451  35.653  27.431  1.00  0.00    -0.200 F 
ATOM     91  C   UNL A   1      46.983  34.898  29.604  1.00  0.00     0.200 A 
ATOM     92  F   UNL A   1      47.510  34.095  31.761  1.00  0.00    -0.200 F 
ATOM     93  F   UNL A   1      47.423  36.120  29.936  1.00  0.00    -0.200 F 
ENDBRANCH  60  83
ENDBRANCH  34  35
ENDBRANCH  26  29
ENDBRANCH  24  25
ENDBRANCH  23  24
ENDBRANCH   1  23
TORSDOF 16
ENDMDL
MODEL 3
REMARK VINA RESULT:     -11.1      0.605      7.548
REMARK SMILES CC[C@](C)([NH3+])C(=O)NC[C@](C)(O)C(=O)NCCCNC(=O)c1ccc(-c2c3nc(c(-c4c(F)c(F)c(F)c(F)c4F)c4ccc([nH]4)c(-c4c(F)c(F)c(F)c(F)c4F)c4nc(c(-c5c(F)c(F)c(F)c(F)c5F)c5ccc2[nH]5)C=C4)C=C3)cc1
REMARK SMILES IDX 16 1 15 2 13 3 14 4 10 6 11 7 9 8 8 9 6 10 7 11 3 13 4 14
REMARK SMILES IDX 2 15 1 16 5 17 12 21 17 23 18 24 19 25 20 26 21 28 22 29
REMARK SMILES IDX 23 30 84 31 24 32 83 33 25 34 26 35 27 36 77 37 28 38 82 39
REMARK SMILES IDX 76 40 78 41 29 42 81 43 75 44 74 45 30 47 62 48 42 49 61 50
REMARK SMILES IDX 43 51 46 52 60 53 79 54 44 55 45 56 59 58 80 59 47 60 31 61
REMARK SMILES IDX 32 62 40 63 33 64 34 65 38 66 41 67 35 68 36 69 39 70 37 71
REMARK SMILES IDX 63 72 64 73 72 74 65 75 66 76 70 77 73 78 67 79 68 80 71 81
REMARK SMILES IDX 69 82 48 83 49 84 57 85 50 86 51 87 55 88 58 89 52 90 53 91
REMARK SMILES IDX 56 92 54 93
REMARK H PARENT 15 5 8 12 5 18 5 19 5 20 12 22 19 27 78 46 46 57
REMARK Flexibility Score: inf
ROOT
ATOM      1  C   UNL A   1      31.584  30.674  26.375  1.00  0.00     0.117 C 
ENDROOT
BRANCH   1   2
ATOM      2  N   UNL A   1      31.380  30.246  25.004  1.00  0.00    -0.353 N 
ATOM      3  C   UNL A   1      31.949  29.216  24.314  1.00  0.00     0.253 C 
ATOM      4  O   UNL A   1      31.544  29.028  23.162  1.00  0.00    -0.272 OA
ATOM      5  H   UNL A   1      30.731  30.781  24.492  1.00  0.00     0.163 HD
BRANCH   3   6
ATOM      6  C   UNL A   1      33.050  28.315  24.950  1.00  0.00     0.157 C 
ATOM      7  C   UNL A   1      33.614  27.421  23.822  1.00  0.00     0.055 C 
BRANCH   6   8
ATOM      8  C   UNL A   1      32.479  27.372  26.037  1.00  0.00     0.161 C 
BRANCH   8   9
ATOM      9  N   UNL A   1      33.066  26.043  26.106  1.00  0.00    -0.347 N 
ATOM     10  C   UNL A   1      32.545  24.784  26.059  1.00  0.00     0.281 C 
ATOM     11  O   UNL A   1      33.361  23.877  26.269  1.00  0.00    -0.268 OA
ATOM     12  H   UNL A   1      34.045  26.056  26.208  1.00  0.00     0.163 HD
BRANCH  10  13
ATOM     13  C   UNL A   1      31.069  24.469  25.649  1.00  0.00     0.170 C 
ATOM     14  C   UNL A   1      30.853  22.933  25.700  1.00  0.00     0.090 C 
BRANCH  13  15
ATOM     15  C   UNL A   1      30.797  24.913  24.187  1.00  0.00     0.075 C 
ATOM     16  C   UNL A   1      29.767  26.006  23.946  1.00  0.00     0.011 C 
ENDBRANCH  13  15
BRANCH  13  17
ATOM     17  N   UNL A   1      30.091  25.022  26.609  1.00  0.00    -0.345 N 
ATOM     18  H   UNL A   1      30.258  26.021  26.728  1.00  0.00     0.345 HD
ATOM     19  H   UNL A   1      30.193  24.549  27.508  1.00  0.00     0.345 HD
ATOM     20  H   UNL A   1      29.146  24.875  26.254  1.00  0.00     0.345 HD
ENDBRANCH  13  17
ENDBRANCH  10  13
ENDBRANCH   8   9
ENDBRANCH   6   8
BRANCH   6  21
ATOM     21  O   UNL A   1      34.154  29.026  25.524  1.00  0.00    -0.378 OA
ATOM     22  H   UNL A   1      34.455  28.565  26.322  1.00  0.00     0.212 HD
ENDBRANCH   6  21
ENDBRANCH   3   6
ENDBRANCH   1   2
BRANCH   1  23
ATOM     23  C   UNL A   1      31.456  32.174  26.551  1.00  0.00     0.042 C 
BRANCH  23  24
ATOM     24  C   UNL A   1      32.662  32.810  27.222  1.00  0.00     0.118 C 
BRANCH  24  25
ATOM     25  N   UNL A   1      32.430  34.183  27.658  1.00  0.00    -0.352 N 
ATOM     26  C   UNL A   1      33.032  34.927  28.649  1.00  0.00     0.251 C 
ATOM     27  H   UNL A   1      31.725  34.658  27.160  1.00  0.00     0.163 HD
ATOM     28  O   UNL A   1      32.607  36.034  28.938  1.00  0.00    -0.269 OA
BRANCH  26  29
ATOM     29  C   UNL A   1      34.177  34.365  29.396  1.00  0.00     0.039 A 
ATOM     30  C   UNL A   1      33.928  33.597  30.538  1.00  0.00     0.014 A 
ATOM     31  C   UNL A   1      35.484  34.567  28.961  1.00  0.00     0.014 A 
ATOM     32  C   UNL A   1      34.988  32.951  31.179  1.00  0.00     0.010 A 
ATOM     33  C   UNL A   1      36.517  33.826  29.520  1.00  0.00     0.010 A 
ATOM     34  C   UNL A   1      36.283  33.015  30.640  1.00  0.00    -0.014 A 
BRANCH  34  35
ATOM     35  C   UNL A   1      37.415  32.258  31.228  1.00  0.00     0.031 A 
ATOM     36  C   UNL A   1      37.919  32.611  32.601  1.00  0.00     0.074 A 
ATOM     37  C   UNL A   1      38.054  31.328  30.492  1.00  0.00     0.049 A 
ATOM     38  N   UNL A   1      38.969  32.163  33.241  1.00  0.00    -0.248 NA
ATOM     39  C   UNL A   1      37.168  33.643  33.332  1.00  0.00     0.031 C 
ATOM     40  C   UNL A   1      37.709  30.946  29.121  1.00  0.00     0.029 A 
ATOM     41  N   UNL A   1      39.141  30.544  30.789  1.00  0.00    -0.354 N 
ATOM     42  C   UNL A   1      39.023  32.884  34.426  1.00  0.00     0.074 A 
ATOM     43  C   UNL A   1      37.940  33.843  34.388  1.00  0.00     0.031 C 
ATOM     44  C   UNL A   1      38.547  29.983  28.708  1.00  0.00     0.029 A 
ATOM     45  C   UNL A   1      39.512  29.707  29.767  1.00  0.00     0.049 A 
ATOM     46  H   UNL A   1      39.609  30.579  31.655  1.00  0.00     0.167 HD
ATOM     47  C   UNL A   1      39.878  32.742  35.466  1.00  0.00     0.037 A 
ATOM     48  C   UNL A   1      40.522  28.819  29.691  1.00  0.00     0.037 A 
ATOM     49  C   UNL A   1      40.919  31.751  35.518  1.00  0.00     0.049 A 
ATOM     50  C   UNL A   1      41.433  28.644  30.874  1.00  0.00     0.074 A 
ATOM     51  C   UNL A   1      41.783  31.460  36.558  1.00  0.00     0.029 A 
ATOM     52  N   UNL A   1      41.232  30.883  34.481  1.00  0.00    -0.354 N 
ATOM     53  N   UNL A   1      41.428  29.279  32.021  1.00  0.00    -0.248 NA
ATOM     54  C   UNL A   1      42.483  27.625  30.756  1.00  0.00     0.031 C 
ATOM     55  C   UNL A   1      42.646  30.443  36.137  1.00  0.00     0.029 A 
ATOM     56  C   UNL A   1      42.289  30.067  34.851  1.00  0.00     0.049 A 
ATOM     57  H   UNL A   1      40.772  30.852  33.612  1.00  0.00     0.167 HD
ATOM     58  C   UNL A   1      42.457  28.724  32.769  1.00  0.00     0.074 A 
ATOM     59  C   UNL A   1      43.055  27.689  31.951  1.00  0.00     0.031 C 
ATOM     60  C   UNL A   1      42.868  29.041  34.022  1.00  0.00     0.037 A 
BRANCH  47  61
ATOM     61  C   UNL A   1      39.711  33.677  36.628  1.00  0.00     0.064 A 
ATOM     62  C   UNL A   1      38.902  33.351  37.727  1.00  0.00     0.173 A 
ATOM     63  C   UNL A   1      40.368  34.917  36.645  1.00  0.00     0.173 A 
ATOM     64  F   UNL A   1      38.241  32.184  37.757  1.00  0.00    -0.203 F 
ATOM     65  C   UNL A   1      38.719  34.248  38.777  1.00  0.00     0.198 A 
ATOM     66  C   UNL A   1      40.212  35.797  37.712  1.00  0.00     0.198 A 
ATOM     67  F   UNL A   1      41.159  35.277  35.623  1.00  0.00    -0.203 F 
ATOM     68  F   UNL A   1      37.887  33.941  39.782  1.00  0.00    -0.200 F 
ATOM     69  C   UNL A   1      39.379  35.468  38.771  1.00  0.00     0.200 A 
ATOM     70  F   UNL A   1      40.859  36.971  37.711  1.00  0.00    -0.200 F 
ATOM     71  F   UNL A   1      39.202  36.331  39.780  1.00  0.00    -0.200 F 
ENDBRANCH  47  61
BRANCH  48  72
ATOM     72  C   UNL A   1      40.691  28.002  28.462  1.00  0.00     0.064 A 
ATOM     73  C   UNL A   1      41.489  28.459  27.403  1.00  0.00     0.173 A 
ATOM     74  C   UNL A   1      40.086  26.745  28.329  1.00  0.00     0.173 A 
ATOM     75  F   UNL A   1      42.073  29.664  27.478  1.00  0.00    -0.203 F 
ATOM     76  C   UNL A   1      41.667  27.692  26.254  1.00  0.00     0.198 A 
ATOM     77  C   UNL A   1      40.285  25.968  27.189  1.00  0.00     0.198 A 
ATOM     78  F   UNL A   1      39.319  26.261  29.318  1.00  0.00    -0.203 F 
ATOM     79  F   UNL A   1      42.408  28.166  25.243  1.00  0.00    -0.200 F 
ATOM     80  C   UNL A   1      41.071  26.445  26.151  1.00  0.00     0.200 A 
ATOM     81  F   UNL A   1      39.718  24.757  27.099  1.00  0.00    -0.200 F 
ATOM     82  F   UNL A   1      41.250  25.703  25.049  1.00  0.00    -0.200 F 
ENDBRANCH  48  72
BRANCH  60  83
ATOM     83  C   UNL A   1      44.003  28.245  34.594  1.00  0.00     0.064 A 
ATOM     84  C   UNL A   1      45.331  28.687  34.499  1.00  0.00     0.173 A 
ATOM     85  C   UNL A   1      43.753  27.051  35.286  1.00  0.00     0.173 A 
ATOM     86  F   UNL A   1      45.621  29.815  33.834  1.00  0.00    -0.203 F 
ATOM     87  C   UNL A   1      46.370  27.950  35.060  1.00  0.00     0.198 A 
ATOM     88  C   UNL A   1      44.791  26.330  35.869  1.00  0.00     0.198 A 
ATOM     89  F   UNL A   1      42.499  26.590  35.409  1.00  0.00    -0.203 F 
ATOM     90  F   UNL A   1      47.636  28.367  34.923  1.00  0.00    -0.200 F 
ATOM     91  C   UNL A   1      46.099  26.777  35.751  1.00  0.00     0.200 A 
ATOM     92  F   UNL A   1      44.527  25.206  36.547  1.00  0.00    -0.200 F 
ATOM     93  F   UNL A   1      47.100  26.073  36.297  1.00  0.00    -0.200 F 
ENDBRANCH  60  83
ENDBRANCH  34  35
ENDBRANCH  26  29
ENDBRANCH  24  25
ENDBRANCH  23  24
ENDBRANCH   1  23
TORSDOF 16
ENDMDL
