MODEL 1
REMARK VINA RESULT:     -12.2      0.000      0.000
REMARK SMILES C=Cc1cccc(-c2ccc([C@@H](C)C(=O)NCCCNC(=O)c3ccc(-c4c5nc(c(-c6c(F)c(F)c(F)c(F)c6F)c6ccc([nH]6)c(-c6c(F)c(F)c(F)c(F)c6F)c6nc(c(-c7c(F)c(F)c(F)c(F)c7F)c7ccc4[nH]7)C=C6)C=C5)cc3)cc2)c1
REMARK SMILES IDX 17 1 16 2 14 3 15 4 12 6 13 7 11 8 8 9 9 10 87 11 10 12
REMARK SMILES IDX 86 13 7 14 3 15 4 16 88 17 5 18 6 19 2 20 1 21 18 22 19 23
REMARK SMILES IDX 20 24 21 25 22 27 23 28 24 29 85 30 25 31 84 32 26 33 27 34
REMARK SMILES IDX 28 35 78 36 29 37 83 38 77 39 79 40 30 41 82 42 76 43 75 44
REMARK SMILES IDX 31 46 63 47 43 48 62 49 44 50 47 51 61 52 80 53 45 54 46 55
REMARK SMILES IDX 60 57 81 58 48 59 32 60 33 61 41 62 34 63 35 64 39 65 42 66
REMARK SMILES IDX 36 67 37 68 40 69 38 70 64 71 65 72 73 73 66 74 67 75 71 76
REMARK SMILES IDX 74 77 68 78 69 79 72 80 70 81 49 82 50 83 58 84 51 85 52 86
REMARK SMILES IDX 56 87 59 88 53 89 54 90 57 91 55 92
REMARK H PARENT 16 5 20 26 79 45 47 56
REMARK Flexibility Score: inf
ROOT
ATOM      1  C   UNL A   1      32.515  27.363  23.526  1.00  0.00     0.117 C 
ENDROOT
BRANCH   1   2
ATOM      2  N   UNL A   1      32.742  26.787  22.217  1.00  0.00    -0.356 N 
ATOM      3  C   UNL A   1      32.976  25.507  21.817  1.00  0.00     0.227 C 
ATOM      4  O   UNL A   1      33.207  25.348  20.611  1.00  0.00    -0.274 OA
ATOM      5  H   UNL A   1      32.724  27.440  21.481  1.00  0.00     0.163 HD
BRANCH   3   6
ATOM      6  C   UNL A   1      32.968  24.295  22.760  1.00  0.00     0.105 C 
ATOM      7  C   UNL A   1      31.702  24.156  23.607  1.00  0.00     0.023 C 
BRANCH   6   8
ATOM      8  C   UNL A   1      34.287  24.095  23.489  1.00  0.00    -0.036 A 
ATOM      9  C   UNL A   1      36.664  23.627  25.014  1.00  0.00    -0.018 A 
ATOM     10  C   UNL A   1      36.485  23.077  23.735  1.00  0.00     0.009 A 
ATOM     11  C   UNL A   1      35.635  24.453  25.494  1.00  0.00     0.009 A 
ATOM     12  C   UNL A   1      35.334  23.328  22.975  1.00  0.00     0.005 A 
ATOM     13  C   UNL A   1      34.463  24.668  24.756  1.00  0.00     0.005 A 
BRANCH   9  14
ATOM     14  C   UNL A   1      37.875  23.336  25.821  1.00  0.00    -0.018 A 
ATOM     15  C   UNL A   1      39.680  21.805  26.501  1.00  0.00    -0.026 A 
ATOM     16  C   UNL A   1      40.193  22.788  27.349  1.00  0.00     0.008 A 
ATOM     17  C   UNL A   1      38.528  22.089  25.748  1.00  0.00     0.016 A 
ATOM     18  C   UNL A   1      39.575  24.033  27.436  1.00  0.00     0.001 A 
ATOM     19  C   UNL A   1      38.427  24.298  26.687  1.00  0.00     0.009 A 
BRANCH  15  20
ATOM     20  C   UNL A   1      40.327  20.487  26.475  1.00  0.00     0.000 C 
ATOM     21  C   UNL A   1      41.330  20.119  27.283  1.00  0.00     0.009 C 
ENDBRANCH  15  20
ENDBRANCH   9  14
ENDBRANCH   6   8
ENDBRANCH   3   6
ENDBRANCH   1   2
BRANCH   1  22
ATOM     22  C   UNL A   1      33.357  28.613  23.767  1.00  0.00     0.042 C 
BRANCH  22  23
ATOM     23  C   UNL A   1      33.719  28.850  25.228  1.00  0.00     0.118 C 
BRANCH  23  24
ATOM     24  N   UNL A   1      33.093  30.049  25.765  1.00  0.00    -0.352 N 
ATOM     25  C   UNL A   1      33.421  30.828  26.846  1.00  0.00     0.251 C 
ATOM     26  H   UNL A   1      32.299  30.352  25.269  1.00  0.00     0.163 HD
ATOM     27  O   UNL A   1      32.620  31.681  27.225  1.00  0.00    -0.269 OA
BRANCH  25  28
ATOM     28  C   UNL A   1      34.708  30.672  27.567  1.00  0.00     0.039 A 
ATOM     29  C   UNL A   1      34.980  29.444  28.183  1.00  0.00     0.014 A 
ATOM     30  C   UNL A   1      35.605  31.731  27.726  1.00  0.00     0.014 A 
ATOM     31  C   UNL A   1      36.152  29.272  28.928  1.00  0.00     0.010 A 
ATOM     32  C   UNL A   1      36.810  31.536  28.401  1.00  0.00     0.010 A 
ATOM     33  C   UNL A   1      37.085  30.313  29.031  1.00  0.00    -0.014 A 
BRANCH  33  34
ATOM     34  C   UNL A   1      38.322  30.164  29.843  1.00  0.00     0.031 A 
ATOM     35  C   UNL A   1      39.494  29.397  29.288  1.00  0.00     0.074 A 
ATOM     36  C   UNL A   1      38.377  30.667  31.091  1.00  0.00     0.049 A 
ATOM     37  N   UNL A   1      40.627  29.081  29.864  1.00  0.00    -0.248 NA
ATOM     38  C   UNL A   1      39.363  28.893  27.912  1.00  0.00     0.031 C 
ATOM     39  C   UNL A   1      37.297  31.396  31.760  1.00  0.00     0.029 A 
ATOM     40  N   UNL A   1      39.382  30.633  32.025  1.00  0.00    -0.354 N 
ATOM     41  C   UNL A   1      41.323  28.314  28.936  1.00  0.00     0.074 A 
ATOM     42  C   UNL A   1      40.474  28.184  27.773  1.00  0.00     0.031 C 
ATOM     43  C   UNL A   1      37.704  31.753  32.988  1.00  0.00     0.029 A 
ATOM     44  C   UNL A   1      39.059  31.255  33.206  1.00  0.00     0.049 A 
ATOM     45  H   UNL A   1      40.253  30.203  31.864  1.00  0.00     0.167 HD
ATOM     46  C   UNL A   1      42.564  27.784  29.039  1.00  0.00     0.037 A 
ATOM     47  C   UNL A   1      39.776  31.403  34.337  1.00  0.00     0.037 A 
ATOM     48  C   UNL A   1      43.433  27.965  30.171  1.00  0.00     0.049 A 
ATOM     49  C   UNL A   1      41.171  30.842  34.404  1.00  0.00     0.074 A 
ATOM     50  C   UNL A   1      44.735  27.527  30.340  1.00  0.00     0.029 A 
ATOM     51  N   UNL A   1      43.088  28.652  31.326  1.00  0.00    -0.354 N 
ATOM     52  N   UNL A   1      41.840  30.174  33.496  1.00  0.00    -0.248 NA
ATOM     53  C   UNL A   1      41.916  31.068  35.650  1.00  0.00     0.031 C 
ATOM     54  C   UNL A   1      45.170  27.925  31.609  1.00  0.00     0.029 A 
ATOM     55  C   UNL A   1      44.152  28.644  32.213  1.00  0.00     0.049 A 
ATOM     56  H   UNL A   1      42.217  29.080  31.490  1.00  0.00     0.167 HD
ATOM     57  C   UNL A   1      43.093  29.935  34.044  1.00  0.00     0.074 A 
ATOM     58  C   UNL A   1      43.096  30.536  35.361  1.00  0.00     0.031 C 
ATOM     59  C   UNL A   1      44.148  29.277  33.505  1.00  0.00     0.037 A 
BRANCH  46  60
ATOM     60  C   UNL A   1      43.070  26.961  27.891  1.00  0.00     0.064 A 
ATOM     61  C   UNL A   1      42.907  25.568  27.856  1.00  0.00     0.173 A 
ATOM     62  C   UNL A   1      43.675  27.580  26.787  1.00  0.00     0.173 A 
ATOM     63  F   UNL A   1      42.345  24.928  28.892  1.00  0.00    -0.203 F 
ATOM     64  C   UNL A   1      43.349  24.823  26.765  1.00  0.00     0.198 A 
ATOM     65  C   UNL A   1      44.092  26.836  25.687  1.00  0.00     0.198 A 
ATOM     66  F   UNL A   1      43.849  28.910  26.769  1.00  0.00    -0.203 F 
ATOM     67  F   UNL A   1      43.216  23.490  26.769  1.00  0.00    -0.200 F 
ATOM     68  C   UNL A   1      43.933  25.457  25.679  1.00  0.00     0.200 A 
ATOM     69  F   UNL A   1      44.645  27.450  24.633  1.00  0.00    -0.200 F 
ATOM     70  F   UNL A   1      44.347  24.740  24.625  1.00  0.00    -0.200 F 
ENDBRANCH  46  60
BRANCH  47  71
ATOM     71  C   UNL A   1      39.206  32.143  35.493  1.00  0.00     0.064 A 
ATOM     72  C   UNL A   1      39.458  33.512  35.662  1.00  0.00     0.173 A 
ATOM     73  C   UNL A   1      38.426  31.498  36.463  1.00  0.00     0.173 A 
ATOM     74  F   UNL A   1      40.217  34.166  34.771  1.00  0.00    -0.203 F 
ATOM     75  C   UNL A   1      38.975  34.201  36.771  1.00  0.00     0.198 A 
ATOM     76  C   UNL A   1      37.920  32.195  37.558  1.00  0.00     0.198 A 
ATOM     77  F   UNL A   1      38.154  30.190  36.345  1.00  0.00    -0.203 F 
ATOM     78  F   UNL A   1      39.276  35.496  36.936  1.00  0.00    -0.200 F 
ATOM     79  C   UNL A   1      38.204  33.543  37.716  1.00  0.00     0.200 A 
ATOM     80  F   UNL A   1      37.166  31.559  38.465  1.00  0.00    -0.200 F 
ATOM     81  F   UNL A   1      37.743  34.206  38.787  1.00  0.00    -0.200 F 
ENDBRANCH  47  71
BRANCH  59  82
ATOM     82  C   UNL A   1      45.412  29.228  34.310  1.00  0.00     0.064 A 
ATOM     83  C   UNL A   1      46.394  30.221  34.203  1.00  0.00     0.173 A 
ATOM     84  C   UNL A   1      45.622  28.187  35.227  1.00  0.00     0.173 A 
ATOM     85  F   UNL A   1      46.243  31.228  33.329  1.00  0.00    -0.203 F 
ATOM     86  C   UNL A   1      47.555  30.163  34.970  1.00  0.00     0.198 A 
ATOM     87  C   UNL A   1      46.771  28.145  36.011  1.00  0.00     0.198 A 
ATOM     88  F   UNL A   1      44.707  27.216  35.371  1.00  0.00    -0.203 F 
ATOM     89  F   UNL A   1      48.502  31.098  34.820  1.00  0.00    -0.200 F 
ATOM     90  C   UNL A   1      47.740  29.129  35.876  1.00  0.00     0.200 A 
ATOM     91  F   UNL A   1      46.943  27.152  36.894  1.00  0.00    -0.200 F 
ATOM     92  F   UNL A   1      48.856  29.076  36.615  1.00  0.00    -0.200 F 
ENDBRANCH  59  82
ENDBRANCH  33  34
ENDBRANCH  25  28
ENDBRANCH  23  24
ENDBRANCH  22  23
ENDBRANCH   1  22
TORSDOF 13
ENDMDL
MODEL 2
REMARK VINA RESULT:     -12.2      0.623      7.392
REMARK SMILES C=Cc1cccc(-c2ccc([C@@H](C)C(=O)NCCCNC(=O)c3ccc(-c4c5nc(c(-c6c(F)c(F)c(F)c(F)c6F)c6ccc([nH]6)c(-c6c(F)c(F)c(F)c(F)c6F)c6nc(c(-c7c(F)c(F)c(F)c(F)c7F)c7ccc4[nH]7)C=C6)C=C5)cc3)cc2)c1
REMARK SMILES IDX 17 1 16 2 14 3 15 4 12 6 13 7 11 8 8 9 9 10 87 11 10 12
REMARK SMILES IDX 86 13 7 14 3 15 4 16 88 17 5 18 6 19 2 20 1 21 18 22 19 23
REMARK SMILES IDX 20 24 21 25 22 27 23 28 24 29 85 30 25 31 84 32 26 33 27 34
REMARK SMILES IDX 28 35 78 36 29 37 83 38 77 39 79 40 30 41 82 42 76 43 75 44
REMARK SMILES IDX 31 46 63 47 43 48 62 49 44 50 47 51 61 52 80 53 45 54 46 55
REMARK SMILES IDX 60 57 81 58 48 59 32 60 33 61 41 62 34 63 35 64 39 65 42 66
REMARK SMILES IDX 36 67 37 68 40 69 38 70 64 71 65 72 73 73 66 74 67 75 71 76
REMARK SMILES IDX 74 77 68 78 69 79 72 80 70 81 49 82 50 83 58 84 51 85 52 86
REMARK SMILES IDX 56 87 59 88 53 89 54 90 57 91 55 92
REMARK H PARENT 16 5 20 26 79 45 47 56
REMARK Flexibility Score: inf
ROOT
ATOM      1  C   UNL A   1      32.454  27.336  23.392  1.00  0.00     0.117 C 
ENDROOT
BRANCH   1   2
ATOM      2  N   UNL A   1      32.678  26.726  22.097  1.00  0.00    -0.356 N 
ATOM      3  C   UNL A   1      32.909  25.436  21.730  1.00  0.00     0.227 C 
ATOM      4  O   UNL A   1      33.139  25.245  20.528  1.00  0.00    -0.274 OA
ATOM      5  H   UNL A   1      32.662  27.360  21.346  1.00  0.00     0.163 HD
BRANCH   3   6
ATOM      6  C   UNL A   1      32.899  24.248  22.704  1.00  0.00     0.105 C 
ATOM      7  C   UNL A   1      31.639  24.140  23.564  1.00  0.00     0.023 C 
BRANCH   6   8
ATOM      8  C   UNL A   1      34.222  24.057  23.427  1.00  0.00    -0.036 A 
ATOM      9  C   UNL A   1      36.608  23.609  24.946  1.00  0.00    -0.018 A 
ATOM     10  C   UNL A   1      36.416  23.029  23.681  1.00  0.00     0.009 A 
ATOM     11  C   UNL A   1      35.589  24.453  25.413  1.00  0.00     0.009 A 
ATOM     12  C   UNL A   1      35.261  23.270  22.924  1.00  0.00     0.005 A 
ATOM     13  C   UNL A   1      34.412  24.658  24.679  1.00  0.00     0.005 A 
BRANCH   9  14
ATOM     14  C   UNL A   1      37.823  23.329  25.750  1.00  0.00    -0.018 A 
ATOM     15  C   UNL A   1      39.627  21.804  26.448  1.00  0.00    -0.026 A 
ATOM     16  C   UNL A   1      40.150  22.802  27.273  1.00  0.00     0.008 A 
ATOM     17  C   UNL A   1      38.471  22.078  25.698  1.00  0.00     0.016 A 
ATOM     18  C   UNL A   1      39.537  24.051  27.339  1.00  0.00     0.001 A 
ATOM     19  C   UNL A   1      38.385  24.306  26.593  1.00  0.00     0.009 A 
BRANCH  15  20
ATOM     20  C   UNL A   1      40.269  20.483  26.444  1.00  0.00     0.000 C 
ATOM     21  C   UNL A   1      41.373  20.175  27.136  1.00  0.00     0.009 C 
ENDBRANCH  15  20
ENDBRANCH   9  14
ENDBRANCH   6   8
ENDBRANCH   3   6
ENDBRANCH   1   2
BRANCH   1  22
ATOM     22  C   UNL A   1      33.319  28.575  23.610  1.00  0.00     0.042 C 
BRANCH  22  23
ATOM     23  C   UNL A   1      33.689  28.828  25.066  1.00  0.00     0.118 C 
BRANCH  23  24
ATOM     24  N   UNL A   1      33.129  30.074  25.570  1.00  0.00    -0.352 N 
ATOM     25  C   UNL A   1      33.421  30.802  26.695  1.00  0.00     0.251 C 
ATOM     26  H   UNL A   1      32.418  30.459  25.008  1.00  0.00     0.163 HD
ATOM     27  O   UNL A   1      32.669  31.721  27.016  1.00  0.00    -0.269 OA
BRANCH  25  28
ATOM     28  C   UNL A   1      34.611  30.513  27.532  1.00  0.00     0.039 A 
ATOM     29  C   UNL A   1      35.600  31.497  27.645  1.00  0.00     0.014 A 
ATOM     30  C   UNL A   1      34.814  29.266  28.130  1.00  0.00     0.014 A 
ATOM     31  C   UNL A   1      36.769  31.245  28.371  1.00  0.00     0.010 A 
ATOM     32  C   UNL A   1      35.942  29.041  28.919  1.00  0.00     0.010 A 
ATOM     33  C   UNL A   1      36.943  30.018  29.028  1.00  0.00    -0.014 A 
BRANCH  33  34
ATOM     34  C   UNL A   1      38.190  29.715  29.779  1.00  0.00     0.031 A 
ATOM     35  C   UNL A   1      38.373  30.254  31.175  1.00  0.00     0.074 A 
ATOM     36  C   UNL A   1      39.176  29.005  29.197  1.00  0.00     0.049 A 
ATOM     37  N   UNL A   1      39.416  30.177  31.964  1.00  0.00    -0.248 NA
ATOM     38  C   UNL A   1      37.245  31.005  31.748  1.00  0.00     0.031 C 
ATOM     39  C   UNL A   1      39.139  28.461  27.839  1.00  0.00     0.029 A 
ATOM     40  N   UNL A   1      40.407  28.628  29.673  1.00  0.00    -0.354 N 
ATOM     41  C   UNL A   1      39.080  30.897  33.105  1.00  0.00     0.074 A 
ATOM     42  C   UNL A   1      37.754  31.432  32.894  1.00  0.00     0.031 C 
ATOM     43  C   UNL A   1      40.287  27.807  27.597  1.00  0.00     0.029 A 
ATOM     44  C   UNL A   1      41.152  27.911  28.769  1.00  0.00     0.049 A 
ATOM     45  H   UNL A   1      40.727  28.853  30.577  1.00  0.00     0.167 HD
ATOM     46  C   UNL A   1      39.807  31.079  34.233  1.00  0.00     0.037 A 
ATOM     47  C   UNL A   1      42.392  27.398  28.875  1.00  0.00     0.037 A 
ATOM     48  C   UNL A   1      41.101  30.496  34.468  1.00  0.00     0.049 A 
ATOM     49  C   UNL A   1      43.156  27.577  30.160  1.00  0.00     0.074 A 
ATOM     50  C   UNL A   1      41.885  30.564  35.607  1.00  0.00     0.029 A 
ATOM     51  N   UNL A   1      41.796  29.726  33.548  1.00  0.00    -0.354 N 
ATOM     52  N   UNL A   1      42.803  28.206  31.254  1.00  0.00    -0.248 NA
ATOM     53  C   UNL A   1      44.490  26.962  30.228  1.00  0.00     0.031 C 
ATOM     54  C   UNL A   1      43.068  29.857  35.366  1.00  0.00     0.029 A 
ATOM     55  C   UNL A   1      43.002  29.318  34.092  1.00  0.00     0.049 A 
ATOM     56  H   UNL A   1      41.479  29.504  32.642  1.00  0.00     0.167 HD
ATOM     57  C   UNL A   1      43.848  28.030  32.150  1.00  0.00     0.074 A 
ATOM     58  C   UNL A   1      44.847  27.229  31.477  1.00  0.00     0.031 C 
ATOM     59  C   UNL A   1      43.969  28.492  33.419  1.00  0.00     0.037 A 
BRANCH  46  60
ATOM     60  C   UNL A   1      39.217  31.937  35.313  1.00  0.00     0.064 A 
ATOM     61  C   UNL A   1      38.444  31.391  36.348  1.00  0.00     0.173 A 
ATOM     62  C   UNL A   1      39.477  33.316  35.344  1.00  0.00     0.173 A 
ATOM     63  F   UNL A   1      38.157  30.081  36.357  1.00  0.00    -0.203 F 
ATOM     64  C   UNL A   1      37.935  32.197  37.364  1.00  0.00     0.198 A 
ATOM     65  C   UNL A   1      38.989  34.114  36.375  1.00  0.00     0.198 A 
ATOM     66  F   UNL A   1      40.216  33.886  34.382  1.00  0.00    -0.203 F 
ATOM     67  F   UNL A   1      37.167  31.660  38.321  1.00  0.00    -0.200 F 
ATOM     68  C   UNL A   1      38.214  33.555  37.381  1.00  0.00     0.200 A 
ATOM     69  F   UNL A   1      39.270  35.425  36.398  1.00  0.00    -0.200 F 
ATOM     70  F   UNL A   1      37.734  34.327  38.366  1.00  0.00    -0.200 F 
ENDBRANCH  46  60
BRANCH  47  71
ATOM     71  C   UNL A   1      42.984  26.632  27.748  1.00  0.00     0.064 A 
ATOM     72  C   UNL A   1      42.939  25.230  27.731  1.00  0.00     0.173 A 
ATOM     73  C   UNL A   1      43.629  27.278  26.684  1.00  0.00     0.173 A 
ATOM     74  F   UNL A   1      42.353  24.569  28.739  1.00  0.00    -0.203 F 
ATOM     75  C   UNL A   1      43.541  24.503  26.707  1.00  0.00     0.198 A 
ATOM     76  C   UNL A   1      44.206  26.549  25.646  1.00  0.00     0.198 A 
ATOM     77  F   UNL A   1      43.696  28.616  26.651  1.00  0.00    -0.203 F 
ATOM     78  F   UNL A   1      43.530  23.164  26.744  1.00  0.00    -0.200 F 
ATOM     79  C   UNL A   1      44.171  25.163  25.664  1.00  0.00     0.200 A 
ATOM     80  F   UNL A   1      44.806  27.190  24.632  1.00  0.00    -0.200 F 
ATOM     81  F   UNL A   1      44.754  24.463  24.680  1.00  0.00    -0.200 F 
ENDBRANCH  47  71
BRANCH  59  82
ATOM     82  C   UNL A   1      45.194  28.088  34.183  1.00  0.00     0.064 A 
ATOM     83  C   UNL A   1      46.382  28.829  34.118  1.00  0.00     0.173 A 
ATOM     84  C   UNL A   1      45.163  26.962  35.020  1.00  0.00     0.173 A 
ATOM     85  F   UNL A   1      46.463  29.905  33.321  1.00  0.00    -0.203 F 
ATOM     86  C   UNL A   1      47.504  28.443  34.846  1.00  0.00     0.198 A 
ATOM     87  C   UNL A   1      46.278  26.594  35.766  1.00  0.00     0.198 A 
ATOM     88  F   UNL A   1      44.046  26.225  35.121  1.00  0.00    -0.203 F 
ATOM     89  F   UNL A   1      48.644  29.139  34.735  1.00  0.00    -0.200 F 
ATOM     90  C   UNL A   1      47.450  27.331  35.673  1.00  0.00     0.200 A 
ATOM     91  F   UNL A   1      46.221  25.526  36.573  1.00  0.00    -0.200 F 
ATOM     92  F   UNL A   1      48.530  26.963  36.375  1.00  0.00    -0.200 F 
ENDBRANCH  59  82
ENDBRANCH  33  34
ENDBRANCH  25  28
ENDBRANCH  23  24
ENDBRANCH  22  23
ENDBRANCH   1  22
TORSDOF 13
ENDMDL
MODEL 3
REMARK VINA RESULT:     -12.0      4.487      7.489
REMARK SMILES C=Cc1cccc(-c2ccc([C@@H](C)C(=O)NCCCNC(=O)c3ccc(-c4c5nc(c(-c6c(F)c(F)c(F)c(F)c6F)c6ccc([nH]6)c(-c6c(F)c(F)c(F)c(F)c6F)c6nc(c(-c7c(F)c(F)c(F)c(F)c7F)c7ccc4[nH]7)C=C6)C=C5)cc3)cc2)c1
REMARK SMILES IDX 17 1 16 2 14 3 15 4 12 6 13 7 11 8 8 9 9 10 87 11 10 12
REMARK SMILES IDX 86 13 7 14 3 15 4 16 88 17 5 18 6 19 2 20 1 21 18 22 19 23
REMARK SMILES IDX 20 24 21 25 22 27 23 28 24 29 85 30 25 31 84 32 26 33 27 34
REMARK SMILES IDX 28 35 78 36 29 37 83 38 77 39 79 40 30 41 82 42 76 43 75 44
REMARK SMILES IDX 31 46 63 47 43 48 62 49 44 50 47 51 61 52 80 53 45 54 46 55
REMARK SMILES IDX 60 57 81 58 48 59 32 60 33 61 41 62 34 63 35 64 39 65 42 66
REMARK SMILES IDX 36 67 37 68 40 69 38 70 64 71 65 72 73 73 66 74 67 75 71 76
REMARK SMILES IDX 74 77 68 78 69 79 72 80 70 81 49 82 50 83 58 84 51 85 52 86
REMARK SMILES IDX 56 87 59 88 53 89 54 90 57 91 55 92
REMARK H PARENT 16 5 20 26 79 45 47 56
REMARK Flexibility Score: inf
ROOT
ATOM      1  C   UNL A   1      42.423  19.711  26.749  1.00  0.00     0.117 C 
ENDROOT
BRANCH   1   2
ATOM      2  N   UNL A   1      43.533  20.010  25.866  1.00  0.00    -0.356 N 
ATOM      3  C   UNL A   1      43.979  21.180  25.334  1.00  0.00     0.227 C 
ATOM      4  O   UNL A   1      44.927  21.091  24.542  1.00  0.00    -0.274 OA
ATOM      5  H   UNL A   1      44.060  19.222  25.602  1.00  0.00     0.163 HD
BRANCH   3   6
ATOM      6  C   UNL A   1      43.382  22.557  25.660  1.00  0.00     0.105 C 
ATOM      7  C   UNL A   1      43.684  23.643  24.627  1.00  0.00     0.023 C 
BRANCH   6   8
ATOM      8  C   UNL A   1      43.551  22.953  27.117  1.00  0.00    -0.036 A 
ATOM      9  C   UNL A   1      43.956  23.877  29.797  1.00  0.00    -0.018 A 
ATOM     10  C   UNL A   1      42.674  23.598  29.296  1.00  0.00     0.009 A 
ATOM     11  C   UNL A   1      45.036  23.641  28.931  1.00  0.00     0.009 A 
ATOM     12  C   UNL A   1      42.476  23.119  27.994  1.00  0.00     0.005 A 
ATOM     13  C   UNL A   1      44.838  23.207  27.613  1.00  0.00     0.005 A 
BRANCH   9  14
ATOM     14  C   UNL A   1      44.154  24.407  31.169  1.00  0.00    -0.018 A 
ATOM     15  C   UNL A   1      44.396  24.043  33.593  1.00  0.00    -0.026 A 
ATOM     16  C   UNL A   1      44.548  25.418  33.783  1.00  0.00     0.008 A 
ATOM     17  C   UNL A   1      44.200  23.554  32.290  1.00  0.00     0.016 A 
ATOM     18  C   UNL A   1      44.516  26.285  32.693  1.00  0.00     0.001 A 
ATOM     19  C   UNL A   1      44.315  25.785  31.406  1.00  0.00     0.009 A 
BRANCH  15  20
ATOM     20  C   UNL A   1      44.382  23.165  34.770  1.00  0.00     0.000 C 
ATOM     21  C   UNL A   1      44.759  21.880  34.761  1.00  0.00     0.009 C 
ENDBRANCH  15  20
ENDBRANCH   9  14
ENDBRANCH   6   8
ENDBRANCH   3   6
ENDBRANCH   1   2
BRANCH   1  22
ATOM     22  C   UNL A   1      41.073  20.047  26.121  1.00  0.00     0.042 C 
BRANCH  22  23
ATOM     23  C   UNL A   1      40.272  21.093  26.887  1.00  0.00     0.118 C 
BRANCH  23  24
ATOM     24  N   UNL A   1      39.091  21.529  26.157  1.00  0.00    -0.352 N 
ATOM     25  C   UNL A   1      38.491  22.759  26.068  1.00  0.00     0.251 C 
ATOM     26  H   UNL A   1      38.646  20.819  25.640  1.00  0.00     0.163 HD
ATOM     27  O   UNL A   1      37.379  22.839  25.548  1.00  0.00    -0.269 OA
BRANCH  25  28
ATOM     28  C   UNL A   1      39.142  23.990  26.578  1.00  0.00     0.039 A 
ATOM     29  C   UNL A   1      38.904  24.367  27.906  1.00  0.00     0.014 A 
ATOM     30  C   UNL A   1      39.902  24.825  25.755  1.00  0.00     0.014 A 
ATOM     31  C   UNL A   1      39.445  25.554  28.411  1.00  0.00     0.010 A 
ATOM     32  C   UNL A   1      40.507  25.968  26.280  1.00  0.00     0.010 A 
ATOM     33  C   UNL A   1      40.264  26.358  27.606  1.00  0.00    -0.014 A 
BRANCH  33  34
ATOM     34  C   UNL A   1      40.824  27.639  28.111  1.00  0.00     0.031 A 
ATOM     35  C   UNL A   1      42.317  27.843  28.143  1.00  0.00     0.074 A 
ATOM     36  C   UNL A   1      40.004  28.596  28.587  1.00  0.00     0.049 A 
ATOM     37  N   UNL A   1      43.008  28.848  28.623  1.00  0.00    -0.248 NA
ATOM     38  C   UNL A   1      43.145  26.761  27.590  1.00  0.00     0.031 C 
ATOM     39  C   UNL A   1      38.544  28.506  28.648  1.00  0.00     0.029 A 
ATOM     40  N   UNL A   1      40.283  29.829  29.121  1.00  0.00    -0.354 N 
ATOM     41  C   UNL A   1      44.344  28.501  28.460  1.00  0.00     0.074 A 
ATOM     42  C   UNL A   1      44.370  27.181  27.871  1.00  0.00     0.031 C 
ATOM     43  C   UNL A   1      38.056  29.642  29.173  1.00  0.00     0.029 A 
ATOM     44  C   UNL A   1      39.168  30.527  29.513  1.00  0.00     0.049 A 
ATOM     45  H   UNL A   1      41.199  30.181  29.214  1.00  0.00     0.167 HD
ATOM     46  C   UNL A   1      45.448  29.226  28.760  1.00  0.00     0.037 A 
ATOM     47  C   UNL A   1      39.055  31.741  30.084  1.00  0.00     0.037 A 
ATOM     48  C   UNL A   1      45.421  30.563  29.289  1.00  0.00     0.049 A 
ATOM     49  C   UNL A   1      40.300  32.542  30.362  1.00  0.00     0.074 A 
ATOM     50  C   UNL A   1      46.486  31.407  29.559  1.00  0.00     0.029 A 
ATOM     51  N   UNL A   1      44.266  31.256  29.618  1.00  0.00    -0.354 N 
ATOM     52  N   UNL A   1      41.553  32.228  30.146  1.00  0.00    -0.248 NA
ATOM     53  C   UNL A   1      40.110  33.875  30.952  1.00  0.00     0.031 C 
ATOM     54  C   UNL A   1      45.976  32.601  30.077  1.00  0.00     0.029 A 
ATOM     55  C   UNL A   1      44.594  32.515  30.094  1.00  0.00     0.049 A 
ATOM     56  H   UNL A   1      43.351  30.906  29.529  1.00  0.00     0.167 HD
ATOM     57  C   UNL A   1      42.296  33.334  30.535  1.00  0.00     0.074 A 
ATOM     58  C   UNL A   1      41.354  34.331  30.994  1.00  0.00     0.031 C 
ATOM     59  C   UNL A   1      43.640  33.508  30.514  1.00  0.00     0.037 A 
BRANCH  46  60
ATOM     60  C   UNL A   1      46.786  28.595  28.513  1.00  0.00     0.064 A 
ATOM     61  C   UNL A   1      47.436  27.838  29.499  1.00  0.00     0.173 A 
ATOM     62  C   UNL A   1      47.399  28.702  27.255  1.00  0.00     0.173 A 
ATOM     63  F   UNL A   1      46.897  27.715  30.720  1.00  0.00    -0.203 F 
ATOM     64  C   UNL A   1      48.661  27.227  29.241  1.00  0.00     0.198 A 
ATOM     65  C   UNL A   1      48.611  28.069  26.993  1.00  0.00     0.198 A 
ATOM     66  F   UNL A   1      46.817  29.409  26.277  1.00  0.00    -0.203 F 
ATOM     67  F   UNL A   1      49.282  26.540  30.209  1.00  0.00    -0.200 F 
ATOM     68  C   UNL A   1      49.244  27.336  27.987  1.00  0.00     0.200 A 
ATOM     69  F   UNL A   1      49.168  28.164  25.777  1.00  0.00    -0.200 F 
ATOM     70  F   UNL A   1      50.417  26.738  27.737  1.00  0.00    -0.200 F 
ENDBRANCH  46  60
BRANCH  47  71
ATOM     71  C   UNL A   1      37.715  32.297  30.404  1.00  0.00     0.064 A 
ATOM     72  C   UNL A   1      37.051  33.134  29.496  1.00  0.00     0.173 A 
ATOM     73  C   UNL A   1      37.085  32.029  31.628  1.00  0.00     0.173 A 
ATOM     74  F   UNL A   1      37.625  33.435  28.323  1.00  0.00    -0.203 F 
ATOM     75  C   UNL A   1      35.820  33.704  29.811  1.00  0.00     0.198 A 
ATOM     76  C   UNL A   1      35.840  32.578  31.930  1.00  0.00     0.198 A 
ATOM     77  F   UNL A   1      37.677  31.232  32.529  1.00  0.00    -0.203 F 
ATOM     78  F   UNL A   1      35.232  34.543  28.947  1.00  0.00    -0.200 F 
ATOM     79  C   UNL A   1      35.214  33.423  31.025  1.00  0.00     0.200 A 
ATOM     80  F   UNL A   1      35.252  32.297  33.100  1.00  0.00    -0.200 F 
ATOM     81  F   UNL A   1      34.031  33.976  31.330  1.00  0.00    -0.200 F 
ENDBRANCH  47  71
BRANCH  59  82
ATOM     82  C   UNL A   1      44.167  34.846  30.939  1.00  0.00     0.064 A 
ATOM     83  C   UNL A   1      44.318  35.902  30.030  1.00  0.00     0.173 A 
ATOM     84  C   UNL A   1      44.489  35.080  32.284  1.00  0.00     0.173 A 
ATOM     85  F   UNL A   1      44.037  35.720  28.731  1.00  0.00    -0.203 F 
ATOM     86  C   UNL A   1      44.798  37.140  30.449  1.00  0.00     0.198 A 
ATOM     87  C   UNL A   1      44.943  36.327  32.704  1.00  0.00     0.198 A 
ATOM     88  F   UNL A   1      44.354  34.103  33.193  1.00  0.00    -0.203 F 
ATOM     89  F   UNL A   1      44.978  38.123  29.556  1.00  0.00    -0.200 F 
ATOM     90  C   UNL A   1      45.103  37.353  31.785  1.00  0.00     0.200 A 
ATOM     91  F   UNL A   1      45.227  36.535  33.997  1.00  0.00    -0.200 F 
ATOM     92  F   UNL A   1      45.561  38.547  32.187  1.00  0.00    -0.200 F 
ENDBRANCH  59  82
ENDBRANCH  33  34
ENDBRANCH  25  28
ENDBRANCH  23  24
ENDBRANCH  22  23
ENDBRANCH   1  22
TORSDOF 13
ENDMDL
