MODEL 1
REMARK VINA RESULT:     -11.7      0.000      0.000
REMARK SMILES O=C(C[C@@H]1C[N@@H+](CCSc2ccccc2F)CCO1)NCCCNC(=O)c1ccc(-c2c3nc(c(-c4c(F)c(F)c(F)c(F)c4F)c4ccc([nH]4)c(-c4c(F)c(F)c(F)c(F)c4F)c4nc(c(-c5c(F)c(F)c(F)c(F)c5F)c5ccc2[nH]5)C=C4)C=C3)cc1
REMARK SMILES IDX 1 1 2 2 20 3 3 5 4 6 5 7 19 8 6 9 18 10 17 11 7 13 8 14 9 15
REMARK SMILES IDX 10 16 11 17 15 18 12 19 14 20 16 21 13 22 21 23 22 24 23 25
REMARK SMILES IDX 24 26 25 27 26 29 27 30 28 31 89 32 29 33 88 34 30 35 31 36
REMARK SMILES IDX 32 37 82 38 33 39 87 40 81 41 83 42 34 43 86 44 80 45 79 46
REMARK SMILES IDX 35 48 67 49 47 50 66 51 48 52 51 53 65 54 84 55 49 56 50 57
REMARK SMILES IDX 64 59 85 60 52 61 36 62 37 63 45 64 38 65 39 66 43 67 46 68
REMARK SMILES IDX 40 69 41 70 44 71 42 72 68 73 69 74 77 75 70 76 71 77 75 78
REMARK SMILES IDX 78 79 72 80 73 81 76 82 74 83 53 84 54 85 62 86 55 87 56 88
REMARK SMILES IDX 60 89 63 90 57 91 58 92 61 93 59 94
REMARK H PARENT 20 4 6 12 24 28 83 47 51 58
REMARK Flexibility Score: inf
ROOT
ATOM      1  O   UNL A   1      33.878  29.148  26.641  1.00  0.00    -0.275 OA
ATOM      2  C   UNL A   1      33.314  29.296  25.561  1.00  0.00     0.222 C 
ATOM      3  N   UNL A   1      32.232  30.154  25.370  1.00  0.00    -0.356 N 
ATOM      4  H   UNL A   1      32.025  30.425  24.446  1.00  0.00     0.163 HD
ENDROOT
BRANCH   2   5
ATOM      5  C   UNL A   1      33.704  28.464  24.303  1.00  0.00     0.138 C 
BRANCH   5   6
ATOM      6  C   UNL A   1      32.676  27.331  24.118  1.00  0.00     0.182 C 
ATOM      7  C   UNL A   1      33.172  25.926  23.573  1.00  0.00     0.295 C 
ATOM      8  O   UNL A   1      31.801  27.970  23.180  1.00  0.00    -0.366 OA
ATOM      9  N   UNL A   1      32.258  25.173  22.649  1.00  0.00    -0.330 N 
ATOM     10  C   UNL A   1      30.850  27.095  22.673  1.00  0.00     0.222 C 
ATOM     11  C   UNL A   1      31.655  26.156  21.775  1.00  0.00     0.291 C 
ATOM     12  H   UNL A   1      32.899  24.487  22.251  1.00  0.00     0.348 HD
BRANCH   9  13
ATOM     13  C   UNL A   1      31.176  24.266  23.124  1.00  0.00     0.273 C 
BRANCH  13  14
ATOM     14  C   UNL A   1      31.273  23.327  24.468  1.00  0.00     0.136 C 
BRANCH  14  15
ATOM     15  S   UNL A   1      32.678  22.025  24.914  1.00  0.00    -0.117 SA
BRANCH  15  16
ATOM     16  C   UNL A   1      34.383  22.729  24.915  1.00  0.00     0.043 A 
ATOM     17  C   UNL A   1      35.222  22.598  23.792  1.00  0.00     0.018 A 
ATOM     18  C   UNL A   1      35.028  23.185  26.094  1.00  0.00     0.136 A 
ATOM     19  C   UNL A   1      36.593  22.954  23.848  1.00  0.00     0.001 A 
ATOM     20  C   UNL A   1      36.351  23.645  26.123  1.00  0.00     0.040 A 
ATOM     21  F   UNL A   1      34.394  23.207  27.273  1.00  0.00    -0.206 F 
ATOM     22  C   UNL A   1      37.150  23.497  25.005  1.00  0.00     0.003 A 
ENDBRANCH  15  16
ENDBRANCH  14  15
ENDBRANCH  13  14
ENDBRANCH   9  13
ENDBRANCH   5   6
ENDBRANCH   2   5
BRANCH   3  23
ATOM     23  C   UNL A   1      31.385  30.677  26.431  1.00  0.00     0.117 C 
BRANCH  23  24
ATOM     24  C   UNL A   1      31.361  32.200  26.501  1.00  0.00     0.042 C 
BRANCH  24  25
ATOM     25  C   UNL A   1      32.592  32.861  27.132  1.00  0.00     0.118 C 
BRANCH  25  26
ATOM     26  N   UNL A   1      32.350  34.202  27.656  1.00  0.00    -0.352 N 
ATOM     27  C   UNL A   1      32.992  34.905  28.649  1.00  0.00     0.251 C 
ATOM     28  H   UNL A   1      31.603  34.683  27.229  1.00  0.00     0.163 HD
ATOM     29  O   UNL A   1      32.531  35.999  28.998  1.00  0.00    -0.269 OA
BRANCH  27  30
ATOM     30  C   UNL A   1      34.202  34.393  29.342  1.00  0.00     0.039 A 
ATOM     31  C   UNL A   1      34.030  33.694  30.544  1.00  0.00     0.014 A 
ATOM     32  C   UNL A   1      35.496  34.604  28.861  1.00  0.00     0.014 A 
ATOM     33  C   UNL A   1      35.130  33.134  31.203  1.00  0.00     0.010 A 
ATOM     34  C   UNL A   1      36.586  33.979  29.475  1.00  0.00     0.010 A 
ATOM     35  C   UNL A   1      36.415  33.222  30.643  1.00  0.00    -0.014 A 
BRANCH  35  36
ATOM     36  C   UNL A   1      37.557  32.482  31.247  1.00  0.00     0.031 A 
ATOM     37  C   UNL A   1      38.067  32.822  32.619  1.00  0.00     0.074 A 
ATOM     38  C   UNL A   1      38.164  31.513  30.531  1.00  0.00     0.049 A 
ATOM     39  N   UNL A   1      39.053  32.280  33.292  1.00  0.00    -0.248 NA
ATOM     40  C   UNL A   1      37.396  33.923  33.326  1.00  0.00     0.031 C 
ATOM     41  C   UNL A   1      37.796  31.119  29.169  1.00  0.00     0.029 A 
ATOM     42  N   UNL A   1      39.210  30.680  30.844  1.00  0.00    -0.354 N 
ATOM     43  C   UNL A   1      39.121  32.972  34.493  1.00  0.00     0.074 A 
ATOM     44  C   UNL A   1      38.113  34.010  34.438  1.00  0.00     0.031 C 
ATOM     45  C   UNL A   1      38.573  30.097  28.781  1.00  0.00     0.029 A 
ATOM     46  C   UNL A   1      39.524  29.789  29.845  1.00  0.00     0.049 A 
ATOM     47  H   UNL A   1      39.691  30.717  31.702  1.00  0.00     0.167 HD
ATOM     48  C   UNL A   1      39.930  32.745  35.555  1.00  0.00     0.037 A 
ATOM     49  C   UNL A   1      40.470  28.832  29.786  1.00  0.00     0.037 A 
ATOM     50  C   UNL A   1      40.922  31.701  35.613  1.00  0.00     0.049 A 
ATOM     51  C   UNL A   1      41.371  28.614  30.972  1.00  0.00     0.074 A 
ATOM     52  C   UNL A   1      41.755  31.364  36.666  1.00  0.00     0.029 A 
ATOM     53  N   UNL A   1      41.217  30.828  34.577  1.00  0.00    -0.354 N 
ATOM     54  N   UNL A   1      41.380  29.234  32.126  1.00  0.00    -0.248 NA
ATOM     55  C   UNL A   1      42.387  27.558  30.850  1.00  0.00     0.031 C 
ATOM     56  C   UNL A   1      42.594  30.328  36.248  1.00  0.00     0.029 A 
ATOM     57  C   UNL A   1      42.240  29.972  34.957  1.00  0.00     0.049 A 
ATOM     58  H   UNL A   1      40.769  30.818  33.700  1.00  0.00     0.167 HD
ATOM     59  C   UNL A   1      42.383  28.633  32.875  1.00  0.00     0.074 A 
ATOM     60  C   UNL A   1      42.948  27.585  32.052  1.00  0.00     0.031 C 
ATOM     61  C   UNL A   1      42.795  28.928  34.132  1.00  0.00     0.037 A 
BRANCH  48  62
ATOM     62  C   UNL A   1      39.777  33.629  36.761  1.00  0.00     0.064 A 
ATOM     63  C   UNL A   1      38.879  33.291  37.784  1.00  0.00     0.173 A 
ATOM     64  C   UNL A   1      40.456  34.852  36.864  1.00  0.00     0.173 A 
ATOM     65  F   UNL A   1      38.196  32.137  37.733  1.00  0.00    -0.203 F 
ATOM     66  C   UNL A   1      38.653  34.152  38.855  1.00  0.00     0.198 A 
ATOM     67  C   UNL A   1      40.252  35.697  37.952  1.00  0.00     0.198 A 
ATOM     68  F   UNL A   1      41.333  35.220  35.917  1.00  0.00    -0.203 F 
ATOM     69  F   UNL A   1      37.759  33.826  39.800  1.00  0.00    -0.200 F 
ATOM     70  C   UNL A   1      39.342  35.352  38.940  1.00  0.00     0.200 A 
ATOM     71  F   UNL A   1      40.938  36.845  38.044  1.00  0.00    -0.200 F 
ATOM     72  F   UNL A   1      39.130  36.178  39.975  1.00  0.00    -0.200 F 
ENDBRANCH  48  62
BRANCH  49  73
ATOM     73  C   UNL A   1      40.585  27.983  28.570  1.00  0.00     0.064 A 
ATOM     74  C   UNL A   1      39.932  26.745  28.477  1.00  0.00     0.173 A 
ATOM     75  C   UNL A   1      41.377  28.384  27.485  1.00  0.00     0.173 A 
ATOM     76  F   UNL A   1      39.164  26.313  29.489  1.00  0.00    -0.203 F 
ATOM     77  C   UNL A   1      40.085  25.931  27.357  1.00  0.00     0.198 A 
ATOM     78  C   UNL A   1      41.505  27.582  26.352  1.00  0.00     0.198 A 
ATOM     79  F   UNL A   1      42.004  29.568  27.515  1.00  0.00    -0.203 F 
ATOM     80  F   UNL A   1      39.482  24.735  27.313  1.00  0.00    -0.200 F 
ATOM     81  C   UNL A   1      40.868  26.352  26.293  1.00  0.00     0.200 A 
ATOM     82  F   UNL A   1      42.241  28.005  25.315  1.00  0.00    -0.200 F 
ATOM     83  F   UNL A   1      41.006  25.575  25.211  1.00  0.00    -0.200 F 
ENDBRANCH  49  73
BRANCH  61  84
ATOM     84  C   UNL A   1      43.900  28.095  34.718  1.00  0.00     0.064 A 
ATOM     85  C   UNL A   1      43.603  26.929  35.441  1.00  0.00     0.173 A 
ATOM     86  C   UNL A   1      45.243  28.489  34.632  1.00  0.00     0.173 A 
ATOM     87  F   UNL A   1      42.334  26.513  35.562  1.00  0.00    -0.203 F 
ATOM     88  C   UNL A   1      44.608  26.199  36.069  1.00  0.00     0.198 A 
ATOM     89  C   UNL A   1      46.249  27.737  35.233  1.00  0.00     0.198 A 
ATOM     90  F   UNL A   1      45.582  29.589  33.942  1.00  0.00    -0.203 F 
ATOM     91  F   UNL A   1      44.296  25.111  36.787  1.00  0.00    -0.200 F 
ATOM     92  C   UNL A   1      45.931  26.600  35.961  1.00  0.00     0.200 A 
ATOM     93  F   UNL A   1      47.530  28.111  35.105  1.00  0.00    -0.200 F 
ATOM     94  F   UNL A   1      46.900  25.890  36.555  1.00  0.00    -0.200 F 
ENDBRANCH  61  84
ENDBRANCH  35  36
ENDBRANCH  27  30
ENDBRANCH  25  26
ENDBRANCH  24  25
ENDBRANCH  23  24
ENDBRANCH   3  23
TORSDOF 15
ENDMDL
MODEL 2
REMARK VINA RESULT:     -11.6      0.531      7.407
REMARK SMILES O=C(C[C@@H]1C[N@@H+](CCSc2ccccc2F)CCO1)NCCCNC(=O)c1ccc(-c2c3nc(c(-c4c(F)c(F)c(F)c(F)c4F)c4ccc([nH]4)c(-c4c(F)c(F)c(F)c(F)c4F)c4nc(c(-c5c(F)c(F)c(F)c(F)c5F)c5ccc2[nH]5)C=C4)C=C3)cc1
REMARK SMILES IDX 1 1 2 2 20 3 3 5 4 6 5 7 19 8 6 9 18 10 17 11 7 13 8 14 9 15
REMARK SMILES IDX 10 16 11 17 15 18 12 19 14 20 16 21 13 22 21 23 22 24 23 25
REMARK SMILES IDX 24 26 25 27 26 29 27 30 28 31 89 32 29 33 88 34 30 35 31 36
REMARK SMILES IDX 32 37 82 38 33 39 87 40 81 41 83 42 34 43 86 44 80 45 79 46
REMARK SMILES IDX 35 48 67 49 47 50 66 51 48 52 51 53 65 54 84 55 49 56 50 57
REMARK SMILES IDX 64 59 85 60 52 61 36 62 37 63 45 64 38 65 39 66 43 67 46 68
REMARK SMILES IDX 40 69 41 70 44 71 42 72 68 73 69 74 77 75 70 76 71 77 75 78
REMARK SMILES IDX 78 79 72 80 73 81 76 82 74 83 53 84 54 85 62 86 55 87 56 88
REMARK SMILES IDX 60 89 63 90 57 91 58 92 61 93 59 94
REMARK H PARENT 20 4 6 12 24 28 83 47 51 58
REMARK Flexibility Score: inf
ROOT
ATOM      1  O   UNL A   1      34.004  29.187  26.417  1.00  0.00    -0.275 OA
ATOM      2  C   UNL A   1      33.379  29.344  25.373  1.00  0.00     0.222 C 
ATOM      3  N   UNL A   1      32.259  30.167  25.264  1.00  0.00    -0.356 N 
ATOM      4  H   UNL A   1      31.994  30.457  24.361  1.00  0.00     0.163 HD
ENDROOT
BRANCH   2   5
ATOM      5  C   UNL A   1      33.730  28.562  24.072  1.00  0.00     0.138 C 
BRANCH   5   6
ATOM      6  C   UNL A   1      32.778  27.358  23.944  1.00  0.00     0.182 C 
ATOM      7  C   UNL A   1      33.362  25.969  23.442  1.00  0.00     0.295 C 
ATOM      8  O   UNL A   1      31.850  27.901  22.997  1.00  0.00    -0.366 OA
ATOM      9  N   UNL A   1      32.489  25.123  22.560  1.00  0.00    -0.330 N 
ATOM     10  C   UNL A   1      30.955  26.945  22.536  1.00  0.00     0.222 C 
ATOM     11  C   UNL A   1      31.809  26.030  21.661  1.00  0.00     0.291 C 
ATOM     12  H   UNL A   1      33.170  24.467  22.178  1.00  0.00     0.348 HD
BRANCH   9  13
ATOM     13  C   UNL A   1      31.477  24.163  23.085  1.00  0.00     0.273 C 
BRANCH  13  14
ATOM     14  C   UNL A   1      31.726  22.549  23.253  1.00  0.00     0.136 C 
BRANCH  14  15
ATOM     15  S   UNL A   1      32.997  21.659  24.461  1.00  0.00    -0.117 SA
BRANCH  15  16
ATOM     16  C   UNL A   1      34.598  22.554  24.661  1.00  0.00     0.043 A 
ATOM     17  C   UNL A   1      35.714  22.228  23.866  1.00  0.00     0.018 A 
ATOM     18  C   UNL A   1      34.876  23.398  25.766  1.00  0.00     0.136 A 
ATOM     19  C   UNL A   1      36.998  22.762  24.141  1.00  0.00     0.001 A 
ATOM     20  C   UNL A   1      36.116  24.018  25.973  1.00  0.00     0.040 A 
ATOM     21  F   UNL A   1      33.948  23.663  26.695  1.00  0.00    -0.206 F 
ATOM     22  C   UNL A   1      37.193  23.673  25.178  1.00  0.00     0.003 A 
ENDBRANCH  15  16
ENDBRANCH  14  15
ENDBRANCH  13  14
ENDBRANCH   9  13
ENDBRANCH   5   6
ENDBRANCH   2   5
BRANCH   3  23
ATOM     23  C   UNL A   1      31.451  30.628  26.384  1.00  0.00     0.117 C 
BRANCH  23  24
ATOM     24  C   UNL A   1      31.401  32.147  26.518  1.00  0.00     0.042 C 
BRANCH  24  25
ATOM     25  C   UNL A   1      32.603  32.799  27.210  1.00  0.00     0.118 C 
BRANCH  25  26
ATOM     26  N   UNL A   1      32.370  34.173  27.648  1.00  0.00    -0.352 N 
ATOM     27  C   UNL A   1      33.002  34.925  28.610  1.00  0.00     0.251 C 
ATOM     28  H   UNL A   1      31.640  34.637  27.176  1.00  0.00     0.163 HD
ATOM     29  O   UNL A   1      32.550  36.044  28.884  1.00  0.00    -0.269 OA
BRANCH  27  30
ATOM     30  C   UNL A   1      34.189  34.439  29.359  1.00  0.00     0.039 A 
ATOM     31  C   UNL A   1      33.985  33.858  30.618  1.00  0.00     0.014 A 
ATOM     32  C   UNL A   1      35.493  34.562  28.874  1.00  0.00     0.014 A 
ATOM     33  C   UNL A   1      35.061  33.325  31.336  1.00  0.00     0.010 A 
ATOM     34  C   UNL A   1      36.557  33.961  29.553  1.00  0.00     0.010 A 
ATOM     35  C   UNL A   1      36.352  33.319  30.783  1.00  0.00    -0.014 A 
BRANCH  35  36
ATOM     36  C   UNL A   1      37.465  32.600  31.463  1.00  0.00     0.031 A 
ATOM     37  C   UNL A   1      38.156  31.438  30.808  1.00  0.00     0.074 A 
ATOM     38  C   UNL A   1      37.832  32.981  32.704  1.00  0.00     0.049 A 
ATOM     39  N   UNL A   1      39.139  30.698  31.261  1.00  0.00    -0.248 NA
ATOM     40  C   UNL A   1      37.673  31.038  29.478  1.00  0.00     0.031 C 
ATOM     41  C   UNL A   1      37.210  34.064  33.469  1.00  0.00     0.029 A 
ATOM     42  N   UNL A   1      38.816  32.511  33.539  1.00  0.00    -0.354 N 
ATOM     43  C   UNL A   1      39.389  29.751  30.277  1.00  0.00     0.074 A 
ATOM     44  C   UNL A   1      38.420  29.972  29.225  1.00  0.00     0.031 C 
ATOM     45  C   UNL A   1      37.852  34.202  34.639  1.00  0.00     0.029 A 
ATOM     46  C   UNL A   1      38.901  33.192  34.730  1.00  0.00     0.049 A 
ATOM     47  H   UNL A   1      39.405  31.757  33.307  1.00  0.00     0.167 HD
ATOM     48  C   UNL A   1      40.356  28.804  30.243  1.00  0.00     0.037 A 
ATOM     49  C   UNL A   1      39.728  33.025  35.781  1.00  0.00     0.037 A 
ATOM     50  C   UNL A   1      41.330  28.596  31.285  1.00  0.00     0.049 A 
ATOM     51  C   UNL A   1      40.780  31.950  35.726  1.00  0.00     0.074 A 
ATOM     52  C   UNL A   1      42.377  27.692  31.315  1.00  0.00     0.029 A 
ATOM     53  N   UNL A   1      41.375  29.299  32.481  1.00  0.00    -0.354 N 
ATOM     54  N   UNL A   1      41.046  31.105  34.762  1.00  0.00    -0.248 NA
ATOM     55  C   UNL A   1      41.651  31.812  36.902  1.00  0.00     0.031 C 
ATOM     56  C   UNL A   1      43.019  27.806  32.552  1.00  0.00     0.029 A 
ATOM     57  C   UNL A   1      42.415  28.827  33.266  1.00  0.00     0.049 A 
ATOM     58  H   UNL A   1      40.758  30.023  32.734  1.00  0.00     0.167 HD
ATOM     59  C   UNL A   1      42.125  30.350  35.201  1.00  0.00     0.074 A 
ATOM     60  C   UNL A   1      42.478  30.851  36.513  1.00  0.00     0.031 C 
ATOM     61  C   UNL A   1      42.762  29.334  34.571  1.00  0.00     0.037 A 
BRANCH  48  62
ATOM     62  C   UNL A   1      40.432  27.917  29.032  1.00  0.00     0.064 A 
ATOM     63  C   UNL A   1      41.174  28.306  27.907  1.00  0.00     0.173 A 
ATOM     64  C   UNL A   1      39.701  26.722  28.952  1.00  0.00     0.173 A 
ATOM     65  F   UNL A   1      41.885  29.444  27.925  1.00  0.00    -0.203 F 
ATOM     66  C   UNL A   1      41.168  27.542  26.743  1.00  0.00     0.198 A 
ATOM     67  C   UNL A   1      39.722  25.943  27.798  1.00  0.00     0.198 A 
ATOM     68  F   UNL A   1      38.981  26.298  30.003  1.00  0.00    -0.203 F 
ATOM     69  F   UNL A   1      41.852  27.955  25.666  1.00  0.00    -0.200 F 
ATOM     70  C   UNL A   1      40.445  26.360  26.691  1.00  0.00     0.200 A 
ATOM     71  F   UNL A   1      39.042  24.788  27.759  1.00  0.00    -0.200 F 
ATOM     72  F   UNL A   1      40.445  25.620  25.572  1.00  0.00    -0.200 F 
ENDBRANCH  48  62
BRANCH  49  73
ATOM     73  C   UNL A   1      39.613  33.927  36.958  1.00  0.00     0.064 A 
ATOM     74  C   UNL A   1      38.839  33.577  38.076  1.00  0.00     0.173 A 
ATOM     75  C   UNL A   1      40.253  35.173  36.975  1.00  0.00     0.173 A 
ATOM     76  F   UNL A   1      38.203  32.396  38.109  1.00  0.00    -0.203 F 
ATOM     77  C   UNL A   1      38.692  34.449  39.152  1.00  0.00     0.198 A 
ATOM     78  C   UNL A   1      40.129  36.032  38.066  1.00  0.00     0.198 A 
ATOM     79  F   UNL A   1      41.021  35.546  35.941  1.00  0.00    -0.203 F 
ATOM     80  F   UNL A   1      37.915  34.105  40.189  1.00  0.00    -0.200 F 
ATOM     81  C   UNL A   1      39.342  35.674  39.149  1.00  0.00     0.200 A 
ATOM     82  F   UNL A   1      40.780  37.204  38.070  1.00  0.00    -0.200 F 
ATOM     83  F   UNL A   1      39.210  36.507  40.190  1.00  0.00    -0.200 F 
ENDBRANCH  49  73
BRANCH  61  84
ATOM     84  C   UNL A   1      43.928  28.697  35.273  1.00  0.00     0.064 A 
ATOM     85  C   UNL A   1      45.239  29.123  35.003  1.00  0.00     0.173 A 
ATOM     86  C   UNL A   1      43.758  27.619  36.153  1.00  0.00     0.173 A 
ATOM     87  F   UNL A   1      45.458  30.144  34.162  1.00  0.00    -0.203 F 
ATOM     88  C   UNL A   1      46.334  28.482  35.575  1.00  0.00     0.198 A 
ATOM     89  C   UNL A   1      44.854  27.002  36.750  1.00  0.00     0.198 A 
ATOM     90  F   UNL A   1      42.526  27.181  36.456  1.00  0.00    -0.203 F 
ATOM     91  F   UNL A   1      47.577  28.880  35.270  1.00  0.00    -0.200 F 
ATOM     92  C   UNL A   1      46.142  27.425  36.451  1.00  0.00     0.200 A 
ATOM     93  F   UNL A   1      44.666  25.997  37.617  1.00  0.00    -0.200 F 
ATOM     94  F   UNL A   1      47.196  26.815  37.010  1.00  0.00    -0.200 F 
ENDBRANCH  61  84
ENDBRANCH  35  36
ENDBRANCH  27  30
ENDBRANCH  25  26
ENDBRANCH  24  25
ENDBRANCH  23  24
ENDBRANCH   3  23
TORSDOF 15
ENDMDL
MODEL 3
REMARK VINA RESULT:     -11.5      1.598      3.361
REMARK SMILES O=C(C[C@@H]1C[N@@H+](CCSc2ccccc2F)CCO1)NCCCNC(=O)c1ccc(-c2c3nc(c(-c4c(F)c(F)c(F)c(F)c4F)c4ccc([nH]4)c(-c4c(F)c(F)c(F)c(F)c4F)c4nc(c(-c5c(F)c(F)c(F)c(F)c5F)c5ccc2[nH]5)C=C4)C=C3)cc1
REMARK SMILES IDX 1 1 2 2 20 3 3 5 4 6 5 7 19 8 6 9 18 10 17 11 7 13 8 14 9 15
REMARK SMILES IDX 10 16 11 17 15 18 12 19 14 20 16 21 13 22 21 23 22 24 23 25
REMARK SMILES IDX 24 26 25 27 26 29 27 30 28 31 89 32 29 33 88 34 30 35 31 36
REMARK SMILES IDX 32 37 82 38 33 39 87 40 81 41 83 42 34 43 86 44 80 45 79 46
REMARK SMILES IDX 35 48 67 49 47 50 66 51 48 52 51 53 65 54 84 55 49 56 50 57
REMARK SMILES IDX 64 59 85 60 52 61 36 62 37 63 45 64 38 65 39 66 43 67 46 68
REMARK SMILES IDX 40 69 41 70 44 71 42 72 68 73 69 74 77 75 70 76 71 77 75 78
REMARK SMILES IDX 78 79 72 80 73 81 76 82 74 83 53 84 54 85 62 86 55 87 56 88
REMARK SMILES IDX 60 89 63 90 57 91 58 92 61 93 59 94
REMARK H PARENT 20 4 6 12 24 28 83 47 51 58
REMARK Flexibility Score: inf
ROOT
ATOM      1  O   UNL A   1      31.405  28.658  27.680  1.00  0.00    -0.275 OA
ATOM      2  C   UNL A   1      32.377  28.887  26.966  1.00  0.00     0.222 C 
ATOM      3  N   UNL A   1      32.508  30.039  26.193  1.00  0.00    -0.356 N 
ATOM      4  H   UNL A   1      33.412  30.277  25.883  1.00  0.00     0.163 HD
ENDROOT
BRANCH   2   5
ATOM      5  C   UNL A   1      33.532  27.857  26.786  1.00  0.00     0.138 C 
BRANCH   5   6
ATOM      6  C   UNL A   1      33.082  26.774  25.788  1.00  0.00     0.182 C 
ATOM      7  C   UNL A   1      31.836  25.862  26.157  1.00  0.00     0.295 C 
ATOM      8  O   UNL A   1      34.288  26.003  25.731  1.00  0.00    -0.366 OA
ATOM      9  N   UNL A   1      31.877  24.420  25.736  1.00  0.00    -0.330 N 
ATOM     10  C   UNL A   1      34.117  24.817  25.029  1.00  0.00     0.222 C 
ATOM     11  C   UNL A   1      33.236  23.969  25.945  1.00  0.00     0.291 C 
ATOM     12  H   UNL A   1      31.133  24.025  26.311  1.00  0.00     0.348 HD
BRANCH   9  13
ATOM     13  C   UNL A   1      31.444  23.944  24.393  1.00  0.00     0.273 C 
BRANCH  13  14
ATOM     14  C   UNL A   1      30.617  24.856  23.306  1.00  0.00     0.136 C 
BRANCH  14  15
ATOM     15  S   UNL A   1      31.099  26.642  22.637  1.00  0.00    -0.117 SA
BRANCH  15  16
ATOM     16  C   UNL A   1      29.795  27.921  22.899  1.00  0.00     0.043 A 
ATOM     17  C   UNL A   1      28.494  27.558  23.295  1.00  0.00     0.018 A 
ATOM     18  C   UNL A   1      29.937  29.265  22.469  1.00  0.00     0.136 A 
ATOM     19  C   UNL A   1      27.435  28.500  23.306  1.00  0.00     0.001 A 
ATOM     20  C   UNL A   1      28.923  30.226  22.588  1.00  0.00     0.040 A 
ATOM     21  F   UNL A   1      31.075  29.707  21.919  1.00  0.00    -0.206 F 
ATOM     22  C   UNL A   1      27.655  29.836  22.975  1.00  0.00     0.003 A 
ENDBRANCH  15  16
ENDBRANCH  14  15
ENDBRANCH  13  14
ENDBRANCH   9  13
ENDBRANCH   5   6
ENDBRANCH   2   5
BRANCH   3  23
ATOM     23  C   UNL A   1      31.412  30.916  25.810  1.00  0.00     0.117 C 
BRANCH  23  24
ATOM     24  C   UNL A   1      31.229  32.111  26.741  1.00  0.00     0.042 C 
BRANCH  24  25
ATOM     25  C   UNL A   1      32.515  32.806  27.199  1.00  0.00     0.118 C 
BRANCH  25  26
ATOM     26  N   UNL A   1      32.328  34.189  27.631  1.00  0.00    -0.352 N 
ATOM     27  C   UNL A   1      33.015  34.938  28.557  1.00  0.00     0.251 C 
ATOM     28  H   UNL A   1      31.587  34.663  27.186  1.00  0.00     0.163 HD
ATOM     29  O   UNL A   1      32.597  36.069  28.838  1.00  0.00    -0.269 OA
BRANCH  27  30
ATOM     30  C   UNL A   1      34.223  34.437  29.260  1.00  0.00     0.039 A 
ATOM     31  C   UNL A   1      34.051  33.772  30.482  1.00  0.00     0.014 A 
ATOM     32  C   UNL A   1      35.518  34.624  28.769  1.00  0.00     0.014 A 
ATOM     33  C   UNL A   1      35.149  33.222  31.151  1.00  0.00     0.010 A 
ATOM     34  C   UNL A   1      36.605  34.009  29.396  1.00  0.00     0.010 A 
ATOM     35  C   UNL A   1      36.433  33.285  30.585  1.00  0.00    -0.014 A 
BRANCH  35  36
ATOM     36  C   UNL A   1      37.572  32.553  31.205  1.00  0.00     0.031 A 
ATOM     37  C   UNL A   1      38.071  32.909  32.577  1.00  0.00     0.074 A 
ATOM     38  C   UNL A   1      38.184  31.577  30.504  1.00  0.00     0.049 A 
ATOM     39  N   UNL A   1      39.053  32.376  33.262  1.00  0.00    -0.248 NA
ATOM     40  C   UNL A   1      37.394  34.017  33.267  1.00  0.00     0.031 C 
ATOM     41  C   UNL A   1      37.827  31.167  29.144  1.00  0.00     0.029 A 
ATOM     42  N   UNL A   1      39.230  30.749  30.833  1.00  0.00    -0.354 N 
ATOM     43  C   UNL A   1      39.112  33.082  34.456  1.00  0.00     0.074 A 
ATOM     44  C   UNL A   1      38.104  34.117  34.383  1.00  0.00     0.031 C 
ATOM     45  C   UNL A   1      38.607  30.142  28.773  1.00  0.00     0.029 A 
ATOM     46  C   UNL A   1      39.552  29.848  29.846  1.00  0.00     0.049 A 
ATOM     47  H   UNL A   1      39.704  30.796  31.694  1.00  0.00     0.167 HD
ATOM     48  C   UNL A   1      39.915  32.867  35.526  1.00  0.00     0.037 A 
ATOM     49  C   UNL A   1      40.500  28.891  29.805  1.00  0.00     0.037 A 
ATOM     50  C   UNL A   1      40.907  31.825  35.603  1.00  0.00     0.049 A 
ATOM     51  C   UNL A   1      41.392  28.687  30.999  1.00  0.00     0.074 A 
ATOM     52  C   UNL A   1      41.734  31.501  36.665  1.00  0.00     0.029 A 
ATOM     53  N   UNL A   1      41.211  30.941  34.578  1.00  0.00    -0.354 N 
ATOM     54  N   UNL A   1      41.393  29.321  32.146  1.00  0.00    -0.248 NA
ATOM     55  C   UNL A   1      42.410  27.632  30.895  1.00  0.00     0.031 C 
ATOM     56  C   UNL A   1      42.577  30.461  36.264  1.00  0.00     0.029 A 
ATOM     57  C   UNL A   1      42.232  30.091  34.974  1.00  0.00     0.049 A 
ATOM     58  H   UNL A   1      40.768  30.921  33.699  1.00  0.00     0.167 HD
ATOM     59  C   UNL A   1      42.391  28.730  32.909  1.00  0.00     0.074 A 
ATOM     60  C   UNL A   1      42.963  27.673  32.101  1.00  0.00     0.031 C 
ATOM     61  C   UNL A   1      42.794  29.039  34.165  1.00  0.00     0.037 A 
BRANCH  48  62
ATOM     62  C   UNL A   1      39.752  33.764  36.721  1.00  0.00     0.064 A 
ATOM     63  C   UNL A   1      38.907  33.397  37.779  1.00  0.00     0.173 A 
ATOM     64  C   UNL A   1      40.365  35.024  36.780  1.00  0.00     0.173 A 
ATOM     65  F   UNL A   1      38.288  32.207  37.770  1.00  0.00    -0.203 F 
ATOM     66  C   UNL A   1      38.669  34.265  38.842  1.00  0.00     0.198 A 
ATOM     67  C   UNL A   1      40.150  35.877  37.859  1.00  0.00     0.198 A 
ATOM     68  F   UNL A   1      41.190  35.421  35.798  1.00  0.00    -0.203 F 
ATOM     69  F   UNL A   1      37.826  33.909  39.821  1.00  0.00    -0.200 F 
ATOM     70  C   UNL A   1      39.294  35.502  38.883  1.00  0.00     0.200 A 
ATOM     71  F   UNL A   1      40.775  37.063  37.909  1.00  0.00    -0.200 F 
ATOM     72  F   UNL A   1      39.070  36.335  39.910  1.00  0.00    -0.200 F 
ENDBRANCH  48  62
BRANCH  49  73
ATOM     73  C   UNL A   1      40.623  28.029  28.598  1.00  0.00     0.064 A 
ATOM     74  C   UNL A   1      41.395  28.422  27.494  1.00  0.00     0.173 A 
ATOM     75  C   UNL A   1      39.944  26.806  28.515  1.00  0.00     0.173 A 
ATOM     76  F   UNL A   1      42.062  29.586  27.521  1.00  0.00    -0.203 F 
ATOM     77  C   UNL A   1      41.464  27.636  26.346  1.00  0.00     0.198 A 
ATOM     78  C   UNL A   1      40.039  26.006  27.378  1.00  0.00     0.198 A 
ATOM     79  F   UNL A   1      39.211  26.376  29.551  1.00  0.00    -0.203 F 
ATOM     80  F   UNL A   1      42.177  28.055  25.292  1.00  0.00    -0.200 F 
ATOM     81  C   UNL A   1      40.789  26.426  26.291  1.00  0.00     0.200 A 
ATOM     82  F   UNL A   1      39.406  24.825  27.338  1.00  0.00    -0.200 F 
ATOM     83  F   UNL A   1      40.866  25.664  25.192  1.00  0.00    -0.200 F 
ENDBRANCH  49  73
BRANCH  61  84
ATOM     84  C   UNL A   1      43.896  28.214  34.768  1.00  0.00     0.064 A 
ATOM     85  C   UNL A   1      45.238  28.591  34.600  1.00  0.00     0.173 A 
ATOM     86  C   UNL A   1      43.632  27.015  35.444  1.00  0.00     0.173 A 
ATOM     87  F   UNL A   1      45.547  29.724  33.953  1.00  0.00    -0.203 F 
ATOM     88  C   UNL A   1      46.273  27.789  35.072  1.00  0.00     0.198 A 
ATOM     89  C   UNL A   1      44.668  26.232  35.945  1.00  0.00     0.198 A 
ATOM     90  F   UNL A   1      42.366  26.615  35.643  1.00  0.00    -0.203 F 
ATOM     91  F   UNL A   1      47.547  28.149  34.865  1.00  0.00    -0.200 F 
ATOM     92  C   UNL A   1      45.988  26.612  35.749  1.00  0.00     0.200 A 
ATOM     93  F   UNL A   1      44.391  25.108  36.622  1.00  0.00    -0.200 F 
ATOM     94  F   UNL A   1      46.984  25.846  36.214  1.00  0.00    -0.200 F 
ENDBRANCH  61  84
ENDBRANCH  35  36
ENDBRANCH  27  30
ENDBRANCH  25  26
ENDBRANCH  24  25
ENDBRANCH  23  24
ENDBRANCH   3  23
TORSDOF 15
ENDMDL
