MODEL 1
REMARK VINA RESULT:     -11.3      0.000      0.000
REMARK SMILES CC(C)[C@H]([NH2+]Cc1ccncc1)C(=O)NCCCNC(=O)c1ccc(-c2c3nc(c(-c4c(F)c(F)c(F)c(F)c4F)c4ccc([nH]4)c(-c4c(F)c(F)c(F)c(F)c4F)c4nc(c(-c5c(F)c(F)c(F)c(F)c5F)c5ccc2[nH]5)C=C4)C=C3)cc1
REMARK SMILES IDX 16 1 15 2 13 3 14 4 4 6 2 7 1 8 3 9 5 10 6 13 7 14 8 15
REMARK SMILES IDX 12 16 9 17 11 18 10 19 17 20 18 21 19 22 20 23 21 25 22 26
REMARK SMILES IDX 23 27 84 28 24 29 83 30 25 31 26 32 27 33 77 34 28 35 82 36
REMARK SMILES IDX 76 37 78 38 29 39 81 40 75 41 74 42 30 44 62 45 42 46 61 47
REMARK SMILES IDX 43 48 46 49 60 50 79 51 44 52 45 53 59 55 80 56 47 57 31 58
REMARK SMILES IDX 32 59 40 60 33 61 34 62 38 63 41 64 35 65 36 66 39 67 37 68
REMARK SMILES IDX 63 69 64 70 72 71 65 72 66 73 70 74 73 75 67 76 68 77 71 78
REMARK SMILES IDX 69 79 48 80 49 81 57 82 50 83 51 84 55 85 58 86 52 87 53 88
REMARK SMILES IDX 56 89 54 90
REMARK H PARENT 15 5 5 11 5 12 19 24 78 43 46 54
REMARK Flexibility Score: inf
ROOT
ATOM      1  C   UNL A   1      31.626  30.497  26.699  1.00  0.00     0.118 C 
ENDROOT
BRANCH   1   2
ATOM      2  N   UNL A   1      32.452  30.182  25.557  1.00  0.00    -0.351 N 
ATOM      3  C   UNL A   1      32.258  29.298  24.542  1.00  0.00     0.278 C 
ATOM      4  O   UNL A   1      33.201  29.156  23.756  1.00  0.00    -0.268 OA
ATOM      5  H   UNL A   1      33.292  30.690  25.503  1.00  0.00     0.163 HD
BRANCH   3   6
ATOM      6  C   UNL A   1      30.953  28.475  24.365  1.00  0.00     0.275 C 
BRANCH   6   7
ATOM      7  C   UNL A   1      31.015  26.977  24.787  1.00  0.00     0.051 C 
ATOM      8  C   UNL A   1      31.381  26.764  26.263  1.00  0.00     0.014 C 
ATOM      9  C   UNL A   1      29.667  26.289  24.523  1.00  0.00     0.014 C 
ENDBRANCH   6   7
BRANCH   6  10
ATOM     10  N   UNL A   1      30.277  28.822  23.085  1.00  0.00    -0.332 N 
ATOM     11  H   UNL A   1      30.320  27.998  22.484  1.00  0.00     0.347 HD
ATOM     12  H   UNL A   1      30.780  29.641  22.741  1.00  0.00     0.347 HD
BRANCH  10  13
ATOM     13  C   UNL A   1      28.890  29.242  23.146  1.00  0.00     0.298 C 
BRANCH  13  14
ATOM     14  C   UNL A   1      28.657  30.610  22.544  1.00  0.00     0.009 A 
ATOM     15  C   UNL A   1      28.795  31.763  23.323  1.00  0.00     0.029 A 
ATOM     16  C   UNL A   1      28.244  30.763  21.216  1.00  0.00     0.029 A 
ATOM     17  C   UNL A   1      28.477  32.992  22.762  1.00  0.00     0.111 A 
ATOM     18  C   UNL A   1      27.951  32.035  20.745  1.00  0.00     0.111 A 
ATOM     19  N   UNL A   1      28.048  33.151  21.492  1.00  0.00    -0.265 NA
ENDBRANCH  13  14
ENDBRANCH  10  13
ENDBRANCH   6  10
ENDBRANCH   3   6
ENDBRANCH   1   2
BRANCH   1  20
ATOM     20  C   UNL A   1      31.388  31.995  26.795  1.00  0.00     0.042 C 
BRANCH  20  21
ATOM     21  C   UNL A   1      32.671  32.807  26.883  1.00  0.00     0.118 C 
BRANCH  21  22
ATOM     22  N   UNL A   1      32.452  34.105  27.500  1.00  0.00    -0.352 N 
ATOM     23  C   UNL A   1      33.004  34.655  28.630  1.00  0.00     0.251 C 
ATOM     24  H   UNL A   1      31.805  34.682  27.034  1.00  0.00     0.163 HD
ATOM     25  O   UNL A   1      32.514  35.675  29.105  1.00  0.00    -0.269 OA
BRANCH  23  26
ATOM     26  C   UNL A   1      34.172  34.026  29.284  1.00  0.00     0.039 A 
ATOM     27  C   UNL A   1      35.453  34.462  28.933  1.00  0.00     0.014 A 
ATOM     28  C   UNL A   1      34.018  32.980  30.198  1.00  0.00     0.014 A 
ATOM     29  C   UNL A   1      36.573  33.885  29.535  1.00  0.00     0.010 A 
ATOM     30  C   UNL A   1      35.128  32.468  30.863  1.00  0.00     0.010 A 
ATOM     31  C   UNL A   1      36.417  32.903  30.524  1.00  0.00    -0.014 A 
BRANCH  31  32
ATOM     32  C   UNL A   1      37.591  32.292  31.196  1.00  0.00     0.031 A 
ATOM     33  C   UNL A   1      38.369  31.204  30.507  1.00  0.00     0.074 A 
ATOM     34  C   UNL A   1      37.917  32.672  32.445  1.00  0.00     0.049 A 
ATOM     35  N   UNL A   1      39.373  30.493  30.953  1.00  0.00    -0.248 NA
ATOM     36  C   UNL A   1      37.941  30.850  29.144  1.00  0.00     0.031 C 
ATOM     37  C   UNL A   1      37.212  33.687  33.231  1.00  0.00     0.029 A 
ATOM     38  N   UNL A   1      38.920  32.244  33.278  1.00  0.00    -0.354 N 
ATOM     39  C   UNL A   1      39.683  29.599  29.935  1.00  0.00     0.074 A 
ATOM     40  C   UNL A   1      38.725  29.817  28.873  1.00  0.00     0.031 C 
ATOM     41  C   UNL A   1      37.822  33.823  34.420  1.00  0.00     0.029 A 
ATOM     42  C   UNL A   1      38.934  32.879  34.494  1.00  0.00     0.049 A 
ATOM     43  H   UNL A   1      39.569  31.548  33.026  1.00  0.00     0.167 HD
ATOM     44  C   UNL A   1      40.693  28.698  29.880  1.00  0.00     0.037 A 
ATOM     45  C   UNL A   1      39.751  32.715  35.552  1.00  0.00     0.037 A 
ATOM     46  C   UNL A   1      41.660  28.506  30.927  1.00  0.00     0.049 A 
ATOM     47  C   UNL A   1      40.859  31.700  35.468  1.00  0.00     0.074 A 
ATOM     48  C   UNL A   1      42.752  27.657  30.951  1.00  0.00     0.029 A 
ATOM     49  N   UNL A   1      41.649  29.178  32.142  1.00  0.00    -0.354 N 
ATOM     50  N   UNL A   1      41.179  30.903  34.479  1.00  0.00    -0.248 NA
ATOM     51  C   UNL A   1      41.722  31.567  36.651  1.00  0.00     0.031 C 
ATOM     52  C   UNL A   1      43.378  27.785  32.195  1.00  0.00     0.029 A 
ATOM     53  C   UNL A   1      42.705  28.749  32.929  1.00  0.00     0.049 A 
ATOM     54  H   UNL A   1      40.988  29.859  32.404  1.00  0.00     0.167 HD
ATOM     55  C   UNL A   1      42.295  30.196  34.905  1.00  0.00     0.074 A 
ATOM     56  C   UNL A   1      42.604  30.669  36.238  1.00  0.00     0.031 C 
ATOM     57  C   UNL A   1      43.002  29.241  34.251  1.00  0.00     0.037 A 
BRANCH  44  58
ATOM     58  C   UNL A   1      40.801  27.857  28.641  1.00  0.00     0.064 A 
ATOM     59  C   UNL A   1      41.626  28.229  27.568  1.00  0.00     0.173 A 
ATOM     60  C   UNL A   1      40.087  26.654  28.530  1.00  0.00     0.173 A 
ATOM     61  F   UNL A   1      42.320  29.377  27.617  1.00  0.00    -0.203 F 
ATOM     62  C   UNL A   1      41.705  27.449  26.418  1.00  0.00     0.198 A 
ATOM     63  C   UNL A   1      40.193  25.859  27.391  1.00  0.00     0.198 A 
ATOM     64  F   UNL A   1      39.287  26.247  29.527  1.00  0.00    -0.203 F 
ATOM     65  F   UNL A   1      42.456  27.855  25.384  1.00  0.00    -0.200 F 
ATOM     66  C   UNL A   1      40.994  26.261  26.333  1.00  0.00     0.200 A 
ATOM     67  F   UNL A   1      39.515  24.706  27.315  1.00  0.00    -0.200 F 
ATOM     68  F   UNL A   1      41.074  25.509  25.226  1.00  0.00    -0.200 F 
ENDBRANCH  44  58
BRANCH  45  69
ATOM     69  C   UNL A   1      39.574  33.555  36.764  1.00  0.00     0.064 A 
ATOM     70  C   UNL A   1      40.223  34.792  36.878  1.00  0.00     0.173 A 
ATOM     71  C   UNL A   1      38.759  33.144  37.828  1.00  0.00     0.173 A 
ATOM     72  F   UNL A   1      41.029  35.218  35.894  1.00  0.00    -0.203 F 
ATOM     73  C   UNL A   1      40.078  35.578  38.019  1.00  0.00     0.198 A 
ATOM     74  C   UNL A   1      38.594  33.944  38.957  1.00  0.00     0.198 A 
ATOM     75  F   UNL A   1      38.112  31.970  37.765  1.00  0.00    -0.203 F 
ATOM     76  F   UNL A   1      40.743  36.737  38.120  1.00  0.00    -0.200 F 
ATOM     77  C   UNL A   1      39.259  35.157  39.055  1.00  0.00     0.200 A 
ATOM     78  F   UNL A   1      37.792  33.539  39.951  1.00  0.00    -0.200 F 
ATOM     79  F   UNL A   1      39.117  35.915  40.151  1.00  0.00    -0.200 F 
ENDBRANCH  45  69
BRANCH  57  80
ATOM     80  C   UNL A   1      44.199  28.673  34.953  1.00  0.00     0.064 A 
ATOM     81  C   UNL A   1      45.466  29.265  34.846  1.00  0.00     0.173 A 
ATOM     82  C   UNL A   1      44.067  27.542  35.774  1.00  0.00     0.173 A 
ATOM     83  F   UNL A   1      45.646  30.337  34.060  1.00  0.00    -0.203 F 
ATOM     84  C   UNL A   1      46.563  28.729  35.516  1.00  0.00     0.198 A 
ATOM     85  C   UNL A   1      45.160  27.028  36.466  1.00  0.00     0.198 A 
ATOM     86  F   UNL A   1      42.875  26.944  35.915  1.00  0.00    -0.203 F 
ATOM     87  F   UNL A   1      47.774  29.283  35.362  1.00  0.00    -0.200 F 
ATOM     88  C   UNL A   1      46.408  27.617  36.331  1.00  0.00     0.200 A 
ATOM     89  F   UNL A   1      45.005  25.962  37.263  1.00  0.00    -0.200 F 
ATOM     90  F   UNL A   1      47.464  27.110  36.981  1.00  0.00    -0.200 F 
ENDBRANCH  57  80
ENDBRANCH  31  32
ENDBRANCH  23  26
ENDBRANCH  21  22
ENDBRANCH  20  21
ENDBRANCH   1  20
TORSDOF 14
ENDMDL
MODEL 2
REMARK VINA RESULT:     -11.3      6.711     11.967
REMARK SMILES CC(C)[C@H]([NH2+]Cc1ccncc1)C(=O)NCCCNC(=O)c1ccc(-c2c3nc(c(-c4c(F)c(F)c(F)c(F)c4F)c4ccc([nH]4)c(-c4c(F)c(F)c(F)c(F)c4F)c4nc(c(-c5c(F)c(F)c(F)c(F)c5F)c5ccc2[nH]5)C=C4)C=C3)cc1
REMARK SMILES IDX 16 1 15 2 13 3 14 4 4 6 2 7 1 8 3 9 5 10 6 13 7 14 8 15
REMARK SMILES IDX 12 16 9 17 11 18 10 19 17 20 18 21 19 22 20 23 21 25 22 26
REMARK SMILES IDX 23 27 84 28 24 29 83 30 25 31 26 32 27 33 77 34 28 35 82 36
REMARK SMILES IDX 76 37 78 38 29 39 81 40 75 41 74 42 30 44 62 45 42 46 61 47
REMARK SMILES IDX 43 48 46 49 60 50 79 51 44 52 45 53 59 55 80 56 47 57 31 58
REMARK SMILES IDX 32 59 40 60 33 61 34 62 38 63 41 64 35 65 36 66 39 67 37 68
REMARK SMILES IDX 63 69 64 70 72 71 65 72 66 73 70 74 73 75 67 76 68 77 71 78
REMARK SMILES IDX 69 79 48 80 49 81 57 82 50 83 51 84 55 85 58 86 52 87 53 88
REMARK SMILES IDX 56 89 54 90
REMARK H PARENT 15 5 5 11 5 12 19 24 78 43 46 54
REMARK Flexibility Score: inf
ROOT
ATOM      1  C   UNL A   1      36.792  20.634  24.636  1.00  0.00     0.118 C 
ENDROOT
BRANCH   1   2
ATOM      2  N   UNL A   1      35.887  20.823  25.745  1.00  0.00    -0.351 N 
ATOM      3  C   UNL A   1      34.540  21.008  25.766  1.00  0.00     0.278 C 
ATOM      4  O   UNL A   1      34.043  21.264  26.869  1.00  0.00    -0.268 OA
ATOM      5  H   UNL A   1      36.314  20.817  26.631  1.00  0.00     0.163 HD
BRANCH   3   6
ATOM      6  C   UNL A   1      33.649  20.939  24.496  1.00  0.00     0.275 C 
BRANCH   6   7
ATOM      7  C   UNL A   1      33.232  22.301  23.867  1.00  0.00     0.051 C 
ATOM      8  C   UNL A   1      34.406  23.099  23.283  1.00  0.00     0.014 C 
ATOM      9  C   UNL A   1      32.199  22.082  22.750  1.00  0.00     0.014 C 
ENDBRANCH   6   7
BRANCH   6  10
ATOM     10  N   UNL A   1      32.616  19.876  24.631  1.00  0.00    -0.332 N 
ATOM     11  H   UNL A   1      31.704  20.325  24.550  1.00  0.00     0.347 HD
ATOM     12  H   UNL A   1      32.811  19.440  25.533  1.00  0.00     0.347 HD
BRANCH  10  13
ATOM     13  C   UNL A   1      32.647  18.780  23.679  1.00  0.00     0.298 C 
BRANCH  13  14
ATOM     14  C   UNL A   1      33.293  17.530  24.235  1.00  0.00     0.009 A 
ATOM     15  C   UNL A   1      32.509  16.476  24.711  1.00  0.00     0.029 A 
ATOM     16  C   UNL A   1      34.683  17.413  24.342  1.00  0.00     0.029 A 
ATOM     17  C   UNL A   1      33.136  15.388  25.303  1.00  0.00     0.111 A 
ATOM     18  C   UNL A   1      35.217  16.285  24.949  1.00  0.00     0.111 A 
ATOM     19  N   UNL A   1      34.474  15.276  25.442  1.00  0.00    -0.265 NA
ENDBRANCH  13  14
ENDBRANCH  10  13
ENDBRANCH   6  10
ENDBRANCH   3   6
ENDBRANCH   1   2
BRANCH   1  20
ATOM     20  C   UNL A   1      37.852  19.597  24.977  1.00  0.00     0.042 C 
BRANCH  20  21
ATOM     21  C   UNL A   1      38.995  20.154  25.811  1.00  0.00     0.118 C 
BRANCH  21  22
ATOM     22  N   UNL A   1      40.086  19.201  25.943  1.00  0.00    -0.352 N 
ATOM     23  C   UNL A   1      41.432  19.411  26.107  1.00  0.00     0.251 C 
ATOM     24  H   UNL A   1      39.816  18.255  25.907  1.00  0.00     0.163 HD
ATOM     25  O   UNL A   1      42.209  18.472  25.970  1.00  0.00    -0.269 OA
BRANCH  23  26
ATOM     26  C   UNL A   1      41.952  20.755  26.439  1.00  0.00     0.039 A 
ATOM     27  C   UNL A   1      42.156  21.670  25.402  1.00  0.00     0.014 A 
ATOM     28  C   UNL A   1      42.286  21.103  27.750  1.00  0.00     0.014 A 
ATOM     29  C   UNL A   1      42.647  22.946  25.686  1.00  0.00     0.010 A 
ATOM     30  C   UNL A   1      42.689  22.401  28.045  1.00  0.00     0.010 A 
ATOM     31  C   UNL A   1      42.891  23.330  27.014  1.00  0.00    -0.014 A 
BRANCH  31  32
ATOM     32  C   UNL A   1      43.389  24.688  27.345  1.00  0.00     0.031 A 
ATOM     33  C   UNL A   1      42.455  25.708  27.935  1.00  0.00     0.074 A 
ATOM     34  C   UNL A   1      44.662  25.019  27.058  1.00  0.00     0.049 A 
ATOM     35  N   UNL A   1      42.674  26.966  28.222  1.00  0.00    -0.248 NA
ATOM     36  C   UNL A   1      41.080  25.260  28.213  1.00  0.00     0.031 C 
ATOM     37  C   UNL A   1      45.651  24.129  26.447  1.00  0.00     0.029 A 
ATOM     38  N   UNL A   1      45.341  26.198  27.236  1.00  0.00    -0.354 N 
ATOM     39  C   UNL A   1      41.465  27.461  28.696  1.00  0.00     0.074 A 
ATOM     40  C   UNL A   1      40.501  26.386  28.604  1.00  0.00     0.031 C 
ATOM     41  C   UNL A   1      46.816  24.784  26.326  1.00  0.00     0.029 A 
ATOM     42  C   UNL A   1      46.647  26.150  26.815  1.00  0.00     0.049 A 
ATOM     43  H   UNL A   1      44.931  27.003  27.628  1.00  0.00     0.167 HD
ATOM     44  C   UNL A   1      41.191  28.692  29.190  1.00  0.00     0.037 A 
ATOM     45  C   UNL A   1      47.597  27.102  26.819  1.00  0.00     0.037 A 
ATOM     46  C   UNL A   1      42.161  29.748  29.306  1.00  0.00     0.049 A 
ATOM     47  C   UNL A   1      47.264  28.465  27.364  1.00  0.00     0.074 A 
ATOM     48  C   UNL A   1      42.000  31.015  29.838  1.00  0.00     0.029 A 
ATOM     49  N   UNL A   1      43.479  29.657  28.879  1.00  0.00    -0.354 N 
ATOM     50  N   UNL A   1      46.135  28.904  27.864  1.00  0.00    -0.248 NA
ATOM     51  C   UNL A   1      48.342  29.464  27.348  1.00  0.00     0.031 C 
ATOM     52  C   UNL A   1      43.209  31.704  29.697  1.00  0.00     0.029 A 
ATOM     53  C   UNL A   1      44.137  30.852  29.121  1.00  0.00     0.049 A 
ATOM     54  H   UNL A   1      43.885  28.861  28.467  1.00  0.00     0.167 HD
ATOM     55  C   UNL A   1      46.373  30.216  28.249  1.00  0.00     0.074 A 
ATOM     56  C   UNL A   1      47.759  30.497  27.936  1.00  0.00     0.031 C 
ATOM     57  C   UNL A   1      45.521  31.108  28.812  1.00  0.00     0.037 A 
BRANCH  44  58
ATOM     58  C   UNL A   1      39.785  28.956  29.645  1.00  0.00     0.064 A 
ATOM     59  C   UNL A   1      38.815  29.478  28.775  1.00  0.00     0.173 A 
ATOM     60  C   UNL A   1      39.395  28.667  30.962  1.00  0.00     0.173 A 
ATOM     61  F   UNL A   1      39.138  29.784  27.509  1.00  0.00    -0.203 F 
ATOM     62  C   UNL A   1      37.518  29.733  29.215  1.00  0.00     0.198 A 
ATOM     63  C   UNL A   1      38.088  28.894  31.390  1.00  0.00     0.198 A 
ATOM     64  F   UNL A   1      40.280  28.163  31.835  1.00  0.00    -0.203 F 
ATOM     65  F   UNL A   1      36.626  30.285  28.380  1.00  0.00    -0.200 F 
ATOM     66  C   UNL A   1      37.155  29.434  30.519  1.00  0.00     0.200 A 
ATOM     67  F   UNL A   1      37.735  28.594  32.647  1.00  0.00    -0.200 F 
ATOM     68  F   UNL A   1      35.906  29.678  30.940  1.00  0.00    -0.200 F 
ENDBRANCH  44  58
BRANCH  45  69
ATOM     69  C   UNL A   1      48.963  26.791  26.324  1.00  0.00     0.064 A 
ATOM     70  C   UNL A   1      49.933  26.261  27.188  1.00  0.00     0.173 A 
ATOM     71  C   UNL A   1      49.328  27.014  24.989  1.00  0.00     0.173 A 
ATOM     72  F   UNL A   1      49.636  26.049  28.478  1.00  0.00    -0.203 F 
ATOM     73  C   UNL A   1      51.221  25.982  26.737  1.00  0.00     0.198 A 
ATOM     74  C   UNL A   1      50.610  26.709  24.535  1.00  0.00     0.198 A 
ATOM     75  F   UNL A   1      48.435  27.515  24.123  1.00  0.00    -0.203 F 
ATOM     76  F   UNL A   1      52.141  25.516  27.593  1.00  0.00    -0.200 F 
ATOM     77  C   UNL A   1      51.558  26.201  25.410  1.00  0.00     0.200 A 
ATOM     78  F   UNL A   1      50.928  26.911  23.249  1.00  0.00    -0.200 F 
ATOM     79  F   UNL A   1      52.796  25.930  24.977  1.00  0.00    -0.200 F 
ENDBRANCH  45  69
BRANCH  57  80
ATOM     80  C   UNL A   1      46.074  32.459  29.160  1.00  0.00     0.064 A 
ATOM     81  C   UNL A   1      46.680  32.710  30.399  1.00  0.00     0.173 A 
ATOM     82  C   UNL A   1      46.030  33.504  28.223  1.00  0.00     0.173 A 
ATOM     83  F   UNL A   1      46.731  31.748  31.332  1.00  0.00    -0.203 F 
ATOM     84  C   UNL A   1      47.199  33.968  30.698  1.00  0.00     0.198 A 
ATOM     85  C   UNL A   1      46.577  34.750  28.515  1.00  0.00     0.198 A 
ATOM     86  F   UNL A   1      45.467  33.312  27.021  1.00  0.00    -0.203 F 
ATOM     87  F   UNL A   1      47.731  34.199  31.906  1.00  0.00    -0.200 F 
ATOM     88  C   UNL A   1      47.153  34.983  29.754  1.00  0.00     0.200 A 
ATOM     89  F   UNL A   1      46.544  35.725  27.597  1.00  0.00    -0.200 F 
ATOM     90  F   UNL A   1      47.661  36.189  30.042  1.00  0.00    -0.200 F 
ENDBRANCH  57  80
ENDBRANCH  31  32
ENDBRANCH  23  26
ENDBRANCH  21  22
ENDBRANCH  20  21
ENDBRANCH   1  20
TORSDOF 14
ENDMDL
MODEL 3
REMARK VINA RESULT:     -11.3      0.624      7.508
REMARK SMILES CC(C)[C@H]([NH2+]Cc1ccncc1)C(=O)NCCCNC(=O)c1ccc(-c2c3nc(c(-c4c(F)c(F)c(F)c(F)c4F)c4ccc([nH]4)c(-c4c(F)c(F)c(F)c(F)c4F)c4nc(c(-c5c(F)c(F)c(F)c(F)c5F)c5ccc2[nH]5)C=C4)C=C3)cc1
REMARK SMILES IDX 16 1 15 2 13 3 14 4 4 6 2 7 1 8 3 9 5 10 6 13 7 14 8 15
REMARK SMILES IDX 12 16 9 17 11 18 10 19 17 20 18 21 19 22 20 23 21 25 22 26
REMARK SMILES IDX 23 27 84 28 24 29 83 30 25 31 26 32 27 33 77 34 28 35 82 36
REMARK SMILES IDX 76 37 78 38 29 39 81 40 75 41 74 42 30 44 62 45 42 46 61 47
REMARK SMILES IDX 43 48 46 49 60 50 79 51 44 52 45 53 59 55 80 56 47 57 31 58
REMARK SMILES IDX 32 59 40 60 33 61 34 62 38 63 41 64 35 65 36 66 39 67 37 68
REMARK SMILES IDX 63 69 64 70 72 71 65 72 66 73 70 74 73 75 67 76 68 77 71 78
REMARK SMILES IDX 69 79 48 80 49 81 57 82 50 83 51 84 55 85 58 86 52 87 53 88
REMARK SMILES IDX 56 89 54 90
REMARK H PARENT 15 5 5 11 5 12 19 24 78 43 46 54
REMARK Flexibility Score: inf
ROOT
ATOM      1  C   UNL A   1      31.399  30.410  26.264  1.00  0.00     0.118 C 
ENDROOT
BRANCH   1   2
ATOM      2  N   UNL A   1      32.147  30.067  25.077  1.00  0.00    -0.351 N 
ATOM      3  C   UNL A   1      31.908  29.132  24.120  1.00  0.00     0.278 C 
ATOM      4  O   UNL A   1      32.794  28.981  23.272  1.00  0.00    -0.268 OA
ATOM      5  H   UNL A   1      32.965  30.597  24.938  1.00  0.00     0.163 HD
BRANCH   3   6
ATOM      6  C   UNL A   1      30.620  28.264  24.078  1.00  0.00     0.275 C 
BRANCH   6   7
ATOM      7  C   UNL A   1      30.745  26.812  24.627  1.00  0.00     0.051 C 
ATOM      8  C   UNL A   1      31.559  25.875  23.722  1.00  0.00     0.014 C 
ATOM      9  C   UNL A   1      31.397  26.818  26.018  1.00  0.00     0.014 C 
ENDBRANCH   6   7
BRANCH   6  10
ATOM     10  N   UNL A   1      29.878  28.478  22.806  1.00  0.00    -0.332 N 
ATOM     11  H   UNL A   1      29.870  27.590  22.304  1.00  0.00     0.347 HD
ATOM     12  H   UNL A   1      30.376  29.239  22.342  1.00  0.00     0.347 HD
BRANCH  10  13
ATOM     13  C   UNL A   1      28.504  28.939  22.896  1.00  0.00     0.298 C 
BRANCH  13  14
ATOM     14  C   UNL A   1      28.346  30.403  22.550  1.00  0.00     0.009 A 
ATOM     15  C   UNL A   1      28.031  30.796  21.246  1.00  0.00     0.029 A 
ATOM     16  C   UNL A   1      28.564  31.406  23.501  1.00  0.00     0.029 A 
ATOM     17  C   UNL A   1      27.991  32.151  20.946  1.00  0.00     0.111 A 
ATOM     18  C   UNL A   1      28.500  32.734  23.105  1.00  0.00     0.111 A 
ATOM     19  N   UNL A   1      28.230  33.128  21.846  1.00  0.00    -0.265 NA
ENDBRANCH  13  14
ENDBRANCH  10  13
ENDBRANCH   6  10
ENDBRANCH   3   6
ENDBRANCH   1   2
BRANCH   1  20
ATOM     20  C   UNL A   1      31.390  31.915  26.479  1.00  0.00     0.042 C 
BRANCH  20  21
ATOM     21  C   UNL A   1      32.747  32.477  26.875  1.00  0.00     0.118 C 
BRANCH  21  22
ATOM     22  N   UNL A   1      32.642  33.828  27.404  1.00  0.00    -0.352 N 
ATOM     23  C   UNL A   1      33.282  34.417  28.466  1.00  0.00     0.251 C 
ATOM     24  H   UNL A   1      32.011  34.413  26.924  1.00  0.00     0.163 HD
ATOM     25  O   UNL A   1      32.882  35.499  28.885  1.00  0.00    -0.269 OA
BRANCH  23  26
ATOM     26  C   UNL A   1      34.436  33.757  29.112  1.00  0.00     0.039 A 
ATOM     27  C   UNL A   1      34.197  32.712  30.009  1.00  0.00     0.014 A 
ATOM     28  C   UNL A   1      35.744  34.191  28.882  1.00  0.00     0.014 A 
ATOM     29  C   UNL A   1      35.269  32.072  30.634  1.00  0.00     0.010 A 
ATOM     30  C   UNL A   1      36.816  33.496  29.433  1.00  0.00     0.010 A 
ATOM     31  C   UNL A   1      36.588  32.442  30.329  1.00  0.00    -0.014 A 
BRANCH  31  32
ATOM     32  C   UNL A   1      37.746  31.761  30.961  1.00  0.00     0.031 A 
ATOM     33  C   UNL A   1      38.177  32.146  32.349  1.00  0.00     0.074 A 
ATOM     34  C   UNL A   1      38.441  30.844  30.264  1.00  0.00     0.049 A 
ATOM     35  N   UNL A   1      39.204  31.727  33.045  1.00  0.00    -0.248 NA
ATOM     36  C   UNL A   1      37.360  33.159  33.037  1.00  0.00     0.031 C 
ATOM     37  C   UNL A   1      38.144  30.418  28.895  1.00  0.00     0.029 A 
ATOM     38  N   UNL A   1      39.548  30.109  30.608  1.00  0.00    -0.354 N 
ATOM     39  C   UNL A   1      39.165  32.436  34.239  1.00  0.00     0.074 A 
ATOM     40  C   UNL A   1      38.050  33.354  34.151  1.00  0.00     0.031 C 
ATOM     41  C   UNL A   1      39.029  29.477  28.526  1.00  0.00     0.029 A 
ATOM     42  C   UNL A   1      39.977  29.262  29.616  1.00  0.00     0.049 A 
ATOM     43  H   UNL A   1      39.992  30.182  31.483  1.00  0.00     0.167 HD
ATOM     44  C   UNL A   1      39.970  32.314  35.322  1.00  0.00     0.037 A 
ATOM     45  C   UNL A   1      41.020  28.412  29.589  1.00  0.00     0.037 A 
ATOM     46  C   UNL A   1      41.060  31.380  35.414  1.00  0.00     0.049 A 
ATOM     47  C   UNL A   1      41.905  28.303  30.801  1.00  0.00     0.074 A 
ATOM     48  C   UNL A   1      41.904  31.140  36.483  1.00  0.00     0.029 A 
ATOM     49  N   UNL A   1      41.456  30.529  34.392  1.00  0.00    -0.354 N 
ATOM     50  N   UNL A   1      41.823  28.935  31.946  1.00  0.00    -0.248 NA
ATOM     51  C   UNL A   1      43.025  27.355  30.716  1.00  0.00     0.031 C 
ATOM     52  C   UNL A   1      42.837  30.172  36.094  1.00  0.00     0.029 A 
ATOM     53  C   UNL A   1      42.544  29.775  34.800  1.00  0.00     0.049 A 
ATOM     54  H   UNL A   1      41.026  30.470  33.508  1.00  0.00     0.167 HD
ATOM     55  C   UNL A   1      42.859  28.443  32.728  1.00  0.00     0.074 A 
ATOM     56  C   UNL A   1      43.547  27.449  31.930  1.00  0.00     0.031 C 
ATOM     57  C   UNL A   1      43.209  28.782  33.994  1.00  0.00     0.037 A 
BRANCH  44  58
ATOM     58  C   UNL A   1      39.693  33.212  36.493  1.00  0.00     0.064 A 
ATOM     59  C   UNL A   1      40.323  34.458  36.631  1.00  0.00     0.173 A 
ATOM     60  C   UNL A   1      38.772  32.832  37.482  1.00  0.00     0.173 A 
ATOM     61  F   UNL A   1      41.222  34.864  35.721  1.00  0.00    -0.203 F 
ATOM     62  C   UNL A   1      40.070  35.274  37.730  1.00  0.00     0.198 A 
ATOM     63  C   UNL A   1      38.497  33.664  38.564  1.00  0.00     0.198 A 
ATOM     64  F   UNL A   1      38.137  31.653  37.398  1.00  0.00    -0.203 F 
ATOM     65  F   UNL A   1      40.727  36.434  37.868  1.00  0.00    -0.200 F 
ATOM     66  C   UNL A   1      39.152  34.880  38.692  1.00  0.00     0.200 A 
ATOM     67  F   UNL A   1      37.601  33.287  39.486  1.00  0.00    -0.200 F 
ATOM     68  F   UNL A   1      38.906  35.667  39.749  1.00  0.00    -0.200 F 
ENDBRANCH  44  58
BRANCH  45  69
ATOM     69  C   UNL A   1      41.263  27.573  28.388  1.00  0.00     0.064 A 
ATOM     70  C   UNL A   1      42.160  27.990  27.394  1.00  0.00     0.173 A 
ATOM     71  C   UNL A   1      40.611  26.346  28.206  1.00  0.00     0.173 A 
ATOM     72  F   UNL A   1      42.792  29.167  27.514  1.00  0.00    -0.203 F 
ATOM     73  C   UNL A   1      42.382  27.219  26.255  1.00  0.00     0.198 A 
ATOM     74  C   UNL A   1      40.855  25.563  27.079  1.00  0.00     0.198 A 
ATOM     75  F   UNL A   1      39.748  25.900  29.131  1.00  0.00    -0.203 F 
ATOM     76  F   UNL A   1      43.212  27.661  25.301  1.00  0.00    -0.200 F 
ATOM     77  C   UNL A   1      41.734  26.003  26.101  1.00  0.00     0.200 A 
ATOM     78  F   UNL A   1      40.235  24.383  26.939  1.00  0.00    -0.200 F 
ATOM     79  F   UNL A   1      41.949  25.260  25.007  1.00  0.00    -0.200 F 
ENDBRANCH  45  69
BRANCH  57  80
ATOM     80  C   UNL A   1      44.364  28.047  34.606  1.00  0.00     0.064 A 
ATOM     81  C   UNL A   1      45.677  28.531  34.514  1.00  0.00     0.173 A 
ATOM     82  C   UNL A   1      44.147  26.863  35.327  1.00  0.00     0.173 A 
ATOM     83  F   UNL A   1      45.937  29.650  33.821  1.00  0.00    -0.203 F 
ATOM     84  C   UNL A   1      46.735  27.841  35.100  1.00  0.00     0.198 A 
ATOM     85  C   UNL A   1      45.203  26.192  35.938  1.00  0.00     0.198 A 
ATOM     86  F   UNL A   1      42.908  26.362  35.450  1.00  0.00    -0.203 F 
ATOM     87  F   UNL A   1      47.988  28.296  34.960  1.00  0.00    -0.200 F 
ATOM     88  C   UNL A   1      46.496  26.678  35.817  1.00  0.00     0.200 A 
ATOM     89  F   UNL A   1      44.969  25.076  36.641  1.00  0.00    -0.200 F 
ATOM     90  F   UNL A   1      47.516  26.021  36.387  1.00  0.00    -0.200 F 
ENDBRANCH  57  80
ENDBRANCH  31  32
ENDBRANCH  23  26
ENDBRANCH  21  22
ENDBRANCH  20  21
ENDBRANCH   1  20
TORSDOF 14
ENDMDL
