MODEL 1
REMARK VINA RESULT:     -12.7      0.000      0.000
REMARK SMILES CC(C)(C)OC(=O)N1C[C@@H](Oc2cccnc2)C[C@H]1C(=O)NCCCNC(=O)c1ccc(-c2c3nc(c(-c4c(F)c(F)c(F)c(F)c4F)c4ccc([nH]4)c(-c4c(F)c(F)c(F)c(F)c4F)c4nc(c(-c5c(F)c(F)c(F)c(F)c5F)c5ccc2[nH]5)C=C4)C=C3)cc1
REMARK SMILES IDX 23 1 22 2 20 3 21 4 19 6 8 7 9 8 10 9 18 10 6 11 7 12 5 13
REMARK SMILES IDX 2 14 1 15 3 16 4 17 11 18 12 19 13 20 17 21 14 22 16 23
REMARK SMILES IDX 15 24 24 25 25 26 26 27 27 28 28 30 29 31 30 32 91 33 31 34
REMARK SMILES IDX 90 35 32 36 33 37 34 38 84 39 35 40 89 41 83 42 85 43 36 44
REMARK SMILES IDX 88 45 82 46 81 47 37 49 69 50 49 51 68 52 50 53 53 54 67 55
REMARK SMILES IDX 86 56 51 57 52 58 66 60 87 61 54 62 38 63 39 64 47 65 40 66
REMARK SMILES IDX 41 67 45 68 48 69 42 70 43 71 46 72 44 73 70 74 71 75 79 76
REMARK SMILES IDX 72 77 73 78 77 79 80 80 74 81 75 82 78 83 76 84 55 85 56 86
REMARK SMILES IDX 64 87 57 88 58 89 62 90 65 91 59 92 60 93 63 94 61 95
REMARK H PARENT 22 5 26 29 85 48 53 59
REMARK Flexibility Score: inf
ROOT
ATOM      1  C   UNL A   1      32.188  26.417  25.825  1.00  0.00     0.117 C 
ENDROOT
BRANCH   1   2
ATOM      2  N   UNL A   1      31.763  25.392  26.766  1.00  0.00    -0.354 N 
ATOM      3  C   UNL A   1      31.950  24.039  26.709  1.00  0.00     0.243 C 
ATOM      4  O   UNL A   1      31.723  23.386  27.730  1.00  0.00    -0.273 OA
ATOM      5  H   UNL A   1      31.271  25.717  27.554  1.00  0.00     0.163 HD
BRANCH   3   6
ATOM      6  C   UNL A   1      32.497  23.392  25.423  1.00  0.00     0.181 C 
ATOM      7  N   UNL A   1      33.796  22.754  25.640  1.00  0.00    -0.292 N 
ATOM      8  C   UNL A   1      33.757  21.320  25.441  1.00  0.00     0.169 C 
ATOM      9  C   UNL A   1      32.460  21.069  24.680  1.00  0.00     0.195 C 
ATOM     10  C   UNL A   1      31.556  22.280  24.933  1.00  0.00     0.082 C 
BRANCH   7  11
ATOM     11  C   UNL A   1      34.919  23.503  25.886  1.00  0.00     0.411 C 
ATOM     12  O   UNL A   1      34.969  24.709  25.698  1.00  0.00    -0.224 OA
BRANCH  11  13
ATOM     13  O   UNL A   1      35.988  22.759  26.267  1.00  0.00    -0.444 OA
BRANCH  13  14
ATOM     14  C   UNL A   1      37.190  22.795  25.445  1.00  0.00     0.106 C 
ATOM     15  C   UNL A   1      38.015  23.969  25.990  1.00  0.00     0.056 C 
ATOM     16  C   UNL A   1      36.814  23.072  23.987  1.00  0.00     0.056 C 
ATOM     17  C   UNL A   1      38.059  21.526  25.570  1.00  0.00     0.056 C 
ENDBRANCH  13  14
ENDBRANCH  11  13
ENDBRANCH   7  11
BRANCH   9  18
ATOM     18  O   UNL A   1      31.879  19.779  24.842  1.00  0.00    -0.487 OA
BRANCH  18  19
ATOM     19  C   UNL A   1      32.543  18.622  24.581  1.00  0.00     0.138 A 
ATOM     20  C   UNL A   1      33.089  18.209  23.374  1.00  0.00     0.050 A 
ATOM     21  C   UNL A   1      32.687  17.753  25.661  1.00  0.00     0.157 A 
ATOM     22  C   UNL A   1      33.783  17.000  23.300  1.00  0.00     0.024 A 
ATOM     23  N   UNL A   1      33.342  16.567  25.624  1.00  0.00    -0.261 NA
ATOM     24  C   UNL A   1      33.885  16.221  24.440  1.00  0.00     0.111 A 
ENDBRANCH  18  19
ENDBRANCH   9  18
ENDBRANCH   3   6
ENDBRANCH   1   2
BRANCH   1  25
ATOM     25  C   UNL A   1      31.862  27.817  26.302  1.00  0.00     0.042 C 
BRANCH  25  26
ATOM     26  C   UNL A   1      32.891  28.853  25.880  1.00  0.00     0.118 C 
BRANCH  26  27
ATOM     27  N   UNL A   1      32.490  30.220  26.192  1.00  0.00    -0.352 N 
ATOM     28  C   UNL A   1      33.103  31.149  26.998  1.00  0.00     0.251 C 
ATOM     29  H   UNL A   1      31.659  30.522  25.762  1.00  0.00     0.163 HD
ATOM     30  O   UNL A   1      32.546  32.209  27.261  1.00  0.00    -0.269 OA
BRANCH  28  31
ATOM     31  C   UNL A   1      34.428  30.851  27.577  1.00  0.00     0.039 A 
ATOM     32  C   UNL A   1      35.380  31.870  27.654  1.00  0.00     0.014 A 
ATOM     33  C   UNL A   1      34.717  29.575  28.068  1.00  0.00     0.014 A 
ATOM     34  C   UNL A   1      36.594  31.633  28.300  1.00  0.00     0.010 A 
ATOM     35  C   UNL A   1      35.886  29.366  28.788  1.00  0.00     0.010 A 
ATOM     36  C   UNL A   1      36.837  30.392  28.911  1.00  0.00    -0.014 A 
BRANCH  36  37
ATOM     37  C   UNL A   1      38.077  30.126  29.680  1.00  0.00     0.031 A 
ATOM     38  C   UNL A   1      39.092  29.161  29.138  1.00  0.00     0.074 A 
ATOM     39  C   UNL A   1      38.239  30.671  30.900  1.00  0.00     0.049 A 
ATOM     40  N   UNL A   1      40.159  28.670  29.714  1.00  0.00    -0.248 NA
ATOM     41  C   UNL A   1      38.855  28.652  27.778  1.00  0.00     0.031 C 
ATOM     42  C   UNL A   1      37.304  31.590  31.550  1.00  0.00     0.029 A 
ATOM     43  N   UNL A   1      39.243  30.512  31.822  1.00  0.00    -0.354 N 
ATOM     44  C   UNL A   1      40.701  27.777  28.801  1.00  0.00     0.074 A 
ATOM     45  C   UNL A   1      39.823  27.757  27.651  1.00  0.00     0.031 C 
ATOM     46  C   UNL A   1      37.783  31.923  32.760  1.00  0.00     0.029 A 
ATOM     47  C   UNL A   1      39.036  31.210  32.988  1.00  0.00     0.049 A 
ATOM     48  H   UNL A   1      40.036  29.951  31.664  1.00  0.00     0.167 HD
ATOM     49  C   UNL A   1      41.841  27.052  28.905  1.00  0.00     0.037 A 
ATOM     50  C   UNL A   1      39.768  31.256  34.116  1.00  0.00     0.037 A 
ATOM     51  C   UNL A   1      42.731  27.107  30.033  1.00  0.00     0.049 A 
ATOM     52  C   UNL A   1      41.037  30.451  34.201  1.00  0.00     0.074 A 
ATOM     53  C   UNL A   1      43.939  26.456  30.211  1.00  0.00     0.029 A 
ATOM     54  N   UNL A   1      42.509  27.862  31.175  1.00  0.00    -0.354 N 
ATOM     55  N   UNL A   1      41.566  29.647  33.313  1.00  0.00    -0.248 NA
ATOM     56  C   UNL A   1      41.811  30.564  35.445  1.00  0.00     0.031 C 
ATOM     57  C   UNL A   1      44.434  26.793  31.475  1.00  0.00     0.029 A 
ATOM     58  C   UNL A   1      43.555  27.686  32.067  1.00  0.00     0.049 A 
ATOM     59  H   UNL A   1      41.726  28.438  31.330  1.00  0.00     0.167 HD
ATOM     60  C   UNL A   1      42.749  29.186  33.873  1.00  0.00     0.074 A 
ATOM     61  C   UNL A   1      42.863  29.802  35.178  1.00  0.00     0.031 C 
ATOM     62  C   UNL A   1      43.660  28.329  33.350  1.00  0.00     0.037 A 
BRANCH  49  63
ATOM     63  C   UNL A   1      42.190  26.142  27.764  1.00  0.00     0.064 A 
ATOM     64  C   UNL A   1      41.571  24.894  27.605  1.00  0.00     0.173 A 
ATOM     65  C   UNL A   1      43.131  26.537  26.802  1.00  0.00     0.173 A 
ATOM     66  F   UNL A   1      40.674  24.465  28.506  1.00  0.00    -0.203 F 
ATOM     67  C   UNL A   1      41.901  24.062  26.539  1.00  0.00     0.198 A 
ATOM     68  C   UNL A   1      43.437  25.715  25.721  1.00  0.00     0.198 A 
ATOM     69  F   UNL A   1      43.749  27.723  26.906  1.00  0.00    -0.203 F 
ATOM     70  F   UNL A   1      41.332  22.853  26.433  1.00  0.00    -0.200 F 
ATOM     71  C   UNL A   1      42.828  24.475  25.595  1.00  0.00     0.200 A 
ATOM     72  F   UNL A   1      44.326  26.121  24.803  1.00  0.00    -0.200 F 
ATOM     73  F   UNL A   1      43.141  23.676  24.566  1.00  0.00    -0.200 F 
ENDBRANCH  49  63
BRANCH  50  74
ATOM     74  C   UNL A   1      39.333  32.114  35.248  1.00  0.00     0.064 A 
ATOM     75  C   UNL A   1      38.573  31.582  36.300  1.00  0.00     0.173 A 
ATOM     76  C   UNL A   1      39.667  33.475  35.306  1.00  0.00     0.173 A 
ATOM     77  F   UNL A   1      38.213  30.290  36.277  1.00  0.00    -0.203 F 
ATOM     78  C   UNL A   1      38.147  32.383  37.357  1.00  0.00     0.198 A 
ATOM     79  C   UNL A   1      39.262  34.269  36.377  1.00  0.00     0.198 A 
ATOM     80  F   UNL A   1      40.397  34.030  34.329  1.00  0.00    -0.203 F 
ATOM     81  F   UNL A   1      37.388  31.858  38.328  1.00  0.00    -0.200 F 
ATOM     82  C   UNL A   1      38.498  33.724  37.398  1.00  0.00     0.200 A 
ATOM     83  F   UNL A   1      39.613  35.561  36.421  1.00  0.00    -0.200 F 
ATOM     84  F   UNL A   1      38.092  34.492  38.418  1.00  0.00    -0.200 F 
ENDBRANCH  50  74
BRANCH  62  85
ATOM     85  C   UNL A   1      44.888  28.048  34.165  1.00  0.00     0.064 A 
ATOM     86  C   UNL A   1      46.028  28.857  34.083  1.00  0.00     0.173 A 
ATOM     87  C   UNL A   1      44.895  26.987  35.084  1.00  0.00     0.173 A 
ATOM     88  F   UNL A   1      46.073  29.874  33.208  1.00  0.00    -0.203 F 
ATOM     89  C   UNL A   1      47.141  28.605  34.880  1.00  0.00     0.198 A 
ATOM     90  C   UNL A   1      45.999  26.753  35.897  1.00  0.00     0.198 A 
ATOM     91  F   UNL A   1      43.824  26.188  35.203  1.00  0.00    -0.203 F 
ATOM     92  F   UNL A   1      48.235  29.370  34.761  1.00  0.00    -0.200 F 
ATOM     93  C   UNL A   1      47.122  27.560  35.793  1.00  0.00     0.200 A 
ATOM     94  F   UNL A   1      45.975  25.750  36.786  1.00  0.00    -0.200 F 
ATOM     95  F   UNL A   1      48.190  27.326  36.567  1.00  0.00    -0.200 F 
ENDBRANCH  62  85
ENDBRANCH  36  37
ENDBRANCH  28  31
ENDBRANCH  26  27
ENDBRANCH  25  26
ENDBRANCH   1  25
TORSDOF 15
ENDMDL
MODEL 2
REMARK VINA RESULT:     -12.6      2.767      4.859
REMARK SMILES CC(C)(C)OC(=O)N1C[C@@H](Oc2cccnc2)C[C@H]1C(=O)NCCCNC(=O)c1ccc(-c2c3nc(c(-c4c(F)c(F)c(F)c(F)c4F)c4ccc([nH]4)c(-c4c(F)c(F)c(F)c(F)c4F)c4nc(c(-c5c(F)c(F)c(F)c(F)c5F)c5ccc2[nH]5)C=C4)C=C3)cc1
REMARK SMILES IDX 23 1 22 2 20 3 21 4 19 6 8 7 9 8 10 9 18 10 6 11 7 12 5 13
REMARK SMILES IDX 2 14 1 15 3 16 4 17 11 18 12 19 13 20 17 21 14 22 16 23
REMARK SMILES IDX 15 24 24 25 25 26 26 27 27 28 28 30 29 31 30 32 91 33 31 34
REMARK SMILES IDX 90 35 32 36 33 37 34 38 84 39 35 40 89 41 83 42 85 43 36 44
REMARK SMILES IDX 88 45 82 46 81 47 37 49 69 50 49 51 68 52 50 53 53 54 67 55
REMARK SMILES IDX 86 56 51 57 52 58 66 60 87 61 54 62 38 63 39 64 47 65 40 66
REMARK SMILES IDX 41 67 45 68 48 69 42 70 43 71 46 72 44 73 70 74 71 75 79 76
REMARK SMILES IDX 72 77 73 78 77 79 80 80 74 81 75 82 78 83 76 84 55 85 56 86
REMARK SMILES IDX 64 87 57 88 58 89 62 90 65 91 59 92 60 93 63 94 61 95
REMARK H PARENT 22 5 26 29 85 48 53 59
REMARK Flexibility Score: inf
ROOT
ATOM      1  C   UNL A   1      31.887  30.488  26.892  1.00  0.00     0.117 C 
ENDROOT
BRANCH   1   2
ATOM      2  N   UNL A   1      32.766  29.922  25.880  1.00  0.00    -0.354 N 
ATOM      3  C   UNL A   1      32.466  29.060  24.863  1.00  0.00     0.243 C 
ATOM      4  O   UNL A   1      33.312  28.903  23.979  1.00  0.00    -0.273 OA
ATOM      5  H   UNL A   1      33.709  30.198  25.936  1.00  0.00     0.163 HD
BRANCH   3   6
ATOM      6  C   UNL A   1      31.086  28.380  24.813  1.00  0.00     0.181 C 
ATOM      7  N   UNL A   1      30.605  28.218  23.440  1.00  0.00    -0.292 N 
ATOM      8  C   UNL A   1      30.461  26.829  23.056  1.00  0.00     0.169 C 
ATOM      9  C   UNL A   1      30.479  26.060  24.372  1.00  0.00     0.195 C 
ATOM     10  C   UNL A   1      31.155  26.965  25.406  1.00  0.00     0.082 C 
BRANCH   7  11
ATOM     11  C   UNL A   1      30.234  29.304  22.687  1.00  0.00     0.411 C 
ATOM     12  O   UNL A   1      30.680  29.523  21.571  1.00  0.00    -0.224 OA
BRANCH  11  13
ATOM     13  O   UNL A   1      29.399  30.151  23.339  1.00  0.00    -0.444 OA
BRANCH  13  14
ATOM     14  C   UNL A   1      28.041  30.316  22.838  1.00  0.00     0.106 C 
ATOM     15  C   UNL A   1      27.423  31.419  23.708  1.00  0.00     0.056 C 
ATOM     16  C   UNL A   1      27.255  29.016  23.033  1.00  0.00     0.056 C 
ATOM     17  C   UNL A   1      27.979  30.796  21.374  1.00  0.00     0.056 C 
ENDBRANCH  13  14
ENDBRANCH  11  13
ENDBRANCH   7  11
BRANCH   9  18
ATOM     18  O   UNL A   1      30.923  24.709  24.302  1.00  0.00    -0.487 OA
BRANCH  18  19
ATOM     19  C   UNL A   1      31.659  24.113  25.277  1.00  0.00     0.138 A 
ATOM     20  C   UNL A   1      33.038  23.968  25.333  1.00  0.00     0.050 A 
ATOM     21  C   UNL A   1      30.932  23.585  26.343  1.00  0.00     0.157 A 
ATOM     22  C   UNL A   1      33.632  23.364  26.443  1.00  0.00     0.024 A 
ATOM     23  N   UNL A   1      31.472  22.980  27.429  1.00  0.00    -0.261 NA
ATOM     24  C   UNL A   1      32.817  22.892  27.458  1.00  0.00     0.111 A 
ENDBRANCH  18  19
ENDBRANCH   9  18
ENDBRANCH   3   6
ENDBRANCH   1   2
BRANCH   1  25
ATOM     25  C   UNL A   1      31.701  31.983  26.734  1.00  0.00     0.042 C 
BRANCH  25  26
ATOM     26  C   UNL A   1      32.866  32.796  27.274  1.00  0.00     0.118 C 
BRANCH  26  27
ATOM     27  N   UNL A   1      32.495  34.159  27.636  1.00  0.00    -0.352 N 
ATOM     28  C   UNL A   1      33.009  34.975  28.615  1.00  0.00     0.251 C 
ATOM     29  H   UNL A   1      31.771  34.554  27.100  1.00  0.00     0.163 HD
ATOM     30  O   UNL A   1      32.475  36.048  28.874  1.00  0.00    -0.269 OA
BRANCH  28  31
ATOM     31  C   UNL A   1      34.192  34.537  29.382  1.00  0.00     0.039 A 
ATOM     32  C   UNL A   1      34.013  34.009  30.663  1.00  0.00     0.014 A 
ATOM     33  C   UNL A   1      35.470  34.622  28.824  1.00  0.00     0.014 A 
ATOM     34  C   UNL A   1      35.109  33.488  31.353  1.00  0.00     0.010 A 
ATOM     35  C   UNL A   1      36.543  34.024  29.473  1.00  0.00     0.010 A 
ATOM     36  C   UNL A   1      36.373  33.452  30.743  1.00  0.00    -0.014 A 
BRANCH  36  37
ATOM     37  C   UNL A   1      37.545  32.830  31.408  1.00  0.00     0.031 A 
ATOM     38  C   UNL A   1      38.258  31.691  30.739  1.00  0.00     0.074 A 
ATOM     39  C   UNL A   1      37.900  33.222  32.646  1.00  0.00     0.049 A 
ATOM     40  N   UNL A   1      39.197  30.910  31.208  1.00  0.00    -0.248 NA
ATOM     41  C   UNL A   1      37.834  31.363  29.368  1.00  0.00     0.031 C 
ATOM     42  C   UNL A   1      37.257  34.289  33.415  1.00  0.00     0.029 A 
ATOM     43  N   UNL A   1      38.877  32.751  33.485  1.00  0.00    -0.354 N 
ATOM     44  C   UNL A   1      39.452  29.985  30.205  1.00  0.00     0.074 A 
ATOM     45  C   UNL A   1      38.540  30.271  29.119  1.00  0.00     0.031 C 
ATOM     46  C   UNL A   1      37.866  34.400  34.607  1.00  0.00     0.029 A 
ATOM     47  C   UNL A   1      38.910  33.385  34.704  1.00  0.00     0.049 A 
ATOM     48  H   UNL A   1      39.497  32.027  33.239  1.00  0.00     0.167 HD
ATOM     49  C   UNL A   1      40.378  28.998  30.185  1.00  0.00     0.037 A 
ATOM     50  C   UNL A   1      39.687  33.162  35.781  1.00  0.00     0.037 A 
ATOM     51  C   UNL A   1      41.310  28.744  31.251  1.00  0.00     0.049 A 
ATOM     52  C   UNL A   1      40.717  32.066  35.728  1.00  0.00     0.074 A 
ATOM     53  C   UNL A   1      42.325  27.805  31.305  1.00  0.00     0.029 A 
ATOM     54  N   UNL A   1      41.341  29.439  32.452  1.00  0.00    -0.354 N 
ATOM     55  N   UNL A   1      40.983  31.229  34.757  1.00  0.00    -0.248 NA
ATOM     56  C   UNL A   1      41.557  31.888  36.921  1.00  0.00     0.031 C 
ATOM     57  C   UNL A   1      42.952  27.910  32.551  1.00  0.00     0.029 A 
ATOM     58  C   UNL A   1      42.354  28.943  33.257  1.00  0.00     0.049 A 
ATOM     59  H   UNL A   1      40.735  30.175  32.695  1.00  0.00     0.167 HD
ATOM     60  C   UNL A   1      42.041  30.449  35.204  1.00  0.00     0.074 A 
ATOM     61  C   UNL A   1      42.370  30.915  36.534  1.00  0.00     0.031 C 
ATOM     62  C   UNL A   1      42.681  29.438  34.568  1.00  0.00     0.037 A 
BRANCH  49  63
ATOM     63  C   UNL A   1      40.432  28.121  28.969  1.00  0.00     0.064 A 
ATOM     64  C   UNL A   1      39.700  26.927  28.891  1.00  0.00     0.173 A 
ATOM     65  C   UNL A   1      41.198  28.497  27.855  1.00  0.00     0.173 A 
ATOM     66  F   UNL A   1      38.963  26.518  29.935  1.00  0.00    -0.203 F 
ATOM     67  C   UNL A   1      39.754  26.127  27.754  1.00  0.00     0.198 A 
ATOM     68  C   UNL A   1      41.227  27.707  26.708  1.00  0.00     0.198 A 
ATOM     69  F   UNL A   1      41.913  29.631  27.876  1.00  0.00    -0.203 F 
ATOM     70  F   UNL A   1      39.085  24.966  27.721  1.00  0.00    -0.200 F 
ATOM     71  C   UNL A   1      40.511  26.520  26.661  1.00  0.00     0.200 A 
ATOM     72  F   UNL A   1      41.951  28.095  25.649  1.00  0.00    -0.200 F 
ATOM     73  F   UNL A   1      40.558  25.751  25.565  1.00  0.00    -0.200 F 
ENDBRANCH  49  63
BRANCH  50  74
ATOM     74  C   UNL A   1      39.537  34.009  36.991  1.00  0.00     0.064 A 
ATOM     75  C   UNL A   1      40.179  35.253  37.079  1.00  0.00     0.173 A 
ATOM     76  C   UNL A   1      38.752  33.601  38.079  1.00  0.00     0.173 A 
ATOM     77  F   UNL A   1      40.956  35.677  36.072  1.00  0.00    -0.203 F 
ATOM     78  C   UNL A   1      40.057  36.047  38.217  1.00  0.00     0.198 A 
ATOM     79  C   UNL A   1      38.609  34.408  39.206  1.00  0.00     0.198 A 
ATOM     80  F   UNL A   1      38.112  32.423  38.041  1.00  0.00    -0.203 F 
ATOM     81  F   UNL A   1      40.714  37.212  38.292  1.00  0.00    -0.200 F 
ATOM     82  C   UNL A   1      39.267  35.627  39.277  1.00  0.00     0.200 A 
ATOM     83  F   UNL A   1      37.835  34.005  40.222  1.00  0.00    -0.200 F 
ATOM     84  F   UNL A   1      39.146  36.393  40.369  1.00  0.00    -0.200 F 
ENDBRANCH  50  74
BRANCH  62  85
ATOM     85  C   UNL A   1      43.839  28.802  35.277  1.00  0.00     0.064 A 
ATOM     86  C   UNL A   1      45.150  29.270  35.116  1.00  0.00     0.173 A 
ATOM     87  C   UNL A   1      43.620  27.747  36.177  1.00  0.00     0.173 A 
ATOM     88  F   UNL A   1      45.410  30.266  34.256  1.00  0.00    -0.203 F 
ATOM     89  C   UNL A   1      46.205  28.693  35.818  1.00  0.00     0.198 A 
ATOM     90  C   UNL A   1      44.672  27.190  36.896  1.00  0.00     0.198 A 
ATOM     91  F   UNL A   1      42.382  27.269  36.369  1.00  0.00    -0.203 F 
ATOM     92  F   UNL A   1      47.456  29.132  35.624  1.00  0.00    -0.200 F 
ATOM     93  C   UNL A   1      45.965  27.661  36.714  1.00  0.00     0.200 A 
ATOM     94  F   UNL A   1      44.437  26.201  37.769  1.00  0.00    -0.200 F 
ATOM     95  F   UNL A   1      46.979  27.115  37.397  1.00  0.00    -0.200 F 
ENDBRANCH  62  85
ENDBRANCH  36  37
ENDBRANCH  28  31
ENDBRANCH  26  27
ENDBRANCH  25  26
ENDBRANCH   1  25
TORSDOF 15
ENDMDL
MODEL 3
REMARK VINA RESULT:     -12.6      2.718      4.961
REMARK SMILES CC(C)(C)OC(=O)N1C[C@@H](Oc2cccnc2)C[C@H]1C(=O)NCCCNC(=O)c1ccc(-c2c3nc(c(-c4c(F)c(F)c(F)c(F)c4F)c4ccc([nH]4)c(-c4c(F)c(F)c(F)c(F)c4F)c4nc(c(-c5c(F)c(F)c(F)c(F)c5F)c5ccc2[nH]5)C=C4)C=C3)cc1
REMARK SMILES IDX 23 1 22 2 20 3 21 4 19 6 8 7 9 8 10 9 18 10 6 11 7 12 5 13
REMARK SMILES IDX 2 14 1 15 3 16 4 17 11 18 12 19 13 20 17 21 14 22 16 23
REMARK SMILES IDX 15 24 24 25 25 26 26 27 27 28 28 30 29 31 30 32 91 33 31 34
REMARK SMILES IDX 90 35 32 36 33 37 34 38 84 39 35 40 89 41 83 42 85 43 36 44
REMARK SMILES IDX 88 45 82 46 81 47 37 49 69 50 49 51 68 52 50 53 53 54 67 55
REMARK SMILES IDX 86 56 51 57 52 58 66 60 87 61 54 62 38 63 39 64 47 65 40 66
REMARK SMILES IDX 41 67 45 68 48 69 42 70 43 71 46 72 44 73 70 74 71 75 79 76
REMARK SMILES IDX 72 77 73 78 77 79 80 80 74 81 75 82 78 83 76 84 55 85 56 86
REMARK SMILES IDX 64 87 57 88 58 89 62 90 65 91 59 92 60 93 63 94 61 95
REMARK H PARENT 22 5 26 29 85 48 53 59
REMARK Flexibility Score: inf
ROOT
ATOM      1  C   UNL A   1      31.793  30.554  26.784  1.00  0.00     0.117 C 
ENDROOT
BRANCH   1   2
ATOM      2  N   UNL A   1      32.730  30.074  25.780  1.00  0.00    -0.354 N 
ATOM      3  C   UNL A   1      32.527  29.169  24.775  1.00  0.00     0.243 C 
ATOM      4  O   UNL A   1      33.385  29.092  23.893  1.00  0.00    -0.273 OA
ATOM      5  H   UNL A   1      33.637  30.452  25.830  1.00  0.00     0.163 HD
BRANCH   3   6
ATOM      6  C   UNL A   1      31.228  28.341  24.736  1.00  0.00     0.181 C 
ATOM      7  N   UNL A   1      30.752  28.136  23.368  1.00  0.00    -0.292 N 
ATOM      8  C   UNL A   1      30.757  26.741  22.976  1.00  0.00     0.169 C 
ATOM      9  C   UNL A   1      30.875  25.971  24.286  1.00  0.00     0.195 C 
ATOM     10  C   UNL A   1      31.460  26.939  25.319  1.00  0.00     0.082 C 
BRANCH   7  11
ATOM     11  C   UNL A   1      30.254  29.178  22.627  1.00  0.00     0.411 C 
ATOM     12  O   UNL A   1      30.577  29.382  21.466  1.00  0.00    -0.224 OA
BRANCH  11  13
ATOM     13  O   UNL A   1      29.447  30.006  23.337  1.00  0.00    -0.444 OA
BRANCH  13  14
ATOM     14  C   UNL A   1      28.085  30.222  22.867  1.00  0.00     0.106 C 
ATOM     15  C   UNL A   1      27.515  31.315  23.781  1.00  0.00     0.056 C 
ATOM     16  C   UNL A   1      27.267  28.939  23.039  1.00  0.00     0.056 C 
ATOM     17  C   UNL A   1      28.009  30.748  21.419  1.00  0.00     0.056 C 
ENDBRANCH  13  14
ENDBRANCH  11  13
ENDBRANCH   7  11
BRANCH   9  18
ATOM     18  O   UNL A   1      31.464  24.677  24.201  1.00  0.00    -0.487 OA
BRANCH  18  19
ATOM     19  C   UNL A   1      32.003  24.031  25.269  1.00  0.00     0.138 A 
ATOM     20  C   UNL A   1      33.341  23.744  25.502  1.00  0.00     0.050 A 
ATOM     21  C   UNL A   1      31.095  23.607  26.238  1.00  0.00     0.157 A 
ATOM     22  C   UNL A   1      33.722  23.107  26.685  1.00  0.00     0.024 A 
ATOM     23  N   UNL A   1      31.426  22.974  27.390  1.00  0.00    -0.261 NA
ATOM     24  C   UNL A   1      32.740  22.747  27.592  1.00  0.00     0.111 A 
ENDBRANCH  18  19
ENDBRANCH   9  18
ENDBRANCH   3   6
ENDBRANCH   1   2
BRANCH   1  25
ATOM     25  C   UNL A   1      31.616  32.058  26.744  1.00  0.00     0.042 C 
BRANCH  25  26
ATOM     26  C   UNL A   1      32.781  32.819  27.354  1.00  0.00     0.118 C 
BRANCH  26  27
ATOM     27  N   UNL A   1      32.454  34.202  27.684  1.00  0.00    -0.352 N 
ATOM     28  C   UNL A   1      33.005  35.029  28.633  1.00  0.00     0.251 C 
ATOM     29  H   UNL A   1      31.733  34.602  27.147  1.00  0.00     0.163 HD
ATOM     30  O   UNL A   1      32.505  36.123  28.870  1.00  0.00    -0.269 OA
BRANCH  28  31
ATOM     31  C   UNL A   1      34.187  34.579  29.395  1.00  0.00     0.039 A 
ATOM     32  C   UNL A   1      34.005  34.027  30.665  1.00  0.00     0.014 A 
ATOM     33  C   UNL A   1      35.466  34.677  28.843  1.00  0.00     0.014 A 
ATOM     34  C   UNL A   1      35.100  33.495  31.348  1.00  0.00     0.010 A 
ATOM     35  C   UNL A   1      36.538  34.068  29.483  1.00  0.00     0.010 A 
ATOM     36  C   UNL A   1      36.366  33.472  30.742  1.00  0.00    -0.014 A 
BRANCH  36  37
ATOM     37  C   UNL A   1      37.537  32.840  31.397  1.00  0.00     0.031 A 
ATOM     38  C   UNL A   1      38.229  31.688  30.728  1.00  0.00     0.074 A 
ATOM     39  C   UNL A   1      37.910  33.236  32.630  1.00  0.00     0.049 A 
ATOM     40  N   UNL A   1      39.164  30.899  31.193  1.00  0.00    -0.248 NA
ATOM     41  C   UNL A   1      37.786  31.357  29.364  1.00  0.00     0.031 C 
ATOM     42  C   UNL A   1      37.289  34.315  33.398  1.00  0.00     0.029 A 
ATOM     43  N   UNL A   1      38.891  32.758  33.461  1.00  0.00    -0.354 N 
ATOM     44  C   UNL A   1      39.396  29.964  30.194  1.00  0.00     0.074 A 
ATOM     45  C   UNL A   1      38.476  30.255  29.115  1.00  0.00     0.031 C 
ATOM     46  C   UNL A   1      37.911  34.426  34.583  1.00  0.00     0.029 A 
ATOM     47  C   UNL A   1      38.945  33.399  34.675  1.00  0.00     0.049 A 
ATOM     48  H   UNL A   1      39.498  32.024  33.213  1.00  0.00     0.167 HD
ATOM     49  C   UNL A   1      40.310  28.965  30.170  1.00  0.00     0.037 A 
ATOM     50  C   UNL A   1      39.730  33.173  35.745  1.00  0.00     0.037 A 
ATOM     51  C   UNL A   1      41.249  28.706  31.228  1.00  0.00     0.049 A 
ATOM     52  C   UNL A   1      40.746  32.064  35.689  1.00  0.00     0.074 A 
ATOM     53  C   UNL A   1      42.254  27.755  31.277  1.00  0.00     0.029 A 
ATOM     54  N   UNL A   1      41.302  29.408  32.423  1.00  0.00    -0.354 N 
ATOM     55  N   UNL A   1      40.991  31.218  34.720  1.00  0.00    -0.248 NA
ATOM     56  C   UNL A   1      41.596  31.884  36.874  1.00  0.00     0.031 C 
ATOM     57  C   UNL A   1      42.894  27.861  32.516  1.00  0.00     0.029 A 
ATOM     58  C   UNL A   1      42.317  28.905  33.221  1.00  0.00     0.049 A 
ATOM     59  H   UNL A   1      40.708  30.154  32.668  1.00  0.00     0.167 HD
ATOM     60  C   UNL A   1      42.043  30.427  35.161  1.00  0.00     0.074 A 
ATOM     61  C   UNL A   1      42.393  30.897  36.485  1.00  0.00     0.031 C 
ATOM     62  C   UNL A   1      42.665  29.405  34.525  1.00  0.00     0.037 A 
BRANCH  49  63
ATOM     63  C   UNL A   1      40.339  28.080  28.959  1.00  0.00     0.064 A 
ATOM     64  C   UNL A   1      41.079  28.422  27.817  1.00  0.00     0.173 A 
ATOM     65  C   UNL A   1      39.645  26.862  28.952  1.00  0.00     0.173 A 
ATOM     66  F   UNL A   1      41.749  29.584  27.770  1.00  0.00    -0.203 F 
ATOM     67  C   UNL A   1      41.101  27.589  26.702  1.00  0.00     0.198 A 
ATOM     68  C   UNL A   1      39.693  26.017  27.845  1.00  0.00     0.198 A 
ATOM     69  F   UNL A   1      38.925  26.485  30.019  1.00  0.00    -0.203 F 
ATOM     70  F   UNL A   1      41.776  27.959  25.605  1.00  0.00    -0.200 F 
ATOM     71  C   UNL A   1      40.415  26.385  26.719  1.00  0.00     0.200 A 
ATOM     72  F   UNL A   1      39.037  24.848  27.868  1.00  0.00    -0.200 F 
ATOM     73  F   UNL A   1      40.442  25.581  25.647  1.00  0.00    -0.200 F 
ENDBRANCH  49  63
BRANCH  50  74
ATOM     74  C   UNL A   1      39.604  34.030  36.951  1.00  0.00     0.064 A 
ATOM     75  C   UNL A   1      38.833  33.616  38.047  1.00  0.00     0.173 A 
ATOM     76  C   UNL A   1      40.249  35.273  37.039  1.00  0.00     0.173 A 
ATOM     77  F   UNL A   1      38.182  32.444  38.002  1.00  0.00    -0.203 F 
ATOM     78  C   UNL A   1      38.697  34.420  39.176  1.00  0.00     0.198 A 
ATOM     79  C   UNL A   1      40.132  36.064  38.179  1.00  0.00     0.198 A 
ATOM     80  F   UNL A   1      41.003  35.711  36.020  1.00  0.00    -0.203 F 
ATOM     81  F   UNL A   1      37.922  34.018  40.193  1.00  0.00    -0.200 F 
ATOM     82  C   UNL A   1      39.352  35.641  39.244  1.00  0.00     0.200 A 
ATOM     83  F   UNL A   1      40.777  37.237  38.246  1.00  0.00    -0.200 F 
ATOM     84  F   UNL A   1      39.223  36.412  40.332  1.00  0.00    -0.200 F 
ENDBRANCH  50  74
BRANCH  62  85
ATOM     85  C   UNL A   1      43.823  28.758  35.226  1.00  0.00     0.064 A 
ATOM     86  C   UNL A   1      43.647  27.668  36.087  1.00  0.00     0.173 A 
ATOM     87  C   UNL A   1      45.131  29.203  34.981  1.00  0.00     0.173 A 
ATOM     88  F   UNL A   1      42.413  27.217  36.363  1.00  0.00    -0.203 F 
ATOM     89  C   UNL A   1      44.739  27.054  36.694  1.00  0.00     0.198 A 
ATOM     90  C   UNL A   1      46.222  28.571  35.567  1.00  0.00     0.198 A 
ATOM     91  F   UNL A   1      45.350  30.240  34.158  1.00  0.00    -0.203 F 
ATOM     92  F   UNL A   1      44.547  26.034  37.542  1.00  0.00    -0.200 F 
ATOM     93  C   UNL A   1      46.026  27.500  36.426  1.00  0.00     0.200 A 
ATOM     94  F   UNL A   1      47.465  28.996  35.300  1.00  0.00    -0.200 F 
ATOM     95  F   UNL A   1      47.077  26.900  37.002  1.00  0.00    -0.200 F 
ENDBRANCH  62  85
ENDBRANCH  36  37
ENDBRANCH  28  31
ENDBRANCH  26  27
ENDBRANCH  25  26
ENDBRANCH   1  25
TORSDOF 15
ENDMDL
