MODEL 1
REMARK VINA RESULT:     -14.2      0.000      0.000
REMARK SMILES O=C(Cn1cc(/C=C2\SC(N3CCOCC3)=[NH+]C2=O)c2ccccc21)NCCCNC(=O)c1ccc(-c2c3nc(c(-c4c(F)c(F)c(F)c(F)c4F)c4ccc([nH]4)c(-c4c(F)c(F)c(F)c(F)c4F)c4nc(c(-c5c(F)c(F)c(F)c(F)c5F)c5ccc2[nH]5)C=C4)C=C3)cc1
REMARK SMILES IDX 28 1 27 2 26 3 1 4 2 5 3 7 4 8 5 9 25 10 6 11 20 12 24 13
REMARK SMILES IDX 21 14 23 15 22 16 7 17 8 18 9 19 18 20 10 21 17 22 19 23
REMARK SMILES IDX 11 24 12 26 16 27 13 28 15 29 14 30 29 31 30 32 31 33 32 35
REMARK SMILES IDX 33 36 34 37 95 38 35 39 94 40 36 41 37 42 38 43 88 44 39 45
REMARK SMILES IDX 93 46 87 47 89 48 40 49 92 50 86 51 85 52 41 54 73 55 53 56
REMARK SMILES IDX 72 57 54 58 57 59 71 60 90 61 55 62 56 63 70 65 91 66 58 67
REMARK SMILES IDX 42 68 43 69 51 70 44 71 45 72 49 73 52 74 46 75 47 76 50 77
REMARK SMILES IDX 48 78 74 79 75 80 83 81 76 82 77 83 81 84 84 85 78 86 79 87
REMARK SMILES IDX 82 88 80 89 59 90 60 91 68 92 61 93 62 94 66 95 69 96 63 97
REMARK SMILES IDX 64 98 67 99 65 100
REMARK H PARENT 26 6 17 25 30 34 89 53 57 64
REMARK Flexibility Score: inf
ROOT
ATOM      1  C   UNL A   1      40.466  20.416  26.564  1.00  0.00     0.042 C 
ENDROOT
BRANCH   1   2
ATOM      2  C   UNL A   1      40.146  21.861  26.208  1.00  0.00     0.117 C 
BRANCH   2   3
ATOM      3  N   UNL A   1      38.756  22.170  26.447  1.00  0.00    -0.354 N 
ATOM      4  O   UNL A   1      37.929  21.085  24.601  1.00  0.00    -0.273 OA
ATOM      5  C   UNL A   1      37.738  21.695  25.649  1.00  0.00     0.239 C 
ATOM      6  H   UNL A   1      38.525  22.745  27.211  1.00  0.00     0.163 HD
BRANCH   5   7
ATOM      7  C   UNL A   1      36.356  22.047  26.147  1.00  0.00     0.222 C 
BRANCH   7   8
ATOM      8  N   UNL A   1      35.332  22.197  25.115  1.00  0.00    -0.337 N 
ATOM      9  C   UNL A   1      35.214  23.205  24.194  1.00  0.00     0.095 A 
ATOM     10  C   UNL A   1      34.330  21.261  24.906  1.00  0.00     0.049 A 
ATOM     11  C   UNL A   1      34.180  22.891  23.341  1.00  0.00     0.001 A 
ATOM     12  C   UNL A   1      33.576  21.693  23.810  1.00  0.00     0.007 A 
ATOM     13  C   UNL A   1      34.028  20.075  25.598  1.00  0.00     0.027 A 
ATOM     14  C   UNL A   1      32.469  20.922  23.404  1.00  0.00     0.011 A 
ATOM     15  C   UNL A   1      32.923  19.333  25.176  1.00  0.00     0.002 A 
ATOM     16  C   UNL A   1      32.149  19.752  24.099  1.00  0.00     0.001 A 
BRANCH  11  17
ATOM     17  C   UNL A   1      33.803  23.699  22.229  1.00  0.00     0.034 C 
ATOM     18  C   UNL A   1      33.331  24.953  22.290  1.00  0.00     0.110 C 
ATOM     19  S   UNL A   1      33.161  25.951  23.678  1.00  0.00     0.006 SA
ATOM     20  C   UNL A   1      32.864  25.703  21.093  1.00  0.00     0.346 C 
ATOM     21  C   UNL A   1      32.464  27.216  22.677  1.00  0.00     0.319 C 
ATOM     22  N   UNL A   1      32.352  26.934  21.417  1.00  0.00    -0.200 N 
ATOM     23  O   UNL A   1      32.939  25.252  19.947  1.00  0.00    -0.240 OA
ATOM     24  N   UNL A   1      32.050  28.374  23.276  1.00  0.00    -0.251 N 
ATOM     25  H   UNL A   1      31.943  27.542  20.759  1.00  0.00     0.316 HD
ATOM     26  C   UNL A   1      32.844  29.124  24.253  1.00  0.00     0.265 C 
ATOM     27  C   UNL A   1      30.882  29.111  22.779  1.00  0.00     0.265 C 
ATOM     28  C   UNL A   1      31.943  29.600  25.397  1.00  0.00     0.206 C 
ATOM     29  C   UNL A   1      30.076  29.641  23.972  1.00  0.00     0.206 C 
ATOM     30  O   UNL A   1      30.872  30.413  24.885  1.00  0.00    -0.373 OA
ENDBRANCH  11  17
ENDBRANCH   7   8
ENDBRANCH   5   7
ENDBRANCH   2   3
ENDBRANCH   1   2
BRANCH   1  31
ATOM     31  C   UNL A   1      41.909  20.199  27.041  1.00  0.00     0.118 C 
BRANCH  31  32
ATOM     32  N   UNL A   1      42.804  19.907  25.943  1.00  0.00    -0.352 N 
ATOM     33  C   UNL A   1      43.670  20.670  25.220  1.00  0.00     0.251 C 
ATOM     34  H   UNL A   1      42.782  18.965  25.660  1.00  0.00     0.163 HD
ATOM     35  O   UNL A   1      44.153  20.144  24.215  1.00  0.00    -0.269 OA
BRANCH  33  36
ATOM     36  C   UNL A   1      44.027  22.076  25.530  1.00  0.00     0.039 A 
ATOM     37  C   UNL A   1      45.005  22.473  26.442  1.00  0.00     0.014 A 
ATOM     38  C   UNL A   1      43.188  23.055  24.970  1.00  0.00     0.014 A 
ATOM     39  C   UNL A   1      45.007  23.763  26.939  1.00  0.00     0.010 A 
ATOM     40  C   UNL A   1      43.223  24.362  25.411  1.00  0.00     0.010 A 
ATOM     41  C   UNL A   1      44.053  24.665  26.479  1.00  0.00    -0.014 A 
BRANCH  41  42
ATOM     42  C   UNL A   1      43.866  25.889  27.232  1.00  0.00     0.031 A 
ATOM     43  C   UNL A   1      44.891  26.942  27.038  1.00  0.00     0.074 A 
ATOM     44  C   UNL A   1      42.771  26.043  28.000  1.00  0.00     0.049 A 
ATOM     45  N   UNL A   1      45.595  27.550  27.937  1.00  0.00    -0.248 NA
ATOM     46  C   UNL A   1      45.227  27.309  25.655  1.00  0.00     0.031 C 
ATOM     47  C   UNL A   1      41.587  25.178  28.078  1.00  0.00     0.029 A 
ATOM     48  N   UNL A   1      42.435  27.090  28.797  1.00  0.00    -0.354 N 
ATOM     49  C   UNL A   1      46.370  28.478  27.248  1.00  0.00     0.074 A 
ATOM     50  C   UNL A   1      46.182  28.219  25.844  1.00  0.00     0.031 C 
ATOM     51  C   UNL A   1      40.584  25.854  28.678  1.00  0.00     0.029 A 
ATOM     52  C   UNL A   1      41.089  27.140  29.124  1.00  0.00     0.049 A 
ATOM     53  H   UNL A   1      43.089  27.753  29.115  1.00  0.00     0.167 HD
ATOM     54  C   UNL A   1      46.994  29.514  27.871  1.00  0.00     0.037 A 
ATOM     55  C   UNL A   1      40.431  28.209  29.630  1.00  0.00     0.037 A 
ATOM     56  C   UNL A   1      47.133  29.299  29.282  1.00  0.00     0.049 A 
ATOM     57  C   UNL A   1      41.450  29.128  30.202  1.00  0.00     0.074 A 
ATOM     58  C   UNL A   1      47.819  28.375  30.047  1.00  0.00     0.029 A 
ATOM     59  N   UNL A   1      46.238  29.898  30.134  1.00  0.00    -0.354 N 
ATOM     60  N   UNL A   1      42.146  28.872  31.275  1.00  0.00    -0.248 NA
ATOM     61  C   UNL A   1      42.015  30.144  29.322  1.00  0.00     0.031 C 
ATOM     62  C   UNL A   1      46.983  28.132  31.173  1.00  0.00     0.029 A 
ATOM     63  C   UNL A   1      45.857  28.944  31.044  1.00  0.00     0.049 A 
ATOM     64  H   UNL A   1      45.930  30.832  30.099  1.00  0.00     0.167 HD
ATOM     65  C   UNL A   1      43.411  29.377  31.009  1.00  0.00     0.074 A 
ATOM     66  C   UNL A   1      43.246  30.228  29.836  1.00  0.00     0.031 C 
ATOM     67  C   UNL A   1      44.523  28.836  31.585  1.00  0.00     0.037 A 
BRANCH  54  68
ATOM     68  C   UNL A   1      47.245  30.839  27.218  1.00  0.00     0.064 A 
ATOM     69  C   UNL A   1      48.546  31.369  27.160  1.00  0.00     0.173 A 
ATOM     70  C   UNL A   1      46.201  31.722  26.873  1.00  0.00     0.173 A 
ATOM     71  F   UNL A   1      49.604  30.622  27.512  1.00  0.00    -0.203 F 
ATOM     72  C   UNL A   1      48.778  32.700  26.804  1.00  0.00     0.198 A 
ATOM     73  C   UNL A   1      46.438  33.031  26.466  1.00  0.00     0.198 A 
ATOM     74  F   UNL A   1      44.914  31.375  27.014  1.00  0.00    -0.203 F 
ATOM     75  F   UNL A   1      50.022  33.195  26.851  1.00  0.00    -0.200 F 
ATOM     76  C   UNL A   1      47.726  33.529  26.454  1.00  0.00     0.200 A 
ATOM     77  F   UNL A   1      45.404  33.824  26.153  1.00  0.00    -0.200 F 
ATOM     78  F   UNL A   1      47.943  34.815  26.150  1.00  0.00    -0.200 F 
ENDBRANCH  54  68
BRANCH  55  79
ATOM     79  C   UNL A   1      39.024  28.607  29.387  1.00  0.00     0.064 A 
ATOM     80  C   UNL A   1      38.122  28.758  30.451  1.00  0.00     0.173 A 
ATOM     81  C   UNL A   1      38.594  29.082  28.132  1.00  0.00     0.173 A 
ATOM     82  F   UNL A   1      38.469  28.381  31.690  1.00  0.00    -0.203 F 
ATOM     83  C   UNL A   1      36.871  29.359  30.271  1.00  0.00     0.198 A 
ATOM     84  C   UNL A   1      37.340  29.666  27.950  1.00  0.00     0.198 A 
ATOM     85  F   UNL A   1      39.412  29.077  27.070  1.00  0.00    -0.203 F 
ATOM     86  F   UNL A   1      36.060  29.542  31.323  1.00  0.00    -0.200 F 
ATOM     87  C   UNL A   1      36.483  29.816  29.022  1.00  0.00     0.200 A 
ATOM     88  F   UNL A   1      36.994  30.134  26.742  1.00  0.00    -0.200 F 
ATOM     89  F   UNL A   1      35.306  30.437  28.861  1.00  0.00    -0.200 F 
ENDBRANCH  55  79
BRANCH  67  90
ATOM     90  C   UNL A   1      44.323  27.828  32.682  1.00  0.00     0.064 A 
ATOM     91  C   UNL A   1      44.161  26.452  32.442  1.00  0.00     0.173 A 
ATOM     92  C   UNL A   1      44.480  28.235  34.014  1.00  0.00     0.173 A 
ATOM     93  F   UNL A   1      44.120  25.971  31.194  1.00  0.00    -0.203 F 
ATOM     94  C   UNL A   1      44.113  25.534  33.489  1.00  0.00     0.198 A 
ATOM     95  C   UNL A   1      44.469  27.311  35.056  1.00  0.00     0.198 A 
ATOM     96  F   UNL A   1      44.705  29.528  34.299  1.00  0.00    -0.203 F 
ATOM     97  F   UNL A   1      43.955  24.227  33.231  1.00  0.00    -0.200 F 
ATOM     98  C   UNL A   1      44.276  25.964  34.794  1.00  0.00     0.200 A 
ATOM     99  F   UNL A   1      44.684  27.724  36.313  1.00  0.00    -0.200 F 
ATOM    100  F   UNL A   1      44.284  25.076  35.799  1.00  0.00    -0.200 F 
ENDBRANCH  67  90
ENDBRANCH  41  42
ENDBRANCH  33  36
ENDBRANCH  31  32
ENDBRANCH   1  31
TORSDOF 12
ENDMDL
MODEL 2
REMARK VINA RESULT:     -13.9      3.002      9.032
REMARK SMILES O=C(Cn1cc(/C=C2\SC(N3CCOCC3)=[NH+]C2=O)c2ccccc21)NCCCNC(=O)c1ccc(-c2c3nc(c(-c4c(F)c(F)c(F)c(F)c4F)c4ccc([nH]4)c(-c4c(F)c(F)c(F)c(F)c4F)c4nc(c(-c5c(F)c(F)c(F)c(F)c5F)c5ccc2[nH]5)C=C4)C=C3)cc1
REMARK SMILES IDX 28 1 27 2 26 3 1 4 2 5 3 7 4 8 5 9 25 10 6 11 20 12 24 13
REMARK SMILES IDX 21 14 23 15 22 16 7 17 8 18 9 19 18 20 10 21 17 22 19 23
REMARK SMILES IDX 11 24 12 26 16 27 13 28 15 29 14 30 29 31 30 32 31 33 32 35
REMARK SMILES IDX 33 36 34 37 95 38 35 39 94 40 36 41 37 42 38 43 88 44 39 45
REMARK SMILES IDX 93 46 87 47 89 48 40 49 92 50 86 51 85 52 41 54 73 55 53 56
REMARK SMILES IDX 72 57 54 58 57 59 71 60 90 61 55 62 56 63 70 65 91 66 58 67
REMARK SMILES IDX 42 68 43 69 51 70 44 71 45 72 49 73 52 74 46 75 47 76 50 77
REMARK SMILES IDX 48 78 74 79 75 80 83 81 76 82 77 83 81 84 84 85 78 86 79 87
REMARK SMILES IDX 82 88 80 89 59 90 60 91 68 92 61 93 62 94 66 95 69 96 63 97
REMARK SMILES IDX 64 98 67 99 65 100
REMARK H PARENT 26 6 17 25 30 34 89 53 57 64
REMARK Flexibility Score: inf
ROOT
ATOM      1  C   UNL A   1      35.729  32.379  28.053  1.00  0.00     0.042 C 
ENDROOT
BRANCH   1   2
ATOM      2  C   UNL A   1      34.420  31.607  28.152  1.00  0.00     0.117 C 
BRANCH   2   3
ATOM      3  N   UNL A   1      34.256  30.700  27.040  1.00  0.00    -0.354 N 
ATOM      4  O   UNL A   1      31.976  30.907  26.870  1.00  0.00    -0.273 OA
ATOM      5  C   UNL A   1      33.038  30.470  26.437  1.00  0.00     0.239 C 
ATOM      6  H   UNL A   1      35.047  30.225  26.698  1.00  0.00     0.163 HD
BRANCH   5   7
ATOM      7  C   UNL A   1      33.117  29.574  25.223  1.00  0.00     0.222 C 
BRANCH   7   8
ATOM      8  N   UNL A   1      32.102  28.526  25.145  1.00  0.00    -0.337 N 
ATOM      9  C   UNL A   1      32.016  27.387  25.903  1.00  0.00     0.095 A 
ATOM     10  C   UNL A   1      31.022  28.586  24.278  1.00  0.00     0.049 A 
ATOM     11  C   UNL A   1      30.844  26.742  25.581  1.00  0.00     0.001 A 
ATOM     12  C   UNL A   1      30.231  27.457  24.516  1.00  0.00     0.007 A 
ATOM     13  C   UNL A   1      30.684  29.540  23.303  1.00  0.00     0.027 A 
ATOM     14  C   UNL A   1      29.071  27.266  23.738  1.00  0.00     0.011 A 
ATOM     15  C   UNL A   1      29.533  29.324  22.543  1.00  0.00     0.002 A 
ATOM     16  C   UNL A   1      28.739  28.200  22.752  1.00  0.00     0.001 A 
BRANCH  11  17
ATOM     17  C   UNL A   1      30.406  25.540  26.210  1.00  0.00     0.034 C 
ATOM     18  C   UNL A   1      31.096  24.391  26.282  1.00  0.00     0.110 C 
ATOM     19  S   UNL A   1      32.701  24.090  25.751  1.00  0.00     0.006 SA
ATOM     20  C   UNL A   1      30.537  23.145  26.870  1.00  0.00     0.346 C 
ATOM     21  C   UNL A   1      32.544  22.411  26.247  1.00  0.00     0.319 C 
ATOM     22  N   UNL A   1      31.399  22.084  26.759  1.00  0.00    -0.200 N 
ATOM     23  O   UNL A   1      29.421  23.093  27.396  1.00  0.00    -0.240 OA
ATOM     24  N   UNL A   1      33.593  21.561  26.029  1.00  0.00    -0.251 N 
ATOM     25  H   UNL A   1      31.172  21.167  27.039  1.00  0.00     0.316 HD
ATOM     26  C   UNL A   1      34.986  21.873  26.355  1.00  0.00     0.265 C 
ATOM     27  C   UNL A   1      33.370  20.148  25.700  1.00  0.00     0.265 C 
ATOM     28  C   UNL A   1      35.903  21.402  25.222  1.00  0.00     0.206 C 
ATOM     29  C   UNL A   1      34.381  19.714  24.629  1.00  0.00     0.206 C 
ATOM     30  O   UNL A   1      35.741  19.990  25.002  1.00  0.00    -0.373 OA
ENDBRANCH  11  17
ENDBRANCH   7   8
ENDBRANCH   5   7
ENDBRANCH   2   3
ENDBRANCH   1   2
BRANCH   1  31
ATOM     31  C   UNL A   1      35.930  33.404  29.179  1.00  0.00     0.118 C 
BRANCH  31  32
ATOM     32  N   UNL A   1      35.748  32.816  30.486  1.00  0.00    -0.352 N 
ATOM     33  C   UNL A   1      36.248  31.698  31.083  1.00  0.00     0.251 C 
ATOM     34  H   UNL A   1      35.136  33.327  31.064  1.00  0.00     0.163 HD
ATOM     35  O   UNL A   1      35.738  31.379  32.159  1.00  0.00    -0.269 OA
BRANCH  33  36
ATOM     36  C   UNL A   1      37.310  30.834  30.513  1.00  0.00     0.039 A 
ATOM     37  C   UNL A   1      37.180  29.471  30.250  1.00  0.00     0.014 A 
ATOM     38  C   UNL A   1      38.580  31.426  30.398  1.00  0.00     0.014 A 
ATOM     39  C   UNL A   1      38.306  28.685  30.087  1.00  0.00     0.010 A 
ATOM     40  C   UNL A   1      39.706  30.662  30.170  1.00  0.00     0.010 A 
ATOM     41  C   UNL A   1      39.561  29.284  30.140  1.00  0.00    -0.014 A 
BRANCH  41  42
ATOM     42  C   UNL A   1      40.713  28.419  30.290  1.00  0.00     0.031 A 
ATOM     43  C   UNL A   1      41.219  28.231  31.670  1.00  0.00     0.074 A 
ATOM     44  C   UNL A   1      41.221  27.787  29.214  1.00  0.00     0.049 A 
ATOM     45  N   UNL A   1      42.419  28.416  32.115  1.00  0.00    -0.248 NA
ATOM     46  C   UNL A   1      40.240  27.861  32.702  1.00  0.00     0.031 C 
ATOM     47  C   UNL A   1      40.662  27.710  27.858  1.00  0.00     0.029 A 
ATOM     48  N   UNL A   1      42.303  26.970  29.143  1.00  0.00    -0.354 N 
ATOM     49  C   UNL A   1      42.385  28.056  33.459  1.00  0.00     0.074 A 
ATOM     50  C   UNL A   1      41.003  27.821  33.793  1.00  0.00     0.031 C 
ATOM     51  C   UNL A   1      41.269  26.708  27.186  1.00  0.00     0.029 A 
ATOM     52  C   UNL A   1      42.327  26.162  28.018  1.00  0.00     0.049 A 
ATOM     53  H   UNL A   1      43.009  26.955  29.830  1.00  0.00     0.167 HD
ATOM     54  C   UNL A   1      43.513  27.810  34.178  1.00  0.00     0.037 A 
ATOM     55  C   UNL A   1      43.097  25.063  27.841  1.00  0.00     0.037 A 
ATOM     56  C   UNL A   1      44.683  28.369  33.567  1.00  0.00     0.049 A 
ATOM     57  C   UNL A   1      44.213  25.140  28.821  1.00  0.00     0.074 A 
ATOM     58  C   UNL A   1      45.095  29.659  33.289  1.00  0.00     0.029 A 
ATOM     59  N   UNL A   1      45.500  27.550  32.829  1.00  0.00    -0.354 N 
ATOM     60  N   UNL A   1      45.187  26.005  28.752  1.00  0.00    -0.248 NA
ATOM     61  C   UNL A   1      44.005  24.541  30.133  1.00  0.00     0.031 C 
ATOM     62  C   UNL A   1      45.797  29.566  32.054  1.00  0.00     0.029 A 
ATOM     63  C   UNL A   1      45.800  28.225  31.672  1.00  0.00     0.049 A 
ATOM     64  H   UNL A   1      45.812  26.651  33.080  1.00  0.00     0.167 HD
ATOM     65  C   UNL A   1      45.441  26.361  30.069  1.00  0.00     0.074 A 
ATOM     66  C   UNL A   1      44.752  25.362  30.877  1.00  0.00     0.031 C 
ATOM     67  C   UNL A   1      45.945  27.590  30.384  1.00  0.00     0.037 A 
BRANCH  54  68
ATOM     68  C   UNL A   1      43.572  26.833  35.312  1.00  0.00     0.064 A 
ATOM     69  C   UNL A   1      43.876  27.269  36.613  1.00  0.00     0.173 A 
ATOM     70  C   UNL A   1      43.589  25.437  35.108  1.00  0.00     0.173 A 
ATOM     71  F   UNL A   1      43.930  28.579  36.899  1.00  0.00    -0.203 F 
ATOM     72  C   UNL A   1      44.199  26.368  37.631  1.00  0.00     0.198 A 
ATOM     73  C   UNL A   1      43.857  24.538  36.136  1.00  0.00     0.198 A 
ATOM     74  F   UNL A   1      43.444  24.906  33.886  1.00  0.00    -0.203 F 
ATOM     75  F   UNL A   1      44.574  26.826  38.833  1.00  0.00    -0.200 F 
ATOM     76  C   UNL A   1      44.185  25.004  37.393  1.00  0.00     0.200 A 
ATOM     77  F   UNL A   1      43.861  23.223  35.880  1.00  0.00    -0.200 F 
ATOM     78  F   UNL A   1      44.532  24.141  38.357  1.00  0.00    -0.200 F 
ENDBRANCH  54  68
BRANCH  55  79
ATOM     79  C   UNL A   1      42.760  23.830  27.091  1.00  0.00     0.064 A 
ATOM     80  C   UNL A   1      43.654  23.287  26.155  1.00  0.00     0.173 A 
ATOM     81  C   UNL A   1      41.661  23.022  27.445  1.00  0.00     0.173 A 
ATOM     82  F   UNL A   1      44.754  23.966  25.799  1.00  0.00    -0.203 F 
ATOM     83  C   UNL A   1      43.466  22.009  25.617  1.00  0.00     0.198 A 
ATOM     84  C   UNL A   1      41.465  21.755  26.896  1.00  0.00     0.198 A 
ATOM     85  F   UNL A   1      40.801  23.400  28.401  1.00  0.00    -0.203 F 
ATOM     86  F   UNL A   1      44.373  21.500  24.773  1.00  0.00    -0.200 F 
ATOM     87  C   UNL A   1      42.374  21.243  25.992  1.00  0.00     0.200 A 
ATOM     88  F   UNL A   1      40.423  21.012  27.295  1.00  0.00    -0.200 F 
ATOM     89  F   UNL A   1      42.221  19.999  25.515  1.00  0.00    -0.200 F 
ENDBRANCH  55  79
BRANCH  67  90
ATOM     90  C   UNL A   1      46.423  28.460  29.256  1.00  0.00     0.064 A 
ATOM     91  C   UNL A   1      45.578  29.327  28.541  1.00  0.00     0.173 A 
ATOM     92  C   UNL A   1      47.799  28.557  29.011  1.00  0.00     0.173 A 
ATOM     93  F   UNL A   1      44.265  29.377  28.800  1.00  0.00    -0.203 F 
ATOM     94  C   UNL A   1      46.082  30.215  27.593  1.00  0.00     0.198 A 
ATOM     95  C   UNL A   1      48.305  29.472  28.090  1.00  0.00     0.198 A 
ATOM     96  F   UNL A   1      48.661  27.802  29.711  1.00  0.00    -0.203 F 
ATOM     97  F   UNL A   1      45.251  31.028  26.925  1.00  0.00    -0.200 F 
ATOM     98  C   UNL A   1      47.447  30.293  27.376  1.00  0.00     0.200 A 
ATOM     99  F   UNL A   1      49.630  29.584  27.923  1.00  0.00    -0.200 F 
ATOM    100  F   UNL A   1      47.939  31.184  26.504  1.00  0.00    -0.200 F 
ENDBRANCH  67  90
ENDBRANCH  41  42
ENDBRANCH  33  36
ENDBRANCH  31  32
ENDBRANCH   1  31
TORSDOF 12
ENDMDL
MODEL 3
REMARK VINA RESULT:     -13.9      1.981      2.784
REMARK SMILES O=C(Cn1cc(/C=C2\SC(N3CCOCC3)=[NH+]C2=O)c2ccccc21)NCCCNC(=O)c1ccc(-c2c3nc(c(-c4c(F)c(F)c(F)c(F)c4F)c4ccc([nH]4)c(-c4c(F)c(F)c(F)c(F)c4F)c4nc(c(-c5c(F)c(F)c(F)c(F)c5F)c5ccc2[nH]5)C=C4)C=C3)cc1
REMARK SMILES IDX 28 1 27 2 26 3 1 4 2 5 3 7 4 8 5 9 25 10 6 11 20 12 24 13
REMARK SMILES IDX 21 14 23 15 22 16 7 17 8 18 9 19 18 20 10 21 17 22 19 23
REMARK SMILES IDX 11 24 12 26 16 27 13 28 15 29 14 30 29 31 30 32 31 33 32 35
REMARK SMILES IDX 33 36 34 37 95 38 35 39 94 40 36 41 37 42 38 43 88 44 39 45
REMARK SMILES IDX 93 46 87 47 89 48 40 49 92 50 86 51 85 52 41 54 73 55 53 56
REMARK SMILES IDX 72 57 54 58 57 59 71 60 90 61 55 62 56 63 70 65 91 66 58 67
REMARK SMILES IDX 42 68 43 69 51 70 44 71 45 72 49 73 52 74 46 75 47 76 50 77
REMARK SMILES IDX 48 78 74 79 75 80 83 81 76 82 77 83 81 84 84 85 78 86 79 87
REMARK SMILES IDX 82 88 80 89 59 90 60 91 68 92 61 93 62 94 66 95 69 96 63 97
REMARK SMILES IDX 64 98 67 99 65 100
REMARK H PARENT 26 6 17 25 30 34 89 53 57 64
REMARK Flexibility Score: inf
ROOT
ATOM      1  C   UNL A   1      40.149  20.727  25.884  1.00  0.00     0.042 C 
ENDROOT
BRANCH   1   2
ATOM      2  C   UNL A   1      39.234  21.941  25.969  1.00  0.00     0.117 C 
BRANCH   2   3
ATOM      3  N   UNL A   1      37.855  21.553  26.149  1.00  0.00    -0.354 N 
ATOM      4  O   UNL A   1      36.996  23.678  26.249  1.00  0.00    -0.273 OA
ATOM      5  C   UNL A   1      36.824  22.464  26.210  1.00  0.00     0.239 C 
ATOM      6  H   UNL A   1      37.643  20.595  26.235  1.00  0.00     0.163 HD
BRANCH   5   7
ATOM      7  C   UNL A   1      35.453  21.832  26.287  1.00  0.00     0.222 C 
BRANCH   7   8
ATOM      8  N   UNL A   1      34.628  21.966  25.089  1.00  0.00    -0.337 N 
ATOM      9  C   UNL A   1      34.565  23.034  24.231  1.00  0.00     0.095 A 
ATOM     10  C   UNL A   1      33.797  20.956  24.629  1.00  0.00     0.049 A 
ATOM     11  C   UNL A   1      33.751  22.693  23.176  1.00  0.00     0.001 A 
ATOM     12  C   UNL A   1      33.214  21.404  23.438  1.00  0.00     0.007 A 
ATOM     13  C   UNL A   1      33.513  19.690  25.168  1.00  0.00     0.027 A 
ATOM     14  C   UNL A   1      32.298  20.563  22.775  1.00  0.00     0.011 A 
ATOM     15  C   UNL A   1      32.598  18.879  24.493  1.00  0.00     0.002 A 
ATOM     16  C   UNL A   1      31.993  19.310  23.316  1.00  0.00     0.001 A 
BRANCH  11  17
ATOM     17  C   UNL A   1      33.495  23.552  22.067  1.00  0.00     0.034 C 
ATOM     18  C   UNL A   1      33.084  24.828  22.138  1.00  0.00     0.110 C 
ATOM     19  S   UNL A   1      32.868  25.791  23.543  1.00  0.00     0.006 SA
ATOM     20  C   UNL A   1      32.741  25.637  20.938  1.00  0.00     0.346 C 
ATOM     21  C   UNL A   1      32.308  27.121  22.540  1.00  0.00     0.319 C 
ATOM     22  N   UNL A   1      32.271  26.883  21.266  1.00  0.00    -0.200 N 
ATOM     23  O   UNL A   1      32.874  25.216  19.785  1.00  0.00    -0.240 OA
ATOM     24  N   UNL A   1      31.912  28.280  23.146  1.00  0.00    -0.251 N 
ATOM     25  H   UNL A   1      31.940  27.531  20.602  1.00  0.00     0.316 HD
ATOM     26  C   UNL A   1      32.671  28.958  24.201  1.00  0.00     0.265 C 
ATOM     27  C   UNL A   1      30.821  29.093  22.595  1.00  0.00     0.265 C 
ATOM     28  C   UNL A   1      31.718  29.447  25.295  1.00  0.00     0.206 C 
ATOM     29  C   UNL A   1      29.960  29.629  23.747  1.00  0.00     0.206 C 
ATOM     30  O   UNL A   1      30.728  30.330  24.738  1.00  0.00    -0.373 OA
ENDBRANCH  11  17
ENDBRANCH   7   8
ENDBRANCH   5   7
ENDBRANCH   2   3
ENDBRANCH   1   2
BRANCH   1  31
ATOM     31  C   UNL A   1      41.524  20.941  26.533  1.00  0.00     0.118 C 
BRANCH  31  32
ATOM     32  N   UNL A   1      42.405  21.720  25.694  1.00  0.00    -0.352 N 
ATOM     33  C   UNL A   1      42.585  23.060  25.524  1.00  0.00     0.251 C 
ATOM     34  H   UNL A   1      42.995  21.171  25.129  1.00  0.00     0.163 HD
ATOM     35  O   UNL A   1      43.300  23.399  24.579  1.00  0.00    -0.269 OA
BRANCH  33  36
ATOM     36  C   UNL A   1      41.955  24.115  26.355  1.00  0.00     0.039 A 
ATOM     37  C   UNL A   1      41.150  25.145  25.869  1.00  0.00     0.014 A 
ATOM     38  C   UNL A   1      42.352  24.146  27.704  1.00  0.00     0.014 A 
ATOM     39  C   UNL A   1      40.927  26.272  26.638  1.00  0.00     0.010 A 
ATOM     40  C   UNL A   1      42.080  25.237  28.502  1.00  0.00     0.010 A 
ATOM     41  C   UNL A   1      41.475  26.337  27.915  1.00  0.00    -0.014 A 
BRANCH  41  42
ATOM     42  C   UNL A   1      41.506  27.631  28.568  1.00  0.00     0.031 A 
ATOM     43  C   UNL A   1      42.675  28.490  28.271  1.00  0.00     0.074 A 
ATOM     44  C   UNL A   1      40.472  28.015  29.341  1.00  0.00     0.049 A 
ATOM     45  N   UNL A   1      43.493  29.047  29.103  1.00  0.00    -0.248 NA
ATOM     46  C   UNL A   1      43.021  28.691  26.856  1.00  0.00     0.031 C 
ATOM     47  C   UNL A   1      39.171  27.356  29.512  1.00  0.00     0.029 A 
ATOM     48  N   UNL A   1      40.328  29.161  30.056  1.00  0.00    -0.354 N 
ATOM     49  C   UNL A   1      44.382  29.784  28.327  1.00  0.00     0.074 A 
ATOM     50  C   UNL A   1      44.112  29.450  26.952  1.00  0.00     0.031 C 
ATOM     51  C   UNL A   1      38.304  28.227  30.072  1.00  0.00     0.029 A 
ATOM     52  C   UNL A   1      39.017  29.448  30.402  1.00  0.00     0.049 A 
ATOM     53  H   UNL A   1      41.088  29.735  30.306  1.00  0.00     0.167 HD
ATOM     54  C   UNL A   1      45.178  30.755  28.851  1.00  0.00     0.037 A 
ATOM     55  C   UNL A   1      38.550  30.644  30.832  1.00  0.00     0.037 A 
ATOM     56  C   UNL A   1      45.326  30.631  30.272  1.00  0.00     0.049 A 
ATOM     57  C   UNL A   1      39.718  31.432  31.307  1.00  0.00     0.074 A 
ATOM     58  C   UNL A   1      45.883  29.673  31.098  1.00  0.00     0.029 A 
ATOM     59  N   UNL A   1      44.563  31.428  31.089  1.00  0.00    -0.354 N 
ATOM     60  N   UNL A   1      40.397  31.153  32.385  1.00  0.00    -0.248 NA
ATOM     61  C   UNL A   1      40.407  32.274  30.338  1.00  0.00     0.031 C 
ATOM     62  C   UNL A   1      45.055  29.653  32.255  1.00  0.00     0.029 A 
ATOM     63  C   UNL A   1      44.066  30.620  32.080  1.00  0.00     0.049 A 
ATOM     64  H   UNL A   1      44.403  32.393  30.983  1.00  0.00     0.167 HD
ATOM     65  C   UNL A   1      41.717  31.430  32.055  1.00  0.00     0.074 A 
ATOM     66  C   UNL A   1      41.651  32.203  30.820  1.00  0.00     0.031 C 
ATOM     67  C   UNL A   1      42.749  30.767  32.653  1.00  0.00     0.037 A 
BRANCH  54  68
ATOM     68  C   UNL A   1      45.613  31.968  28.088  1.00  0.00     0.064 A 
ATOM     69  C   UNL A   1      44.677  32.945  27.710  1.00  0.00     0.173 A 
ATOM     70  C   UNL A   1      46.889  32.071  27.494  1.00  0.00     0.173 A 
ATOM     71  F   UNL A   1      43.422  32.909  28.185  1.00  0.00    -0.203 F 
ATOM     72  C   UNL A   1      44.993  33.941  26.781  1.00  0.00     0.198 A 
ATOM     73  C   UNL A   1      47.218  33.094  26.611  1.00  0.00     0.198 A 
ATOM     74  F   UNL A   1      47.824  31.126  27.674  1.00  0.00    -0.203 F 
ATOM     75  F   UNL A   1      44.046  34.798  26.375  1.00  0.00    -0.200 F 
ATOM     76  C   UNL A   1      46.263  34.017  26.236  1.00  0.00     0.200 A 
ATOM     77  F   UNL A   1      48.447  33.138  26.078  1.00  0.00    -0.200 F 
ATOM     78  F   UNL A   1      46.555  34.947  25.317  1.00  0.00    -0.200 F 
ENDBRANCH  54  68
BRANCH  55  79
ATOM     79  C   UNL A   1      37.216  31.239  30.583  1.00  0.00     0.064 A 
ATOM     80  C   UNL A   1      36.341  31.522  31.643  1.00  0.00     0.173 A 
ATOM     81  C   UNL A   1      36.862  31.766  29.325  1.00  0.00     0.173 A 
ATOM     82  F   UNL A   1      36.628  31.103  32.884  1.00  0.00    -0.203 F 
ATOM     83  C   UNL A   1      35.191  32.296  31.458  1.00  0.00     0.198 A 
ATOM     84  C   UNL A   1      35.705  32.523  29.136  1.00  0.00     0.198 A 
ATOM     85  F   UNL A   1      37.673  31.640  28.266  1.00  0.00    -0.203 F 
ATOM     86  F   UNL A   1      34.412  32.597  32.506  1.00  0.00    -0.200 F 
ATOM     87  C   UNL A   1      34.876  32.799  30.205  1.00  0.00     0.200 A 
ATOM     88  F   UNL A   1      35.434  33.032  27.926  1.00  0.00    -0.200 F 
ATOM     89  F   UNL A   1      33.801  33.582  30.038  1.00  0.00    -0.200 F 
ENDBRANCH  55  79
BRANCH  67  90
ATOM     90  C   UNL A   1      42.428  29.891  33.833  1.00  0.00     0.064 A 
ATOM     91  C   UNL A   1      41.957  28.573  33.706  1.00  0.00     0.173 A 
ATOM     92  C   UNL A   1      42.777  30.330  35.117  1.00  0.00     0.173 A 
ATOM     93  F   UNL A   1      41.711  28.042  32.502  1.00  0.00    -0.203 F 
ATOM     94  C   UNL A   1      41.799  27.749  34.819  1.00  0.00     0.198 A 
ATOM     95  C   UNL A   1      42.654  29.492  36.223  1.00  0.00     0.198 A 
ATOM     96  F   UNL A   1      43.296  31.556  35.290  1.00  0.00    -0.203 F 
ATOM     97  F   UNL A   1      41.344  26.496  34.668  1.00  0.00    -0.200 F 
ATOM     98  C   UNL A   1      42.157  28.207  36.075  1.00  0.00     0.200 A 
ATOM     99  F   UNL A   1      43.054  29.919  37.428  1.00  0.00    -0.200 F 
ATOM    100  F   UNL A   1      42.057  27.398  37.139  1.00  0.00    -0.200 F 
ENDBRANCH  67  90
ENDBRANCH  41  42
ENDBRANCH  33  36
ENDBRANCH  31  32
ENDBRANCH   1  31
TORSDOF 12
ENDMDL
