MODEL 1
REMARK VINA RESULT:     -10.6      0.000      0.000
REMARK SMILES CC[C@H](C)N(CC(=O)NCCCNC(=O)c1ccc(-c2c3nc(c(-c4c(F)c(F)c(F)c(F)c4F)c4ccc([nH]4)c(-c4c(F)c(F)c(F)c(F)c4F)c4nc(c(-c5c(F)c(F)c(F)c(F)c5F)c5ccc2[nH]5)C=C4)C=C3)cc1)C(=O)N(C)[C@@H](C)Cc1cccs1
REMARK SMILES IDX 7 1 8 2 9 3 6 5 5 6 3 7 4 8 2 9 1 10 79 11 80 12 81 13 82 14
REMARK SMILES IDX 83 15 84 16 85 17 86 18 87 19 90 20 88 21 89 22 10 23 11 24
REMARK SMILES IDX 12 25 13 26 14 27 15 29 16 30 17 31 78 32 18 33 77 34 19 35
REMARK SMILES IDX 20 36 21 37 71 38 22 39 76 40 70 41 72 42 23 43 75 44 69 45
REMARK SMILES IDX 68 46 24 48 56 49 36 50 55 51 37 52 40 53 54 54 73 55 38 56
REMARK SMILES IDX 39 57 53 59 74 60 41 61 25 62 26 63 34 64 27 65 28 66 32 67
REMARK SMILES IDX 35 68 29 69 30 70 33 71 31 72 57 73 58 74 66 75 59 76 60 77
REMARK SMILES IDX 64 78 67 79 61 80 62 81 65 82 63 83 42 84 43 85 51 86 44 87
REMARK SMILES IDX 45 88 49 89 52 90 46 91 47 92 50 93 48 94
REMARK H PARENT 9 4 13 28 72 47 40 58
REMARK Flexibility Score: inf
ROOT
ATOM      1  C   UNL A   1      33.388  29.019  26.597  1.00  0.00     0.239 C 
ATOM      2  O   UNL A   1      34.620  28.933  26.567  1.00  0.00    -0.273 OA
ATOM      3  N   UNL A   1      32.864  30.257  26.818  1.00  0.00    -0.354 N 
ATOM      4  H   UNL A   1      33.497  30.930  27.158  1.00  0.00     0.163 HD
ENDROOT
BRANCH   1   5
ATOM      5  C   UNL A   1      32.501  27.818  26.232  1.00  0.00     0.221 C 
BRANCH   5   6
ATOM      6  N   UNL A   1      32.869  27.004  25.060  1.00  0.00    -0.313 N 
BRANCH   6   7
ATOM      7  C   UNL A   1      32.931  25.527  25.324  1.00  0.00     0.084 C 
ATOM      8  C   UNL A   1      34.386  25.044  25.383  1.00  0.00     0.031 C 
BRANCH   7   9
ATOM      9  C   UNL A   1      32.017  25.042  26.486  1.00  0.00     0.021 C 
ATOM     10  C   UNL A   1      30.698  24.385  26.106  1.00  0.00     0.006 C 
ENDBRANCH   7   9
ENDBRANCH   6   7
BRANCH   6  11
ATOM     11  C   UNL A   1      32.821  27.373  23.722  1.00  0.00     0.320 C 
ATOM     12  O   UNL A   1      33.765  28.037  23.273  1.00  0.00    -0.248 OA
BRANCH  11  13
ATOM     13  N   UNL A   1      31.796  27.037  22.856  1.00  0.00    -0.325 N 
ATOM     14  C   UNL A   1      31.752  26.020  21.813  1.00  0.00     0.149 C 
BRANCH  13  15
ATOM     15  C   UNL A   1      30.521  27.808  22.982  1.00  0.00     0.088 C 
ATOM     16  C   UNL A   1      29.476  27.048  23.815  1.00  0.00     0.031 C 
BRANCH  15  17
ATOM     17  C   UNL A   1      30.698  29.273  23.468  1.00  0.00     0.071 C 
BRANCH  17  18
ATOM     18  C   UNL A   1      29.540  30.182  23.119  1.00  0.00     0.007 A 
ATOM     19  C   UNL A   1      29.011  31.210  23.876  1.00  0.00     0.015 A 
ATOM     20  S   UNL A   1      28.759  30.080  21.594  1.00  0.00    -0.149 S 
ATOM     21  C   UNL A   1      27.919  31.859  23.230  1.00  0.00     0.012 A 
ATOM     22  C   UNL A   1      27.652  31.312  21.996  1.00  0.00     0.065 A 
ENDBRANCH  17  18
ENDBRANCH  15  17
ENDBRANCH  13  15
ENDBRANCH  11  13
ENDBRANCH   6  11
ENDBRANCH   5   6
ENDBRANCH   1   5
BRANCH   3  23
ATOM     23  C   UNL A   1      31.509  30.721  26.624  1.00  0.00     0.117 C 
BRANCH  23  24
ATOM     24  C   UNL A   1      31.392  32.234  26.715  1.00  0.00     0.042 C 
BRANCH  24  25
ATOM     25  C   UNL A   1      32.705  32.958  26.983  1.00  0.00     0.118 C 
BRANCH  25  26
ATOM     26  N   UNL A   1      32.521  34.250  27.628  1.00  0.00    -0.352 N 
ATOM     27  C   UNL A   1      33.089  34.793  28.752  1.00  0.00     0.251 C 
ATOM     28  H   UNL A   1      31.874  34.839  27.177  1.00  0.00     0.163 HD
ATOM     29  O   UNL A   1      32.626  35.842  29.204  1.00  0.00    -0.269 OA
BRANCH  27  30
ATOM     30  C   UNL A   1      34.228  34.147  29.443  1.00  0.00     0.039 A 
ATOM     31  C   UNL A   1      35.528  34.464  29.030  1.00  0.00     0.014 A 
ATOM     32  C   UNL A   1      34.039  33.188  30.439  1.00  0.00     0.014 A 
ATOM     33  C   UNL A   1      36.628  33.869  29.654  1.00  0.00     0.010 A 
ATOM     34  C   UNL A   1      35.135  32.667  31.125  1.00  0.00     0.010 A 
ATOM     35  C   UNL A   1      36.442  32.989  30.731  1.00  0.00    -0.014 A 
BRANCH  35  36
ATOM     36  C   UNL A   1      37.594  32.374  31.440  1.00  0.00     0.031 A 
ATOM     37  C   UNL A   1      38.345  31.229  30.810  1.00  0.00     0.074 A 
ATOM     38  C   UNL A   1      37.927  32.798  32.675  1.00  0.00     0.049 A 
ATOM     39  N   UNL A   1      39.313  30.499  31.305  1.00  0.00    -0.248 NA
ATOM     40  C   UNL A   1      37.931  30.833  29.455  1.00  0.00     0.031 C 
ATOM     41  C   UNL A   1      37.252  33.867  33.413  1.00  0.00     0.029 A 
ATOM     42  N   UNL A   1      38.910  32.372  33.534  1.00  0.00    -0.354 N 
ATOM     43  C   UNL A   1      39.601  29.545  30.337  1.00  0.00     0.074 A 
ATOM     44  C   UNL A   1      38.677  29.757  29.245  1.00  0.00     0.031 C 
ATOM     45  C   UNL A   1      37.854  34.028  34.603  1.00  0.00     0.029 A 
ATOM     46  C   UNL A   1      38.929  33.049  34.729  1.00  0.00     0.049 A 
ATOM     47  H   UNL A   1      39.542  31.650  33.314  1.00  0.00     0.167 HD
ATOM     48  C   UNL A   1      40.562  28.591  30.350  1.00  0.00     0.037 A 
ATOM     49  C   UNL A   1      39.719  32.891  35.809  1.00  0.00     0.037 A 
ATOM     50  C   UNL A   1      41.512  28.413  31.416  1.00  0.00     0.049 A 
ATOM     51  C   UNL A   1      40.789  31.832  35.787  1.00  0.00     0.074 A 
ATOM     52  C   UNL A   1      42.572  27.526  31.487  1.00  0.00     0.029 A 
ATOM     53  N   UNL A   1      41.519  29.141  32.596  1.00  0.00    -0.354 N 
ATOM     54  N   UNL A   1      41.095  30.982  34.838  1.00  0.00    -0.248 NA
ATOM     55  C   UNL A   1      41.628  31.715  36.988  1.00  0.00     0.031 C 
ATOM     56  C   UNL A   1      43.196  27.688  32.728  1.00  0.00     0.029 A 
ATOM     57  C   UNL A   1      42.555  28.710  33.409  1.00  0.00     0.049 A 
ATOM     58  H   UNL A   1      40.883  29.857  32.822  1.00  0.00     0.167 HD
ATOM     59  C   UNL A   1      42.180  30.257  35.311  1.00  0.00     0.074 A 
ATOM     60  C   UNL A   1      42.487  30.773  36.627  1.00  0.00     0.031 C 
ATOM     61  C   UNL A   1      42.860  29.251  34.708  1.00  0.00     0.037 A 
BRANCH  48  62
ATOM     62  C   UNL A   1      40.648  27.668  29.170  1.00  0.00     0.064 A 
ATOM     63  C   UNL A   1      41.591  27.860  28.150  1.00  0.00     0.173 A 
ATOM     64  C   UNL A   1      39.813  26.542  29.086  1.00  0.00     0.173 A 
ATOM     65  F   UNL A   1      42.406  28.926  28.177  1.00  0.00    -0.203 F 
ATOM     66  C   UNL A   1      41.682  26.975  27.080  1.00  0.00     0.198 A 
ATOM     67  C   UNL A   1      39.927  25.642  28.031  1.00  0.00     0.198 A 
ATOM     68  F   UNL A   1      38.897  26.308  30.039  1.00  0.00    -0.203 F 
ATOM     69  F   UNL A   1      42.563  27.202  26.097  1.00  0.00    -0.200 F 
ATOM     70  C   UNL A   1      40.856  25.861  27.025  1.00  0.00     0.200 A 
ATOM     71  F   UNL A   1      39.136  24.560  27.986  1.00  0.00    -0.200 F 
ATOM     72  F   UNL A   1      40.954  25.003  26.002  1.00  0.00    -0.200 F 
ENDBRANCH  48  62
BRANCH  49  73
ATOM     73  C   UNL A   1      39.550  33.770  36.996  1.00  0.00     0.064 A 
ATOM     74  C   UNL A   1      40.256  34.977  37.102  1.00  0.00     0.173 A 
ATOM     75  C   UNL A   1      38.705  33.414  38.057  1.00  0.00     0.173 A 
ATOM     76  F   UNL A   1      41.094  35.350  36.123  1.00  0.00    -0.203 F 
ATOM     77  C   UNL A   1      40.146  35.779  38.236  1.00  0.00     0.198 A 
ATOM     78  C   UNL A   1      38.573  34.232  39.176  1.00  0.00     0.198 A 
ATOM     79  F   UNL A   1      38.004  32.271  38.003  1.00  0.00    -0.203 F 
ATOM     80  F   UNL A   1      40.875  36.899  38.334  1.00  0.00    -0.200 F 
ATOM     81  C   UNL A   1      39.302  35.408  39.270  1.00  0.00     0.200 A 
ATOM     82  F   UNL A   1      37.747  33.876  40.170  1.00  0.00    -0.200 F 
ATOM     83  F   UNL A   1      39.198  36.178  40.361  1.00  0.00    -0.200 F 
ENDBRANCH  49  73
BRANCH  61  84
ATOM     84  C   UNL A   1      44.035  28.677  35.443  1.00  0.00     0.064 A 
ATOM     85  C   UNL A   1      43.900  27.582  36.309  1.00  0.00     0.173 A 
ATOM     86  C   UNL A   1      45.320  29.206  35.245  1.00  0.00     0.173 A 
ATOM     87  F   UNL A   1      42.691  27.051  36.542  1.00  0.00    -0.203 F 
ATOM     88  C   UNL A   1      45.005  27.052  36.969  1.00  0.00     0.198 A 
ATOM     89  C   UNL A   1      46.427  28.655  35.884  1.00  0.00     0.198 A 
ATOM     90  F   UNL A   1      45.503  30.249  34.422  1.00  0.00    -0.203 F 
ATOM     91  F   UNL A   1      44.847  26.035  37.826  1.00  0.00    -0.200 F 
ATOM     92  C   UNL A   1      46.268  27.584  36.751  1.00  0.00     0.200 A 
ATOM     93  F   UNL A   1      47.648  29.160  35.662  1.00  0.00    -0.200 F 
ATOM     94  F   UNL A   1      47.332  27.068  37.380  1.00  0.00    -0.200 F 
ENDBRANCH  61  84
ENDBRANCH  35  36
ENDBRANCH  27  30
ENDBRANCH  25  26
ENDBRANCH  24  25
ENDBRANCH  23  24
ENDBRANCH   3  23
TORSDOF 18
ENDMDL
MODEL 2
REMARK VINA RESULT:     -10.4      4.876     10.027
REMARK SMILES CC[C@H](C)N(CC(=O)NCCCNC(=O)c1ccc(-c2c3nc(c(-c4c(F)c(F)c(F)c(F)c4F)c4ccc([nH]4)c(-c4c(F)c(F)c(F)c(F)c4F)c4nc(c(-c5c(F)c(F)c(F)c(F)c5F)c5ccc2[nH]5)C=C4)C=C3)cc1)C(=O)N(C)[C@@H](C)Cc1cccs1
REMARK SMILES IDX 7 1 8 2 9 3 6 5 5 6 3 7 4 8 2 9 1 10 79 11 80 12 81 13 82 14
REMARK SMILES IDX 83 15 84 16 85 17 86 18 87 19 90 20 88 21 89 22 10 23 11 24
REMARK SMILES IDX 12 25 13 26 14 27 15 29 16 30 17 31 78 32 18 33 77 34 19 35
REMARK SMILES IDX 20 36 21 37 71 38 22 39 76 40 70 41 72 42 23 43 75 44 69 45
REMARK SMILES IDX 68 46 24 48 56 49 36 50 55 51 37 52 40 53 54 54 73 55 38 56
REMARK SMILES IDX 39 57 53 59 74 60 41 61 25 62 26 63 34 64 27 65 28 66 32 67
REMARK SMILES IDX 35 68 29 69 30 70 33 71 31 72 57 73 58 74 66 75 59 76 60 77
REMARK SMILES IDX 64 78 67 79 61 80 62 81 65 82 63 83 42 84 43 85 51 86 44 87
REMARK SMILES IDX 45 88 49 89 52 90 46 91 47 92 50 93 48 94
REMARK H PARENT 9 4 13 28 72 47 40 58
REMARK Flexibility Score: inf
ROOT
ATOM      1  C   UNL A   1      31.272  23.063  26.593  1.00  0.00     0.239 C 
ATOM      2  O   UNL A   1      30.310  23.342  27.316  1.00  0.00    -0.273 OA
ATOM      3  N   UNL A   1      32.252  22.295  27.144  1.00  0.00    -0.354 N 
ATOM      4  H   UNL A   1      32.226  22.216  28.125  1.00  0.00     0.163 HD
ENDROOT
BRANCH   1   5
ATOM      5  C   UNL A   1      31.272  23.425  25.099  1.00  0.00     0.221 C 
BRANCH   5   6
ATOM      6  N   UNL A   1      31.701  24.779  24.705  1.00  0.00    -0.313 N 
BRANCH   6   7
ATOM      7  C   UNL A   1      33.154  24.889  24.342  1.00  0.00     0.084 C 
ATOM      8  C   UNL A   1      33.998  25.251  25.572  1.00  0.00     0.031 C 
BRANCH   7   9
ATOM      9  C   UNL A   1      33.694  23.709  23.485  1.00  0.00     0.021 C 
ATOM     10  C   UNL A   1      33.049  23.484  22.125  1.00  0.00     0.006 C 
ENDBRANCH   7   9
ENDBRANCH   6   7
BRANCH   6  11
ATOM     11  C   UNL A   1      30.900  25.839  24.303  1.00  0.00     0.320 C 
ATOM     12  O   UNL A   1      29.704  25.812  24.623  1.00  0.00    -0.248 OA
BRANCH  11  13
ATOM     13  N   UNL A   1      31.353  26.929  23.580  1.00  0.00    -0.325 N 
ATOM     14  C   UNL A   1      31.697  27.035  22.168  1.00  0.00     0.149 C 
BRANCH  13  15
ATOM     15  C   UNL A   1      31.523  28.214  24.326  1.00  0.00     0.088 C 
ATOM     16  C   UNL A   1      30.440  29.238  23.951  1.00  0.00     0.031 C 
BRANCH  15  17
ATOM     17  C   UNL A   1      31.663  28.053  25.865  1.00  0.00     0.071 C 
BRANCH  17  18
ATOM     18  C   UNL A   1      32.722  28.940  26.483  1.00  0.00     0.007 A 
ATOM     19  C   UNL A   1      34.033  28.617  26.775  1.00  0.00     0.015 A 
ATOM     20  S   UNL A   1      32.405  30.590  26.833  1.00  0.00    -0.149 S 
ATOM     21  C   UNL A   1      34.749  29.706  27.354  1.00  0.00     0.012 A 
ATOM     22  C   UNL A   1      33.964  30.829  27.479  1.00  0.00     0.065 A 
ENDBRANCH  17  18
ENDBRANCH  15  17
ENDBRANCH  13  15
ENDBRANCH  11  13
ENDBRANCH   6  11
ENDBRANCH   5   6
ENDBRANCH   1   5
BRANCH   3  23
ATOM     23  C   UNL A   1      33.325  21.579  26.491  1.00  0.00     0.117 C 
BRANCH  23  24
ATOM     24  C   UNL A   1      34.670  21.805  27.162  1.00  0.00     0.042 C 
BRANCH  24  25
ATOM     25  C   UNL A   1      35.765  22.316  26.235  1.00  0.00     0.118 C 
BRANCH  25  26
ATOM     26  N   UNL A   1      36.770  21.309  25.931  1.00  0.00    -0.352 N 
ATOM     27  C   UNL A   1      38.136  21.387  25.836  1.00  0.00     0.251 C 
ATOM     28  H   UNL A   1      36.405  20.410  25.763  1.00  0.00     0.163 HD
ATOM     29  O   UNL A   1      38.756  20.427  25.378  1.00  0.00    -0.269 OA
BRANCH  27  30
ATOM     30  C   UNL A   1      38.880  22.597  26.254  1.00  0.00     0.039 A 
ATOM     31  C   UNL A   1      39.943  22.451  27.154  1.00  0.00     0.014 A 
ATOM     32  C   UNL A   1      38.510  23.875  25.830  1.00  0.00     0.014 A 
ATOM     33  C   UNL A   1      40.664  23.572  27.577  1.00  0.00     0.010 A 
ATOM     34  C   UNL A   1      39.287  24.979  26.176  1.00  0.00     0.010 A 
ATOM     35  C   UNL A   1      40.364  24.843  27.065  1.00  0.00    -0.014 A 
BRANCH  35  36
ATOM     36  C   UNL A   1      41.140  26.046  27.465  1.00  0.00     0.031 A 
ATOM     37  C   UNL A   1      40.478  27.146  28.251  1.00  0.00     0.074 A 
ATOM     38  C   UNL A   1      42.421  26.180  27.068  1.00  0.00     0.049 A 
ATOM     39  N   UNL A   1      40.954  28.311  28.613  1.00  0.00    -0.248 NA
ATOM     40  C   UNL A   1      39.081  26.920  28.659  1.00  0.00     0.031 C 
ATOM     41  C   UNL A   1      43.165  25.207  26.266  1.00  0.00     0.029 A 
ATOM     42  N   UNL A   1      43.321  27.196  27.275  1.00  0.00    -0.354 N 
ATOM     43  C   UNL A   1      39.912  28.962  29.261  1.00  0.00     0.074 A 
ATOM     44  C   UNL A   1      38.764  28.085  29.206  1.00  0.00     0.031 C 
ATOM     45  C   UNL A   1      44.413  25.663  26.068  1.00  0.00     0.029 A 
ATOM     46  C   UNL A   1      44.546  26.975  26.693  1.00  0.00     0.049 A 
ATOM     47  H   UNL A   1      43.109  28.006  27.792  1.00  0.00     0.167 HD
ATOM     48  C   UNL A   1      39.919  30.174  29.867  1.00  0.00     0.037 A 
ATOM     49  C   UNL A   1      45.648  27.748  26.659  1.00  0.00     0.037 A 
ATOM     50  C   UNL A   1      41.076  31.024  29.964  1.00  0.00     0.049 A 
ATOM     51  C   UNL A   1      45.630  29.084  27.353  1.00  0.00     0.074 A 
ATOM     52  C   UNL A   1      41.203  32.234  30.624  1.00  0.00     0.029 A 
ATOM     53  N   UNL A   1      42.307  30.750  29.389  1.00  0.00    -0.354 N 
ATOM     54  N   UNL A   1      44.659  29.657  28.022  1.00  0.00    -0.248 NA
ATOM     55  C   UNL A   1      46.866  29.878  27.294  1.00  0.00     0.031 C 
ATOM     56  C   UNL A   1      42.500  32.713  30.413  1.00  0.00     0.029 A 
ATOM     57  C   UNL A   1      43.195  31.777  29.664  1.00  0.00     0.049 A 
ATOM     58  H   UNL A   1      42.519  29.944  28.864  1.00  0.00     0.167 HD
ATOM     59  C   UNL A   1      45.176  30.858  28.491  1.00  0.00     0.074 A 
ATOM     60  C   UNL A   1      46.549  30.926  28.040  1.00  0.00     0.031 C 
ATOM     61  C   UNL A   1      44.566  31.819  29.226  1.00  0.00     0.037 A 
BRANCH  48  62
ATOM     62  C   UNL A   1      38.638  30.655  30.484  1.00  0.00     0.064 A 
ATOM     63  C   UNL A   1      38.322  30.390  31.825  1.00  0.00     0.173 A 
ATOM     64  C   UNL A   1      37.742  31.440  29.742  1.00  0.00     0.173 A 
ATOM     65  F   UNL A   1      39.139  29.637  32.575  1.00  0.00    -0.203 F 
ATOM     66  C   UNL A   1      37.147  30.874  32.393  1.00  0.00     0.198 A 
ATOM     67  C   UNL A   1      36.583  31.947  30.322  1.00  0.00     0.198 A 
ATOM     68  F   UNL A   1      38.000  31.728  28.457  1.00  0.00    -0.203 F 
ATOM     69  F   UNL A   1      36.846  30.574  33.664  1.00  0.00    -0.200 F 
ATOM     70  C   UNL A   1      36.282  31.659  31.645  1.00  0.00     0.200 A 
ATOM     71  F   UNL A   1      35.755  32.716  29.600  1.00  0.00    -0.200 F 
ATOM     72  F   UNL A   1      35.158  32.135  32.197  1.00  0.00    -0.200 F 
ENDBRANCH  48  62
BRANCH  49  73
ATOM     73  C   UNL A   1      46.874  27.275  25.964  1.00  0.00     0.064 A 
ATOM     74  C   UNL A   1      47.851  26.540  26.651  1.00  0.00     0.173 A 
ATOM     75  C   UNL A   1      47.109  27.567  24.612  1.00  0.00     0.173 A 
ATOM     76  F   UNL A   1      47.681  26.255  27.951  1.00  0.00    -0.203 F 
ATOM     77  C   UNL A   1      49.028  26.141  26.022  1.00  0.00     0.198 A 
ATOM     78  C   UNL A   1      48.274  27.142  23.977  1.00  0.00     0.198 A 
ATOM     79  F   UNL A   1      46.205  28.265  23.908  1.00  0.00    -0.203 F 
ATOM     80  F   UNL A   1      49.968  25.488  26.718  1.00  0.00    -0.200 F 
ATOM     81  C   UNL A   1      49.237  26.438  24.685  1.00  0.00     0.200 A 
ATOM     82  F   UNL A   1      48.467  27.421  22.680  1.00  0.00    -0.200 F 
ATOM     83  F   UNL A   1      50.370  26.057  24.081  1.00  0.00    -0.200 F 
ENDBRANCH  49  73
BRANCH  61  84
ATOM     84  C   UNL A   1      45.392  33.002  29.636  1.00  0.00     0.064 A 
ATOM     85  C   UNL A   1      45.441  34.170  28.861  1.00  0.00     0.173 A 
ATOM     86  C   UNL A   1      46.112  32.979  30.840  1.00  0.00     0.173 A 
ATOM     87  F   UNL A   1      44.783  34.235  27.695  1.00  0.00    -0.203 F 
ATOM     88  C   UNL A   1      46.200  35.265  29.266  1.00  0.00     0.198 A 
ATOM     89  C   UNL A   1      46.847  34.086  31.256  1.00  0.00     0.198 A 
ATOM     90  F   UNL A   1      46.092  31.888  31.620  1.00  0.00    -0.203 F 
ATOM     91  F   UNL A   1      46.270  36.353  28.488  1.00  0.00    -0.200 F 
ATOM     92  C   UNL A   1      46.896  35.224  30.465  1.00  0.00     0.200 A 
ATOM     93  F   UNL A   1      47.506  34.051  32.422  1.00  0.00    -0.200 F 
ATOM     94  F   UNL A   1      47.620  36.281  30.858  1.00  0.00    -0.200 F 
ENDBRANCH  61  84
ENDBRANCH  35  36
ENDBRANCH  27  30
ENDBRANCH  25  26
ENDBRANCH  24  25
ENDBRANCH  23  24
ENDBRANCH   3  23
TORSDOF 18
ENDMDL
MODEL 3
REMARK VINA RESULT:     -10.4      0.783      1.943
REMARK SMILES CC[C@H](C)N(CC(=O)NCCCNC(=O)c1ccc(-c2c3nc(c(-c4c(F)c(F)c(F)c(F)c4F)c4ccc([nH]4)c(-c4c(F)c(F)c(F)c(F)c4F)c4nc(c(-c5c(F)c(F)c(F)c(F)c5F)c5ccc2[nH]5)C=C4)C=C3)cc1)C(=O)N(C)[C@@H](C)Cc1cccs1
REMARK SMILES IDX 7 1 8 2 9 3 6 5 5 6 3 7 4 8 2 9 1 10 79 11 80 12 81 13 82 14
REMARK SMILES IDX 83 15 84 16 85 17 86 18 87 19 90 20 88 21 89 22 10 23 11 24
REMARK SMILES IDX 12 25 13 26 14 27 15 29 16 30 17 31 78 32 18 33 77 34 19 35
REMARK SMILES IDX 20 36 21 37 71 38 22 39 76 40 70 41 72 42 23 43 75 44 69 45
REMARK SMILES IDX 68 46 24 48 56 49 36 50 55 51 37 52 40 53 54 54 73 55 38 56
REMARK SMILES IDX 39 57 53 59 74 60 41 61 25 62 26 63 34 64 27 65 28 66 32 67
REMARK SMILES IDX 35 68 29 69 30 70 33 71 31 72 57 73 58 74 66 75 59 76 60 77
REMARK SMILES IDX 64 78 67 79 61 80 62 81 65 82 63 83 42 84 43 85 51 86 44 87
REMARK SMILES IDX 45 88 49 89 52 90 46 91 47 92 50 93 48 94
REMARK H PARENT 9 4 13 28 72 47 40 58
REMARK Flexibility Score: inf
ROOT
ATOM      1  C   UNL A   1      33.538  28.991  27.169  1.00  0.00     0.239 C 
ATOM      2  O   UNL A   1      34.769  28.887  27.199  1.00  0.00    -0.273 OA
ATOM      3  N   UNL A   1      33.032  30.240  26.975  1.00  0.00    -0.354 N 
ATOM      4  H   UNL A   1      33.669  30.980  27.100  1.00  0.00     0.163 HD
ENDROOT
BRANCH   1   5
ATOM      5  C   UNL A   1      32.638  27.745  27.181  1.00  0.00     0.221 C 
BRANCH   5   6
ATOM      6  N   UNL A   1      32.191  27.190  25.891  1.00  0.00    -0.313 N 
BRANCH   6   7
ATOM      7  C   UNL A   1      33.299  26.670  25.021  1.00  0.00     0.084 C 
ATOM      8  C   UNL A   1      33.959  27.812  24.237  1.00  0.00     0.031 C 
BRANCH   7   9
ATOM      9  C   UNL A   1      34.279  25.698  25.739  1.00  0.00     0.021 C 
ATOM     10  C   UNL A   1      33.900  24.224  25.768  1.00  0.00     0.006 C 
ENDBRANCH   7   9
ENDBRANCH   6   7
BRANCH   6  11
ATOM     11  C   UNL A   1      30.911  26.780  25.543  1.00  0.00     0.320 C 
ATOM     12  O   UNL A   1      30.180  26.344  26.442  1.00  0.00    -0.248 OA
BRANCH  11  13
ATOM     13  N   UNL A   1      30.395  26.839  24.260  1.00  0.00    -0.325 N 
ATOM     14  C   UNL A   1      29.935  25.764  23.389  1.00  0.00     0.149 C 
BRANCH  13  15
ATOM     15  C   UNL A   1      30.269  28.194  23.641  1.00  0.00     0.088 C 
ATOM     16  C   UNL A   1      31.128  28.322  22.373  1.00  0.00     0.031 C 
BRANCH  15  17
ATOM     17  C   UNL A   1      28.806  28.660  23.401  1.00  0.00     0.071 C 
BRANCH  17  18
ATOM     18  C   UNL A   1      28.678  30.122  23.034  1.00  0.00     0.007 A 
ATOM     19  C   UNL A   1      29.029  31.222  23.794  1.00  0.00     0.015 A 
ATOM     20  S   UNL A   1      28.124  30.603  21.482  1.00  0.00    -0.149 S 
ATOM     21  C   UNL A   1      28.770  32.454  23.126  1.00  0.00     0.012 A 
ATOM     22  C   UNL A   1      28.236  32.258  21.873  1.00  0.00     0.065 A 
ENDBRANCH  17  18
ENDBRANCH  15  17
ENDBRANCH  13  15
ENDBRANCH  11  13
ENDBRANCH   6  11
ENDBRANCH   5   6
ENDBRANCH   1   5
BRANCH   3  23
ATOM     23  C   UNL A   1      31.689  30.633  26.611  1.00  0.00     0.117 C 
BRANCH  23  24
ATOM     24  C   UNL A   1      31.444  32.121  26.802  1.00  0.00     0.042 C 
BRANCH  24  25
ATOM     25  C   UNL A   1      32.707  32.962  26.928  1.00  0.00     0.118 C 
BRANCH  25  26
ATOM     26  N   UNL A   1      32.473  34.248  27.567  1.00  0.00    -0.352 N 
ATOM     27  C   UNL A   1      33.025  34.821  28.684  1.00  0.00     0.251 C 
ATOM     28  H   UNL A   1      31.799  34.807  27.118  1.00  0.00     0.163 HD
ATOM     29  O   UNL A   1      32.522  35.852  29.134  1.00  0.00    -0.269 OA
BRANCH  27  30
ATOM     30  C   UNL A   1      34.195  34.228  29.370  1.00  0.00     0.039 A 
ATOM     31  C   UNL A   1      33.970  33.355  30.443  1.00  0.00     0.014 A 
ATOM     32  C   UNL A   1      35.504  34.564  29.023  1.00  0.00     0.014 A 
ATOM     33  C   UNL A   1      35.051  32.781  31.119  1.00  0.00     0.010 A 
ATOM     34  C   UNL A   1      36.579  33.920  29.633  1.00  0.00     0.010 A 
ATOM     35  C   UNL A   1      36.366  33.032  30.698  1.00  0.00    -0.014 A 
BRANCH  35  36
ATOM     36  C   UNL A   1      37.531  32.403  31.373  1.00  0.00     0.031 A 
ATOM     37  C   UNL A   1      38.266  31.267  30.709  1.00  0.00     0.074 A 
ATOM     38  C   UNL A   1      37.890  32.807  32.607  1.00  0.00     0.049 A 
ATOM     39  N   UNL A   1      39.242  30.527  31.172  1.00  0.00    -0.248 NA
ATOM     40  C   UNL A   1      37.823  30.894  29.356  1.00  0.00     0.031 C 
ATOM     41  C   UNL A   1      37.233  33.864  33.377  1.00  0.00     0.029 A 
ATOM     42  N   UNL A   1      38.890  32.364  33.439  1.00  0.00    -0.354 N 
ATOM     43  C   UNL A   1      39.507  29.589  30.183  1.00  0.00     0.074 A 
ATOM     44  C   UNL A   1      38.562  29.820  29.113  1.00  0.00     0.031 C 
ATOM     45  C   UNL A   1      37.860  34.005  34.556  1.00  0.00     0.029 A 
ATOM     46  C   UNL A   1      38.935  33.022  34.644  1.00  0.00     0.049 A 
ATOM     47  H   UNL A   1      39.515  31.645  33.194  1.00  0.00     0.167 HD
ATOM     48  C   UNL A   1      40.467  28.633  30.160  1.00  0.00     0.037 A 
ATOM     49  C   UNL A   1      39.747  32.845  35.705  1.00  0.00     0.037 A 
ATOM     50  C   UNL A   1      41.438  28.436  31.203  1.00  0.00     0.049 A 
ATOM     51  C   UNL A   1      40.813  31.784  35.643  1.00  0.00     0.074 A 
ATOM     52  C   UNL A   1      42.497  27.545  31.238  1.00  0.00     0.029 A 
ATOM     53  N   UNL A   1      41.472  29.144  32.394  1.00  0.00    -0.354 N 
ATOM     54  N   UNL A   1      41.098  30.949  34.674  1.00  0.00    -0.248 NA
ATOM     55  C   UNL A   1      41.677  31.646  36.825  1.00  0.00     0.031 C 
ATOM     56  C   UNL A   1      43.147  27.686  32.468  1.00  0.00     0.029 A 
ATOM     57  C   UNL A   1      42.522  28.698  33.179  1.00  0.00     0.049 A 
ATOM     58  H   UNL A   1      40.842  29.858  32.645  1.00  0.00     0.167 HD
ATOM     59  C   UNL A   1      42.191  30.214  35.112  1.00  0.00     0.074 A 
ATOM     60  C   UNL A   1      42.526  30.708  36.430  1.00  0.00     0.031 C 
ATOM     61  C   UNL A   1      42.856  29.217  34.480  1.00  0.00     0.037 A 
BRANCH  48  62
ATOM     62  C   UNL A   1      40.526  27.728  28.964  1.00  0.00     0.064 A 
ATOM     63  C   UNL A   1      41.391  27.983  27.889  1.00  0.00     0.173 A 
ATOM     64  C   UNL A   1      39.748  26.560  28.917  1.00  0.00     0.173 A 
ATOM     65  F   UNL A   1      42.147  29.091  27.880  1.00  0.00    -0.203 F 
ATOM     66  C   UNL A   1      41.460  27.116  26.803  1.00  0.00     0.198 A 
ATOM     67  C   UNL A   1      39.842  25.680  27.843  1.00  0.00     0.198 A 
ATOM     68  F   UNL A   1      38.909  26.266  29.922  1.00  0.00    -0.203 F 
ATOM     69  F   UNL A   1      42.263  27.401  25.770  1.00  0.00    -0.200 F 
ATOM     70  C   UNL A   1      40.692  25.960  26.784  1.00  0.00     0.200 A 
ATOM     71  F   UNL A   1      39.109  24.557  27.833  1.00  0.00    -0.200 F 
ATOM     72  F   UNL A   1      40.770  25.119  25.744  1.00  0.00    -0.200 F 
ENDBRANCH  48  62
BRANCH  49  73
ATOM     73  C   UNL A   1      39.605  33.705  36.909  1.00  0.00     0.064 A 
ATOM     74  C   UNL A   1      38.748  33.337  37.956  1.00  0.00     0.173 A 
ATOM     75  C   UNL A   1      40.296  34.919  37.028  1.00  0.00     0.173 A 
ATOM     76  F   UNL A   1      38.048  32.195  37.877  1.00  0.00    -0.203 F 
ATOM     77  C   UNL A   1      38.566  34.163  39.062  1.00  0.00     0.198 A 
ATOM     78  C   UNL A   1      40.135  35.730  38.149  1.00  0.00     0.198 A 
ATOM     79  F   UNL A   1      41.131  35.316  36.056  1.00  0.00    -0.203 F 
ATOM     80  F   UNL A   1      37.699  33.813  40.022  1.00  0.00    -0.200 F 
ATOM     81  C   UNL A   1      39.262  35.357  39.160  1.00  0.00     0.200 A 
ATOM     82  F   UNL A   1      40.819  36.879  38.246  1.00  0.00    -0.200 F 
ATOM     83  F   UNL A   1      39.084  36.153  40.223  1.00  0.00    -0.200 F 
ENDBRANCH  49  73
BRANCH  61  84
ATOM     84  C   UNL A   1      44.045  28.629  35.181  1.00  0.00     0.064 A 
ATOM     85  C   UNL A   1      45.332  29.162  35.021  1.00  0.00     0.173 A 
ATOM     86  C   UNL A   1      43.885  27.543  36.054  1.00  0.00     0.173 A 
ATOM     87  F   UNL A   1      45.539  30.190  34.185  1.00  0.00    -0.203 F 
ATOM     88  C   UNL A   1      46.421  28.613  35.694  1.00  0.00     0.198 A 
ATOM     89  C   UNL A   1      44.971  27.015  36.748  1.00  0.00     0.198 A 
ATOM     90  F   UNL A   1      42.673  27.001  36.247  1.00  0.00    -0.203 F 
ATOM     91  F   UNL A   1      47.649  29.108  35.491  1.00  0.00    -0.200 F 
ATOM     92  C   UNL A   1      46.239  27.546  36.561  1.00  0.00     0.200 A 
ATOM     93  F   UNL A   1      44.791  25.994  37.596  1.00  0.00    -0.200 F 
ATOM     94  F   UNL A   1      47.286  27.024  37.213  1.00  0.00    -0.200 F 
ENDBRANCH  61  84
ENDBRANCH  35  36
ENDBRANCH  27  30
ENDBRANCH  25  26
ENDBRANCH  24  25
ENDBRANCH  23  24
ENDBRANCH   3  23
TORSDOF 18
ENDMDL
