MODEL 1
REMARK VINA RESULT:     -11.9      0.000      0.000
REMARK SMILES Cn1ccnc1SCC[C@@H]1CCC[C@]1([NH3+])C(=O)NCCCNC(=O)c1ccc(-c2c3nc(c(-c4c(F)c(F)c(F)c(F)c4F)c4ccc([nH]4)c(-c4c(F)c(F)c(F)c(F)c4F)c4nc(c(-c5c(F)c(F)c(F)c(F)c5F)c5ccc2[nH]5)C=C4)C=C3)cc1
REMARK SMILES IDX 19 1 18 2 16 3 17 4 14 6 10 7 11 8 12 9 13 10 9 11 8 12 7 13
REMARK SMILES IDX 6 14 1 15 2 16 3 17 4 18 5 19 15 20 20 24 21 25 22 26 23 27
REMARK SMILES IDX 24 29 25 30 26 31 87 32 27 33 86 34 28 35 29 36 30 37 80 38
REMARK SMILES IDX 31 39 85 40 79 41 81 42 32 43 84 44 78 45 77 46 33 48 65 49
REMARK SMILES IDX 45 50 64 51 46 52 49 53 63 54 82 55 47 56 48 57 62 59 83 60
REMARK SMILES IDX 50 61 34 62 35 63 43 64 36 65 37 66 41 67 44 68 38 69 39 70
REMARK SMILES IDX 42 71 40 72 66 73 67 74 75 75 68 76 69 77 73 78 76 79 70 80
REMARK SMILES IDX 71 81 74 82 72 83 51 84 52 85 60 86 53 87 54 88 58 89 61 90
REMARK SMILES IDX 55 91 56 92 59 93 57 94
REMARK H PARENT 18 5 15 21 15 22 15 23 22 28 81 47 49 58
REMARK Flexibility Score: inf
ROOT
ATOM      1  C   UNL A   1      31.717  30.974  26.120  1.00  0.00     0.118 C 
ENDROOT
BRANCH   1   2
ATOM      2  N   UNL A   1      31.533  29.812  26.973  1.00  0.00    -0.351 N 
ATOM      3  C   UNL A   1      32.000  28.535  26.888  1.00  0.00     0.281 C 
ATOM      4  O   UNL A   1      31.642  27.770  27.789  1.00  0.00    -0.268 OA
ATOM      5  H   UNL A   1      30.965  29.979  27.759  1.00  0.00     0.163 HD
BRANCH   3   6
ATOM      6  C   UNL A   1      32.962  28.073  25.739  1.00  0.00     0.176 C 
ATOM      7  C   UNL A   1      32.263  27.783  24.378  1.00  0.00     0.061 C 
ATOM      8  C   UNL A   1      31.520  26.470  24.678  1.00  0.00     0.011 C 
ATOM      9  C   UNL A   1      32.471  25.662  25.547  1.00  0.00     0.008 C 
ATOM     10  C   UNL A   1      33.504  26.657  26.080  1.00  0.00     0.079 C 
BRANCH   7  11
ATOM     11  C   UNL A   1      31.283  28.763  23.718  1.00  0.00     0.022 C 
BRANCH  11  12
ATOM     12  C   UNL A   1      30.265  28.228  22.707  1.00  0.00     0.079 C 
BRANCH  12  13
ATOM     13  S   UNL A   1      28.525  28.732  22.860  1.00  0.00    -0.088 SA
BRANCH  13  14
ATOM     14  C   UNL A   1      28.390  30.243  22.041  1.00  0.00     0.167 A 
ATOM     15  C   UNL A   1      28.947  31.828  23.946  1.00  0.00     0.152 C 
ATOM     16  N   UNL A   1      28.600  31.480  22.593  1.00  0.00    -0.329 N 
ATOM     17  C   UNL A   1      28.400  32.406  21.598  1.00  0.00     0.108 A 
ATOM     18  C   UNL A   1      27.986  31.680  20.508  1.00  0.00     0.132 A 
ATOM     19  N   UNL A   1      27.993  30.341  20.792  1.00  0.00    -0.231 NA
ENDBRANCH  13  14
ENDBRANCH  12  13
ENDBRANCH  11  12
ENDBRANCH   7  11
BRANCH   6  20
ATOM     20  N   UNL A   1      34.125  28.990  25.690  1.00  0.00    -0.345 N 
ATOM     21  H   UNL A   1      34.962  28.464  25.443  1.00  0.00     0.345 HD
ATOM     22  H   UNL A   1      34.253  29.424  26.604  1.00  0.00     0.345 HD
ATOM     23  H   UNL A   1      33.958  29.714  24.991  1.00  0.00     0.345 HD
ENDBRANCH   6  20
ENDBRANCH   3   6
ENDBRANCH   1   2
BRANCH   1  24
ATOM     24  C   UNL A   1      31.452  32.274  26.864  1.00  0.00     0.042 C 
BRANCH  24  25
ATOM     25  C   UNL A   1      32.717  32.996  27.284  1.00  0.00     0.118 C 
BRANCH  25  26
ATOM     26  N   UNL A   1      32.464  34.374  27.662  1.00  0.00    -0.352 N 
ATOM     27  C   UNL A   1      33.016  35.093  28.697  1.00  0.00     0.251 C 
ATOM     28  H   UNL A   1      31.812  34.859  27.105  1.00  0.00     0.163 HD
ATOM     29  O   UNL A   1      32.546  36.177  29.015  1.00  0.00    -0.269 OA
BRANCH  27  30
ATOM     30  C   UNL A   1      34.162  34.526  29.443  1.00  0.00     0.039 A 
ATOM     31  C   UNL A   1      33.926  33.869  30.651  1.00  0.00     0.014 A 
ATOM     32  C   UNL A   1      35.463  34.623  28.939  1.00  0.00     0.014 A 
ATOM     33  C   UNL A   1      34.989  33.265  31.326  1.00  0.00     0.010 A 
ATOM     34  C   UNL A   1      36.497  33.926  29.553  1.00  0.00     0.010 A 
ATOM     35  C   UNL A   1      36.278  33.261  30.766  1.00  0.00    -0.014 A 
BRANCH  35  36
ATOM     36  C   UNL A   1      37.415  32.599  31.456  1.00  0.00     0.031 A 
ATOM     37  C   UNL A   1      38.133  31.455  30.792  1.00  0.00     0.074 A 
ATOM     38  C   UNL A   1      37.774  32.996  32.693  1.00  0.00     0.049 A 
ATOM     39  N   UNL A   1      39.122  30.724  31.241  1.00  0.00    -0.248 NA
ATOM     40  C   UNL A   1      37.657  31.059  29.457  1.00  0.00     0.031 C 
ATOM     41  C   UNL A   1      37.123  34.056  33.464  1.00  0.00     0.029 A 
ATOM     42  N   UNL A   1      38.775  32.549  33.521  1.00  0.00    -0.354 N 
ATOM     43  C   UNL A   1      39.371  29.779  30.253  1.00  0.00     0.074 A 
ATOM     44  C   UNL A   1      38.388  29.982  29.214  1.00  0.00     0.031 C 
ATOM     45  C   UNL A   1      37.763  34.203  34.635  1.00  0.00     0.029 A 
ATOM     46  C   UNL A   1      38.840  33.221  34.717  1.00  0.00     0.049 A 
ATOM     47  H   UNL A   1      39.387  31.817  33.279  1.00  0.00     0.167 HD
ATOM     48  C   UNL A   1      40.354  28.849  30.200  1.00  0.00     0.037 A 
ATOM     49  C   UNL A   1      39.673  33.059  35.763  1.00  0.00     0.037 A 
ATOM     50  C   UNL A   1      41.345  28.666  31.226  1.00  0.00     0.049 A 
ATOM     51  C   UNL A   1      40.748  32.006  35.686  1.00  0.00     0.074 A 
ATOM     52  C   UNL A   1      42.417  27.792  31.243  1.00  0.00     0.029 A 
ATOM     53  N   UNL A   1      41.384  29.371  32.421  1.00  0.00    -0.354 N 
ATOM     54  N   UNL A   1      41.022  31.171  34.714  1.00  0.00    -0.248 NA
ATOM     55  C   UNL A   1      41.632  31.879  36.852  1.00  0.00     0.031 C 
ATOM     56  C   UNL A   1      43.069  27.925  32.473  1.00  0.00     0.029 A 
ATOM     57  C   UNL A   1      42.444  28.930  33.195  1.00  0.00     0.049 A 
ATOM     58  H   UNL A   1      40.751  30.079  32.679  1.00  0.00     0.167 HD
ATOM     59  C   UNL A   1      42.128  30.445  35.134  1.00  0.00     0.074 A 
ATOM     60  C   UNL A   1      42.483  30.948  36.444  1.00  0.00     0.031 C 
ATOM     61  C   UNL A   1      42.790  29.449  34.494  1.00  0.00     0.037 A 
BRANCH  48  62
ATOM     62  C   UNL A   1      40.401  27.957  28.991  1.00  0.00     0.064 A 
ATOM     63  C   UNL A   1      41.159  28.291  27.856  1.00  0.00     0.173 A 
ATOM     64  C   UNL A   1      39.706  26.739  28.976  1.00  0.00     0.173 A 
ATOM     65  F   UNL A   1      41.833  29.450  27.812  1.00  0.00    -0.203 F 
ATOM     66  C   UNL A   1      41.187  27.459  26.740  1.00  0.00     0.198 A 
ATOM     67  C   UNL A   1      39.767  25.891  27.873  1.00  0.00     0.198 A 
ATOM     68  F   UNL A   1      38.971  26.365  30.034  1.00  0.00    -0.203 F 
ATOM     69  F   UNL A   1      41.868  27.829  25.647  1.00  0.00    -0.200 F 
ATOM     70  C   UNL A   1      40.498  26.255  26.753  1.00  0.00     0.200 A 
ATOM     71  F   UNL A   1      39.112  24.721  27.892  1.00  0.00    -0.200 F 
ATOM     72  F   UNL A   1      40.533  25.451  25.682  1.00  0.00    -0.200 F 
ENDBRANCH  48  62
BRANCH  49  73
ATOM     73  C   UNL A   1      39.543  33.929  36.961  1.00  0.00     0.064 A 
ATOM     74  C   UNL A   1      38.798  33.517  38.076  1.00  0.00     0.173 A 
ATOM     75  C   UNL A   1      40.150  35.193  37.017  1.00  0.00     0.173 A 
ATOM     76  F   UNL A   1      38.183  32.326  38.066  1.00  0.00    -0.203 F 
ATOM     77  C   UNL A   1      38.647  34.344  39.188  1.00  0.00     0.198 A 
ATOM     78  C   UNL A   1      40.024  36.005  38.142  1.00  0.00     0.198 A 
ATOM     79  F   UNL A   1      40.878  35.633  35.981  1.00  0.00    -0.203 F 
ATOM     80  F   UNL A   1      37.887  33.945  40.217  1.00  0.00    -0.200 F 
ATOM     81  C   UNL A   1      39.265  35.585  39.222  1.00  0.00     0.200 A 
ATOM     82  F   UNL A   1      40.637  37.196  38.178  1.00  0.00    -0.200 F 
ATOM     83  F   UNL A   1      39.120  36.377  40.293  1.00  0.00    -0.200 F 
ENDBRANCH  49  73
BRANCH  61  84
ATOM     84  C   UNL A   1      43.993  28.867  35.179  1.00  0.00     0.064 A 
ATOM     85  C   UNL A   1      43.895  27.756  36.030  1.00  0.00     0.173 A 
ATOM     86  C   UNL A   1      45.269  29.403  34.946  1.00  0.00     0.173 A 
ATOM     87  F   UNL A   1      42.698  27.213  36.297  1.00  0.00    -0.203 F 
ATOM     88  C   UNL A   1      45.025  27.223  36.644  1.00  0.00     0.198 A 
ATOM     89  C   UNL A   1      46.401  28.845  35.533  1.00  0.00     0.198 A 
ATOM     90  F   UNL A   1      45.421  30.461  34.133  1.00  0.00    -0.203 F 
ATOM     91  F   UNL A   1      44.901  26.194  37.495  1.00  0.00    -0.200 F 
ATOM     92  C   UNL A   1      46.278  27.762  36.388  1.00  0.00     0.200 A 
ATOM     93  F   UNL A   1      47.612  29.356  35.269  1.00  0.00    -0.200 F 
ATOM     94  F   UNL A   1      47.365  27.240  36.973  1.00  0.00    -0.200 F 
ENDBRANCH  61  84
ENDBRANCH  35  36
ENDBRANCH  27  30
ENDBRANCH  25  26
ENDBRANCH  24  25
ENDBRANCH   1  24
TORSDOF 15
ENDMDL
MODEL 2
REMARK VINA RESULT:     -11.8      0.612      7.423
REMARK SMILES Cn1ccnc1SCC[C@@H]1CCC[C@]1([NH3+])C(=O)NCCCNC(=O)c1ccc(-c2c3nc(c(-c4c(F)c(F)c(F)c(F)c4F)c4ccc([nH]4)c(-c4c(F)c(F)c(F)c(F)c4F)c4nc(c(-c5c(F)c(F)c(F)c(F)c5F)c5ccc2[nH]5)C=C4)C=C3)cc1
REMARK SMILES IDX 19 1 18 2 16 3 17 4 14 6 10 7 11 8 12 9 13 10 9 11 8 12 7 13
REMARK SMILES IDX 6 14 1 15 2 16 3 17 4 18 5 19 15 20 20 24 21 25 22 26 23 27
REMARK SMILES IDX 24 29 25 30 26 31 87 32 27 33 86 34 28 35 29 36 30 37 80 38
REMARK SMILES IDX 31 39 85 40 79 41 81 42 32 43 84 44 78 45 77 46 33 48 65 49
REMARK SMILES IDX 45 50 64 51 46 52 49 53 63 54 82 55 47 56 48 57 62 59 83 60
REMARK SMILES IDX 50 61 34 62 35 63 43 64 36 65 37 66 41 67 44 68 38 69 39 70
REMARK SMILES IDX 42 71 40 72 66 73 67 74 75 75 68 76 69 77 73 78 76 79 70 80
REMARK SMILES IDX 71 81 74 82 72 83 51 84 52 85 60 86 53 87 54 88 58 89 61 90
REMARK SMILES IDX 55 91 56 92 59 93 57 94
REMARK H PARENT 18 5 15 21 15 22 15 23 22 28 81 47 49 58
REMARK Flexibility Score: inf
ROOT
ATOM      1  C   UNL A   1      31.614  31.022  26.118  1.00  0.00     0.118 C 
ENDROOT
BRANCH   1   2
ATOM      2  N   UNL A   1      31.514  29.878  27.009  1.00  0.00    -0.351 N 
ATOM      3  C   UNL A   1      31.985  28.604  26.913  1.00  0.00     0.281 C 
ATOM      4  O   UNL A   1      31.713  27.857  27.857  1.00  0.00    -0.268 OA
ATOM      5  H   UNL A   1      31.013  30.058  27.837  1.00  0.00     0.163 HD
BRANCH   3   6
ATOM      6  C   UNL A   1      32.850  28.123  25.696  1.00  0.00     0.176 C 
ATOM      7  C   UNL A   1      32.040  27.778  24.413  1.00  0.00     0.061 C 
ATOM      8  C   UNL A   1      31.353  26.462  24.817  1.00  0.00     0.011 C 
ATOM      9  C   UNL A   1      32.396  25.700  25.621  1.00  0.00     0.008 C 
ATOM     10  C   UNL A   1      33.450  26.729  26.029  1.00  0.00     0.079 C 
BRANCH   7  11
ATOM     11  C   UNL A   1      30.984  28.719  23.814  1.00  0.00     0.022 C 
BRANCH  11  12
ATOM     12  C   UNL A   1      29.991  28.166  22.789  1.00  0.00     0.079 C 
BRANCH  12  13
ATOM     13  S   UNL A   1      28.269  28.748  22.829  1.00  0.00    -0.088 SA
BRANCH  13  14
ATOM     14  C   UNL A   1      28.257  30.262  22.004  1.00  0.00     0.167 A 
ATOM     15  C   UNL A   1      28.807  31.819  23.934  1.00  0.00     0.152 C 
ATOM     16  N   UNL A   1      28.507  31.487  22.566  1.00  0.00    -0.329 N 
ATOM     17  C   UNL A   1      28.406  32.420  21.563  1.00  0.00     0.108 A 
ATOM     18  C   UNL A   1      28.006  31.715  20.453  1.00  0.00     0.132 A 
ATOM     19  N   UNL A   1      27.926  30.379  20.738  1.00  0.00    -0.231 NA
ENDBRANCH  13  14
ENDBRANCH  12  13
ENDBRANCH  11  12
ENDBRANCH   7  11
BRANCH   6  20
ATOM     20  N   UNL A   1      33.985  29.060  25.516  1.00  0.00    -0.345 N 
ATOM     21  H   UNL A   1      34.367  28.955  24.577  1.00  0.00     0.345 HD
ATOM     22  H   UNL A   1      34.708  28.852  26.204  1.00  0.00     0.345 HD
ATOM     23  H   UNL A   1      33.658  30.018  25.646  1.00  0.00     0.345 HD
ENDBRANCH   6  20
ENDBRANCH   3   6
ENDBRANCH   1   2
BRANCH   1  24
ATOM     24  C   UNL A   1      31.405  32.336  26.854  1.00  0.00     0.042 C 
BRANCH  24  25
ATOM     25  C   UNL A   1      32.700  33.039  27.211  1.00  0.00     0.118 C 
BRANCH  25  26
ATOM     26  N   UNL A   1      32.479  34.388  27.699  1.00  0.00    -0.352 N 
ATOM     27  C   UNL A   1      33.082  35.024  28.758  1.00  0.00     0.251 C 
ATOM     28  H   UNL A   1      31.810  34.917  27.206  1.00  0.00     0.163 HD
ATOM     29  O   UNL A   1      32.639  36.086  29.174  1.00  0.00    -0.269 OA
BRANCH  27  30
ATOM     30  C   UNL A   1      34.253  34.396  29.411  1.00  0.00     0.039 A 
ATOM     31  C   UNL A   1      34.043  33.506  30.467  1.00  0.00     0.014 A 
ATOM     32  C   UNL A   1      35.551  34.664  28.968  1.00  0.00     0.014 A 
ATOM     33  C   UNL A   1      35.133  32.850  31.041  1.00  0.00     0.010 A 
ATOM     34  C   UNL A   1      36.619  33.926  29.464  1.00  0.00     0.010 A 
ATOM     35  C   UNL A   1      36.427  33.030  30.523  1.00  0.00    -0.014 A 
BRANCH  35  36
ATOM     36  C   UNL A   1      37.595  32.318  31.103  1.00  0.00     0.031 A 
ATOM     37  C   UNL A   1      38.099  32.694  32.471  1.00  0.00     0.074 A 
ATOM     38  C   UNL A   1      38.227  31.368  30.386  1.00  0.00     0.049 A 
ATOM     39  N   UNL A   1      39.123  32.221  33.136  1.00  0.00    -0.248 NA
ATOM     40  C   UNL A   1      37.376  33.767  33.173  1.00  0.00     0.031 C 
ATOM     41  C   UNL A   1      37.869  30.951  29.030  1.00  0.00     0.029 A 
ATOM     42  N   UNL A   1      39.309  30.582  30.700  1.00  0.00    -0.354 N 
ATOM     43  C   UNL A   1      39.171  32.946  34.320  1.00  0.00     0.074 A 
ATOM     44  C   UNL A   1      38.121  33.937  34.254  1.00  0.00     0.031 C 
ATOM     45  C   UNL A   1      38.690  29.963  28.642  1.00  0.00     0.029 A 
ATOM     46  C   UNL A   1      39.660  29.705  29.703  1.00  0.00     0.049 A 
ATOM     47  H   UNL A   1      39.787  30.642  31.559  1.00  0.00     0.167 HD
ATOM     48  C   UNL A   1      39.993  32.778  35.383  1.00  0.00     0.037 A 
ATOM     49  C   UNL A   1      40.654  28.799  29.650  1.00  0.00     0.037 A 
ATOM     50  C   UNL A   1      41.021  31.775  35.454  1.00  0.00     0.049 A 
ATOM     51  C   UNL A   1      41.566  28.642  30.839  1.00  0.00     0.074 A 
ATOM     52  C   UNL A   1      41.870  31.483  36.507  1.00  0.00     0.029 A 
ATOM     53  N   UNL A   1      41.342  30.899  34.427  1.00  0.00    -0.354 N 
ATOM     54  N   UNL A   1      41.552  29.280  31.984  1.00  0.00    -0.248 NA
ATOM     55  C   UNL A   1      42.627  27.632  30.729  1.00  0.00     0.031 C 
ATOM     56  C   UNL A   1      42.743  30.472  36.096  1.00  0.00     0.029 A 
ATOM     57  C   UNL A   1      42.396  30.086  34.811  1.00  0.00     0.049 A 
ATOM     58  H   UNL A   1      40.887  30.861  33.554  1.00  0.00     0.167 HD
ATOM     59  C   UNL A   1      42.576  28.729  32.741  1.00  0.00     0.074 A 
ATOM     60  C   UNL A   1      43.182  27.694  31.932  1.00  0.00     0.031 C 
ATOM     61  C   UNL A   1      42.981  29.052  33.995  1.00  0.00     0.037 A 
BRANCH  48  62
ATOM     62  C   UNL A   1      39.813  33.703  36.553  1.00  0.00     0.064 A 
ATOM     63  C   UNL A   1      40.500  34.926  36.641  1.00  0.00     0.173 A 
ATOM     64  C   UNL A   1      38.921  33.381  37.586  1.00  0.00     0.173 A 
ATOM     65  F   UNL A   1      41.375  35.279  35.688  1.00  0.00    -0.203 F 
ATOM     66  C   UNL A   1      40.328  35.769  37.736  1.00  0.00     0.198 A 
ATOM     67  C   UNL A   1      38.723  34.244  38.661  1.00  0.00     0.198 A 
ATOM     68  F   UNL A   1      38.233  32.229  37.552  1.00  0.00    -0.203 F 
ATOM     69  F   UNL A   1      41.041  36.900  37.827  1.00  0.00    -0.200 F 
ATOM     70  C   UNL A   1      39.434  35.431  38.741  1.00  0.00     0.200 A 
ATOM     71  F   UNL A   1      37.848  33.923  39.624  1.00  0.00    -0.200 F 
ATOM     72  F   UNL A   1      39.264  36.248  39.790  1.00  0.00    -0.200 F 
ENDBRANCH  48  62
BRANCH  49  73
ATOM     73  C   UNL A   1      40.826  27.949  28.442  1.00  0.00     0.064 A 
ATOM     74  C   UNL A   1      40.204  26.695  28.346  1.00  0.00     0.173 A 
ATOM     75  C   UNL A   1      41.619  28.366  27.361  1.00  0.00     0.173 A 
ATOM     76  F   UNL A   1      39.451  26.243  29.360  1.00  0.00    -0.203 F 
ATOM     77  C   UNL A   1      40.390  25.882  27.230  1.00  0.00     0.198 A 
ATOM     78  C   UNL A   1      41.776  27.565  26.232  1.00  0.00     0.198 A 
ATOM     79  F   UNL A   1      42.230  29.558  27.398  1.00  0.00    -0.203 F 
ATOM     80  F   UNL A   1      39.826  24.667  27.189  1.00  0.00    -0.200 F 
ATOM     81  C   UNL A   1      41.170  26.320  26.171  1.00  0.00     0.200 A 
ATOM     82  F   UNL A   1      42.518  28.000  25.204  1.00  0.00    -0.200 F 
ATOM     83  F   UNL A   1      41.345  25.538  25.097  1.00  0.00    -0.200 F 
ENDBRANCH  49  73
BRANCH  61  84
ATOM     84  C   UNL A   1      44.104  28.249  34.588  1.00  0.00     0.064 A 
ATOM     85  C   UNL A   1      45.439  28.672  34.509  1.00  0.00     0.173 A 
ATOM     86  C   UNL A   1      43.833  27.059  35.282  1.00  0.00     0.173 A 
ATOM     87  F   UNL A   1      45.754  29.795  33.845  1.00  0.00    -0.203 F 
ATOM     88  C   UNL A   1      46.463  27.920  35.078  1.00  0.00     0.198 A 
ATOM     89  C   UNL A   1      44.855  26.329  35.881  1.00  0.00     0.198 A 
ATOM     90  F   UNL A   1      42.572  26.614  35.395  1.00  0.00    -0.203 F 
ATOM     91  F   UNL A   1      47.736  28.316  34.944  1.00  0.00    -0.200 F 
ATOM     92  C   UNL A   1      46.170  26.754  35.770  1.00  0.00     0.200 A 
ATOM     93  F   UNL A   1      44.567  25.213  36.565  1.00  0.00    -0.200 F 
ATOM     94  F   UNL A   1      47.156  26.037  36.326  1.00  0.00    -0.200 F 
ENDBRANCH  61  84
ENDBRANCH  35  36
ENDBRANCH  27  30
ENDBRANCH  25  26
ENDBRANCH  24  25
ENDBRANCH   1  24
TORSDOF 15
ENDMDL
MODEL 3
REMARK VINA RESULT:     -11.7      0.339      1.647
REMARK SMILES Cn1ccnc1SCC[C@@H]1CCC[C@]1([NH3+])C(=O)NCCCNC(=O)c1ccc(-c2c3nc(c(-c4c(F)c(F)c(F)c(F)c4F)c4ccc([nH]4)c(-c4c(F)c(F)c(F)c(F)c4F)c4nc(c(-c5c(F)c(F)c(F)c(F)c5F)c5ccc2[nH]5)C=C4)C=C3)cc1
REMARK SMILES IDX 19 1 18 2 16 3 17 4 14 6 10 7 11 8 12 9 13 10 9 11 8 12 7 13
REMARK SMILES IDX 6 14 1 15 2 16 3 17 4 18 5 19 15 20 20 24 21 25 22 26 23 27
REMARK SMILES IDX 24 29 25 30 26 31 87 32 27 33 86 34 28 35 29 36 30 37 80 38
REMARK SMILES IDX 31 39 85 40 79 41 81 42 32 43 84 44 78 45 77 46 33 48 65 49
REMARK SMILES IDX 45 50 64 51 46 52 49 53 63 54 82 55 47 56 48 57 62 59 83 60
REMARK SMILES IDX 50 61 34 62 35 63 43 64 36 65 37 66 41 67 44 68 38 69 39 70
REMARK SMILES IDX 42 71 40 72 66 73 67 74 75 75 68 76 69 77 73 78 76 79 70 80
REMARK SMILES IDX 71 81 74 82 72 83 51 84 52 85 60 86 53 87 54 88 58 89 61 90
REMARK SMILES IDX 55 91 56 92 59 93 57 94
REMARK H PARENT 18 5 15 21 15 22 15 23 22 28 81 47 49 58
REMARK Flexibility Score: inf
ROOT
ATOM      1  C   UNL A   1      31.658  30.867  25.965  1.00  0.00     0.118 C 
ENDROOT
BRANCH   1   2
ATOM      2  N   UNL A   1      32.004  29.818  26.909  1.00  0.00    -0.351 N 
ATOM      3  C   UNL A   1      32.544  28.579  26.738  1.00  0.00     0.281 C 
ATOM      4  O   UNL A   1      32.705  27.916  27.768  1.00  0.00    -0.268 OA
ATOM      5  H   UNL A   1      31.813  30.046  27.847  1.00  0.00     0.163 HD
BRANCH   3   6
ATOM      6  C   UNL A   1      32.967  28.039  25.328  1.00  0.00     0.176 C 
ATOM      7  C   UNL A   1      31.860  27.251  24.570  1.00  0.00     0.061 C 
ATOM      8  C   UNL A   1      31.799  25.940  25.374  1.00  0.00     0.011 C 
ATOM      9  C   UNL A   1      33.244  25.620  25.724  1.00  0.00     0.008 C 
ATOM     10  C   UNL A   1      34.025  26.918  25.518  1.00  0.00     0.079 C 
BRANCH   7  11
ATOM     11  C   UNL A   1      30.431  27.783  24.389  1.00  0.00     0.022 C 
BRANCH  11  12
ATOM     12  C   UNL A   1      30.071  28.525  23.099  1.00  0.00     0.079 C 
BRANCH  12  13
ATOM     13  S   UNL A   1      28.321  28.844  22.726  1.00  0.00    -0.088 SA
BRANCH  13  14
ATOM     14  C   UNL A   1      28.275  30.363  21.913  1.00  0.00     0.167 A 
ATOM     15  C   UNL A   1      28.790  31.918  23.854  1.00  0.00     0.152 C 
ATOM     16  N   UNL A   1      28.498  31.589  22.483  1.00  0.00    -0.329 N 
ATOM     17  C   UNL A   1      28.377  32.528  21.487  1.00  0.00     0.108 A 
ATOM     18  C   UNL A   1      27.992  31.822  20.372  1.00  0.00     0.132 A 
ATOM     19  N   UNL A   1      27.941  30.482  20.647  1.00  0.00    -0.231 NA
ENDBRANCH  13  14
ENDBRANCH  12  13
ENDBRANCH  11  12
ENDBRANCH   7  11
BRANCH   6  20
ATOM     20  N   UNL A   1      33.617  29.136  24.572  1.00  0.00    -0.345 N 
ATOM     21  H   UNL A   1      34.175  28.743  23.815  1.00  0.00     0.345 HD
ATOM     22  H   UNL A   1      34.220  29.668  25.198  1.00  0.00     0.345 HD
ATOM     23  H   UNL A   1      32.902  29.752  24.184  1.00  0.00     0.345 HD
ENDBRANCH   6  20
ENDBRANCH   3   6
ENDBRANCH   1   2
BRANCH   1  24
ATOM     24  C   UNL A   1      31.365  32.186  26.662  1.00  0.00     0.042 C 
BRANCH  24  25
ATOM     25  C   UNL A   1      32.597  32.839  27.258  1.00  0.00     0.118 C 
BRANCH  25  26
ATOM     26  N   UNL A   1      32.379  34.237  27.579  1.00  0.00    -0.352 N 
ATOM     27  C   UNL A   1      32.967  34.991  28.567  1.00  0.00     0.251 C 
ATOM     28  H   UNL A   1      31.723  34.709  27.014  1.00  0.00     0.163 HD
ATOM     29  O   UNL A   1      32.526  36.098  28.845  1.00  0.00    -0.269 OA
BRANCH  27  30
ATOM     30  C   UNL A   1      34.120  34.436  29.313  1.00  0.00     0.039 A 
ATOM     31  C   UNL A   1      33.888  33.758  30.510  1.00  0.00     0.014 A 
ATOM     32  C   UNL A   1      35.421  34.565  28.820  1.00  0.00     0.014 A 
ATOM     33  C   UNL A   1      34.957  33.165  31.184  1.00  0.00     0.010 A 
ATOM     34  C   UNL A   1      36.465  33.880  29.431  1.00  0.00     0.010 A 
ATOM     35  C   UNL A   1      36.250  33.194  30.634  1.00  0.00    -0.014 A 
BRANCH  35  36
ATOM     36  C   UNL A   1      37.395  32.545  31.323  1.00  0.00     0.031 A 
ATOM     37  C   UNL A   1      38.132  31.415  30.653  1.00  0.00     0.074 A 
ATOM     38  C   UNL A   1      37.745  32.939  32.563  1.00  0.00     0.049 A 
ATOM     39  N   UNL A   1      39.130  30.696  31.100  1.00  0.00    -0.248 NA
ATOM     40  C   UNL A   1      37.664  31.020  29.314  1.00  0.00     0.031 C 
ATOM     41  C   UNL A   1      37.077  33.984  33.339  1.00  0.00     0.029 A 
ATOM     42  N   UNL A   1      38.750  32.501  33.390  1.00  0.00    -0.354 N 
ATOM     43  C   UNL A   1      39.395  29.761  30.107  1.00  0.00     0.074 A 
ATOM     44  C   UNL A   1      38.412  29.956  29.066  1.00  0.00     0.031 C 
ATOM     45  C   UNL A   1      37.711  34.133  34.513  1.00  0.00     0.029 A 
ATOM     46  C   UNL A   1      38.802  33.166  34.591  1.00  0.00     0.049 A 
ATOM     47  H   UNL A   1      39.374  31.780  33.146  1.00  0.00     0.167 HD
ATOM     48  C   UNL A   1      40.392  28.845  30.050  1.00  0.00     0.037 A 
ATOM     49  C   UNL A   1      39.634  33.010  35.638  1.00  0.00     0.037 A 
ATOM     50  C   UNL A   1      41.383  28.671  31.078  1.00  0.00     0.049 A 
ATOM     51  C   UNL A   1      40.725  31.973  35.558  1.00  0.00     0.074 A 
ATOM     52  C   UNL A   1      42.467  27.812  31.093  1.00  0.00     0.029 A 
ATOM     53  N   UNL A   1      41.408  29.368  32.277  1.00  0.00    -0.354 N 
ATOM     54  N   UNL A   1      41.014  31.149  34.580  1.00  0.00    -0.248 NA
ATOM     55  C   UNL A   1      41.609  31.852  36.725  1.00  0.00     0.031 C 
ATOM     56  C   UNL A   1      43.114  27.948  32.325  1.00  0.00     0.029 A 
ATOM     57  C   UNL A   1      42.473  28.939  33.052  1.00  0.00     0.049 A 
ATOM     58  H   UNL A   1      40.764  30.066  32.539  1.00  0.00     0.167 HD
ATOM     59  C   UNL A   1      42.130  30.437  35.000  1.00  0.00     0.074 A 
ATOM     60  C   UNL A   1      42.474  30.937  36.313  1.00  0.00     0.031 C 
ATOM     61  C   UNL A   1      42.808  29.455  34.355  1.00  0.00     0.037 A 
BRANCH  48  62
ATOM     62  C   UNL A   1      40.455  27.962  28.836  1.00  0.00     0.064 A 
ATOM     63  C   UNL A   1      41.223  28.308  27.711  1.00  0.00     0.173 A 
ATOM     64  C   UNL A   1      39.766  26.741  28.806  1.00  0.00     0.173 A 
ATOM     65  F   UNL A   1      41.892  29.470  27.681  1.00  0.00    -0.203 F 
ATOM     66  C   UNL A   1      41.266  27.483  26.590  1.00  0.00     0.198 A 
ATOM     67  C   UNL A   1      39.842  25.901  27.698  1.00  0.00     0.198 A 
ATOM     68  F   UNL A   1      39.023  26.357  29.854  1.00  0.00    -0.203 F 
ATOM     69  F   UNL A   1      41.955  27.864  25.506  1.00  0.00    -0.200 F 
ATOM     70  C   UNL A   1      40.582  26.276  26.588  1.00  0.00     0.200 A 
ATOM     71  F   UNL A   1      39.193  24.728  27.703  1.00  0.00    -0.200 F 
ATOM     72  F   UNL A   1      40.632  25.479  25.511  1.00  0.00    -0.200 F 
ENDBRANCH  48  62
BRANCH  49  73
ATOM     73  C   UNL A   1      39.489  33.871  36.842  1.00  0.00     0.064 A 
ATOM     74  C   UNL A   1      40.093  35.135  36.902  1.00  0.00     0.173 A 
ATOM     75  C   UNL A   1      38.753  33.449  37.959  1.00  0.00     0.173 A 
ATOM     76  F   UNL A   1      40.824  35.577  35.868  1.00  0.00    -0.203 F 
ATOM     77  C   UNL A   1      39.987  35.931  38.041  1.00  0.00     0.198 A 
ATOM     78  C   UNL A   1      38.621  34.259  39.084  1.00  0.00     0.198 A 
ATOM     79  F   UNL A   1      38.149  32.251  37.951  1.00  0.00    -0.203 F 
ATOM     80  F   UNL A   1      40.619  37.112  38.090  1.00  0.00    -0.200 F 
ATOM     81  C   UNL A   1      39.246  35.495  39.129  1.00  0.00     0.200 A 
ATOM     82  F   UNL A   1      37.890  33.841  40.127  1.00  0.00    -0.200 F 
ATOM     83  F   UNL A   1      39.143  36.263  40.222  1.00  0.00    -0.200 F 
ENDBRANCH  49  73
BRANCH  61  84
ATOM     84  C   UNL A   1      44.018  28.885  35.040  1.00  0.00     0.064 A 
ATOM     85  C   UNL A   1      45.297  29.429  34.855  1.00  0.00     0.173 A 
ATOM     86  C   UNL A   1      43.886  27.806  35.927  1.00  0.00     0.173 A 
ATOM     87  F   UNL A   1      45.480  30.454  34.008  1.00  0.00    -0.203 F 
ATOM     88  C   UNL A   1      46.403  28.896  35.511  1.00  0.00     0.198 A 
ATOM     89  C   UNL A   1      44.988  27.297  36.608  1.00  0.00     0.198 A 
ATOM     90  F   UNL A   1      42.683  27.253  36.146  1.00  0.00    -0.203 F 
ATOM     91  F   UNL A   1      47.624  29.398  35.279  1.00  0.00    -0.200 F 
ATOM     92  C   UNL A   1      46.247  27.836  36.393  1.00  0.00     0.200 A 
ATOM     93  F   UNL A   1      44.831  26.286  37.474  1.00  0.00    -0.200 F 
ATOM     94  F   UNL A   1      47.312  27.331  37.031  1.00  0.00    -0.200 F 
ENDBRANCH  61  84
ENDBRANCH  35  36
ENDBRANCH  27  30
ENDBRANCH  25  26
ENDBRANCH  24  25
ENDBRANCH   1  24
TORSDOF 15
ENDMDL
