MODEL 1
REMARK VINA RESULT:      -9.3      0.000      0.000
REMARK SMILES CCCCCCNC(=O)Oc1cccc(-c2ccc([C@@H](C)C(=O)NCCCNC(=O)c3ccc(-c4c5nc(c(-c6c(F)c(F)c(F)c(F)c6F)c6ccc([nH]6)c(-c6c(F)c(F)c(F)c(F)c6F)c6nc(c(-c7c(F)c(F)c(F)c(F)c7F)c7ccc4[nH]7)C=C6)C=C5)cc3)cc2[N+](=O)[O-])c1
REMARK SMILES IDX 16 1 17 2 18 3 19 4 94 5 95 6 15 7 11 8 12 9 99 10 13 11
REMARK SMILES IDX 14 12 10 13 8 14 7 15 9 17 6 18 5 19 4 20 3 21 2 22 1 23
REMARK SMILES IDX 96 24 97 25 98 26 20 27 21 28 22 29 23 30 24 31 25 33 26 34
REMARK SMILES IDX 27 35 28 36 29 37 30 39 31 40 32 41 93 42 33 43 92 44 34 45
REMARK SMILES IDX 35 46 36 47 86 48 37 49 91 50 85 51 87 52 38 53 90 54 84 55
REMARK SMILES IDX 83 56 39 58 71 59 51 60 70 61 52 62 55 63 69 64 88 65 53 66
REMARK SMILES IDX 54 67 68 69 89 70 56 71 40 72 41 73 49 74 42 75 43 76 47 77
REMARK SMILES IDX 50 78 44 79 45 80 48 81 46 82 72 83 73 84 81 85 74 86 75 87
REMARK SMILES IDX 79 88 82 89 76 90 77 91 80 92 78 93 57 94 58 95 66 96 59 97
REMARK SMILES IDX 60 98 64 99 67 100 61 101 62 102 65 103 63 104
REMARK H PARENT 7 16 24 32 28 38 87 57 55 68
REMARK Flexibility Score: inf
ROOT
ATOM      1  C   UNL A   1      45.078  28.572  26.846  1.00  0.00     0.060 A 
ATOM      2  C   UNL A   1      44.024  27.651  26.707  1.00  0.00     0.016 A 
ATOM      3  C   UNL A   1      44.240  26.317  26.338  1.00  0.00     0.005 A 
ATOM      4  C   UNL A   1      45.510  25.857  25.989  1.00  0.00    -0.029 A 
ATOM      5  C   UNL A   1      46.584  26.744  26.150  1.00  0.00     0.090 A 
ATOM      6  C   UNL A   1      46.370  28.062  26.610  1.00  0.00     0.277 A 
ENDROOT
BRANCH   1   7
ATOM      7  C   UNL A   1      44.749  29.974  27.198  1.00  0.00    -0.008 A 
ATOM      8  C   UNL A   1      44.077  32.232  26.602  1.00  0.00     0.133 A 
ATOM      9  C   UNL A   1      44.110  32.632  27.934  1.00  0.00     0.047 A 
ATOM     10  C   UNL A   1      44.373  30.919  26.228  1.00  0.00     0.056 A 
ATOM     11  C   UNL A   1      44.450  31.707  28.911  1.00  0.00     0.004 A 
ATOM     12  C   UNL A   1      44.781  30.399  28.543  1.00  0.00     0.009 A 
BRANCH   8  13
ATOM     13  O   UNL A   1      43.906  33.259  25.654  1.00  0.00    -0.410 OA
BRANCH  13  14
ATOM     14  C   UNL A   1      44.813  34.302  25.551  1.00  0.00     0.412 C 
ATOM     15  N   UNL A   1      44.245  35.520  25.806  1.00  0.00    -0.321 N 
ATOM     16  H   UNL A   1      44.819  36.311  25.692  1.00  0.00     0.167 HD
ATOM     17  O   UNL A   1      45.997  34.195  25.259  1.00  0.00    -0.224 OA
BRANCH  15  18
ATOM     18  C   UNL A   1      42.877  35.760  26.227  1.00  0.00     0.119 C 
BRANCH  18  19
ATOM     19  C   UNL A   1      42.792  36.151  27.704  1.00  0.00     0.021 C 
BRANCH  19  20
ATOM     20  C   UNL A   1      43.550  37.431  28.075  1.00  0.00     0.002 C 
BRANCH  20  21
ATOM     21  C   UNL A   1      43.217  38.662  27.227  1.00  0.00    -0.000 C 
BRANCH  21  22
ATOM     22  C   UNL A   1      41.763  39.136  27.300  1.00  0.00    -0.003 C 
ATOM     23  C   UNL A   1      41.397  40.125  26.204  1.00  0.00     0.004 C 
ENDBRANCH  21  22
ENDBRANCH  20  21
ENDBRANCH  19  20
ENDBRANCH  18  19
ENDBRANCH  15  18
ENDBRANCH  13  14
ENDBRANCH   8  13
ENDBRANCH   1   7
BRANCH   6  24
ATOM     24  N   UNL A   1      47.563  28.846  26.913  1.00  0.00     0.063 N 
ATOM     25  O   UNL A   1      48.248  28.485  27.881  1.00  0.00    -0.258 OA
ATOM     26  O   UNL A   1      47.783  29.851  26.221  1.00  0.00    -0.258 OA
ENDBRANCH   6  24
BRANCH   4  27
ATOM     27  C   UNL A   1      45.750  24.457  25.443  1.00  0.00     0.105 C 
ATOM     28  C   UNL A   1      46.922  24.333  24.471  1.00  0.00     0.023 C 
BRANCH  27  29
ATOM     29  C   UNL A   1      45.674  23.353  26.510  1.00  0.00     0.227 C 
ATOM     30  O   UNL A   1      46.470  23.363  27.458  1.00  0.00    -0.274 OA
ATOM     31  N   UNL A   1      44.779  22.330  26.499  1.00  0.00    -0.356 N 
ATOM     32  H   UNL A   1      44.820  21.759  27.301  1.00  0.00     0.163 HD
BRANCH  31  33
ATOM     33  C   UNL A   1      43.772  21.918  25.541  1.00  0.00     0.117 C 
BRANCH  33  34
ATOM     34  C   UNL A   1      42.507  22.769  25.637  1.00  0.00     0.042 C 
BRANCH  34  35
ATOM     35  C   UNL A   1      41.410  22.155  26.496  1.00  0.00     0.118 C 
BRANCH  35  36
ATOM     36  N   UNL A   1      40.084  22.392  25.945  1.00  0.00    -0.352 N 
ATOM     37  C   UNL A   1      39.171  23.386  26.199  1.00  0.00     0.251 C 
ATOM     38  H   UNL A   1      39.792  21.729  25.278  1.00  0.00     0.163 HD
ATOM     39  O   UNL A   1      38.025  23.265  25.775  1.00  0.00    -0.269 OA
BRANCH  37  40
ATOM     40  C   UNL A   1      39.535  24.593  26.980  1.00  0.00     0.039 A 
ATOM     41  C   UNL A   1      39.106  24.684  28.310  1.00  0.00     0.014 A 
ATOM     42  C   UNL A   1      40.231  25.659  26.407  1.00  0.00     0.014 A 
ATOM     43  C   UNL A   1      39.418  25.813  29.072  1.00  0.00     0.010 A 
ATOM     44  C   UNL A   1      40.613  26.747  27.191  1.00  0.00     0.010 A 
ATOM     45  C   UNL A   1      40.200  26.843  28.527  1.00  0.00    -0.014 A 
BRANCH  45  46
ATOM     46  C   UNL A   1      40.577  28.036  29.329  1.00  0.00     0.031 A 
ATOM     47  C   UNL A   1      41.918  28.099  30.006  1.00  0.00     0.074 A 
ATOM     48  C   UNL A   1      39.687  29.031  29.503  1.00  0.00     0.049 A 
ATOM     49  N   UNL A   1      42.399  29.011  30.814  1.00  0.00    -0.248 NA
ATOM     50  C   UNL A   1      42.833  26.971  29.768  1.00  0.00     0.031 C 
ATOM     51  C   UNL A   1      38.337  29.066  28.940  1.00  0.00     0.029 A 
ATOM     52  N   UNL A   1      39.780  30.200  30.218  1.00  0.00    -0.354 N 
ATOM     53  C   UNL A   1      43.654  28.556  31.197  1.00  0.00     0.074 A 
ATOM     54  C   UNL A   1      43.844  27.265  30.572  1.00  0.00     0.031 C 
ATOM     55  C   UNL A   1      37.732  30.203  29.318  1.00  0.00     0.029 A 
ATOM     56  C   UNL A   1      38.637  30.961  30.177  1.00  0.00     0.049 A 
ATOM     57  H   UNL A   1      40.587  30.467  30.713  1.00  0.00     0.167 HD
ATOM     58  C   UNL A   1      44.572  29.167  31.983  1.00  0.00     0.037 A 
ATOM     59  C   UNL A   1      38.349  32.135  30.772  1.00  0.00     0.037 A 
ATOM     60  C   UNL A   1      44.394  30.467  32.575  1.00  0.00     0.049 A 
ATOM     61  C   UNL A   1      39.391  32.801  31.625  1.00  0.00     0.074 A 
ATOM     62  C   UNL A   1      45.292  31.205  33.325  1.00  0.00     0.029 A 
ATOM     63  N   UNL A   1      43.235  31.223  32.482  1.00  0.00    -0.354 N 
ATOM     64  N   UNL A   1      40.602  32.395  31.923  1.00  0.00    -0.248 NA
ATOM     65  C   UNL A   1      39.031  34.096  32.221  1.00  0.00     0.031 C 
ATOM     66  C   UNL A   1      44.662  32.389  33.722  1.00  0.00     0.029 A 
ATOM     67  C   UNL A   1      43.388  32.412  33.179  1.00  0.00     0.049 A 
ATOM     68  H   UNL A   1      42.423  30.955  31.994  1.00  0.00     0.167 HD
ATOM     69  C   UNL A   1      41.156  33.390  32.715  1.00  0.00     0.074 A 
ATOM     70  C   UNL A   1      40.154  34.429  32.842  1.00  0.00     0.031 C 
ATOM     71  C   UNL A   1      42.384  33.439  33.287  1.00  0.00     0.037 A 
BRANCH  58  72
ATOM     72  C   UNL A   1      45.858  28.437  32.247  1.00  0.00     0.064 A 
ATOM     73  C   UNL A   1      45.969  27.489  33.276  1.00  0.00     0.173 A 
ATOM     74  C   UNL A   1      46.984  28.665  31.442  1.00  0.00     0.173 A 
ATOM     75  F   UNL A   1      44.925  27.240  34.081  1.00  0.00    -0.203 F 
ATOM     76  C   UNL A   1      47.169  26.821  33.509  1.00  0.00     0.198 A 
ATOM     77  C   UNL A   1      48.173  27.974  31.659  1.00  0.00     0.198 A 
ATOM     78  F   UNL A   1      46.930  29.556  30.440  1.00  0.00    -0.203 F 
ATOM     79  F   UNL A   1      47.266  25.958  34.529  1.00  0.00    -0.200 F 
ATOM     80  C   UNL A   1      48.268  27.059  32.697  1.00  0.00     0.200 A 
ATOM     81  F   UNL A   1      49.230  28.195  30.865  1.00  0.00    -0.200 F 
ATOM     82  F   UNL A   1      49.420  26.412  32.920  1.00  0.00    -0.200 F 
ENDBRANCH  58  72
BRANCH  59  83
ATOM     83  C   UNL A   1      37.021  32.765  30.554  1.00  0.00     0.064 A 
ATOM     84  C   UNL A   1      36.742  33.456  29.366  1.00  0.00     0.173 A 
ATOM     85  C   UNL A   1      36.004  32.682  31.516  1.00  0.00     0.173 A 
ATOM     86  F   UNL A   1      37.689  33.579  28.425  1.00  0.00    -0.203 F 
ATOM     87  C   UNL A   1      35.500  34.051  29.155  1.00  0.00     0.198 A 
ATOM     88  C   UNL A   1      34.754  33.256  31.292  1.00  0.00     0.198 A 
ATOM     89  F   UNL A   1      36.220  32.028  32.666  1.00  0.00    -0.203 F 
ATOM     90  F   UNL A   1      35.273  34.739  28.028  1.00  0.00    -0.200 F 
ATOM     91  C   UNL A   1      34.506  33.946  30.115  1.00  0.00     0.200 A 
ATOM     92  F   UNL A   1      33.789  33.138  32.215  1.00  0.00    -0.200 F 
ATOM     93  F   UNL A   1      33.309  34.512  29.909  1.00  0.00    -0.200 F 
ENDBRANCH  59  83
BRANCH  71  94
ATOM     94  C   UNL A   1      42.728  34.670  34.073  1.00  0.00     0.064 A 
ATOM     95  C   UNL A   1      43.167  35.844  33.446  1.00  0.00     0.173 A 
ATOM     96  C   UNL A   1      42.572  34.687  35.468  1.00  0.00     0.173 A 
ATOM     97  F   UNL A   1      43.346  35.873  32.116  1.00  0.00    -0.203 F 
ATOM     98  C   UNL A   1      43.460  36.984  34.189  1.00  0.00     0.198 A 
ATOM     99  C   UNL A   1      42.840  35.837  36.204  1.00  0.00     0.198 A 
ATOM    100  F   UNL A   1      42.149  33.590  36.114  1.00  0.00    -0.203 F 
ATOM    101  F   UNL A   1      43.921  38.083  33.573  1.00  0.00    -0.200 F 
ATOM    102  C   UNL A   1      43.289  36.982  35.566  1.00  0.00     0.200 A 
ATOM    103  F   UNL A   1      42.662  35.837  37.532  1.00  0.00    -0.200 F 
ATOM    104  F   UNL A   1      43.564  38.084  36.277  1.00  0.00    -0.200 F 
ENDBRANCH  71  94
ENDBRANCH  45  46
ENDBRANCH  37  40
ENDBRANCH  35  36
ENDBRANCH  34  35
ENDBRANCH  33  34
ENDBRANCH  31  33
ENDBRANCH  27  29
ENDBRANCH   4  27
TORSDOF 20
ENDMDL
MODEL 2
REMARK VINA RESULT:      -9.2      0.773      7.026
REMARK SMILES CCCCCCNC(=O)Oc1cccc(-c2ccc([C@@H](C)C(=O)NCCCNC(=O)c3ccc(-c4c5nc(c(-c6c(F)c(F)c(F)c(F)c6F)c6ccc([nH]6)c(-c6c(F)c(F)c(F)c(F)c6F)c6nc(c(-c7c(F)c(F)c(F)c(F)c7F)c7ccc4[nH]7)C=C6)C=C5)cc3)cc2[N+](=O)[O-])c1
REMARK SMILES IDX 16 1 17 2 18 3 19 4 94 5 95 6 15 7 11 8 12 9 99 10 13 11
REMARK SMILES IDX 14 12 10 13 8 14 7 15 9 17 6 18 5 19 4 20 3 21 2 22 1 23
REMARK SMILES IDX 96 24 97 25 98 26 20 27 21 28 22 29 23 30 24 31 25 33 26 34
REMARK SMILES IDX 27 35 28 36 29 37 30 39 31 40 32 41 93 42 33 43 92 44 34 45
REMARK SMILES IDX 35 46 36 47 86 48 37 49 91 50 85 51 87 52 38 53 90 54 84 55
REMARK SMILES IDX 83 56 39 58 71 59 51 60 70 61 52 62 55 63 69 64 88 65 53 66
REMARK SMILES IDX 54 67 68 69 89 70 56 71 40 72 41 73 49 74 42 75 43 76 47 77
REMARK SMILES IDX 50 78 44 79 45 80 48 81 46 82 72 83 73 84 81 85 74 86 75 87
REMARK SMILES IDX 79 88 82 89 76 90 77 91 80 92 78 93 57 94 58 95 66 96 59 97
REMARK SMILES IDX 60 98 64 99 67 100 61 101 62 102 65 103 63 104
REMARK H PARENT 7 16 24 32 28 38 87 57 55 68
REMARK Flexibility Score: inf
ROOT
ATOM      1  C   UNL A   1      45.154  28.342  26.761  1.00  0.00     0.060 A 
ATOM      2  C   UNL A   1      44.020  27.515  26.674  1.00  0.00     0.016 A 
ATOM      3  C   UNL A   1      44.107  26.158  26.334  1.00  0.00     0.005 A 
ATOM      4  C   UNL A   1      45.322  25.578  25.967  1.00  0.00    -0.029 A 
ATOM      5  C   UNL A   1      46.473  26.371  26.077  1.00  0.00     0.090 A 
ATOM      6  C   UNL A   1      46.389  27.713  26.506  1.00  0.00     0.277 A 
ENDROOT
BRANCH   1   7
ATOM      7  C   UNL A   1      44.959  29.775  27.084  1.00  0.00    -0.008 A 
ATOM      8  C   UNL A   1      45.198  32.139  26.570  1.00  0.00     0.133 A 
ATOM      9  C   UNL A   1      44.539  32.497  27.743  1.00  0.00     0.047 A 
ATOM     10  C   UNL A   1      45.395  30.800  26.225  1.00  0.00     0.056 A 
ATOM     11  C   UNL A   1      44.075  31.500  28.590  1.00  0.00     0.004 A 
ATOM     12  C   UNL A   1      44.298  30.157  28.270  1.00  0.00     0.009 A 
BRANCH   8  13
ATOM     13  O   UNL A   1      45.800  33.192  25.855  1.00  0.00    -0.410 OA
BRANCH  13  14
ATOM     14  C   UNL A   1      45.076  33.955  24.952  1.00  0.00     0.412 C 
ATOM     15  N   UNL A   1      45.038  35.279  25.296  1.00  0.00    -0.321 N 
ATOM     16  H   UNL A   1      44.490  35.869  24.730  1.00  0.00     0.167 HD
ATOM     17  O   UNL A   1      44.510  33.535  23.952  1.00  0.00    -0.224 OA
BRANCH  15  18
ATOM     18  C   UNL A   1      45.725  35.898  26.414  1.00  0.00     0.119 C 
BRANCH  18  19
ATOM     19  C   UNL A   1      44.777  36.195  27.576  1.00  0.00     0.021 C 
BRANCH  19  20
ATOM     20  C   UNL A   1      43.390  36.701  27.162  1.00  0.00     0.002 C 
BRANCH  20  21
ATOM     21  C   UNL A   1      42.255  35.678  27.277  1.00  0.00    -0.000 C 
BRANCH  21  22
ATOM     22  C   UNL A   1      41.464  35.720  28.586  1.00  0.00    -0.003 C 
ATOM     23  C   UNL A   1      41.886  34.646  29.578  1.00  0.00     0.004 C 
ENDBRANCH  21  22
ENDBRANCH  20  21
ENDBRANCH  19  20
ENDBRANCH  18  19
ENDBRANCH  15  18
ENDBRANCH  13  14
ENDBRANCH   8  13
ENDBRANCH   1   7
BRANCH   6  24
ATOM     24  N   UNL A   1      47.654  28.396  26.758  1.00  0.00     0.063 N 
ATOM     25  O   UNL A   1      48.247  28.869  25.777  1.00  0.00    -0.258 OA
ATOM     26  O   UNL A   1      48.080  28.409  27.921  1.00  0.00    -0.258 OA
ENDBRANCH   6  24
BRANCH   4  27
ATOM     27  C   UNL A   1      45.422  24.150  25.453  1.00  0.00     0.105 C 
ATOM     28  C   UNL A   1      46.497  23.917  24.392  1.00  0.00     0.023 C 
BRANCH  27  29
ATOM     29  C   UNL A   1      45.365  23.086  26.561  1.00  0.00     0.227 C 
ATOM     30  O   UNL A   1      46.214  23.095  27.462  1.00  0.00    -0.274 OA
ATOM     31  N   UNL A   1      44.432  22.100  26.636  1.00  0.00    -0.356 N 
ATOM     32  H   UNL A   1      44.498  21.555  27.453  1.00  0.00     0.163 HD
BRANCH  31  33
ATOM     33  C   UNL A   1      43.358  21.697  25.750  1.00  0.00     0.117 C 
BRANCH  33  34
ATOM     34  C   UNL A   1      42.200  22.692  25.763  1.00  0.00     0.042 C 
BRANCH  34  35
ATOM     35  C   UNL A   1      40.979  22.215  26.539  1.00  0.00     0.118 C 
BRANCH  35  36
ATOM     36  N   UNL A   1      39.734  22.638  25.918  1.00  0.00    -0.352 N 
ATOM     37  C   UNL A   1      38.913  23.706  26.188  1.00  0.00     0.251 C 
ATOM     38  H   UNL A   1      39.427  22.063  25.180  1.00  0.00     0.163 HD
ATOM     39  O   UNL A   1      37.798  23.745  25.676  1.00  0.00    -0.269 OA
BRANCH  37  40
ATOM     40  C   UNL A   1      39.339  24.803  27.090  1.00  0.00     0.039 A 
ATOM     41  C   UNL A   1      40.122  25.838  26.563  1.00  0.00     0.014 A 
ATOM     42  C   UNL A   1      39.037  24.794  28.454  1.00  0.00     0.014 A 
ATOM     43  C   UNL A   1      40.553  26.880  27.388  1.00  0.00     0.010 A 
ATOM     44  C   UNL A   1      39.397  25.875  29.257  1.00  0.00     0.010 A 
ATOM     45  C   UNL A   1      40.170  26.923  28.737  1.00  0.00    -0.014 A 
BRANCH  45  46
ATOM     46  C   UNL A   1      40.584  28.041  29.625  1.00  0.00     0.031 A 
ATOM     47  C   UNL A   1      39.643  29.182  29.893  1.00  0.00     0.074 A 
ATOM     48  C   UNL A   1      41.830  28.062  30.134  1.00  0.00     0.049 A 
ATOM     49  N   UNL A   1      39.847  30.286  30.568  1.00  0.00    -0.248 NA
ATOM     50  C   UNL A   1      38.300  29.086  29.298  1.00  0.00     0.031 C 
ATOM     51  C   UNL A   1      42.853  27.040  29.908  1.00  0.00     0.029 A 
ATOM     52  N   UNL A   1      42.455  28.986  30.935  1.00  0.00    -0.354 N 
ATOM     53  C   UNL A   1      38.674  31.022  30.457  1.00  0.00     0.074 A 
ATOM     54  C   UNL A   1      37.777  30.262  29.612  1.00  0.00     0.031 C 
ATOM     55  C   UNL A   1      43.971  27.384  30.566  1.00  0.00     0.029 A 
ATOM     56  C   UNL A   1      43.757  28.665  31.230  1.00  0.00     0.049 A 
ATOM     57  H   UNL A   1      42.012  29.799  31.266  1.00  0.00     0.167 HD
ATOM     58  C   UNL A   1      38.365  32.212  31.024  1.00  0.00     0.037 A 
ATOM     59  C   UNL A   1      44.678  29.335  31.950  1.00  0.00     0.037 A 
ATOM     60  C   UNL A   1      39.246  32.948  31.892  1.00  0.00     0.049 A 
ATOM     61  C   UNL A   1      44.305  30.646  32.583  1.00  0.00     0.074 A 
ATOM     62  C   UNL A   1      39.000  34.126  32.575  1.00  0.00     0.029 A 
ATOM     63  N   UNL A   1      40.546  32.575  32.196  1.00  0.00    -0.354 N 
ATOM     64  N   UNL A   1      43.168  31.297  32.530  1.00  0.00    -0.248 NA
ATOM     65  C   UNL A   1      45.341  31.314  33.385  1.00  0.00     0.031 C 
ATOM     66  C   UNL A   1      40.165  34.487  33.259  1.00  0.00     0.029 A 
ATOM     67  C   UNL A   1      41.123  33.510  33.041  1.00  0.00     0.049 A 
ATOM     68  H   UNL A   1      40.995  31.764  31.860  1.00  0.00     0.167 HD
ATOM     69  C   UNL A   1      43.342  32.433  33.308  1.00  0.00     0.074 A 
ATOM     70  C   UNL A   1      44.690  32.378  33.835  1.00  0.00     0.031 C 
ATOM     71  C   UNL A   1      42.463  33.434  33.563  1.00  0.00     0.037 A 
BRANCH  58  72
ATOM     72  C   UNL A   1      37.013  32.794  30.725  1.00  0.00     0.064 A 
ATOM     73  C   UNL A   1      35.949  32.689  31.635  1.00  0.00     0.173 A 
ATOM     74  C   UNL A   1      36.785  33.490  29.528  1.00  0.00     0.173 A 
ATOM     75  F   UNL A   1      36.109  32.025  32.789  1.00  0.00    -0.203 F 
ATOM     76  C   UNL A   1      34.700  33.232  31.342  1.00  0.00     0.198 A 
ATOM     77  C   UNL A   1      35.544  34.057  29.253  1.00  0.00     0.198 A 
ATOM     78  F   UNL A   1      37.770  33.625  28.627  1.00  0.00    -0.203 F 
ATOM     79  F   UNL A   1      33.685  33.075  32.203  1.00  0.00    -0.200 F 
ATOM     80  C   UNL A   1      34.500  33.921  30.155  1.00  0.00     0.200 A 
ATOM     81  F   UNL A   1      35.356  34.734  28.112  1.00  0.00    -0.200 F 
ATOM     82  F   UNL A   1      33.298  34.447  29.878  1.00  0.00    -0.200 F 
ENDBRANCH  58  72
BRANCH  59  83
ATOM     83  C   UNL A   1      46.035  28.757  32.131  1.00  0.00     0.064 A 
ATOM     84  C   UNL A   1      46.272  27.774  33.102  1.00  0.00     0.173 A 
ATOM     85  C   UNL A   1      47.116  29.162  31.335  1.00  0.00     0.173 A 
ATOM     86  F   UNL A   1      45.274  27.368  33.901  1.00  0.00    -0.203 F 
ATOM     87  C   UNL A   1      47.542  27.229  33.280  1.00  0.00     0.198 A 
ATOM     88  C   UNL A   1      48.379  28.597  31.496  1.00  0.00     0.198 A 
ATOM     89  F   UNL A   1      46.940  30.095  30.390  1.00  0.00    -0.203 F 
ATOM     90  F   UNL A   1      47.749  26.319  34.242  1.00  0.00    -0.200 F 
ATOM     91  C   UNL A   1      48.592  27.636  32.473  1.00  0.00     0.200 A 
ATOM     92  F   UNL A   1      49.390  28.981  30.703  1.00  0.00    -0.200 F 
ATOM     93  F   UNL A   1      49.812  27.106  32.638  1.00  0.00    -0.200 F 
ENDBRANCH  59  83
BRANCH  71  94
ATOM     94  C   UNL A   1      42.918  34.532  34.478  1.00  0.00     0.064 A 
ATOM     95  C   UNL A   1      43.482  35.716  33.982  1.00  0.00     0.173 A 
ATOM     96  C   UNL A   1      42.745  34.416  35.866  1.00  0.00     0.173 A 
ATOM     97  F   UNL A   1      43.683  35.869  32.664  1.00  0.00    -0.203 F 
ATOM     98  C   UNL A   1      43.878  36.735  34.845  1.00  0.00     0.198 A 
ATOM     99  C   UNL A   1      43.116  35.447  36.723  1.00  0.00     0.198 A 
ATOM    100  F   UNL A   1      42.204  33.305  36.388  1.00  0.00    -0.203 F 
ATOM    101  F   UNL A   1      44.456  37.840  34.353  1.00  0.00    -0.200 F 
ATOM    102  C   UNL A   1      43.687  36.603  36.213  1.00  0.00     0.200 A 
ATOM    103  F   UNL A   1      42.920  35.324  38.042  1.00  0.00    -0.200 F 
ATOM    104  F   UNL A   1      44.062  37.588  37.040  1.00  0.00    -0.200 F 
ENDBRANCH  71  94
ENDBRANCH  45  46
ENDBRANCH  37  40
ENDBRANCH  35  36
ENDBRANCH  34  35
ENDBRANCH  33  34
ENDBRANCH  31  33
ENDBRANCH  27  29
ENDBRANCH   4  27
TORSDOF 20
ENDMDL
MODEL 3
REMARK VINA RESULT:      -9.2      9.237     14.666
REMARK SMILES CCCCCCNC(=O)Oc1cccc(-c2ccc([C@@H](C)C(=O)NCCCNC(=O)c3ccc(-c4c5nc(c(-c6c(F)c(F)c(F)c(F)c6F)c6ccc([nH]6)c(-c6c(F)c(F)c(F)c(F)c6F)c6nc(c(-c7c(F)c(F)c(F)c(F)c7F)c7ccc4[nH]7)C=C6)C=C5)cc3)cc2[N+](=O)[O-])c1
REMARK SMILES IDX 16 1 17 2 18 3 19 4 94 5 95 6 15 7 11 8 12 9 99 10 13 11
REMARK SMILES IDX 14 12 10 13 8 14 7 15 9 17 6 18 5 19 4 20 3 21 2 22 1 23
REMARK SMILES IDX 96 24 97 25 98 26 20 27 21 28 22 29 23 30 24 31 25 33 26 34
REMARK SMILES IDX 27 35 28 36 29 37 30 39 31 40 32 41 93 42 33 43 92 44 34 45
REMARK SMILES IDX 35 46 36 47 86 48 37 49 91 50 85 51 87 52 38 53 90 54 84 55
REMARK SMILES IDX 83 56 39 58 71 59 51 60 70 61 52 62 55 63 69 64 88 65 53 66
REMARK SMILES IDX 54 67 68 69 89 70 56 71 40 72 41 73 49 74 42 75 43 76 47 77
REMARK SMILES IDX 50 78 44 79 45 80 48 81 46 82 72 83 73 84 81 85 74 86 75 87
REMARK SMILES IDX 79 88 82 89 76 90 77 91 80 92 78 93 57 94 58 95 66 96 59 97
REMARK SMILES IDX 60 98 64 99 67 100 61 101 62 102 65 103 63 104
REMARK H PARENT 7 16 24 32 28 38 87 57 55 68
REMARK Flexibility Score: inf
ROOT
ATOM      1  C   UNL A   1      46.730  17.017  42.244  1.00  0.00     0.060 A 
ATOM      2  C   UNL A   1      47.899  17.425  41.577  1.00  0.00     0.016 A 
ATOM      3  C   UNL A   1      47.863  18.206  40.415  1.00  0.00     0.005 A 
ATOM      4  C   UNL A   1      46.655  18.539  39.800  1.00  0.00    -0.029 A 
ATOM      5  C   UNL A   1      45.474  18.173  40.461  1.00  0.00     0.090 A 
ATOM      6  C   UNL A   1      45.518  17.463  41.681  1.00  0.00     0.277 A 
ENDROOT
BRANCH   1   7
ATOM      7  C   UNL A   1      46.865  16.154  43.442  1.00  0.00    -0.008 A 
ATOM      8  C   UNL A   1      46.380  14.123  44.685  1.00  0.00     0.133 A 
ATOM      9  C   UNL A   1      47.178  14.539  45.747  1.00  0.00     0.047 A 
ATOM     10  C   UNL A   1      46.232  14.902  43.536  1.00  0.00     0.056 A 
ATOM     11  C   UNL A   1      47.836  15.759  45.661  1.00  0.00     0.004 A 
ATOM     12  C   UNL A   1      47.666  16.561  44.529  1.00  0.00     0.009 A 
BRANCH   8  13
ATOM     13  O   UNL A   1      45.603  12.972  44.914  1.00  0.00    -0.410 OA
BRANCH  13  14
ATOM     14  C   UNL A   1      46.041  11.717  44.520  1.00  0.00     0.412 C 
ATOM     15  N   UNL A   1      45.056  10.770  44.590  1.00  0.00    -0.321 N 
ATOM     16  H   UNL A   1      45.314   9.844  44.381  1.00  0.00     0.167 HD
ATOM     17  O   UNL A   1      47.175  11.438  44.151  1.00  0.00    -0.224 OA
BRANCH  15  18
ATOM     18  C   UNL A   1      43.667  10.998  44.943  1.00  0.00     0.119 C 
BRANCH  18  19
ATOM     19  C   UNL A   1      42.708  10.338  43.952  1.00  0.00     0.021 C 
BRANCH  19  20
ATOM     20  C   UNL A   1      41.919  11.316  43.071  1.00  0.00     0.002 C 
BRANCH  20  21
ATOM     21  C   UNL A   1      42.551  12.700  42.897  1.00  0.00    -0.000 C 
BRANCH  21  22
ATOM     22  C   UNL A   1      41.803  13.853  43.572  1.00  0.00    -0.003 C 
ATOM     23  C   UNL A   1      40.492  13.424  44.215  1.00  0.00     0.004 C 
ENDBRANCH  21  22
ENDBRANCH  20  21
ENDBRANCH  19  20
ENDBRANCH  18  19
ENDBRANCH  15  18
ENDBRANCH  13  14
ENDBRANCH   8  13
ENDBRANCH   1   7
BRANCH   6  24
ATOM     24  N   UNL A   1      44.247  17.286  42.376  1.00  0.00     0.063 N 
ATOM     25  O   UNL A   1      43.469  16.432  41.926  1.00  0.00    -0.258 OA
ATOM     26  O   UNL A   1      44.005  18.037  43.332  1.00  0.00    -0.258 OA
ENDBRANCH   6  24
BRANCH   4  27
ATOM     27  C   UNL A   1      46.592  19.259  38.461  1.00  0.00     0.105 C 
ATOM     28  C   UNL A   1      45.662  18.624  37.428  1.00  0.00     0.023 C 
BRANCH  27  29
ATOM     29  C   UNL A   1      46.477  20.786  38.582  1.00  0.00     0.227 C 
ATOM     30  O   UNL A   1      45.772  21.278  39.473  1.00  0.00    -0.274 OA
ATOM     31  N   UNL A   1      47.103  21.674  37.765  1.00  0.00    -0.356 N 
ATOM     32  H   UNL A   1      46.982  22.614  38.034  1.00  0.00     0.163 HD
BRANCH  31  33
ATOM     33  C   UNL A   1      47.916  21.508  36.576  1.00  0.00     0.117 C 
BRANCH  33  34
ATOM     34  C   UNL A   1      47.270  22.144  35.347  1.00  0.00     0.042 C 
BRANCH  34  35
ATOM     35  C   UNL A   1      47.819  23.521  34.998  1.00  0.00     0.118 C 
BRANCH  35  36
ATOM     36  N   UNL A   1      48.024  24.345  36.180  1.00  0.00    -0.352 N 
ATOM     37  C   UNL A   1      47.507  25.572  36.519  1.00  0.00     0.251 C 
ATOM     38  H   UNL A   1      48.634  23.959  36.848  1.00  0.00     0.163 HD
ATOM     39  O   UNL A   1      47.989  26.179  37.471  1.00  0.00    -0.269 OA
BRANCH  37  40
ATOM     40  C   UNL A   1      46.392  26.182  35.755  1.00  0.00     0.039 A 
ATOM     41  C   UNL A   1      45.128  25.584  35.824  1.00  0.00     0.014 A 
ATOM     42  C   UNL A   1      46.586  27.288  34.925  1.00  0.00     0.014 A 
ATOM     43  C   UNL A   1      44.057  26.124  35.105  1.00  0.00     0.010 A 
ATOM     44  C   UNL A   1      45.502  27.875  34.276  1.00  0.00     0.010 A 
ATOM     45  C   UNL A   1      44.228  27.293  34.347  1.00  0.00    -0.014 A 
BRANCH  45  46
ATOM     46  C   UNL A   1      43.097  27.907  33.606  1.00  0.00     0.031 A 
ATOM     47  C   UNL A   1      42.899  27.608  32.145  1.00  0.00     0.074 A 
ATOM     48  C   UNL A   1      42.289  28.785  34.228  1.00  0.00     0.049 A 
ATOM     49  N   UNL A   1      42.026  28.108  31.306  1.00  0.00    -0.248 NA
ATOM     50  C   UNL A   1      43.825  26.639  31.537  1.00  0.00     0.031 C 
ATOM     51  C   UNL A   1      42.406  29.196  35.628  1.00  0.00     0.029 A 
ATOM     52  N   UNL A   1      41.216  29.504  33.760  1.00  0.00    -0.354 N 
ATOM     53  C   UNL A   1      42.314  27.536  30.073  1.00  0.00     0.074 A 
ATOM     54  C   UNL A   1      43.471  26.687  30.261  1.00  0.00     0.031 C 
ATOM     55  C   UNL A   1      41.437  30.082  35.909  1.00  0.00     0.029 A 
ATOM     56  C   UNL A   1      40.653  30.328  34.703  1.00  0.00     0.049 A 
ATOM     57  H   UNL A   1      40.884  29.436  32.836  1.00  0.00     0.167 HD
ATOM     58  C   UNL A   1      41.662  27.689  28.896  1.00  0.00     0.037 A 
ATOM     59  C   UNL A   1      39.623  31.191  34.604  1.00  0.00     0.037 A 
ATOM     60  C   UNL A   1      40.491  28.507  28.721  1.00  0.00     0.049 A 
ATOM     61  C   UNL A   1      38.905  31.330  33.291  1.00  0.00     0.074 A 
ATOM     62  C   UNL A   1      39.713  28.671  27.587  1.00  0.00     0.029 A 
ATOM     63  N   UNL A   1      39.928  29.300  29.709  1.00  0.00    -0.354 N 
ATOM     64  N   UNL A   1      39.142  30.730  32.150  1.00  0.00    -0.248 NA
ATOM     65  C   UNL A   1      37.768  32.262  33.253  1.00  0.00     0.031 C 
ATOM     66  C   UNL A   1      38.705  29.595  27.878  1.00  0.00     0.029 A 
ATOM     67  C   UNL A   1      38.824  29.972  29.206  1.00  0.00     0.049 A 
ATOM     68  H   UNL A   1      40.263  29.376  30.632  1.00  0.00     0.167 HD
ATOM     69  C   UNL A   1      38.174  31.189  31.268  1.00  0.00     0.074 A 
ATOM     70  C   UNL A   1      37.335  32.108  32.009  1.00  0.00     0.031 C 
ATOM     71  C   UNL A   1      37.996  30.877  29.961  1.00  0.00     0.037 A 
BRANCH  58  72
ATOM     72  C   UNL A   1      42.200  26.953  27.703  1.00  0.00     0.064 A 
ATOM     73  C   UNL A   1      43.147  27.532  26.844  1.00  0.00     0.173 A 
ATOM     74  C   UNL A   1      41.786  25.640  27.430  1.00  0.00     0.173 A 
ATOM     75  F   UNL A   1      43.569  28.788  27.053  1.00  0.00    -0.203 F 
ATOM     76  C   UNL A   1      43.635  26.837  25.740  1.00  0.00     0.198 A 
ATOM     77  C   UNL A   1      42.298  24.937  26.343  1.00  0.00     0.198 A 
ATOM     78  F   UNL A   1      40.887  25.036  28.223  1.00  0.00    -0.203 F 
ATOM     79  F   UNL A   1      44.500  27.429  24.906  1.00  0.00    -0.200 F 
ATOM     80  C   UNL A   1      43.215  25.538  25.494  1.00  0.00     0.200 A 
ATOM     81  F   UNL A   1      41.902  23.677  26.114  1.00  0.00    -0.200 F 
ATOM     82  F   UNL A   1      43.689  24.869  24.434  1.00  0.00    -0.200 F 
ENDBRANCH  58  72
BRANCH  59  83
ATOM     83  C   UNL A   1      39.196  31.968  35.796  1.00  0.00     0.064 A 
ATOM     84  C   UNL A   1      39.649  33.280  35.997  1.00  0.00     0.173 A 
ATOM     85  C   UNL A   1      38.321  31.426  36.748  1.00  0.00     0.173 A 
ATOM     86  F   UNL A   1      40.501  33.835  35.123  1.00  0.00    -0.203 F 
ATOM     87  C   UNL A   1      39.254  34.014  37.113  1.00  0.00     0.198 A 
ATOM     88  C   UNL A   1      37.907  32.171  37.851  1.00  0.00     0.198 A 
ATOM     89  F   UNL A   1      37.857  30.178  36.600  1.00  0.00    -0.203 F 
ATOM     90  F   UNL A   1      39.733  35.252  37.301  1.00  0.00    -0.200 F 
ATOM     91  C   UNL A   1      38.379  33.461  38.036  1.00  0.00     0.200 A 
ATOM     92  F   UNL A   1      37.048  31.640  38.733  1.00  0.00    -0.200 F 
ATOM     93  F   UNL A   1      37.994  34.171  39.105  1.00  0.00    -0.200 F 
ENDBRANCH  59  83
BRANCH  71  94
ATOM     94  C   UNL A   1      36.831  31.507  29.256  1.00  0.00     0.064 A 
ATOM     95  C   UNL A   1      35.695  30.764  28.903  1.00  0.00     0.173 A 
ATOM     96  C   UNL A   1      36.833  32.881  28.971  1.00  0.00     0.173 A 
ATOM     97  F   UNL A   1      35.651  29.444  29.141  1.00  0.00    -0.203 F 
ATOM     98  C   UNL A   1      34.613  31.370  28.270  1.00  0.00     0.198 A 
ATOM     99  C   UNL A   1      35.739  33.488  28.363  1.00  0.00     0.198 A 
ATOM    100  F   UNL A   1      37.894  33.636  29.294  1.00  0.00    -0.203 F 
ATOM    101  F   UNL A   1      33.556  30.632  27.902  1.00  0.00    -0.200 F 
ATOM    102  C   UNL A   1      34.633  32.732  28.008  1.00  0.00     0.200 A 
ATOM    103  F   UNL A   1      35.754  34.806  28.121  1.00  0.00    -0.200 F 
ATOM    104  F   UNL A   1      33.587  33.314  27.405  1.00  0.00    -0.200 F 
ENDBRANCH  71  94
ENDBRANCH  45  46
ENDBRANCH  37  40
ENDBRANCH  35  36
ENDBRANCH  34  35
ENDBRANCH  33  34
ENDBRANCH  31  33
ENDBRANCH  27  29
ENDBRANCH   4  27
TORSDOF 20
ENDMDL
