MODEL 1
REMARK VINA RESULT:     -13.3      0.000      0.000
REMARK SMILES Cc1nc(NC(=O)[C@H]2[C@@H]3CC[C@@H](C3)[C@@H]2C(=O)NCCCNC(=O)c2ccc(-c3c4nc(c(-c5c(F)c(F)c(F)c(F)c5F)c5ccc([nH]5)c(-c5c(F)c(F)c(F)c(F)c5F)c5nc(c(-c6c(F)c(F)c(F)c(F)c6F)c6ccc3[nH]6)C=C5)C=C4)cc2)sc1-c1ccccc1
REMARK SMILES IDX 18 1 17 2 15 3 16 4 14 6 8 7 9 8 10 9 13 10 12 11 11 12 6 13
REMARK SMILES IDX 5 14 7 16 4 17 1 18 2 19 3 20 88 21 87 22 89 23 90 24 94 25
REMARK SMILES IDX 91 26 93 27 92 28 19 29 20 30 21 31 22 32 23 34 24 35 25 36
REMARK SMILES IDX 86 37 26 38 85 39 27 40 28 41 29 42 79 43 30 44 84 45 78 46
REMARK SMILES IDX 80 47 31 48 83 49 77 50 76 51 32 53 64 54 44 55 63 56 45 57
REMARK SMILES IDX 48 58 62 59 81 60 46 61 47 62 61 64 82 65 49 66 33 67 34 68
REMARK SMILES IDX 42 69 35 70 36 71 40 72 43 73 37 74 38 75 41 76 39 77 65 78
REMARK SMILES IDX 66 79 74 80 67 81 68 82 72 83 75 84 69 85 70 86 73 87 71 88
REMARK SMILES IDX 50 89 51 90 59 91 52 92 53 93 57 94 60 95 54 96 55 97 58 98
REMARK SMILES IDX 56 99
REMARK H PARENT 17 5 5 15 21 33 80 52 48 63
REMARK Flexibility Score: inf
ROOT
ATOM      1  C   UNL A   1      31.227  30.879  25.373  1.00  0.00     0.117 C 
ENDROOT
BRANCH   1   2
ATOM      2  N   UNL A   1      32.152  29.781  25.571  1.00  0.00    -0.356 N 
ATOM      3  C   UNL A   1      32.067  28.433  25.408  1.00  0.00     0.224 C 
ATOM      4  O   UNL A   1      33.149  27.842  25.481  1.00  0.00    -0.275 OA
ATOM      5  H   UNL A   1      33.035  30.074  25.893  1.00  0.00     0.163 HD
BRANCH   3   6
ATOM      6  C   UNL A   1      30.738  27.683  25.185  1.00  0.00     0.094 C 
ATOM      7  C   UNL A   1      30.983  26.127  25.154  1.00  0.00     0.094 C 
ATOM      8  C   UNL A   1      30.530  25.792  23.691  1.00  0.00     0.002 C 
ATOM      9  C   UNL A   1      31.470  26.440  22.656  1.00  0.00     0.005 C 
ATOM     10  C   UNL A   1      29.276  26.655  23.576  1.00  0.00     0.009 C 
ATOM     11  C   UNL A   1      30.043  27.951  23.826  1.00  0.00     0.002 C 
ATOM     12  C   UNL A   1      31.056  27.913  22.676  1.00  0.00     0.005 C 
BRANCH   7  13
ATOM     13  C   UNL A   1      30.203  25.179  26.099  1.00  0.00     0.230 C 
ATOM     14  N   UNL A   1      30.413  23.856  26.274  1.00  0.00    -0.302 N 
ATOM     15  H   UNL A   1      29.882  23.434  26.988  1.00  0.00     0.172 HD
ATOM     16  O   UNL A   1      29.270  25.632  26.782  1.00  0.00    -0.274 OA
BRANCH  14  17
ATOM     17  C   UNL A   1      31.248  23.030  25.605  1.00  0.00     0.190 A 
ATOM     18  C   UNL A   1      32.258  21.205  22.722  1.00  0.00     0.068 C 
ATOM     19  C   UNL A   1      32.226  21.840  24.057  1.00  0.00     0.058 A 
ATOM     20  N   UNL A   1      31.046  22.411  24.479  1.00  0.00    -0.225 NA
ATOM     21  C   UNL A   1      33.314  22.060  24.887  1.00  0.00     0.059 A 
ATOM     22  S   UNL A   1      32.798  22.854  26.309  1.00  0.00    -0.096 S 
BRANCH  21  23
ATOM     23  C   UNL A   1      34.707  21.763  24.594  1.00  0.00    -0.006 A 
ATOM     24  C   UNL A   1      35.565  22.771  24.145  1.00  0.00     0.009 A 
ATOM     25  C   UNL A   1      35.239  20.532  25.002  1.00  0.00     0.009 A 
ATOM     26  C   UNL A   1      36.946  22.561  24.144  1.00  0.00     0.001 A 
ATOM     27  C   UNL A   1      36.619  20.325  25.001  1.00  0.00     0.001 A 
ATOM     28  C   UNL A   1      37.471  21.347  24.587  1.00  0.00     0.000 A 
ENDBRANCH  21  23
ENDBRANCH  14  17
ENDBRANCH   7  13
ENDBRANCH   3   6
ENDBRANCH   1   2
BRANCH   1  29
ATOM     29  C   UNL A   1      31.194  31.869  26.529  1.00  0.00     0.042 C 
BRANCH  29  30
ATOM     30  C   UNL A   1      32.550  32.478  26.884  1.00  0.00     0.118 C 
BRANCH  30  31
ATOM     31  N   UNL A   1      32.458  33.826  27.413  1.00  0.00    -0.352 N 
ATOM     32  C   UNL A   1      33.211  34.450  28.377  1.00  0.00     0.251 C 
ATOM     33  H   UNL A   1      31.746  34.380  27.019  1.00  0.00     0.163 HD
ATOM     34  O   UNL A   1      32.893  35.571  28.763  1.00  0.00    -0.269 OA
BRANCH  32  35
ATOM     35  C   UNL A   1      34.387  33.782  28.979  1.00  0.00     0.039 A 
ATOM     36  C   UNL A   1      34.162  32.709  29.847  1.00  0.00     0.014 A 
ATOM     37  C   UNL A   1      35.692  34.231  28.753  1.00  0.00     0.014 A 
ATOM     38  C   UNL A   1      35.240  32.063  30.454  1.00  0.00     0.010 A 
ATOM     39  C   UNL A   1      36.773  33.548  29.313  1.00  0.00     0.010 A 
ATOM     40  C   UNL A   1      36.557  32.465  30.179  1.00  0.00    -0.014 A 
BRANCH  40  41
ATOM     41  C   UNL A   1      37.708  31.777  30.819  1.00  0.00     0.031 A 
ATOM     42  C   UNL A   1      38.124  32.139  32.218  1.00  0.00     0.074 A 
ATOM     43  C   UNL A   1      38.396  30.844  30.135  1.00  0.00     0.049 A 
ATOM     44  N   UNL A   1      39.118  31.673  32.934  1.00  0.00    -0.248 NA
ATOM     45  C   UNL A   1      37.331  33.176  32.896  1.00  0.00     0.031 C 
ATOM     46  C   UNL A   1      38.111  30.423  28.763  1.00  0.00     0.029 A 
ATOM     47  N   UNL A   1      39.478  30.082  30.498  1.00  0.00    -0.354 N 
ATOM     48  C   UNL A   1      39.073  32.366  34.137  1.00  0.00     0.074 A 
ATOM     49  C   UNL A   1      37.987  33.316  34.038  1.00  0.00     0.031 C 
ATOM     50  C   UNL A   1      38.983  29.466  28.407  1.00  0.00     0.029 A 
ATOM     51  C   UNL A   1      39.906  29.227  29.513  1.00  0.00     0.049 A 
ATOM     52  H   UNL A   1      39.908  30.145  31.382  1.00  0.00     0.167 HD
ATOM     53  C   UNL A   1      39.854  32.209  35.233  1.00  0.00     0.037 A 
ATOM     54  C   UNL A   1      40.928  28.349  29.503  1.00  0.00     0.037 A 
ATOM     55  C   UNL A   1      40.917  31.245  35.343  1.00  0.00     0.049 A 
ATOM     56  C   UNL A   1      41.785  28.199  30.731  1.00  0.00     0.074 A 
ATOM     57  C   UNL A   1      41.732  30.976  36.430  1.00  0.00     0.029 A 
ATOM     58  N   UNL A   1      41.315  30.389  34.326  1.00  0.00    -0.354 N 
ATOM     59  N   UNL A   1      41.698  28.820  31.882  1.00  0.00    -0.248 NA
ATOM     60  C   UNL A   1      42.878  27.218  30.661  1.00  0.00     0.031 C 
ATOM     61  C   UNL A   1      42.647  29.986  36.059  1.00  0.00     0.029 A 
ATOM     62  C   UNL A   1      42.375  29.606  34.754  1.00  0.00     0.049 A 
ATOM     63  H   UNL A   1      40.905  30.346  33.432  1.00  0.00     0.167 HD
ATOM     64  C   UNL A   1      42.701  28.288  32.680  1.00  0.00     0.074 A 
ATOM     65  C   UNL A   1      43.379  27.284  31.887  1.00  0.00     0.031 C 
ATOM     66  C   UNL A   1      43.033  28.604  33.955  1.00  0.00     0.037 A 
BRANCH  53  67
ATOM     67  C   UNL A   1      39.585  33.102  36.409  1.00  0.00     0.064 A 
ATOM     68  C   UNL A   1      40.234  34.337  36.558  1.00  0.00     0.173 A 
ATOM     69  C   UNL A   1      38.638  32.737  37.379  1.00  0.00     0.173 A 
ATOM     70  F   UNL A   1      41.156  34.727  35.664  1.00  0.00    -0.203 F 
ATOM     71  C   UNL A   1      39.966  35.160  37.648  1.00  0.00     0.198 A 
ATOM     72  C   UNL A   1      38.353  33.576  38.453  1.00  0.00     0.198 A 
ATOM     73  F   UNL A   1      37.985  31.570  37.280  1.00  0.00    -0.203 F 
ATOM     74  F   UNL A   1      40.633  36.314  37.793  1.00  0.00    -0.200 F 
ATOM     75  C   UNL A   1      39.021  34.783  38.590  1.00  0.00     0.200 A 
ATOM     76  F   UNL A   1      37.431  33.216  39.355  1.00  0.00    -0.200 F 
ATOM     77  F   UNL A   1      38.760  35.580  39.635  1.00  0.00    -0.200 F 
ENDBRANCH  53  67
BRANCH  54  78
ATOM     78  C   UNL A   1      41.186  27.526  28.294  1.00  0.00     0.064 A 
ATOM     79  C   UNL A   1      40.542  26.294  28.112  1.00  0.00     0.173 A 
ATOM     80  C   UNL A   1      42.081  27.949  27.300  1.00  0.00     0.173 A 
ATOM     81  F   UNL A   1      39.695  25.838  29.045  1.00  0.00    -0.203 F 
ATOM     82  C   UNL A   1      40.798  25.507  26.991  1.00  0.00     0.198 A 
ATOM     83  C   UNL A   1      42.315  27.174  26.167  1.00  0.00     0.198 A 
ATOM     84  F   UNL A   1      42.718  29.123  27.425  1.00  0.00    -0.203 F 
ATOM     85  F   UNL A   1      40.201  24.315  26.862  1.00  0.00    -0.200 F 
ATOM     86  C   UNL A   1      41.680  25.951  26.017  1.00  0.00     0.200 A 
ATOM     87  F   UNL A   1      43.158  27.612  25.221  1.00  0.00    -0.200 F 
ATOM     88  F   UNL A   1      41.922  25.196  24.936  1.00  0.00    -0.200 F 
ENDBRANCH  54  78
BRANCH  66  89
ATOM     89  C   UNL A   1      44.156  27.834  34.586  1.00  0.00     0.064 A 
ATOM     90  C   UNL A   1      43.933  26.617  35.247  1.00  0.00     0.173 A 
ATOM     91  C   UNL A   1      45.477  28.300  34.494  1.00  0.00     0.173 A 
ATOM     92  F   UNL A   1      42.686  26.138  35.374  1.00  0.00    -0.203 F 
ATOM     93  C   UNL A   1      44.988  25.906  35.811  1.00  0.00     0.198 A 
ATOM     94  C   UNL A   1      46.532  27.572  35.036  1.00  0.00     0.198 A 
ATOM     95  F   UNL A   1      45.743  29.456  33.868  1.00  0.00    -0.203 F 
ATOM     96  F   UNL A   1      44.747  24.767  36.475  1.00  0.00    -0.200 F 
ATOM     97  C   UNL A   1      46.287  26.380  35.699  1.00  0.00     0.200 A 
ATOM     98  F   UNL A   1      47.787  28.027  34.917  1.00  0.00    -0.200 F 
ATOM     99  F   UNL A   1      47.301  25.690  36.238  1.00  0.00    -0.200 F 
ENDBRANCH  66  89
ENDBRANCH  40  41
ENDBRANCH  32  35
ENDBRANCH  30  31
ENDBRANCH  29  30
ENDBRANCH   1  29
TORSDOF 13
ENDMDL
MODEL 2
REMARK VINA RESULT:     -13.2      0.181      1.906
REMARK SMILES Cc1nc(NC(=O)[C@H]2[C@@H]3CC[C@@H](C3)[C@@H]2C(=O)NCCCNC(=O)c2ccc(-c3c4nc(c(-c5c(F)c(F)c(F)c(F)c5F)c5ccc([nH]5)c(-c5c(F)c(F)c(F)c(F)c5F)c5nc(c(-c6c(F)c(F)c(F)c(F)c6F)c6ccc3[nH]6)C=C5)C=C4)cc2)sc1-c1ccccc1
REMARK SMILES IDX 18 1 17 2 15 3 16 4 14 6 8 7 9 8 10 9 13 10 12 11 11 12 6 13
REMARK SMILES IDX 5 14 7 16 4 17 1 18 2 19 3 20 88 21 87 22 89 23 90 24 94 25
REMARK SMILES IDX 91 26 93 27 92 28 19 29 20 30 21 31 22 32 23 34 24 35 25 36
REMARK SMILES IDX 86 37 26 38 85 39 27 40 28 41 29 42 79 43 30 44 84 45 78 46
REMARK SMILES IDX 80 47 31 48 83 49 77 50 76 51 32 53 64 54 44 55 63 56 45 57
REMARK SMILES IDX 48 58 62 59 81 60 46 61 47 62 61 64 82 65 49 66 33 67 34 68
REMARK SMILES IDX 42 69 35 70 36 71 40 72 43 73 37 74 38 75 41 76 39 77 65 78
REMARK SMILES IDX 66 79 74 80 67 81 68 82 72 83 75 84 69 85 70 86 73 87 71 88
REMARK SMILES IDX 50 89 51 90 59 91 52 92 53 93 57 94 60 95 54 96 55 97 58 98
REMARK SMILES IDX 56 99
REMARK H PARENT 17 5 5 15 21 33 80 52 48 63
REMARK Flexibility Score: inf
ROOT
ATOM      1  C   UNL A   1      31.176  30.858  25.369  1.00  0.00     0.117 C 
ENDROOT
BRANCH   1   2
ATOM      2  N   UNL A   1      32.111  29.754  25.464  1.00  0.00    -0.356 N 
ATOM      3  C   UNL A   1      32.015  28.414  25.251  1.00  0.00     0.224 C 
ATOM      4  O   UNL A   1      33.099  27.822  25.233  1.00  0.00    -0.275 OA
ATOM      5  H   UNL A   1      33.012  30.035  25.745  1.00  0.00     0.163 HD
BRANCH   3   6
ATOM      6  C   UNL A   1      30.674  27.671  25.077  1.00  0.00     0.094 C 
ATOM      7  C   UNL A   1      30.909  26.115  25.029  1.00  0.00     0.094 C 
ATOM      8  C   UNL A   1      30.396  25.789  23.584  1.00  0.00     0.002 C 
ATOM      9  C   UNL A   1      31.297  26.437  22.515  1.00  0.00     0.005 C 
ATOM     10  C   UNL A   1      29.144  26.659  23.523  1.00  0.00     0.009 C 
ATOM     11  C   UNL A   1      29.926  27.950  23.748  1.00  0.00     0.002 C 
ATOM     12  C   UNL A   1      30.893  27.913  22.559  1.00  0.00     0.005 C 
BRANCH   7  13
ATOM     13  C   UNL A   1      30.163  25.165  26.000  1.00  0.00     0.230 C 
ATOM     14  N   UNL A   1      30.404  23.851  26.193  1.00  0.00    -0.302 N 
ATOM     15  H   UNL A   1      29.892  23.429  26.921  1.00  0.00     0.172 HD
ATOM     16  O   UNL A   1      29.229  25.610  26.687  1.00  0.00    -0.274 OA
BRANCH  14  17
ATOM     17  C   UNL A   1      31.249  23.032  25.527  1.00  0.00     0.190 A 
ATOM     18  C   UNL A   1      32.284  21.217  22.646  1.00  0.00     0.068 C 
ATOM     19  C   UNL A   1      32.242  21.852  23.982  1.00  0.00     0.058 A 
ATOM     20  N   UNL A   1      31.056  22.412  24.400  1.00  0.00    -0.225 NA
ATOM     21  C   UNL A   1      33.325  22.080  24.815  1.00  0.00     0.059 A 
ATOM     22  S   UNL A   1      32.798  22.869  26.237  1.00  0.00    -0.096 S 
BRANCH  21  23
ATOM     23  C   UNL A   1      34.721  21.795  24.528  1.00  0.00    -0.006 A 
ATOM     24  C   UNL A   1      35.558  22.795  24.022  1.00  0.00     0.009 A 
ATOM     25  C   UNL A   1      35.280  20.595  24.992  1.00  0.00     0.009 A 
ATOM     26  C   UNL A   1      36.942  22.612  24.022  1.00  0.00     0.001 A 
ATOM     27  C   UNL A   1      36.663  20.415  24.991  1.00  0.00     0.001 A 
ATOM     28  C   UNL A   1      37.493  21.430  24.520  1.00  0.00     0.000 A 
ENDBRANCH  21  23
ENDBRANCH  14  17
ENDBRANCH   7  13
ENDBRANCH   3   6
ENDBRANCH   1   2
BRANCH   1  29
ATOM     29  C   UNL A   1      31.169  31.763  26.593  1.00  0.00     0.042 C 
BRANCH  29  30
ATOM     30  C   UNL A   1      32.524  32.380  26.936  1.00  0.00     0.118 C 
BRANCH  30  31
ATOM     31  N   UNL A   1      32.433  33.746  27.418  1.00  0.00    -0.352 N 
ATOM     32  C   UNL A   1      33.198  34.408  28.345  1.00  0.00     0.251 C 
ATOM     33  H   UNL A   1      31.712  34.281  27.016  1.00  0.00     0.163 HD
ATOM     34  O   UNL A   1      32.880  35.540  28.696  1.00  0.00    -0.269 OA
BRANCH  32  35
ATOM     35  C   UNL A   1      34.388  33.768  28.951  1.00  0.00     0.039 A 
ATOM     36  C   UNL A   1      34.185  32.700  29.831  1.00  0.00     0.014 A 
ATOM     37  C   UNL A   1      35.683  34.239  28.717  1.00  0.00     0.014 A 
ATOM     38  C   UNL A   1      35.276  32.081  30.442  1.00  0.00     0.010 A 
ATOM     39  C   UNL A   1      36.779  33.583  29.281  1.00  0.00     0.010 A 
ATOM     40  C   UNL A   1      36.585  32.505  30.159  1.00  0.00    -0.014 A 
BRANCH  40  41
ATOM     41  C   UNL A   1      37.751  31.845  30.803  1.00  0.00     0.031 A 
ATOM     42  C   UNL A   1      38.163  32.229  32.198  1.00  0.00     0.074 A 
ATOM     43  C   UNL A   1      38.455  30.919  30.127  1.00  0.00     0.049 A 
ATOM     44  N   UNL A   1      39.166  31.789  32.916  1.00  0.00    -0.248 NA
ATOM     45  C   UNL A   1      37.351  33.257  32.867  1.00  0.00     0.031 C 
ATOM     46  C   UNL A   1      38.175  30.479  28.760  1.00  0.00     0.029 A 
ATOM     47  N   UNL A   1      39.552  30.182  30.495  1.00  0.00    -0.354 N 
ATOM     48  C   UNL A   1      39.111  32.493  34.113  1.00  0.00     0.074 A 
ATOM     49  C   UNL A   1      38.006  33.421  34.006  1.00  0.00     0.031 C 
ATOM     50  C   UNL A   1      39.065  29.536  28.411  1.00  0.00     0.029 A 
ATOM     51  C   UNL A   1      39.995  29.325  29.518  1.00  0.00     0.049 A 
ATOM     52  H   UNL A   1      39.983  30.261  31.377  1.00  0.00     0.167 HD
ATOM     53  C   UNL A   1      39.897  32.361  35.208  1.00  0.00     0.037 A 
ATOM     54  C   UNL A   1      41.034  28.467  29.513  1.00  0.00     0.037 A 
ATOM     55  C   UNL A   1      40.978  31.419  35.325  1.00  0.00     0.049 A 
ATOM     56  C   UNL A   1      41.895  28.345  30.742  1.00  0.00     0.074 A 
ATOM     57  C   UNL A   1      41.800  31.177  36.414  1.00  0.00     0.029 A 
ATOM     58  N   UNL A   1      41.390  30.561  34.316  1.00  0.00    -0.354 N 
ATOM     59  N   UNL A   1      41.799  28.976  31.887  1.00  0.00    -0.248 NA
ATOM     60  C   UNL A   1      43.007  27.385  30.678  1.00  0.00     0.031 C 
ATOM     61  C   UNL A   1      42.734  30.201  36.049  1.00  0.00     0.029 A 
ATOM     62  C   UNL A   1      42.466  29.803  34.749  1.00  0.00     0.049 A 
ATOM     63  H   UNL A   1      40.980  30.501  33.423  1.00  0.00     0.167 HD
ATOM     64  C   UNL A   1      42.814  28.471  32.687  1.00  0.00     0.074 A 
ATOM     65  C   UNL A   1      43.509  27.473  31.902  1.00  0.00     0.031 C 
ATOM     66  C   UNL A   1      43.142  28.806  33.959  1.00  0.00     0.037 A 
BRANCH  53  67
ATOM     67  C   UNL A   1      39.613  33.260  36.377  1.00  0.00     0.064 A 
ATOM     68  C   UNL A   1      38.735  32.876  37.403  1.00  0.00     0.173 A 
ATOM     69  C   UNL A   1      40.255  34.502  36.493  1.00  0.00     0.173 A 
ATOM     70  F   UNL A   1      38.088  31.703  37.333  1.00  0.00    -0.203 F 
ATOM     71  C   UNL A   1      38.490  33.714  38.486  1.00  0.00     0.198 A 
ATOM     72  C   UNL A   1      40.028  35.325  37.593  1.00  0.00     0.198 A 
ATOM     73  F   UNL A   1      41.108  34.913  35.543  1.00  0.00    -0.203 F 
ATOM     74  F   UNL A   1      37.612  33.347  39.430  1.00  0.00    -0.200 F 
ATOM     75  C   UNL A   1      39.142  34.934  38.585  1.00  0.00     0.200 A 
ATOM     76  F   UNL A   1      40.668  36.498  37.692  1.00  0.00    -0.200 F 
ATOM     77  F   UNL A   1      38.909  35.738  39.631  1.00  0.00    -0.200 F 
ENDBRANCH  53  67
BRANCH  54  78
ATOM     78  C   UNL A   1      41.304  27.638  28.312  1.00  0.00     0.064 A 
ATOM     79  C   UNL A   1      42.161  28.094  27.301  1.00  0.00     0.173 A 
ATOM     80  C   UNL A   1      40.711  26.377  28.146  1.00  0.00     0.173 A 
ATOM     81  F   UNL A   1      42.734  29.301  27.404  1.00  0.00    -0.203 F 
ATOM     82  C   UNL A   1      42.400  27.329  26.160  1.00  0.00     0.198 A 
ATOM     83  C   UNL A   1      40.971  25.602  27.019  1.00  0.00     0.198 A 
ATOM     84  F   UNL A   1      39.887  25.894  29.089  1.00  0.00    -0.203 F 
ATOM     85  F   UNL A   1      43.190  27.806  25.190  1.00  0.00    -0.200 F 
ATOM     86  C   UNL A   1      41.809  26.082  26.024  1.00  0.00     0.200 A 
ATOM     87  F   UNL A   1      40.409  24.392  26.897  1.00  0.00    -0.200 F 
ATOM     88  F   UNL A   1      42.042  25.344  24.929  1.00  0.00    -0.200 F 
ENDBRANCH  54  78
BRANCH  66  89
ATOM     89  C   UNL A   1      44.281  28.063  34.595  1.00  0.00     0.064 A 
ATOM     90  C   UNL A   1      45.595  28.549  34.544  1.00  0.00     0.173 A 
ATOM     91  C   UNL A   1      44.046  26.871  35.298  1.00  0.00     0.173 A 
ATOM     92  F   UNL A   1      45.871  29.677  33.871  1.00  0.00    -0.203 F 
ATOM     93  C   UNL A   1      46.637  27.857  35.154  1.00  0.00     0.198 A 
ATOM     94  C   UNL A   1      45.087  26.196  35.930  1.00  0.00     0.198 A 
ATOM     95  F   UNL A   1      42.806  26.368  35.380  1.00  0.00    -0.203 F 
ATOM     96  F   UNL A   1      47.892  28.317  35.056  1.00  0.00    -0.200 F 
ATOM     97  C   UNL A   1      46.382  26.686  35.852  1.00  0.00     0.200 A 
ATOM     98  F   UNL A   1      44.836  25.071  36.613  1.00  0.00    -0.200 F 
ATOM     99  F   UNL A   1      47.386  26.025  36.444  1.00  0.00    -0.200 F 
ENDBRANCH  66  89
ENDBRANCH  40  41
ENDBRANCH  32  35
ENDBRANCH  30  31
ENDBRANCH  29  30
ENDBRANCH   1  29
TORSDOF 13
ENDMDL
MODEL 3
REMARK VINA RESULT:     -13.1      0.509      7.039
REMARK SMILES Cc1nc(NC(=O)[C@H]2[C@@H]3CC[C@@H](C3)[C@@H]2C(=O)NCCCNC(=O)c2ccc(-c3c4nc(c(-c5c(F)c(F)c(F)c(F)c5F)c5ccc([nH]5)c(-c5c(F)c(F)c(F)c(F)c5F)c5nc(c(-c6c(F)c(F)c(F)c(F)c6F)c6ccc3[nH]6)C=C5)C=C4)cc2)sc1-c1ccccc1
REMARK SMILES IDX 18 1 17 2 15 3 16 4 14 6 8 7 9 8 10 9 13 10 12 11 11 12 6 13
REMARK SMILES IDX 5 14 7 16 4 17 1 18 2 19 3 20 88 21 87 22 89 23 90 24 94 25
REMARK SMILES IDX 91 26 93 27 92 28 19 29 20 30 21 31 22 32 23 34 24 35 25 36
REMARK SMILES IDX 86 37 26 38 85 39 27 40 28 41 29 42 79 43 30 44 84 45 78 46
REMARK SMILES IDX 80 47 31 48 83 49 77 50 76 51 32 53 64 54 44 55 63 56 45 57
REMARK SMILES IDX 48 58 62 59 81 60 46 61 47 62 61 64 82 65 49 66 33 67 34 68
REMARK SMILES IDX 42 69 35 70 36 71 40 72 43 73 37 74 38 75 41 76 39 77 65 78
REMARK SMILES IDX 66 79 74 80 67 81 68 82 72 83 75 84 69 85 70 86 73 87 71 88
REMARK SMILES IDX 50 89 51 90 59 91 52 92 53 93 57 94 60 95 54 96 55 97 58 98
REMARK SMILES IDX 56 99
REMARK H PARENT 17 5 5 15 21 33 80 52 48 63
REMARK Flexibility Score: inf
ROOT
ATOM      1  C   UNL A   1      31.330  30.609  25.372  1.00  0.00     0.117 C 
ENDROOT
BRANCH   1   2
ATOM      2  N   UNL A   1      32.221  29.489  25.600  1.00  0.00    -0.356 N 
ATOM      3  C   UNL A   1      32.096  28.140  25.473  1.00  0.00     0.224 C 
ATOM      4  O   UNL A   1      33.159  27.518  25.565  1.00  0.00    -0.275 OA
ATOM      5  H   UNL A   1      33.112  29.763  25.918  1.00  0.00     0.163 HD
BRANCH   3   6
ATOM      6  C   UNL A   1      30.745  27.425  25.266  1.00  0.00     0.094 C 
ATOM      7  C   UNL A   1      30.934  25.863  25.328  1.00  0.00     0.094 C 
ATOM      8  C   UNL A   1      30.495  25.460  23.879  1.00  0.00     0.002 C 
ATOM      9  C   UNL A   1      31.477  26.014  22.827  1.00  0.00     0.005 C 
ATOM     10  C   UNL A   1      29.276  26.358  23.689  1.00  0.00     0.009 C 
ATOM     11  C   UNL A   1      30.084  27.638  23.880  1.00  0.00     0.002 C 
ATOM     12  C   UNL A   1      31.116  27.499  22.755  1.00  0.00     0.005 C 
BRANCH   7  13
ATOM     13  C   UNL A   1      30.103  24.998  26.310  1.00  0.00     0.230 C 
ATOM     14  N   UNL A   1      30.320  23.705  26.635  1.00  0.00    -0.302 N 
ATOM     15  H   UNL A   1      29.746  23.346  27.350  1.00  0.00     0.172 HD
ATOM     16  O   UNL A   1      29.116  25.497  26.876  1.00  0.00    -0.274 OA
BRANCH  14  17
ATOM     17  C   UNL A   1      31.214  22.835  26.115  1.00  0.00     0.190 A 
ATOM     18  C   UNL A   1      32.155  20.198  23.918  1.00  0.00     0.068 C 
ATOM     19  C   UNL A   1      32.188  21.305  24.898  1.00  0.00     0.058 A 
ATOM     20  N   UNL A   1      30.990  21.787  25.376  1.00  0.00    -0.225 NA
ATOM     21  C   UNL A   1      33.307  22.024  25.285  1.00  0.00     0.059 A 
ATOM     22  S   UNL A   1      32.853  23.226  26.412  1.00  0.00    -0.096 S 
BRANCH  21  23
ATOM     23  C   UNL A   1      34.659  21.876  24.771  1.00  0.00    -0.006 A 
ATOM     24  C   UNL A   1      35.187  22.821  23.887  1.00  0.00     0.009 A 
ATOM     25  C   UNL A   1      35.509  20.927  25.358  1.00  0.00     0.009 A 
ATOM     26  C   UNL A   1      36.558  22.843  23.626  1.00  0.00     0.001 A 
ATOM     27  C   UNL A   1      36.879  20.951  25.096  1.00  0.00     0.001 A 
ATOM     28  C   UNL A   1      37.403  21.919  24.243  1.00  0.00     0.000 A 
ENDBRANCH  21  23
ENDBRANCH  14  17
ENDBRANCH   7  13
ENDBRANCH   3   6
ENDBRANCH   1   2
BRANCH   1  29
ATOM     29  C   UNL A   1      31.257  31.583  26.539  1.00  0.00     0.042 C 
BRANCH  29  30
ATOM     30  C   UNL A   1      32.577  32.276  26.874  1.00  0.00     0.118 C 
BRANCH  30  31
ATOM     31  N   UNL A   1      32.412  33.632  27.361  1.00  0.00    -0.352 N 
ATOM     32  C   UNL A   1      33.104  34.313  28.331  1.00  0.00     0.251 C 
ATOM     33  H   UNL A   1      31.693  34.146  26.927  1.00  0.00     0.163 HD
ATOM     34  O   UNL A   1      32.727  35.429  28.675  1.00  0.00    -0.269 OA
BRANCH  32  35
ATOM     35  C   UNL A   1      34.284  33.711  28.993  1.00  0.00     0.039 A 
ATOM     36  C   UNL A   1      34.071  32.665  29.896  1.00  0.00     0.014 A 
ATOM     37  C   UNL A   1      35.579  34.197  28.785  1.00  0.00     0.014 A 
ATOM     38  C   UNL A   1      35.152  32.082  30.559  1.00  0.00     0.010 A 
ATOM     39  C   UNL A   1      36.666  33.575  29.402  1.00  0.00     0.010 A 
ATOM     40  C   UNL A   1      36.462  32.520  30.304  1.00  0.00    -0.014 A 
BRANCH  40  41
ATOM     41  C   UNL A   1      37.617  31.899  31.003  1.00  0.00     0.031 A 
ATOM     42  C   UNL A   1      38.453  30.860  30.309  1.00  0.00     0.074 A 
ATOM     43  C   UNL A   1      37.902  32.251  32.271  1.00  0.00     0.049 A 
ATOM     44  N   UNL A   1      39.481  30.184  30.761  1.00  0.00    -0.248 NA
ATOM     45  C   UNL A   1      38.073  30.520  28.929  1.00  0.00     0.031 C 
ATOM     46  C   UNL A   1      37.151  33.225  33.065  1.00  0.00     0.029 A 
ATOM     47  N   UNL A   1      38.896  31.828  33.118  1.00  0.00    -0.354 N 
ATOM     48  C   UNL A   1      39.860  29.336  29.728  1.00  0.00     0.074 A 
ATOM     49  C   UNL A   1      38.925  29.547  28.644  1.00  0.00     0.031 C 
ATOM     50  C   UNL A   1      37.723  33.339  34.274  1.00  0.00     0.029 A 
ATOM     51  C   UNL A   1      38.861  32.426  34.352  1.00  0.00     0.049 A 
ATOM     52  H   UNL A   1      39.570  31.157  32.863  1.00  0.00     0.167 HD
ATOM     53  C   UNL A   1      40.905  28.476  29.681  1.00  0.00     0.037 A 
ATOM     54  C   UNL A   1      39.655  32.257  35.428  1.00  0.00     0.037 A 
ATOM     55  C   UNL A   1      41.852  28.286  30.748  1.00  0.00     0.049 A 
ATOM     56  C   UNL A   1      40.805  31.290  35.350  1.00  0.00     0.074 A 
ATOM     57  C   UNL A   1      42.973  27.473  30.775  1.00  0.00     0.029 A 
ATOM     58  N   UNL A   1      41.788  28.918  31.982  1.00  0.00    -0.354 N 
ATOM     59  N   UNL A   1      41.187  30.535  34.349  1.00  0.00    -0.248 NA
ATOM     60  C   UNL A   1      41.641  31.157  36.553  1.00  0.00     0.031 C 
ATOM     61  C   UNL A   1      43.564  27.584  32.038  1.00  0.00     0.029 A 
ATOM     62  C   UNL A   1      42.837  28.499  32.783  1.00  0.00     0.049 A 
ATOM     63  H   UNL A   1      41.097  29.567  32.248  1.00  0.00     0.167 HD
ATOM     64  C   UNL A   1      42.319  29.862  34.787  1.00  0.00     0.074 A 
ATOM     65  C   UNL A   1      42.571  30.306  36.142  1.00  0.00     0.031 C 
ATOM     66  C   UNL A   1      43.081  28.957  34.127  1.00  0.00     0.037 A 
BRANCH  53  67
ATOM     67  C   UNL A   1      41.085  27.672  28.426  1.00  0.00     0.064 A 
ATOM     68  C   UNL A   1      41.914  28.113  27.383  1.00  0.00     0.173 A 
ATOM     69  C   UNL A   1      40.452  26.429  28.279  1.00  0.00     0.173 A 
ATOM     70  F   UNL A   1      42.533  29.301  27.470  1.00  0.00    -0.203 F 
ATOM     71  C   UNL A   1      42.081  27.352  26.229  1.00  0.00     0.198 A 
ATOM     72  C   UNL A   1      40.643  25.658  27.136  1.00  0.00     0.198 A 
ATOM     73  F   UNL A   1      39.653  25.958  29.249  1.00  0.00    -0.203 F 
ATOM     74  F   UNL A   1      42.841  27.816  25.227  1.00  0.00    -0.200 F 
ATOM     75  C   UNL A   1      41.452  26.123  26.110  1.00  0.00     0.200 A 
ATOM     76  F   UNL A   1      40.044  24.464  27.027  1.00  0.00    -0.200 F 
ATOM     77  F   UNL A   1      41.617  25.388  25.001  1.00  0.00    -0.200 F 
ENDBRANCH  53  67
BRANCH  54  78
ATOM     78  C   UNL A   1      39.403  33.039  36.665  1.00  0.00     0.064 A 
ATOM     79  C   UNL A   1      38.469  32.602  37.615  1.00  0.00     0.173 A 
ATOM     80  C   UNL A   1      40.084  34.238  36.922  1.00  0.00     0.173 A 
ATOM     81  F   UNL A   1      37.778  31.473  37.402  1.00  0.00    -0.203 F 
ATOM     82  C   UNL A   1      38.213  33.344  38.766  1.00  0.00     0.198 A 
ATOM     83  C   UNL A   1      39.846  34.965  38.086  1.00  0.00     0.198 A 
ATOM     84  F   UNL A   1      40.991  34.695  36.046  1.00  0.00    -0.203 F 
ATOM     85  F   UNL A   1      37.285  32.925  39.637  1.00  0.00    -0.200 F 
ATOM     86  C   UNL A   1      38.906  34.522  39.003  1.00  0.00     0.200 A 
ATOM     87  F   UNL A   1      40.528  36.095  38.317  1.00  0.00    -0.200 F 
ATOM     88  F   UNL A   1      38.662  35.233  40.112  1.00  0.00    -0.200 F 
ENDBRANCH  54  78
BRANCH  66  89
ATOM     89  C   UNL A   1      44.279  28.410  34.846  1.00  0.00     0.064 A 
ATOM     90  C   UNL A   1      44.212  27.224  35.591  1.00  0.00     0.173 A 
ATOM     91  C   UNL A   1      45.520  29.060  34.754  1.00  0.00     0.173 A 
ATOM     92  F   UNL A   1      43.044  26.574  35.720  1.00  0.00    -0.203 F 
ATOM     93  C   UNL A   1      45.337  26.720  36.238  1.00  0.00     0.198 A 
ATOM     94  C   UNL A   1      46.649  28.539  35.380  1.00  0.00     0.198 A 
ATOM     95  F   UNL A   1      45.638  30.195  34.049  1.00  0.00    -0.203 F 
ATOM     96  F   UNL A   1      45.240  25.609  36.980  1.00  0.00    -0.200 F 
ATOM     97  C   UNL A   1      46.556  27.374  36.125  1.00  0.00     0.200 A 
ATOM     98  F   UNL A   1      47.827  29.166  35.261  1.00  0.00    -0.200 F 
ATOM     99  F   UNL A   1      47.638  26.884  36.744  1.00  0.00    -0.200 F 
ENDBRANCH  66  89
ENDBRANCH  40  41
ENDBRANCH  32  35
ENDBRANCH  30  31
ENDBRANCH  29  30
ENDBRANCH   1  29
TORSDOF 13
ENDMDL
