MODEL 1
REMARK VINA RESULT:     -12.6      0.000      0.000
REMARK SMILES O=C(CC1(NC(=O)c2ccccc2[N+](=O)[O-])CCC1)NCCCNC(=O)c1ccc(-c2c3nc(c(-c4c(F)c(F)c(F)c(F)c4F)c4ccc([nH]4)c(-c4c(F)c(F)c(F)c(F)c4F)c4nc(c(-c5c(F)c(F)c(F)c(F)c5F)c5ccc2[nH]5)C=C4)C=C3)cc1
REMARK SMILES IDX 21 1 20 2 1 3 2 4 3 6 4 7 17 8 19 9 18 10 5 11 6 12 7 14
REMARK SMILES IDX 8 15 9 16 13 17 10 18 12 19 11 20 14 21 15 22 16 23 22 24
REMARK SMILES IDX 23 25 24 26 25 27 26 29 27 30 28 31 89 32 29 33 88 34 30 35
REMARK SMILES IDX 31 36 32 37 82 38 33 39 87 40 81 41 83 42 34 43 86 44 80 45
REMARK SMILES IDX 79 46 35 48 67 49 47 50 66 51 48 52 51 53 65 54 84 55 49 56
REMARK SMILES IDX 50 57 64 59 85 60 52 61 36 62 37 63 45 64 38 65 39 66 43 67
REMARK SMILES IDX 46 68 40 69 41 70 44 71 42 72 68 73 69 74 77 75 70 76 71 77
REMARK SMILES IDX 75 78 78 79 72 80 73 81 76 82 74 83 53 84 54 85 62 86 55 87
REMARK SMILES IDX 56 88 60 89 63 90 57 91 58 92 61 93 59 94
REMARK H PARENT 20 5 5 13 24 28 83 47 51 58
REMARK Flexibility Score: inf
ROOT
ATOM      1  C   UNL A   1      31.636  30.617  26.699  1.00  0.00     0.117 C 
ENDROOT
BRANCH   1   2
ATOM      2  N   UNL A   1      31.762  30.183  25.322  1.00  0.00    -0.356 N 
ATOM      3  O   UNL A   1      33.633  28.926  25.700  1.00  0.00    -0.275 OA
ATOM      4  C   UNL A   1      32.764  29.334  24.934  1.00  0.00     0.222 C 
ATOM      5  H   UNL A   1      31.115  30.505  24.652  1.00  0.00     0.163 HD
BRANCH   4   6
ATOM      6  C   UNL A   1      32.813  29.000  23.466  1.00  0.00     0.128 C 
BRANCH   6   7
ATOM      7  C   UNL A   1      31.849  27.952  22.907  1.00  0.00     0.049 C 
ATOM      8  C   UNL A   1      30.926  27.306  23.994  1.00  0.00     0.029 C 
ATOM      9  C   UNL A   1      30.549  28.587  22.306  1.00  0.00     0.029 C 
ATOM     10  C   UNL A   1      29.701  27.604  23.119  1.00  0.00     0.005 C 
BRANCH   7  11
ATOM     11  N   UNL A   1      32.395  26.900  21.987  1.00  0.00    -0.346 N 
ATOM     12  C   UNL A   1      32.871  25.615  22.112  1.00  0.00     0.258 C 
ATOM     13  H   UNL A   1      32.420  27.209  21.053  1.00  0.00     0.164 HD
ATOM     14  O   UNL A   1      33.184  24.986  21.103  1.00  0.00    -0.269 OA
BRANCH  12  15
ATOM     15  C   UNL A   1      33.178  25.019  23.414  1.00  0.00     0.117 A 
ATOM     16  C   UNL A   1      34.222  25.626  24.128  1.00  0.00     0.021 A 
ATOM     17  C   UNL A   1      32.473  23.964  23.992  1.00  0.00     0.282 A 
ATOM     18  C   UNL A   1      34.474  25.257  25.448  1.00  0.00     0.001 A 
ATOM     19  C   UNL A   1      32.706  23.604  25.329  1.00  0.00     0.086 A 
ATOM     20  C   UNL A   1      33.697  24.270  26.056  1.00  0.00     0.007 A 
BRANCH  17  21
ATOM     21  N   UNL A   1      31.421  23.285  23.262  1.00  0.00     0.063 N 
ATOM     22  O   UNL A   1      30.316  23.842  23.224  1.00  0.00    -0.258 OA
ATOM     23  O   UNL A   1      31.696  22.205  22.730  1.00  0.00    -0.258 OA
ENDBRANCH  17  21
ENDBRANCH  12  15
ENDBRANCH   7  11
ENDBRANCH   6   7
ENDBRANCH   4   6
ENDBRANCH   1   2
BRANCH   1  24
ATOM     24  C   UNL A   1      31.453  32.125  26.807  1.00  0.00     0.042 C 
BRANCH  24  25
ATOM     25  C   UNL A   1      32.709  32.862  27.257  1.00  0.00     0.118 C 
BRANCH  25  26
ATOM     26  N   UNL A   1      32.446  34.242  27.641  1.00  0.00    -0.352 N 
ATOM     27  C   UNL A   1      33.000  35.017  28.629  1.00  0.00     0.251 C 
ATOM     28  H   UNL A   1      31.757  34.694  27.102  1.00  0.00     0.163 HD
ATOM     29  O   UNL A   1      32.488  36.093  28.917  1.00  0.00    -0.269 OA
BRANCH  27  30
ATOM     30  C   UNL A   1      34.192  34.550  29.368  1.00  0.00     0.039 A 
ATOM     31  C   UNL A   1      34.018  33.975  30.630  1.00  0.00     0.014 A 
ATOM     32  C   UNL A   1      35.475  34.689  28.834  1.00  0.00     0.014 A 
ATOM     33  C   UNL A   1      35.120  33.461  31.315  1.00  0.00     0.010 A 
ATOM     34  C   UNL A   1      36.561  34.104  29.480  1.00  0.00     0.010 A 
ATOM     35  C   UNL A   1      36.393  33.474  30.721  1.00  0.00    -0.014 A 
BRANCH  35  36
ATOM     36  C   UNL A   1      37.552  32.805  31.367  1.00  0.00     0.031 A 
ATOM     37  C   UNL A   1      38.218  31.630  30.709  1.00  0.00     0.074 A 
ATOM     38  C   UNL A   1      37.951  33.209  32.590  1.00  0.00     0.049 A 
ATOM     39  N   UNL A   1      39.176  30.861  31.162  1.00  0.00    -0.248 NA
ATOM     40  C   UNL A   1      37.726  31.253  29.374  1.00  0.00     0.031 C 
ATOM     41  C   UNL A   1      37.359  34.310  33.350  1.00  0.00     0.029 A 
ATOM     42  N   UNL A   1      38.939  32.730  33.414  1.00  0.00    -0.354 N 
ATOM     43  C   UNL A   1      39.394  29.908  30.176  1.00  0.00     0.074 A 
ATOM     44  C   UNL A   1      38.433  30.161  29.125  1.00  0.00     0.031 C 
ATOM     45  C   UNL A   1      38.006  34.435  34.519  1.00  0.00     0.029 A 
ATOM     46  C   UNL A   1      39.024  33.395  34.614  1.00  0.00     0.049 A 
ATOM     47  H   UNL A   1      39.530  31.982  33.169  1.00  0.00     0.167 HD
ATOM     48  C   UNL A   1      40.324  28.924  30.144  1.00  0.00     0.037 A 
ATOM     49  C   UNL A   1      39.819  33.177  35.677  1.00  0.00     0.037 A 
ATOM     50  C   UNL A   1      41.287  28.683  31.188  1.00  0.00     0.049 A 
ATOM     51  C   UNL A   1      40.820  32.054  35.629  1.00  0.00     0.074 A 
ATOM     52  C   UNL A   1      42.308  27.748  31.221  1.00  0.00     0.029 A 
ATOM     53  N   UNL A   1      41.343  29.377  32.389  1.00  0.00    -0.354 N 
ATOM     54  N   UNL A   1      41.063  31.203  34.663  1.00  0.00    -0.248 NA
ATOM     55  C   UNL A   1      41.657  31.863  36.822  1.00  0.00     0.031 C 
ATOM     56  C   UNL A   1      42.942  27.836  32.465  1.00  0.00     0.029 A 
ATOM     57  C   UNL A   1      42.358  28.867  33.183  1.00  0.00     0.049 A 
ATOM     58  H   UNL A   1      40.749  30.121  32.638  1.00  0.00     0.167 HD
ATOM     59  C   UNL A   1      42.097  30.394  35.119  1.00  0.00     0.074 A 
ATOM     60  C   UNL A   1      42.447  30.870  36.441  1.00  0.00     0.031 C 
ATOM     61  C   UNL A   1      42.698  29.349  34.498  1.00  0.00     0.037 A 
BRANCH  48  62
ATOM     62  C   UNL A   1      40.346  28.025  28.940  1.00  0.00     0.064 A 
ATOM     63  C   UNL A   1      41.096  28.340  27.797  1.00  0.00     0.173 A 
ATOM     64  C   UNL A   1      39.641  26.811  28.946  1.00  0.00     0.173 A 
ATOM     65  F   UNL A   1      41.781  29.492  27.735  1.00  0.00    -0.203 F 
ATOM     66  C   UNL A   1      41.115  27.489  26.695  1.00  0.00     0.198 A 
ATOM     67  C   UNL A   1      39.689  25.947  27.855  1.00  0.00     0.198 A 
ATOM     68  F   UNL A   1      38.913  26.456  30.016  1.00  0.00    -0.203 F 
ATOM     69  F   UNL A   1      41.798  27.836  25.595  1.00  0.00    -0.200 F 
ATOM     70  C   UNL A   1      40.419  26.291  26.727  1.00  0.00     0.200 A 
ATOM     71  F   UNL A   1      39.028  24.781  27.895  1.00  0.00    -0.200 F 
ATOM     72  F   UNL A   1      40.446  25.468  25.669  1.00  0.00    -0.200 F 
ENDBRANCH  48  62
BRANCH  49  73
ATOM     73  C   UNL A   1      39.708  34.046  36.880  1.00  0.00     0.064 A 
ATOM     74  C   UNL A   1      38.917  33.665  37.973  1.00  0.00     0.173 A 
ATOM     75  C   UNL A   1      40.377  35.276  36.958  1.00  0.00     0.173 A 
ATOM     76  F   UNL A   1      38.239  32.509  37.938  1.00  0.00    -0.203 F 
ATOM     77  C   UNL A   1      38.781  34.492  39.086  1.00  0.00     0.198 A 
ATOM     78  C   UNL A   1      40.267  36.086  38.085  1.00  0.00     0.198 A 
ATOM     79  F   UNL A   1      41.152  35.686  35.942  1.00  0.00    -0.203 F 
ATOM     80  F   UNL A   1      37.977  34.127  40.094  1.00  0.00    -0.200 F 
ATOM     81  C   UNL A   1      39.462  35.699  39.145  1.00  0.00     0.200 A 
ATOM     82  F   UNL A   1      40.940  37.244  38.144  1.00  0.00    -0.200 F 
ATOM     83  F   UNL A   1      39.333  36.491  40.217  1.00  0.00    -0.200 F 
ENDBRANCH  49  73
BRANCH  61  84
ATOM     84  C   UNL A   1      43.817  28.664  35.230  1.00  0.00     0.064 A 
ATOM     85  C   UNL A   1      45.156  29.044  35.051  1.00  0.00     0.173 A 
ATOM     86  C   UNL A   1      43.543  27.640  36.148  1.00  0.00     0.173 A 
ATOM     87  F   UNL A   1      45.473  30.006  34.171  1.00  0.00    -0.203 F 
ATOM     88  C   UNL A   1      46.180  28.405  35.745  1.00  0.00     0.198 A 
ATOM     89  C   UNL A   1      44.566  27.027  36.866  1.00  0.00     0.198 A 
ATOM     90  F   UNL A   1      42.279  27.242  36.362  1.00  0.00    -0.203 F 
ATOM     91  F   UNL A   1      47.455  28.749  35.519  1.00  0.00    -0.200 F 
ATOM     92  C   UNL A   1      45.884  27.404  36.659  1.00  0.00     0.200 A 
ATOM     93  F   UNL A   1      44.276  26.071  37.760  1.00  0.00    -0.200 F 
ATOM     94  F   UNL A   1      46.871  26.798  37.333  1.00  0.00    -0.200 F 
ENDBRANCH  61  84
ENDBRANCH  35  36
ENDBRANCH  27  30
ENDBRANCH  25  26
ENDBRANCH  24  25
ENDBRANCH   1  24
TORSDOF 14
ENDMDL
MODEL 2
REMARK VINA RESULT:     -12.6      0.115      1.981
REMARK SMILES O=C(CC1(NC(=O)c2ccccc2[N+](=O)[O-])CCC1)NCCCNC(=O)c1ccc(-c2c3nc(c(-c4c(F)c(F)c(F)c(F)c4F)c4ccc([nH]4)c(-c4c(F)c(F)c(F)c(F)c4F)c4nc(c(-c5c(F)c(F)c(F)c(F)c5F)c5ccc2[nH]5)C=C4)C=C3)cc1
REMARK SMILES IDX 21 1 20 2 1 3 2 4 3 6 4 7 17 8 19 9 18 10 5 11 6 12 7 14
REMARK SMILES IDX 8 15 9 16 13 17 10 18 12 19 11 20 14 21 15 22 16 23 22 24
REMARK SMILES IDX 23 25 24 26 25 27 26 29 27 30 28 31 89 32 29 33 88 34 30 35
REMARK SMILES IDX 31 36 32 37 82 38 33 39 87 40 81 41 83 42 34 43 86 44 80 45
REMARK SMILES IDX 79 46 35 48 67 49 47 50 66 51 48 52 51 53 65 54 84 55 49 56
REMARK SMILES IDX 50 57 64 59 85 60 52 61 36 62 37 63 45 64 38 65 39 66 43 67
REMARK SMILES IDX 46 68 40 69 41 70 44 71 42 72 68 73 69 74 77 75 70 76 71 77
REMARK SMILES IDX 75 78 78 79 72 80 73 81 76 82 74 83 53 84 54 85 62 86 55 87
REMARK SMILES IDX 56 88 60 89 63 90 57 91 58 92 61 93 59 94
REMARK H PARENT 20 5 5 13 24 28 83 47 51 58
REMARK Flexibility Score: inf
ROOT
ATOM      1  C   UNL A   1      31.726  30.612  26.708  1.00  0.00     0.117 C 
ENDROOT
BRANCH   1   2
ATOM      2  N   UNL A   1      31.825  30.197  25.323  1.00  0.00    -0.356 N 
ATOM      3  O   UNL A   1      33.628  28.837  25.670  1.00  0.00    -0.275 OA
ATOM      4  C   UNL A   1      32.780  29.303  24.915  1.00  0.00     0.222 C 
ATOM      5  H   UNL A   1      31.194  30.565  24.662  1.00  0.00     0.163 HD
BRANCH   4   6
ATOM      6  C   UNL A   1      32.806  28.994  23.441  1.00  0.00     0.128 C 
BRANCH   6   7
ATOM      7  C   UNL A   1      31.842  27.948  22.881  1.00  0.00     0.049 C 
ATOM      8  C   UNL A   1      30.913  27.306  23.966  1.00  0.00     0.029 C 
ATOM      9  C   UNL A   1      30.546  28.585  22.275  1.00  0.00     0.029 C 
ATOM     10  C   UNL A   1      29.692  27.606  23.086  1.00  0.00     0.005 C 
BRANCH   7  11
ATOM     11  N   UNL A   1      32.388  26.893  21.965  1.00  0.00    -0.346 N 
ATOM     12  C   UNL A   1      32.867  25.610  22.095  1.00  0.00     0.258 C 
ATOM     13  H   UNL A   1      32.411  27.198  21.029  1.00  0.00     0.164 HD
ATOM     14  O   UNL A   1      33.180  24.977  21.089  1.00  0.00    -0.269 OA
BRANCH  12  15
ATOM     15  C   UNL A   1      33.178  25.021  23.399  1.00  0.00     0.117 A 
ATOM     16  C   UNL A   1      34.218  25.637  24.111  1.00  0.00     0.021 A 
ATOM     17  C   UNL A   1      32.480  23.964  23.982  1.00  0.00     0.282 A 
ATOM     18  C   UNL A   1      34.473  25.274  25.433  1.00  0.00     0.001 A 
ATOM     19  C   UNL A   1      32.715  23.610  25.319  1.00  0.00     0.086 A 
ATOM     20  C   UNL A   1      33.702  24.285  26.045  1.00  0.00     0.007 A 
BRANCH  17  21
ATOM     21  N   UNL A   1      31.432  23.275  23.254  1.00  0.00     0.063 N 
ATOM     22  O   UNL A   1      31.733  22.199  22.721  1.00  0.00    -0.258 OA
ATOM     23  O   UNL A   1      30.316  23.805  23.217  1.00  0.00    -0.258 OA
ENDBRANCH  17  21
ENDBRANCH  12  15
ENDBRANCH   7  11
ENDBRANCH   6   7
ENDBRANCH   4   6
ENDBRANCH   1   2
BRANCH   1  24
ATOM     24  C   UNL A   1      31.510  32.112  26.840  1.00  0.00     0.042 C 
BRANCH  24  25
ATOM     25  C   UNL A   1      32.768  32.878  27.235  1.00  0.00     0.118 C 
BRANCH  25  26
ATOM     26  N   UNL A   1      32.490  34.254  27.624  1.00  0.00    -0.352 N 
ATOM     27  C   UNL A   1      33.026  35.026  28.625  1.00  0.00     0.251 C 
ATOM     28  H   UNL A   1      31.808  34.706  27.078  1.00  0.00     0.163 HD
ATOM     29  O   UNL A   1      32.504  36.098  28.913  1.00  0.00    -0.269 OA
BRANCH  27  30
ATOM     30  C   UNL A   1      34.210  34.561  29.379  1.00  0.00     0.039 A 
ATOM     31  C   UNL A   1      34.027  34.035  30.661  1.00  0.00     0.014 A 
ATOM     32  C   UNL A   1      35.494  34.654  28.839  1.00  0.00     0.014 A 
ATOM     33  C   UNL A   1      35.119  33.522  31.362  1.00  0.00     0.010 A 
ATOM     34  C   UNL A   1      36.569  34.070  29.503  1.00  0.00     0.010 A 
ATOM     35  C   UNL A   1      36.391  33.488  30.767  1.00  0.00    -0.014 A 
BRANCH  35  36
ATOM     36  C   UNL A   1      37.537  32.818  31.433  1.00  0.00     0.031 A 
ATOM     37  C   UNL A   1      38.209  31.638  30.792  1.00  0.00     0.074 A 
ATOM     38  C   UNL A   1      37.919  33.227  32.660  1.00  0.00     0.049 A 
ATOM     39  N   UNL A   1      39.157  30.867  31.264  1.00  0.00    -0.248 NA
ATOM     40  C   UNL A   1      37.736  31.255  29.452  1.00  0.00     0.031 C 
ATOM     41  C   UNL A   1      37.319  34.335  33.406  1.00  0.00     0.029 A 
ATOM     42  N   UNL A   1      38.891  32.749  33.503  1.00  0.00    -0.354 N 
ATOM     43  C   UNL A   1      39.387  29.908  30.287  1.00  0.00     0.074 A 
ATOM     44  C   UNL A   1      38.443  30.159  29.220  1.00  0.00     0.031 C 
ATOM     45  C   UNL A   1      37.948  34.464  34.584  1.00  0.00     0.029 A 
ATOM     46  C   UNL A   1      38.960  33.420  34.700  1.00  0.00     0.049 A 
ATOM     47  H   UNL A   1      39.484  31.998  33.271  1.00  0.00     0.167 HD
ATOM     48  C   UNL A   1      40.314  28.920  30.275  1.00  0.00     0.037 A 
ATOM     49  C   UNL A   1      39.738  33.206  35.777  1.00  0.00     0.037 A 
ATOM     50  C   UNL A   1      41.260  28.682  31.335  1.00  0.00     0.049 A 
ATOM     51  C   UNL A   1      40.735  32.079  35.751  1.00  0.00     0.074 A 
ATOM     52  C   UNL A   1      42.276  27.744  31.389  1.00  0.00     0.029 A 
ATOM     53  N   UNL A   1      41.299  29.382  32.533  1.00  0.00    -0.354 N 
ATOM     54  N   UNL A   1      40.991  31.221  34.793  1.00  0.00    -0.248 NA
ATOM     55  C   UNL A   1      41.553  31.891  36.958  1.00  0.00     0.031 C 
ATOM     56  C   UNL A   1      42.891  27.836  32.642  1.00  0.00     0.029 A 
ATOM     57  C   UNL A   1      42.300  28.873  33.345  1.00  0.00     0.049 A 
ATOM     58  H   UNL A   1      40.704  30.130  32.769  1.00  0.00     0.167 HD
ATOM     59  C   UNL A   1      42.014  30.411  35.269  1.00  0.00     0.074 A 
ATOM     60  C   UNL A   1      42.345  30.893  36.594  1.00  0.00     0.031 C 
ATOM     61  C   UNL A   1      42.621  29.361  34.663  1.00  0.00     0.037 A 
BRANCH  48  62
ATOM     62  C   UNL A   1      40.351  28.015  29.077  1.00  0.00     0.064 A 
ATOM     63  C   UNL A   1      39.604  26.828  29.025  1.00  0.00     0.173 A 
ATOM     64  C   UNL A   1      41.110  28.360  27.947  1.00  0.00     0.173 A 
ATOM     65  F   UNL A   1      38.869  26.447  30.081  1.00  0.00    -0.203 F 
ATOM     66  C   UNL A   1      39.639  26.007  27.901  1.00  0.00     0.198 A 
ATOM     67  C   UNL A   1      41.117  27.552  26.813  1.00  0.00     0.198 A 
ATOM     68  F   UNL A   1      41.837  29.487  27.939  1.00  0.00    -0.203 F 
ATOM     69  F   UNL A   1      38.957  24.852  27.895  1.00  0.00    -0.200 F 
ATOM     70  C   UNL A   1      40.389  26.373  26.794  1.00  0.00     0.200 A 
ATOM     71  F   UNL A   1      41.829  27.917  25.737  1.00  0.00    -0.200 F 
ATOM     72  F   UNL A   1      40.414  25.585  25.709  1.00  0.00    -0.200 F 
ENDBRANCH  48  62
BRANCH  49  73
ATOM     73  C   UNL A   1      39.611  34.081  36.973  1.00  0.00     0.064 A 
ATOM     74  C   UNL A   1      40.289  35.305  37.046  1.00  0.00     0.173 A 
ATOM     75  C   UNL A   1      38.820  33.708  38.070  1.00  0.00     0.173 A 
ATOM     76  F   UNL A   1      41.075  35.696  36.032  1.00  0.00    -0.203 F 
ATOM     77  C   UNL A   1      40.201  36.111  38.179  1.00  0.00     0.198 A 
ATOM     78  C   UNL A   1      38.706  34.531  39.189  1.00  0.00     0.198 A 
ATOM     79  F   UNL A   1      38.145  32.549  38.051  1.00  0.00    -0.203 F 
ATOM     80  F   UNL A   1      40.902  37.252  38.242  1.00  0.00    -0.200 F 
ATOM     81  C   UNL A   1      39.404  35.727  39.247  1.00  0.00     0.200 A 
ATOM     82  F   UNL A   1      37.922  34.162  40.211  1.00  0.00    -0.200 F 
ATOM     83  F   UNL A   1      39.317  36.504  40.335  1.00  0.00    -0.200 F 
ENDBRANCH  49  73
BRANCH  61  84
ATOM     84  C   UNL A   1      43.726  28.676  35.416  1.00  0.00     0.064 A 
ATOM     85  C   UNL A   1      43.467  27.631  36.316  1.00  0.00     0.173 A 
ATOM     86  C   UNL A   1      45.064  29.045  35.206  1.00  0.00     0.173 A 
ATOM     87  F   UNL A   1      42.205  27.252  36.565  1.00  0.00    -0.203 F 
ATOM     88  C   UNL A   1      44.505  27.000  36.997  1.00  0.00     0.198 A 
ATOM     89  C   UNL A   1      46.100  28.388  35.863  1.00  0.00     0.198 A 
ATOM     90  F   UNL A   1      45.367  30.033  34.351  1.00  0.00    -0.203 F 
ATOM     91  F   UNL A   1      44.230  26.040  37.891  1.00  0.00    -0.200 F 
ATOM     92  C   UNL A   1      45.821  27.372  36.763  1.00  0.00     0.200 A 
ATOM     93  F   UNL A   1      47.372  28.739  35.624  1.00  0.00    -0.200 F 
ATOM     94  F   UNL A   1      46.817  26.756  37.413  1.00  0.00    -0.200 F 
ENDBRANCH  61  84
ENDBRANCH  35  36
ENDBRANCH  27  30
ENDBRANCH  25  26
ENDBRANCH  24  25
ENDBRANCH   1  24
TORSDOF 14
ENDMDL
MODEL 3
REMARK VINA RESULT:     -12.4      0.446      7.328
REMARK SMILES O=C(CC1(NC(=O)c2ccccc2[N+](=O)[O-])CCC1)NCCCNC(=O)c1ccc(-c2c3nc(c(-c4c(F)c(F)c(F)c(F)c4F)c4ccc([nH]4)c(-c4c(F)c(F)c(F)c(F)c4F)c4nc(c(-c5c(F)c(F)c(F)c(F)c5F)c5ccc2[nH]5)C=C4)C=C3)cc1
REMARK SMILES IDX 21 1 20 2 1 3 2 4 3 6 4 7 17 8 19 9 18 10 5 11 6 12 7 14
REMARK SMILES IDX 8 15 9 16 13 17 10 18 12 19 11 20 14 21 15 22 16 23 22 24
REMARK SMILES IDX 23 25 24 26 25 27 26 29 27 30 28 31 89 32 29 33 88 34 30 35
REMARK SMILES IDX 31 36 32 37 82 38 33 39 87 40 81 41 83 42 34 43 86 44 80 45
REMARK SMILES IDX 79 46 35 48 67 49 47 50 66 51 48 52 51 53 65 54 84 55 49 56
REMARK SMILES IDX 50 57 64 59 85 60 52 61 36 62 37 63 45 64 38 65 39 66 43 67
REMARK SMILES IDX 46 68 40 69 41 70 44 71 42 72 68 73 69 74 77 75 70 76 71 77
REMARK SMILES IDX 75 78 78 79 72 80 73 81 76 82 74 83 53 84 54 85 62 86 55 87
REMARK SMILES IDX 56 88 60 89 63 90 57 91 58 92 61 93 59 94
REMARK H PARENT 20 5 5 13 24 28 83 47 51 58
REMARK Flexibility Score: inf
ROOT
ATOM      1  C   UNL A   1      31.593  30.754  26.626  1.00  0.00     0.117 C 
ENDROOT
BRANCH   1   2
ATOM      2  N   UNL A   1      31.724  30.289  25.259  1.00  0.00    -0.356 N 
ATOM      3  O   UNL A   1      33.479  28.896  25.711  1.00  0.00    -0.275 OA
ATOM      4  C   UNL A   1      32.668  29.358  24.913  1.00  0.00     0.222 C 
ATOM      5  H   UNL A   1      31.125  30.650  24.565  1.00  0.00     0.163 HD
BRANCH   4   6
ATOM      6  C   UNL A   1      32.732  28.998  23.452  1.00  0.00     0.128 C 
BRANCH   6   7
ATOM      7  C   UNL A   1      31.792  27.922  22.906  1.00  0.00     0.049 C 
ATOM      8  C   UNL A   1      30.893  27.260  24.003  1.00  0.00     0.029 C 
ATOM      9  C   UNL A   1      30.472  28.521  22.311  1.00  0.00     0.029 C 
ATOM     10  C   UNL A   1      29.655  27.522  23.135  1.00  0.00     0.005 C 
BRANCH   7  11
ATOM     11  N   UNL A   1      32.358  26.879  21.988  1.00  0.00    -0.346 N 
ATOM     12  C   UNL A   1      32.864  25.607  22.117  1.00  0.00     0.258 C 
ATOM     13  H   UNL A   1      32.370  27.185  21.052  1.00  0.00     0.164 HD
ATOM     14  O   UNL A   1      33.187  24.980  21.110  1.00  0.00    -0.269 OA
BRANCH  12  15
ATOM     15  C   UNL A   1      33.192  25.024  23.420  1.00  0.00     0.117 A 
ATOM     16  C   UNL A   1      34.230  25.655  24.122  1.00  0.00     0.021 A 
ATOM     17  C   UNL A   1      32.511  23.961  24.010  1.00  0.00     0.282 A 
ATOM     18  C   UNL A   1      34.498  25.298  25.443  1.00  0.00     0.001 A 
ATOM     19  C   UNL A   1      32.760  23.613  25.347  1.00  0.00     0.086 A 
ATOM     20  C   UNL A   1      33.744  24.301  26.063  1.00  0.00     0.007 A 
BRANCH  17  21
ATOM     21  N   UNL A   1      31.465  23.258  23.292  1.00  0.00     0.063 N 
ATOM     22  O   UNL A   1      31.767  22.169  22.788  1.00  0.00    -0.258 OA
ATOM     23  O   UNL A   1      30.352  23.790  23.234  1.00  0.00    -0.258 OA
ENDBRANCH  17  21
ENDBRANCH  12  15
ENDBRANCH   7  11
ENDBRANCH   6   7
ENDBRANCH   4   6
ENDBRANCH   1   2
BRANCH   1  24
ATOM     24  C   UNL A   1      31.477  32.269  26.704  1.00  0.00     0.042 C 
BRANCH  24  25
ATOM     25  C   UNL A   1      32.757  32.958  27.163  1.00  0.00     0.118 C 
BRANCH  25  26
ATOM     26  N   UNL A   1      32.525  34.309  27.654  1.00  0.00    -0.352 N 
ATOM     27  C   UNL A   1      33.067  34.978  28.723  1.00  0.00     0.251 C 
ATOM     28  H   UNL A   1      31.873  34.830  27.132  1.00  0.00     0.163 HD
ATOM     29  O   UNL A   1      32.581  36.044  29.084  1.00  0.00    -0.269 OA
BRANCH  27  30
ATOM     30  C   UNL A   1      34.214  34.407  29.461  1.00  0.00     0.039 A 
ATOM     31  C   UNL A   1      33.965  33.658  30.615  1.00  0.00     0.014 A 
ATOM     32  C   UNL A   1      35.526  34.618  29.034  1.00  0.00     0.014 A 
ATOM     33  C   UNL A   1      35.026  33.048  31.286  1.00  0.00     0.010 A 
ATOM     34  C   UNL A   1      36.574  33.944  29.656  1.00  0.00     0.010 A 
ATOM     35  C   UNL A   1      36.333  33.143  30.782  1.00  0.00    -0.014 A 
BRANCH  35  36
ATOM     36  C   UNL A   1      37.454  32.386  31.396  1.00  0.00     0.031 A 
ATOM     37  C   UNL A   1      37.980  32.766  32.750  1.00  0.00     0.074 A 
ATOM     38  C   UNL A   1      38.050  31.402  30.693  1.00  0.00     0.049 A 
ATOM     39  N   UNL A   1      39.009  32.286  33.404  1.00  0.00    -0.248 NA
ATOM     40  C   UNL A   1      37.274  33.847  33.455  1.00  0.00     0.031 C 
ATOM     41  C   UNL A   1      37.658  30.966  29.351  1.00  0.00     0.029 A 
ATOM     42  N   UNL A   1      39.122  30.602  31.001  1.00  0.00    -0.354 N 
ATOM     43  C   UNL A   1      39.077  33.010  34.587  1.00  0.00     0.074 A 
ATOM     44  C   UNL A   1      38.021  33.997  34.538  1.00  0.00     0.031 C 
ATOM     45  C   UNL A   1      38.464  29.967  28.961  1.00  0.00     0.029 A 
ATOM     46  C   UNL A   1      39.459  29.724  29.999  1.00  0.00     0.049 A 
ATOM     47  H   UNL A   1      39.604  30.652  31.858  1.00  0.00     0.167 HD
ATOM     48  C   UNL A   1      39.932  32.850  35.626  1.00  0.00     0.037 A 
ATOM     49  C   UNL A   1      40.468  28.837  29.919  1.00  0.00     0.037 A 
ATOM     50  C   UNL A   1      40.974  31.858  35.675  1.00  0.00     0.049 A 
ATOM     51  C   UNL A   1      41.425  28.706  31.073  1.00  0.00     0.074 A 
ATOM     52  C   UNL A   1      41.853  31.579  36.707  1.00  0.00     0.029 A 
ATOM     53  N   UNL A   1      41.286  30.985  34.640  1.00  0.00    -0.354 N 
ATOM     54  N   UNL A   1      41.437  29.348  32.215  1.00  0.00    -0.248 NA
ATOM     55  C   UNL A   1      42.509  27.724  30.925  1.00  0.00     0.031 C 
ATOM     56  C   UNL A   1      42.733  30.581  36.277  1.00  0.00     0.029 A 
ATOM     57  C   UNL A   1      42.365  30.193  34.999  1.00  0.00     0.049 A 
ATOM     58  H   UNL A   1      40.809  30.937  33.780  1.00  0.00     0.167 HD
ATOM     59  C   UNL A   1      42.509  28.832  32.932  1.00  0.00     0.074 A 
ATOM     60  C   UNL A   1      43.112  27.809  32.102  1.00  0.00     0.031 C 
ATOM     61  C   UNL A   1      42.956  29.177  34.164  1.00  0.00     0.037 A 
BRANCH  48  62
ATOM     62  C   UNL A   1      39.780  33.776  36.799  1.00  0.00     0.064 A 
ATOM     63  C   UNL A   1      40.428  35.020  36.847  1.00  0.00     0.173 A 
ATOM     64  C   UNL A   1      38.943  33.433  37.872  1.00  0.00     0.173 A 
ATOM     65  F   UNL A   1      41.247  35.393  35.852  1.00  0.00    -0.203 F 
ATOM     66  C   UNL A   1      40.266  35.872  37.937  1.00  0.00     0.198 A 
ATOM     67  C   UNL A   1      38.758  34.302  38.945  1.00  0.00     0.198 A 
ATOM     68  F   UNL A   1      38.293  32.259  37.876  1.00  0.00    -0.203 F 
ATOM     69  F   UNL A   1      40.935  37.033  37.982  1.00  0.00    -0.200 F 
ATOM     70  C   UNL A   1      39.426  35.516  38.981  1.00  0.00     0.200 A 
ATOM     71  F   UNL A   1      37.932  33.962  39.946  1.00  0.00    -0.200 F 
ATOM     72  F   UNL A   1      39.264  36.341  40.024  1.00  0.00    -0.200 F 
ENDBRANCH  48  62
BRANCH  49  73
ATOM     73  C   UNL A   1      40.625  27.996  28.701  1.00  0.00     0.064 A 
ATOM     74  C   UNL A   1      41.415  28.425  27.626  1.00  0.00     0.173 A 
ATOM     75  C   UNL A   1      39.981  26.755  28.582  1.00  0.00     0.173 A 
ATOM     76  F   UNL A   1      42.033  29.614  27.682  1.00  0.00    -0.203 F 
ATOM     77  C   UNL A   1      41.536  27.657  26.470  1.00  0.00     0.198 A 
ATOM     78  C   UNL A   1      40.130  25.973  27.439  1.00  0.00     0.198 A 
ATOM     79  F   UNL A   1      39.217  26.295  29.585  1.00  0.00    -0.203 F 
ATOM     80  F   UNL A   1      42.255  28.116  25.436  1.00  0.00    -0.200 F 
ATOM     81  C   UNL A   1      40.899  26.429  26.380  1.00  0.00     0.200 A 
ATOM     82  F   UNL A   1      39.525  24.780  27.364  1.00  0.00    -0.200 F 
ATOM     83  F   UNL A   1      41.018  25.689  25.269  1.00  0.00    -0.200 F 
ENDBRANCH  49  73
BRANCH  61  84
ATOM     84  C   UNL A   1      44.138  28.424  34.705  1.00  0.00     0.064 A 
ATOM     85  C   UNL A   1      45.450  28.894  34.539  1.00  0.00     0.173 A 
ATOM     86  C   UNL A   1      43.954  27.237  35.430  1.00  0.00     0.173 A 
ATOM     87  F   UNL A   1      45.681  30.015  33.839  1.00  0.00    -0.203 F 
ATOM     88  C   UNL A   1      46.533  28.189  35.056  1.00  0.00     0.198 A 
ATOM     89  C   UNL A   1      45.037  26.554  35.976  1.00  0.00     0.198 A 
ATOM     90  F   UNL A   1      42.720  26.747  35.624  1.00  0.00    -0.203 F 
ATOM     91  F   UNL A   1      47.781  28.629  34.840  1.00  0.00    -0.200 F 
ATOM     92  C   UNL A   1      46.326  27.025  35.782  1.00  0.00     0.200 A 
ATOM     93  F   UNL A   1      44.833  25.438  36.690  1.00  0.00    -0.200 F 
ATOM     94  F   UNL A   1      47.370  26.354  36.287  1.00  0.00    -0.200 F 
ENDBRANCH  61  84
ENDBRANCH  35  36
ENDBRANCH  27  30
ENDBRANCH  25  26
ENDBRANCH  24  25
ENDBRANCH   1  24
TORSDOF 14
ENDMDL
