MODEL 1
REMARK VINA RESULT:     -12.9      0.000      0.000
REMARK SMILES CS(=O)(=O)c1ccc(/C=C(/C(=O)NCCCNC(=O)c2ccc(-c3c4nc(c(-c5c(F)c(F)c(F)c(F)c5F)c5ccc([nH]5)c(-c5c(F)c(F)c(F)c(F)c5F)c5nc(c(-c6c(F)c(F)c(F)c(F)c6F)c6ccc3[nH]6)C=C5)C=C4)cc2)c2ccc(O)cc2)cc1
REMARK SMILES IDX 15 1 14 2 13 3 11 4 12 5 10 7 9 8 8 9 5 10 6 11 91 12 7 13
REMARK SMILES IDX 90 14 2 15 1 16 3 17 4 18 83 19 84 20 89 21 85 22 88 23
REMARK SMILES IDX 86 24 87 25 16 27 17 28 18 29 19 31 20 32 21 33 82 34 22 35
REMARK SMILES IDX 81 36 23 37 24 38 25 39 75 40 26 41 80 42 74 43 76 44 27 45
REMARK SMILES IDX 79 46 73 47 72 48 28 50 60 51 40 52 59 53 41 54 44 55 58 56
REMARK SMILES IDX 77 57 42 58 43 59 57 61 78 62 45 63 29 64 30 65 38 66 31 67
REMARK SMILES IDX 32 68 36 69 39 70 33 71 34 72 37 73 35 74 61 75 62 76 70 77
REMARK SMILES IDX 63 78 64 79 68 80 71 81 65 82 66 83 69 84 67 85 46 86 47 87
REMARK SMILES IDX 55 88 48 89 49 90 53 91 56 92 50 93 51 94 54 95 52 96
REMARK H PARENT 13 6 87 26 17 30 76 49 44 60
REMARK Flexibility Score: inf
ROOT
ATOM      1  C   UNL A   1      35.647  23.927  25.768  1.00  0.00     0.042 C 
ENDROOT
BRANCH   1   2
ATOM      2  C   UNL A   1      34.315  23.710  25.046  1.00  0.00     0.118 C 
BRANCH   2   3
ATOM      3  N   UNL A   1      33.258  23.423  25.999  1.00  0.00    -0.352 N 
ATOM      4  C   UNL A   1      32.152  24.090  26.420  1.00  0.00     0.251 C 
ATOM      5  O   UNL A   1      31.494  23.530  27.301  1.00  0.00    -0.269 OA
ATOM      6  H   UNL A   1      33.368  22.548  26.438  1.00  0.00     0.163 HD
BRANCH   4   7
ATOM      7  C   UNL A   1      31.681  25.392  25.813  1.00  0.00     0.047 C 
ATOM      8  C   UNL A   1      30.952  25.412  24.674  1.00  0.00     0.022 C 
BRANCH   8   9
ATOM      9  C   UNL A   1      30.309  26.557  23.989  1.00  0.00    -0.025 A 
ATOM     10  C   UNL A   1      28.949  28.758  22.898  1.00  0.00     0.067 A 
ATOM     11  C   UNL A   1      30.339  28.677  22.796  1.00  0.00     0.021 A 
ATOM     12  C   UNL A   1      28.224  27.730  23.501  1.00  0.00     0.021 A 
ATOM     13  C   UNL A   1      31.010  27.567  23.320  1.00  0.00     0.009 A 
ATOM     14  C   UNL A   1      28.907  26.633  24.037  1.00  0.00     0.009 A 
BRANCH  10  15
ATOM     15  S   UNL A   1      28.103  30.204  22.304  1.00  0.00     0.175 S 
ATOM     16  C   UNL A   1      29.179  31.558  22.691  1.00  0.00     0.163 C 
ATOM     17  O   UNL A   1      26.904  30.367  23.106  1.00  0.00    -0.224 OA
ATOM     18  O   UNL A   1      28.027  30.078  20.862  1.00  0.00    -0.224 OA
ENDBRANCH  10  15
ENDBRANCH   8   9
BRANCH   7  19
ATOM     19  C   UNL A   1      32.205  26.645  26.417  1.00  0.00    -0.013 A 
ATOM     20  C   UNL A   1      33.520  27.041  26.116  1.00  0.00     0.013 A 
ATOM     21  C   UNL A   1      31.409  27.491  27.203  1.00  0.00     0.013 A 
ATOM     22  C   UNL A   1      34.018  28.266  26.555  1.00  0.00     0.047 A 
ATOM     23  C   UNL A   1      31.901  28.732  27.626  1.00  0.00     0.047 A 
ATOM     24  C   UNL A   1      33.197  29.112  27.286  1.00  0.00     0.115 A 
BRANCH  24  25
ATOM     25  O   UNL A   1      33.703  30.327  27.640  1.00  0.00    -0.508 OA
ATOM     26  H   UNL A   1      34.340  30.747  27.095  1.00  0.00     0.293 HD
ENDBRANCH  24  25
ENDBRANCH   7  19
ENDBRANCH   4   7
ENDBRANCH   2   3
ENDBRANCH   1   2
BRANCH   1  27
ATOM     27  C   UNL A   1      36.871  23.694  24.882  1.00  0.00     0.118 C 
BRANCH  27  28
ATOM     28  N   UNL A   1      37.759  22.678  25.425  1.00  0.00    -0.352 N 
ATOM     29  C   UNL A   1      38.920  22.808  26.145  1.00  0.00     0.251 C 
ATOM     30  H   UNL A   1      37.484  21.748  25.250  1.00  0.00     0.163 HD
ATOM     31  O   UNL A   1      39.638  21.828  26.320  1.00  0.00    -0.269 OA
BRANCH  29  32
ATOM     32  C   UNL A   1      39.326  24.118  26.702  1.00  0.00     0.039 A 
ATOM     33  C   UNL A   1      38.928  24.445  28.003  1.00  0.00     0.014 A 
ATOM     34  C   UNL A   1      40.039  25.045  25.937  1.00  0.00     0.014 A 
ATOM     35  C   UNL A   1      39.290  25.677  28.554  1.00  0.00     0.010 A 
ATOM     36  C   UNL A   1      40.455  26.247  26.510  1.00  0.00     0.010 A 
ATOM     37  C   UNL A   1      40.083  26.576  27.823  1.00  0.00    -0.014 A 
BRANCH  37  38
ATOM     38  C   UNL A   1      40.528  27.865  28.414  1.00  0.00     0.031 A 
ATOM     39  C   UNL A   1      41.965  28.061  28.812  1.00  0.00     0.074 A 
ATOM     40  C   UNL A   1      39.625  28.839  28.643  1.00  0.00     0.049 A 
ATOM     41  N   UNL A   1      42.524  29.078  29.420  1.00  0.00    -0.248 NA
ATOM     42  C   UNL A   1      42.892  26.960  28.511  1.00  0.00     0.031 C 
ATOM     43  C   UNL A   1      38.196  28.755  28.334  1.00  0.00     0.029 A 
ATOM     44  N   UNL A   1      39.770  30.084  29.203  1.00  0.00    -0.354 N 
ATOM     45  C   UNL A   1      43.861  28.735  29.581  1.00  0.00     0.074 A 
ATOM     46  C   UNL A   1      44.019  27.396  29.052  1.00  0.00     0.031 C 
ATOM     47  C   UNL A   1      37.600  29.903  28.696  1.00  0.00     0.029 A 
ATOM     48  C   UNL A   1      38.594  30.787  29.297  1.00  0.00     0.049 A 
ATOM     49  H   UNL A   1      40.636  30.438  29.510  1.00  0.00     0.167 HD
ATOM     50  C   UNL A   1      44.868  29.476  30.102  1.00  0.00     0.037 A 
ATOM     51  C   UNL A   1      38.343  32.002  29.819  1.00  0.00     0.037 A 
ATOM     52  C   UNL A   1      44.712  30.817  30.604  1.00  0.00     0.049 A 
ATOM     53  C   UNL A   1      39.480  32.800  30.402  1.00  0.00     0.074 A 
ATOM     54  C   UNL A   1      45.680  31.665  31.114  1.00  0.00     0.029 A 
ATOM     55  N   UNL A   1      43.509  31.504  30.658  1.00  0.00    -0.354 N 
ATOM     56  N   UNL A   1      40.748  32.484  30.497  1.00  0.00    -0.248 NA
ATOM     57  C   UNL A   1      39.150  34.126  30.943  1.00  0.00     0.031 C 
ATOM     58  C   UNL A   1      45.057  32.852  31.511  1.00  0.00     0.029 A 
ATOM     59  C   UNL A   1      43.708  32.761  31.206  1.00  0.00     0.049 A 
ATOM     60  H   UNL A   1      42.641  31.151  30.354  1.00  0.00     0.167 HD
ATOM     61  C   UNL A   1      41.372  33.581  31.077  1.00  0.00     0.074 A 
ATOM     62  C   UNL A   1      40.345  34.577  31.298  1.00  0.00     0.031 C 
ATOM     63  C   UNL A   1      42.677  33.748  31.401  1.00  0.00     0.037 A 
BRANCH  50  64
ATOM     64  C   UNL A   1      46.237  28.863  30.144  1.00  0.00     0.064 A 
ATOM     65  C   UNL A   1      46.667  28.109  31.246  1.00  0.00     0.173 A 
ATOM     66  C   UNL A   1      47.106  28.979  29.049  1.00  0.00     0.173 A 
ATOM     67  F   UNL A   1      45.878  27.977  32.323  1.00  0.00    -0.203 F 
ATOM     68  C   UNL A   1      47.924  27.510  31.259  1.00  0.00     0.198 A 
ATOM     69  C   UNL A   1      48.351  28.354  29.053  1.00  0.00     0.198 A 
ATOM     70  F   UNL A   1      46.742  29.682  27.967  1.00  0.00    -0.203 F 
ATOM     71  F   UNL A   1      48.328  26.826  32.338  1.00  0.00    -0.200 F 
ATOM     72  C   UNL A   1      48.761  27.625  30.159  1.00  0.00     0.200 A 
ATOM     73  F   UNL A   1      49.154  28.455  27.984  1.00  0.00    -0.200 F 
ATOM     74  F   UNL A   1      49.965  27.036  30.168  1.00  0.00    -0.200 F 
ENDBRANCH  50  64
BRANCH  51  75
ATOM     75  C   UNL A   1      36.962  32.552  29.809  1.00  0.00     0.064 A 
ATOM     76  C   UNL A   1      36.475  33.257  28.700  1.00  0.00     0.173 A 
ATOM     77  C   UNL A   1      36.111  32.409  30.916  1.00  0.00     0.173 A 
ATOM     78  F   UNL A   1      37.257  33.438  27.626  1.00  0.00    -0.203 F 
ATOM     79  C   UNL A   1      35.202  33.825  28.709  1.00  0.00     0.198 A 
ATOM     80  C   UNL A   1      34.828  32.951  30.911  1.00  0.00     0.198 A 
ATOM     81  F   UNL A   1      36.525  31.738  32.001  1.00  0.00    -0.203 F 
ATOM     82  F   UNL A   1      34.784  34.542  27.657  1.00  0.00    -0.200 F 
ATOM     83  C   UNL A   1      34.378  33.668  29.812  1.00  0.00     0.200 A 
ATOM     84  F   UNL A   1      34.028  32.783  31.974  1.00  0.00    -0.200 F 
ATOM     85  F   UNL A   1      33.155  34.215  29.822  1.00  0.00    -0.200 F 
ENDBRANCH  51  75
BRANCH  63  86
ATOM     86  C   UNL A   1      43.078  35.071  31.985  1.00  0.00     0.064 A 
ATOM     87  C   UNL A   1      43.000  35.322  33.362  1.00  0.00     0.173 A 
ATOM     88  C   UNL A   1      43.580  36.087  31.157  1.00  0.00     0.173 A 
ATOM     89  F   UNL A   1      42.511  34.389  34.192  1.00  0.00    -0.203 F 
ATOM     90  C   UNL A   1      43.387  36.552  33.887  1.00  0.00     0.198 A 
ATOM     91  C   UNL A   1      43.994  37.304  31.690  1.00  0.00     0.198 A 
ATOM     92  F   UNL A   1      43.680  35.894  29.834  1.00  0.00    -0.203 F 
ATOM     93  F   UNL A   1      43.259  36.788  35.200  1.00  0.00    -0.200 F 
ATOM     94  C   UNL A   1      43.891  37.539  33.053  1.00  0.00     0.200 A 
ATOM     95  F   UNL A   1      44.493  38.252  30.883  1.00  0.00    -0.200 F 
ATOM     96  F   UNL A   1      44.268  38.720  33.561  1.00  0.00    -0.200 F 
ENDBRANCH  63  86
ENDBRANCH  37  38
ENDBRANCH  29  32
ENDBRANCH  27  28
ENDBRANCH   1  27
TORSDOF 14
ENDMDL
MODEL 2
REMARK VINA RESULT:     -12.9      0.313      1.267
REMARK SMILES CS(=O)(=O)c1ccc(/C=C(/C(=O)NCCCNC(=O)c2ccc(-c3c4nc(c(-c5c(F)c(F)c(F)c(F)c5F)c5ccc([nH]5)c(-c5c(F)c(F)c(F)c(F)c5F)c5nc(c(-c6c(F)c(F)c(F)c(F)c6F)c6ccc3[nH]6)C=C5)C=C4)cc2)c2ccc(O)cc2)cc1
REMARK SMILES IDX 15 1 14 2 13 3 11 4 12 5 10 7 9 8 8 9 5 10 6 11 91 12 7 13
REMARK SMILES IDX 90 14 2 15 1 16 3 17 4 18 83 19 84 20 89 21 85 22 88 23
REMARK SMILES IDX 86 24 87 25 16 27 17 28 18 29 19 31 20 32 21 33 82 34 22 35
REMARK SMILES IDX 81 36 23 37 24 38 25 39 75 40 26 41 80 42 74 43 76 44 27 45
REMARK SMILES IDX 79 46 73 47 72 48 28 50 60 51 40 52 59 53 41 54 44 55 58 56
REMARK SMILES IDX 77 57 42 58 43 59 57 61 78 62 45 63 29 64 30 65 38 66 31 67
REMARK SMILES IDX 32 68 36 69 39 70 33 71 34 72 37 73 35 74 61 75 62 76 70 77
REMARK SMILES IDX 63 78 64 79 68 80 71 81 65 82 66 83 69 84 67 85 46 86 47 87
REMARK SMILES IDX 55 88 48 89 49 90 53 91 56 92 50 93 51 94 54 95 52 96
REMARK H PARENT 13 6 87 26 17 30 76 49 44 60
REMARK Flexibility Score: inf
ROOT
ATOM      1  C   UNL A   1      35.828  24.081  24.967  1.00  0.00     0.042 C 
ENDROOT
BRANCH   1   2
ATOM      2  C   UNL A   1      34.471  23.631  24.422  1.00  0.00     0.118 C 
BRANCH   2   3
ATOM      3  N   UNL A   1      33.558  23.331  25.509  1.00  0.00    -0.352 N 
ATOM      4  C   UNL A   1      32.513  23.986  26.080  1.00  0.00     0.251 C 
ATOM      5  O   UNL A   1      31.987  23.417  27.040  1.00  0.00    -0.269 OA
ATOM      6  H   UNL A   1      33.735  22.456  25.925  1.00  0.00     0.163 HD
BRANCH   4   7
ATOM      7  C   UNL A   1      31.951  25.285  25.548  1.00  0.00     0.047 C 
ATOM      8  C   UNL A   1      31.248  25.325  24.393  1.00  0.00     0.022 C 
BRANCH   8   9
ATOM      9  C   UNL A   1      30.529  26.459  23.768  1.00  0.00    -0.025 A 
ATOM     10  C   UNL A   1      29.051  28.644  22.807  1.00  0.00     0.067 A 
ATOM     11  C   UNL A   1      30.418  28.557  22.542  1.00  0.00     0.021 A 
ATOM     12  C   UNL A   1      28.402  27.629  23.511  1.00  0.00     0.021 A 
ATOM     13  C   UNL A   1      31.146  27.455  23.003  1.00  0.00     0.009 A 
ATOM     14  C   UNL A   1      29.142  26.540  23.981  1.00  0.00     0.009 A 
BRANCH  10  15
ATOM     15  S   UNL A   1      28.141  30.081  22.291  1.00  0.00     0.175 S 
ATOM     16  C   UNL A   1      29.115  31.460  22.832  1.00  0.00     0.163 C 
ATOM     17  O   UNL A   1      26.903  30.108  23.049  1.00  0.00    -0.224 OA
ATOM     18  O   UNL A   1      28.131  30.069  20.842  1.00  0.00    -0.224 OA
ENDBRANCH  10  15
ENDBRANCH   8   9
BRANCH   7  19
ATOM     19  C   UNL A   1      32.357  26.531  26.248  1.00  0.00    -0.013 A 
ATOM     20  C   UNL A   1      33.642  27.050  26.012  1.00  0.00     0.013 A 
ATOM     21  C   UNL A   1      31.477  27.255  27.067  1.00  0.00     0.013 A 
ATOM     22  C   UNL A   1      34.029  28.278  26.545  1.00  0.00     0.047 A 
ATOM     23  C   UNL A   1      31.857  28.500  27.585  1.00  0.00     0.047 A 
ATOM     24  C   UNL A   1      33.126  29.004  27.308  1.00  0.00     0.115 A 
BRANCH  24  25
ATOM     25  O   UNL A   1      33.522  30.229  27.755  1.00  0.00    -0.508 OA
ATOM     26  H   UNL A   1      34.395  30.528  27.592  1.00  0.00     0.293 HD
ENDBRANCH  24  25
ENDBRANCH   7  19
ENDBRANCH   4   7
ENDBRANCH   2   3
ENDBRANCH   1   2
BRANCH   1  27
ATOM     27  C   UNL A   1      36.212  23.414  26.289  1.00  0.00     0.118 C 
BRANCH  27  28
ATOM     28  N   UNL A   1      37.349  22.517  26.144  1.00  0.00    -0.352 N 
ATOM     29  C   UNL A   1      38.693  22.765  26.265  1.00  0.00     0.251 C 
ATOM     30  H   UNL A   1      37.117  21.585  25.926  1.00  0.00     0.163 HD
ATOM     31  O   UNL A   1      39.500  21.921  25.887  1.00  0.00    -0.269 OA
BRANCH  29  32
ATOM     32  C   UNL A   1      39.183  24.041  26.833  1.00  0.00     0.039 A 
ATOM     33  C   UNL A   1      39.842  24.941  25.989  1.00  0.00     0.014 A 
ATOM     34  C   UNL A   1      39.052  24.329  28.194  1.00  0.00     0.014 A 
ATOM     35  C   UNL A   1      40.321  26.151  26.498  1.00  0.00     0.010 A 
ATOM     36  C   UNL A   1      39.473  25.564  28.688  1.00  0.00     0.010 A 
ATOM     37  C   UNL A   1      40.114  26.486  27.846  1.00  0.00    -0.014 A 
BRANCH  37  38
ATOM     38  C   UNL A   1      40.564  27.793  28.391  1.00  0.00     0.031 A 
ATOM     39  C   UNL A   1      42.010  28.011  28.744  1.00  0.00     0.074 A 
ATOM     40  C   UNL A   1      39.659  28.765  28.621  1.00  0.00     0.049 A 
ATOM     41  N   UNL A   1      42.577  29.048  29.309  1.00  0.00    -0.248 NA
ATOM     42  C   UNL A   1      42.938  26.910  28.445  1.00  0.00     0.031 C 
ATOM     43  C   UNL A   1      38.223  28.661  28.355  1.00  0.00     0.029 A 
ATOM     44  N   UNL A   1      39.809  30.025  29.144  1.00  0.00    -0.354 N 
ATOM     45  C   UNL A   1      43.920  28.720  29.441  1.00  0.00     0.074 A 
ATOM     46  C   UNL A   1      44.076  27.370  28.943  1.00  0.00     0.031 C 
ATOM     47  C   UNL A   1      37.627  29.813  28.703  1.00  0.00     0.029 A 
ATOM     48  C   UNL A   1      38.629  30.720  29.253  1.00  0.00     0.049 A 
ATOM     49  H   UNL A   1      40.679  30.395  29.417  1.00  0.00     0.167 HD
ATOM     50  C   UNL A   1      44.935  29.483  29.914  1.00  0.00     0.037 A 
ATOM     51  C   UNL A   1      38.382  31.947  29.751  1.00  0.00     0.037 A 
ATOM     52  C   UNL A   1      44.781  30.835  30.386  1.00  0.00     0.049 A 
ATOM     53  C   UNL A   1      39.528  32.768  30.281  1.00  0.00     0.074 A 
ATOM     54  C   UNL A   1      45.755  31.704  30.846  1.00  0.00     0.029 A 
ATOM     55  N   UNL A   1      43.574  31.513  30.457  1.00  0.00    -0.354 N 
ATOM     56  N   UNL A   1      40.801  32.466  30.349  1.00  0.00    -0.248 NA
ATOM     57  C   UNL A   1      39.201  34.105  30.797  1.00  0.00     0.031 C 
ATOM     58  C   UNL A   1      45.132  32.896  31.231  1.00  0.00     0.029 A 
ATOM     59  C   UNL A   1      43.777  32.786  30.966  1.00  0.00     0.049 A 
ATOM     60  H   UNL A   1      42.701  31.146  30.186  1.00  0.00     0.167 HD
ATOM     61  C   UNL A   1      41.431  33.583  30.882  1.00  0.00     0.074 A 
ATOM     62  C   UNL A   1      40.401  34.576  31.106  1.00  0.00     0.031 C 
ATOM     63  C   UNL A   1      42.743  33.769  31.165  1.00  0.00     0.037 A 
BRANCH  50  64
ATOM     64  C   UNL A   1      46.310  28.883  29.934  1.00  0.00     0.064 A 
ATOM     65  C   UNL A   1      47.177  29.004  28.838  1.00  0.00     0.173 A 
ATOM     66  C   UNL A   1      46.790  28.233  31.081  1.00  0.00     0.173 A 
ATOM     67  F   UNL A   1      46.763  29.607  27.713  1.00  0.00    -0.203 F 
ATOM     68  C   UNL A   1      48.466  28.479  28.881  1.00  0.00     0.198 A 
ATOM     69  C   UNL A   1      48.089  27.735  31.131  1.00  0.00     0.198 A 
ATOM     70  F   UNL A   1      46.005  28.097  32.160  1.00  0.00    -0.203 F 
ATOM     71  F   UNL A   1      49.263  28.573  27.808  1.00  0.00    -0.200 F 
ATOM     72  C   UNL A   1      48.924  27.854  30.031  1.00  0.00     0.200 A 
ATOM     73  F   UNL A   1      48.536  27.143  32.248  1.00  0.00    -0.200 F 
ATOM     74  F   UNL A   1      50.170  27.362  30.076  1.00  0.00    -0.200 F 
ENDBRANCH  50  64
BRANCH  51  75
ATOM     75  C   UNL A   1      36.997  32.484  29.766  1.00  0.00     0.064 A 
ATOM     76  C   UNL A   1      36.500  33.226  28.685  1.00  0.00     0.173 A 
ATOM     77  C   UNL A   1      36.151  32.294  30.870  1.00  0.00     0.173 A 
ATOM     78  F   UNL A   1      37.276  33.454  27.617  1.00  0.00    -0.203 F 
ATOM     79  C   UNL A   1      35.222  33.782  28.720  1.00  0.00     0.198 A 
ATOM     80  C   UNL A   1      34.863  32.823  30.889  1.00  0.00     0.198 A 
ATOM     81  F   UNL A   1      36.574  31.586  31.927  1.00  0.00    -0.203 F 
ATOM     82  F   UNL A   1      34.794  34.534  27.697  1.00  0.00    -0.200 F 
ATOM     83  C   UNL A   1      34.403  33.577  29.819  1.00  0.00     0.200 A 
ATOM     84  F   UNL A   1      34.068  32.609  31.947  1.00  0.00    -0.200 F 
ATOM     85  F   UNL A   1      33.176  34.113  29.853  1.00  0.00    -0.200 F 
ENDBRANCH  51  75
BRANCH  63  86
ATOM     86  C   UNL A   1      43.148  35.110  31.703  1.00  0.00     0.064 A 
ATOM     87  C   UNL A   1      43.116  35.393  33.076  1.00  0.00     0.173 A 
ATOM     88  C   UNL A   1      43.608  36.112  30.834  1.00  0.00     0.173 A 
ATOM     89  F   UNL A   1      42.668  34.473  33.944  1.00  0.00    -0.203 F 
ATOM     90  C   UNL A   1      43.506  36.639  33.558  1.00  0.00     0.198 A 
ATOM     91  C   UNL A   1      44.025  37.346  31.324  1.00  0.00     0.198 A 
ATOM     92  F   UNL A   1      43.663  35.888  29.513  1.00  0.00    -0.203 F 
ATOM     93  F   UNL A   1      43.422  36.905  34.869  1.00  0.00    -0.200 F 
ATOM     94  C   UNL A   1      43.968  37.611  32.683  1.00  0.00     0.200 A 
ATOM     95  F   UNL A   1      44.483  38.280  30.477  1.00  0.00    -0.200 F 
ATOM     96  F   UNL A   1      44.348  38.809  33.150  1.00  0.00    -0.200 F 
ENDBRANCH  63  86
ENDBRANCH  37  38
ENDBRANCH  29  32
ENDBRANCH  27  28
ENDBRANCH   1  27
TORSDOF 14
ENDMDL
MODEL 3
REMARK VINA RESULT:     -12.7      3.669      9.044
REMARK SMILES CS(=O)(=O)c1ccc(/C=C(/C(=O)NCCCNC(=O)c2ccc(-c3c4nc(c(-c5c(F)c(F)c(F)c(F)c5F)c5ccc([nH]5)c(-c5c(F)c(F)c(F)c(F)c5F)c5nc(c(-c6c(F)c(F)c(F)c(F)c6F)c6ccc3[nH]6)C=C5)C=C4)cc2)c2ccc(O)cc2)cc1
REMARK SMILES IDX 15 1 14 2 13 3 11 4 12 5 10 7 9 8 8 9 5 10 6 11 91 12 7 13
REMARK SMILES IDX 90 14 2 15 1 16 3 17 4 18 83 19 84 20 89 21 85 22 88 23
REMARK SMILES IDX 86 24 87 25 16 27 17 28 18 29 19 31 20 32 21 33 82 34 22 35
REMARK SMILES IDX 81 36 23 37 24 38 25 39 75 40 26 41 80 42 74 43 76 44 27 45
REMARK SMILES IDX 79 46 73 47 72 48 28 50 60 51 40 52 59 53 41 54 44 55 58 56
REMARK SMILES IDX 77 57 42 58 43 59 57 61 78 62 45 63 29 64 30 65 38 66 31 67
REMARK SMILES IDX 32 68 36 69 39 70 33 71 34 72 37 73 35 74 61 75 62 76 70 77
REMARK SMILES IDX 63 78 64 79 68 80 71 81 65 82 66 83 69 84 67 85 46 86 47 87
REMARK SMILES IDX 55 88 48 89 49 90 53 91 56 92 50 93 51 94 54 95 52 96
REMARK H PARENT 13 6 87 26 17 30 76 49 44 60
REMARK Flexibility Score: inf
ROOT
ATOM      1  C   UNL A   1      33.881  27.750  25.845  1.00  0.00     0.042 C 
ENDROOT
BRANCH   1   2
ATOM      2  C   UNL A   1      32.776  26.998  25.099  1.00  0.00     0.118 C 
BRANCH   2   3
ATOM      3  N   UNL A   1      33.075  26.926  23.681  1.00  0.00    -0.352 N 
ATOM      4  C   UNL A   1      33.496  25.937  22.848  1.00  0.00     0.251 C 
ATOM      5  O   UNL A   1      33.686  26.272  21.676  1.00  0.00    -0.269 OA
ATOM      6  H   UNL A   1      32.944  27.785  23.219  1.00  0.00     0.163 HD
BRANCH   4   7
ATOM      7  C   UNL A   1      33.648  24.495  23.275  1.00  0.00     0.047 C 
ATOM      8  C   UNL A   1      32.584  23.661  23.324  1.00  0.00     0.022 C 
BRANCH   8   9
ATOM      9  C   UNL A   1      32.539  22.208  23.603  1.00  0.00    -0.025 A 
ATOM     10  C   UNL A   1      32.586  19.418  23.918  1.00  0.00     0.067 A 
ATOM     11  C   UNL A   1      32.892  20.247  24.999  1.00  0.00     0.021 A 
ATOM     12  C   UNL A   1      32.214  19.967  22.691  1.00  0.00     0.021 A 
ATOM     13  C   UNL A   1      32.844  21.636  24.844  1.00  0.00     0.009 A 
ATOM     14  C   UNL A   1      32.186  21.357  22.542  1.00  0.00     0.009 A 
BRANCH  10  15
ATOM     15  S   UNL A   1      32.723  17.654  24.091  1.00  0.00     0.175 S 
ATOM     16  C   UNL A   1      34.392  17.372  24.615  1.00  0.00     0.163 C 
ATOM     17  O   UNL A   1      32.587  17.075  22.766  1.00  0.00    -0.224 OA
ATOM     18  O   UNL A   1      31.834  17.272  25.170  1.00  0.00    -0.224 OA
ENDBRANCH  10  15
ENDBRANCH   8   9
BRANCH   7  19
ATOM     19  C   UNL A   1      34.973  24.086  23.809  1.00  0.00    -0.013 A 
ATOM     20  C   UNL A   1      35.312  24.450  25.124  1.00  0.00     0.013 A 
ATOM     21  C   UNL A   1      35.861  23.280  23.082  1.00  0.00     0.013 A 
ATOM     22  C   UNL A   1      36.487  23.989  25.715  1.00  0.00     0.047 A 
ATOM     23  C   UNL A   1      37.031  22.799  23.683  1.00  0.00     0.047 A 
ATOM     24  C   UNL A   1      37.326  23.148  24.998  1.00  0.00     0.115 A 
BRANCH  24  25
ATOM     25  O   UNL A   1      38.431  22.669  25.635  1.00  0.00    -0.508 OA
ATOM     26  H   UNL A   1      38.968  23.247  26.141  1.00  0.00     0.293 HD
ENDBRANCH  24  25
ENDBRANCH   7  19
ENDBRANCH   4   7
ENDBRANCH   2   3
ENDBRANCH   1   2
BRANCH   1  27
ATOM     27  C   UNL A   1      33.478  28.202  27.249  1.00  0.00     0.118 C 
BRANCH  27  28
ATOM     28  N   UNL A   1      33.414  29.651  27.365  1.00  0.00    -0.352 N 
ATOM     29  C   UNL A   1      34.302  30.535  27.924  1.00  0.00     0.251 C 
ATOM     30  H   UNL A   1      32.606  30.063  26.981  1.00  0.00     0.163 HD
ATOM     31  O   UNL A   1      33.959  31.698  28.116  1.00  0.00    -0.269 OA
BRANCH  29  32
ATOM     32  C   UNL A   1      35.665  30.103  28.309  1.00  0.00     0.039 A 
ATOM     33  C   UNL A   1      36.680  30.156  27.348  1.00  0.00     0.014 A 
ATOM     34  C   UNL A   1      35.934  29.594  29.582  1.00  0.00     0.014 A 
ATOM     35  C   UNL A   1      37.975  29.750  27.680  1.00  0.00     0.010 A 
ATOM     36  C   UNL A   1      37.240  29.249  29.931  1.00  0.00     0.010 A 
ATOM     37  C   UNL A   1      38.273  29.320  28.984  1.00  0.00    -0.014 A 
BRANCH  37  38
ATOM     38  C   UNL A   1      39.656  28.940  29.371  1.00  0.00     0.031 A 
ATOM     39  C   UNL A   1      40.486  29.863  30.221  1.00  0.00     0.074 A 
ATOM     40  C   UNL A   1      40.184  27.790  28.909  1.00  0.00     0.049 A 
ATOM     41  N   UNL A   1      41.738  29.746  30.590  1.00  0.00    -0.248 NA
ATOM     42  C   UNL A   1      39.832  31.089  30.702  1.00  0.00     0.031 C 
ATOM     43  C   UNL A   1      39.492  26.829  28.047  1.00  0.00     0.029 A 
ATOM     44  N   UNL A   1      41.429  27.239  29.087  1.00  0.00    -0.354 N 
ATOM     45  C   UNL A   1      42.021  30.885  31.334  1.00  0.00     0.074 A 
ATOM     46  C   UNL A   1      40.827  31.704  31.324  1.00  0.00     0.031 C 
ATOM     47  C   UNL A   1      40.316  25.803  27.783  1.00  0.00     0.029 A 
ATOM     48  C   UNL A   1      41.605  26.050  28.422  1.00  0.00     0.049 A 
ATOM     49  H   UNL A   1      42.129  27.657  29.637  1.00  0.00     0.167 HD
ATOM     50  C   UNL A   1      43.165  31.208  31.984  1.00  0.00     0.037 A 
ATOM     51  C   UNL A   1      42.688  25.254  28.329  1.00  0.00     0.037 A 
ATOM     52  C   UNL A   1      44.343  30.380  32.013  1.00  0.00     0.049 A 
ATOM     53  C   UNL A   1      43.949  25.644  29.053  1.00  0.00     0.074 A 
ATOM     54  C   UNL A   1      45.537  30.601  32.677  1.00  0.00     0.029 A 
ATOM     55  N   UNL A   1      44.473  29.171  31.348  1.00  0.00    -0.354 N 
ATOM     56  N   UNL A   1      44.185  26.697  29.797  1.00  0.00    -0.248 NA
ATOM     57  C   UNL A   1      45.094  24.730  28.929  1.00  0.00     0.031 C 
ATOM     58  C   UNL A   1      46.404  29.544  32.385  1.00  0.00     0.029 A 
ATOM     59  C   UNL A   1      45.733  28.640  31.575  1.00  0.00     0.049 A 
ATOM     60  H   UNL A   1      43.775  28.750  30.795  1.00  0.00     0.167 HD
ATOM     61  C   UNL A   1      45.488  26.557  30.255  1.00  0.00     0.074 A 
ATOM     62  C   UNL A   1      45.988  25.309  29.718  1.00  0.00     0.031 C 
ATOM     63  C   UNL A   1      46.208  27.388  31.048  1.00  0.00     0.037 A 
BRANCH  50  64
ATOM     64  C   UNL A   1      43.199  32.508  32.733  1.00  0.00     0.064 A 
ATOM     65  C   UNL A   1      43.590  33.702  32.110  1.00  0.00     0.173 A 
ATOM     66  C   UNL A   1      42.781  32.573  34.071  1.00  0.00     0.173 A 
ATOM     67  F   UNL A   1      44.009  33.692  30.835  1.00  0.00    -0.203 F 
ATOM     68  C   UNL A   1      43.580  34.910  32.802  1.00  0.00     0.198 A 
ATOM     69  C   UNL A   1      42.744  33.787  34.752  1.00  0.00     0.198 A 
ATOM     70  F   UNL A   1      42.389  31.462  34.713  1.00  0.00    -0.203 F 
ATOM     71  F   UNL A   1      43.993  36.032  32.197  1.00  0.00    -0.200 F 
ATOM     72  C   UNL A   1      43.147  34.953  34.120  1.00  0.00     0.200 A 
ATOM     73  F   UNL A   1      42.313  33.830  36.021  1.00  0.00    -0.200 F 
ATOM     74  F   UNL A   1      43.125  36.119  34.780  1.00  0.00    -0.200 F 
ENDBRANCH  50  64
BRANCH  51  75
ATOM     75  C   UNL A   1      42.632  24.003  27.530  1.00  0.00     0.064 A 
ATOM     76  C   UNL A   1      42.277  22.784  28.124  1.00  0.00     0.173 A 
ATOM     77  C   UNL A   1      42.958  23.992  26.165  1.00  0.00     0.173 A 
ATOM     78  F   UNL A   1      41.977  22.738  29.430  1.00  0.00    -0.203 F 
ATOM     79  C   UNL A   1      42.280  21.598  27.392  1.00  0.00     0.198 A 
ATOM     80  C   UNL A   1      42.929  22.811  25.428  1.00  0.00     0.198 A 
ATOM     81  F   UNL A   1      43.298  25.132  25.546  1.00  0.00    -0.203 F 
ATOM     82  F   UNL A   1      41.991  20.439  28.000  1.00  0.00    -0.200 F 
ATOM     83  C   UNL A   1      42.602  21.612  26.044  1.00  0.00     0.200 A 
ATOM     84  F   UNL A   1      43.226  22.831  24.121  1.00  0.00    -0.200 F 
ATOM     85  F   UNL A   1      42.606  20.472  25.341  1.00  0.00    -0.200 F 
ENDBRANCH  51  75
BRANCH  63  86
ATOM     86  C   UNL A   1      47.596  26.954  31.419  1.00  0.00     0.064 A 
ATOM     87  C   UNL A   1      47.831  26.066  32.478  1.00  0.00     0.173 A 
ATOM     88  C   UNL A   1      48.701  27.406  30.681  1.00  0.00     0.173 A 
ATOM     89  F   UNL A   1      46.810  25.619  33.224  1.00  0.00    -0.203 F 
ATOM     90  C   UNL A   1      49.125  25.665  32.801  1.00  0.00     0.198 A 
ATOM     91  C   UNL A   1      49.989  26.980  30.988  1.00  0.00     0.198 A 
ATOM     92  F   UNL A   1      48.528  28.252  29.654  1.00  0.00    -0.203 F 
ATOM     93  F   UNL A   1      49.331  24.854  33.848  1.00  0.00    -0.200 F 
ATOM     94  C   UNL A   1      50.201  26.116  32.052  1.00  0.00     0.200 A 
ATOM     95  F   UNL A   1      51.027  27.407  30.254  1.00  0.00    -0.200 F 
ATOM     96  F   UNL A   1      51.446  25.725  32.361  1.00  0.00    -0.200 F 
ENDBRANCH  63  86
ENDBRANCH  37  38
ENDBRANCH  29  32
ENDBRANCH  27  28
ENDBRANCH   1  27
TORSDOF 14
ENDMDL
