MODEL 1
REMARK VINA RESULT:     -12.7      0.000      0.000
REMARK SMILES C[NH2+]CCC(=O)N1Cc2nc[nH]c2C[C@H]1C(=O)NCCCNC(=O)c1ccc(-c2c3nc(c(-c4c(F)c(F)c(F)c(F)c4F)c4ccc([nH]4)c(-c4c(F)c(F)c(F)c(F)c4F)c4nc(c(-c5c(F)c(F)c(F)c(F)c5F)c5ccc2[nH]5)C=C4)C=C3)cc1
REMARK SMILES IDX 19 1 18 2 16 3 17 4 15 6 7 7 8 8 9 9 14 10 10 11 13 12 11 13
REMARK SMILES IDX 12 14 5 16 6 17 4 18 3 19 2 20 1 21 20 24 21 25 22 26 23 27
REMARK SMILES IDX 24 29 25 30 26 31 87 32 27 33 86 34 28 35 29 36 30 37 80 38
REMARK SMILES IDX 31 39 85 40 79 41 81 42 32 43 84 44 78 45 77 46 33 48 65 49
REMARK SMILES IDX 45 50 64 51 46 52 49 53 63 54 82 55 47 56 48 57 62 59 83 60
REMARK SMILES IDX 50 61 34 62 35 63 43 64 36 65 37 66 41 67 44 68 38 69 39 70
REMARK SMILES IDX 42 71 40 72 66 73 67 74 75 75 68 76 69 77 73 78 76 79 70 80
REMARK SMILES IDX 71 81 74 82 72 83 51 84 52 85 60 86 53 87 54 88 58 89 61 90
REMARK SMILES IDX 55 91 56 92 59 93 57 94
REMARK H PARENT 18 5 12 15 2 22 2 23 22 28 81 47 49 58
REMARK Flexibility Score: inf
ROOT
ATOM      1  C   UNL A   1      32.188  28.891  25.820  1.00  0.00     0.117 C 
ENDROOT
BRANCH   1   2
ATOM      2  N   UNL A   1      31.512  27.719  26.348  1.00  0.00    -0.354 N 
ATOM      3  C   UNL A   1      30.925  26.650  25.756  1.00  0.00     0.243 C 
ATOM      4  O   UNL A   1      30.902  25.631  26.462  1.00  0.00    -0.273 OA
ATOM      5  H   UNL A   1      31.471  27.697  27.331  1.00  0.00     0.163 HD
BRANCH   3   6
ATOM      6  C   UNL A   1      30.387  26.566  24.302  1.00  0.00     0.180 C 
ATOM      7  N   UNL A   1      30.881  27.513  23.252  1.00  0.00    -0.324 N 
ATOM      8  C   UNL A   1      32.093  27.173  22.484  1.00  0.00     0.178 C 
ATOM      9  C   UNL A   1      32.263  25.701  22.377  1.00  0.00     0.081 A 
ATOM     10  C   UNL A   1      30.259  25.099  23.797  1.00  0.00     0.091 C 
ATOM     11  N   UNL A   1      33.371  25.081  21.864  1.00  0.00    -0.240 NA
ATOM     12  C   UNL A   1      31.428  24.774  22.956  1.00  0.00     0.042 A 
ATOM     13  C   UNL A   1      33.181  23.796  22.080  1.00  0.00     0.197 A 
ATOM     14  N   UNL A   1      31.986  23.556  22.707  1.00  0.00    -0.348 N 
ATOM     15  H   UNL A   1      31.605  22.676  22.932  1.00  0.00     0.167 HD
BRANCH   7  16
ATOM     16  C   UNL A   1      30.130  28.574  22.759  1.00  0.00     0.229 C 
ATOM     17  O   UNL A   1      30.662  29.537  22.199  1.00  0.00    -0.275 OA
BRANCH  16  18
ATOM     18  C   UNL A   1      28.646  28.639  23.072  1.00  0.00     0.161 C 
BRANCH  18  19
ATOM     19  C   UNL A   1      27.901  29.912  22.672  1.00  0.00     0.270 C 
BRANCH  19  20
ATOM     20  N   UNL A   1      27.794  30.239  21.247  1.00  0.00    -0.348 N 
ATOM     21  C   UNL A   1      28.186  31.595  20.890  1.00  0.00     0.330 C 
ATOM     22  H   UNL A   1      28.389  29.592  20.729  1.00  0.00     0.346 HD
ATOM     23  H   UNL A   1      26.804  30.160  21.012  1.00  0.00     0.346 HD
ENDBRANCH  19  20
ENDBRANCH  18  19
ENDBRANCH  16  18
ENDBRANCH   7  16
ENDBRANCH   3   6
ENDBRANCH   1   2
BRANCH   1  24
ATOM     24  C   UNL A   1      33.659  28.986  26.219  1.00  0.00     0.042 C 
BRANCH  24  25
ATOM     25  C   UNL A   1      33.885  29.828  27.460  1.00  0.00     0.118 C 
BRANCH  25  26
ATOM     26  N   UNL A   1      34.383  31.175  27.160  1.00  0.00    -0.352 N 
ATOM     27  C   UNL A   1      35.507  31.810  27.679  1.00  0.00     0.251 C 
ATOM     28  H   UNL A   1      33.857  31.695  26.509  1.00  0.00     0.163 HD
ATOM     29  O   UNL A   1      35.662  33.005  27.619  1.00  0.00    -0.269 OA
BRANCH  27  30
ATOM     30  C   UNL A   1      36.514  30.944  28.320  1.00  0.00     0.039 A 
ATOM     31  C   UNL A   1      36.667  29.605  27.953  1.00  0.00     0.014 A 
ATOM     32  C   UNL A   1      37.422  31.580  29.155  1.00  0.00     0.014 A 
ATOM     33  C   UNL A   1      37.831  28.940  28.335  1.00  0.00     0.010 A 
ATOM     34  C   UNL A   1      38.643  30.993  29.343  1.00  0.00     0.010 A 
ATOM     35  C   UNL A   1      38.839  29.658  28.995  1.00  0.00    -0.014 A 
BRANCH  35  36
ATOM     36  C   UNL A   1      40.162  29.084  29.236  1.00  0.00     0.031 A 
ATOM     37  C   UNL A   1      40.529  28.916  30.670  1.00  0.00     0.074 A 
ATOM     38  C   UNL A   1      40.876  28.500  28.247  1.00  0.00     0.049 A 
ATOM     39  N   UNL A   1      41.467  29.518  31.322  1.00  0.00    -0.248 NA
ATOM     40  C   UNL A   1      39.688  28.053  31.516  1.00  0.00     0.031 C 
ATOM     41  C   UNL A   1      40.460  28.296  26.850  1.00  0.00     0.029 A 
ATOM     42  N   UNL A   1      42.073  27.847  28.297  1.00  0.00    -0.354 N 
ATOM     43  C   UNL A   1      41.483  28.944  32.594  1.00  0.00     0.074 A 
ATOM     44  C   UNL A   1      40.251  28.214  32.717  1.00  0.00     0.031 C 
ATOM     45  C   UNL A   1      41.246  27.368  26.270  1.00  0.00     0.029 A 
ATOM     46  C   UNL A   1      42.346  27.083  27.168  1.00  0.00     0.049 A 
ATOM     47  H   UNL A   1      42.688  27.912  29.063  1.00  0.00     0.167 HD
ATOM     48  C   UNL A   1      42.650  28.869  33.298  1.00  0.00     0.037 A 
ATOM     49  C   UNL A   1      43.413  26.285  26.951  1.00  0.00     0.037 A 
ATOM     50  C   UNL A   1      43.661  29.685  32.674  1.00  0.00     0.049 A 
ATOM     51  C   UNL A   1      44.488  26.721  27.865  1.00  0.00     0.074 A 
ATOM     52  C   UNL A   1      43.979  31.023  32.602  1.00  0.00     0.029 A 
ATOM     53  N   UNL A   1      44.326  29.050  31.661  1.00  0.00    -0.354 N 
ATOM     54  N   UNL A   1      45.086  27.876  27.766  1.00  0.00    -0.248 NA
ATOM     55  C   UNL A   1      44.685  26.017  29.127  1.00  0.00     0.031 C 
ATOM     56  C   UNL A   1      44.742  31.187  31.406  1.00  0.00     0.029 A 
ATOM     57  C   UNL A   1      44.895  29.944  30.798  1.00  0.00     0.049 A 
ATOM     58  H   UNL A   1      44.386  28.072  31.566  1.00  0.00     0.167 HD
ATOM     59  C   UNL A   1      45.355  28.227  29.073  1.00  0.00     0.074 A 
ATOM     60  C   UNL A   1      45.270  26.988  29.834  1.00  0.00     0.031 C 
ATOM     61  C   UNL A   1      45.277  29.529  29.468  1.00  0.00     0.037 A 
BRANCH  48  62
ATOM     62  C   UNL A   1      43.077  27.726  34.211  1.00  0.00     0.064 A 
ATOM     63  C   UNL A   1      43.371  26.473  33.624  1.00  0.00     0.173 A 
ATOM     64  C   UNL A   1      42.884  27.700  35.607  1.00  0.00     0.173 A 
ATOM     65  F   UNL A   1      43.584  26.367  32.304  1.00  0.00    -0.203 F 
ATOM     66  C   UNL A   1      43.363  25.283  34.361  1.00  0.00     0.198 A 
ATOM     67  C   UNL A   1      42.923  26.517  36.347  1.00  0.00     0.198 A 
ATOM     68  F   UNL A   1      42.539  28.787  36.304  1.00  0.00    -0.203 F 
ATOM     69  F   UNL A   1      43.514  24.108  33.734  1.00  0.00    -0.200 F 
ATOM     70  C   UNL A   1      43.125  25.305  35.722  1.00  0.00     0.200 A 
ATOM     71  F   UNL A   1      42.676  26.557  37.665  1.00  0.00    -0.200 F 
ATOM     72  F   UNL A   1      43.047  24.165  36.420  1.00  0.00    -0.200 F 
ENDBRANCH  48  62
BRANCH  49  73
ATOM     73  C   UNL A   1      43.528  25.084  26.101  1.00  0.00     0.064 A 
ATOM     74  C   UNL A   1      44.608  24.918  25.222  1.00  0.00     0.173 A 
ATOM     75  C   UNL A   1      42.725  23.953  26.342  1.00  0.00     0.173 A 
ATOM     76  F   UNL A   1      45.429  25.946  24.961  1.00  0.00    -0.203 F 
ATOM     77  C   UNL A   1      44.901  23.676  24.653  1.00  0.00     0.198 A 
ATOM     78  C   UNL A   1      43.016  22.714  25.770  1.00  0.00     0.198 A 
ATOM     79  F   UNL A   1      41.704  24.012  27.210  1.00  0.00    -0.203 F 
ATOM     80  F   UNL A   1      45.982  23.539  23.873  1.00  0.00    -0.200 F 
ATOM     81  C   UNL A   1      44.115  22.572  24.940  1.00  0.00     0.200 A 
ATOM     82  F   UNL A   1      42.268  21.646  26.080  1.00  0.00    -0.200 F 
ATOM     83  F   UNL A   1      44.439  21.366  24.455  1.00  0.00    -0.200 F 
ENDBRANCH  49  73
BRANCH  61  84
ATOM     84  C   UNL A   1      45.428  30.574  28.410  1.00  0.00     0.064 A 
ATOM     85  C   UNL A   1      44.362  31.163  27.715  1.00  0.00     0.173 A 
ATOM     86  C   UNL A   1      46.720  31.036  28.128  1.00  0.00     0.173 A 
ATOM     87  F   UNL A   1      43.094  30.826  27.983  1.00  0.00    -0.203 F 
ATOM     88  C   UNL A   1      44.585  32.140  26.747  1.00  0.00     0.198 A 
ATOM     89  C   UNL A   1      46.939  32.037  27.189  1.00  0.00     0.198 A 
ATOM     90  F   UNL A   1      47.772  30.534  28.795  1.00  0.00    -0.203 F 
ATOM     91  F   UNL A   1      43.552  32.673  26.077  1.00  0.00    -0.200 F 
ATOM     92  C   UNL A   1      45.873  32.579  26.489  1.00  0.00     0.200 A 
ATOM     93  F   UNL A   1      48.183  32.484  26.972  1.00  0.00    -0.200 F 
ATOM     94  F   UNL A   1      46.088  33.539  25.579  1.00  0.00    -0.200 F 
ENDBRANCH  61  84
ENDBRANCH  35  36
ENDBRANCH  27  30
ENDBRANCH  25  26
ENDBRANCH  24  25
ENDBRANCH   1  24
TORSDOF 14
ENDMDL
MODEL 2
REMARK VINA RESULT:     -12.7      3.611      9.098
REMARK SMILES C[NH2+]CCC(=O)N1Cc2nc[nH]c2C[C@H]1C(=O)NCCCNC(=O)c1ccc(-c2c3nc(c(-c4c(F)c(F)c(F)c(F)c4F)c4ccc([nH]4)c(-c4c(F)c(F)c(F)c(F)c4F)c4nc(c(-c5c(F)c(F)c(F)c(F)c5F)c5ccc2[nH]5)C=C4)C=C3)cc1
REMARK SMILES IDX 19 1 18 2 16 3 17 4 15 6 7 7 8 8 9 9 14 10 10 11 13 12 11 13
REMARK SMILES IDX 12 14 5 16 6 17 4 18 3 19 2 20 1 21 20 24 21 25 22 26 23 27
REMARK SMILES IDX 24 29 25 30 26 31 87 32 27 33 86 34 28 35 29 36 30 37 80 38
REMARK SMILES IDX 31 39 85 40 79 41 81 42 32 43 84 44 78 45 77 46 33 48 65 49
REMARK SMILES IDX 45 50 64 51 46 52 49 53 63 54 82 55 47 56 48 57 62 59 83 60
REMARK SMILES IDX 50 61 34 62 35 63 43 64 36 65 37 66 41 67 44 68 38 69 39 70
REMARK SMILES IDX 42 71 40 72 66 73 67 74 75 75 68 76 69 77 73 78 76 79 70 80
REMARK SMILES IDX 71 81 74 82 72 83 51 84 52 85 60 86 53 87 54 88 58 89 61 90
REMARK SMILES IDX 55 91 56 92 59 93 57 94
REMARK H PARENT 18 5 12 15 2 22 2 23 22 28 81 47 49 58
REMARK Flexibility Score: inf
ROOT
ATOM      1  C   UNL A   1      36.836  21.466  25.534  1.00  0.00     0.117 C 
ENDROOT
BRANCH   1   2
ATOM      2  N   UNL A   1      36.089  22.247  26.504  1.00  0.00    -0.354 N 
ATOM      3  C   UNL A   1      34.856  22.813  26.477  1.00  0.00     0.243 C 
ATOM      4  O   UNL A   1      34.343  22.957  27.597  1.00  0.00    -0.273 OA
ATOM      5  H   UNL A   1      36.573  22.395  27.348  1.00  0.00     0.163 HD
BRANCH   3   6
ATOM      6  C   UNL A   1      34.029  23.193  25.220  1.00  0.00     0.180 C 
ATOM      7  N   UNL A   1      32.700  22.552  24.961  1.00  0.00    -0.324 N 
ATOM      8  C   UNL A   1      31.485  23.146  25.548  1.00  0.00     0.178 C 
ATOM      9  C   UNL A   1      31.644  24.611  25.737  1.00  0.00     0.081 A 
ATOM     10  C   UNL A   1      34.040  24.723  24.938  1.00  0.00     0.091 C 
ATOM     11  N   UNL A   1      30.754  25.412  26.404  1.00  0.00    -0.240 NA
ATOM     12  C   UNL A   1      32.788  25.317  25.448  1.00  0.00     0.042 A 
ATOM     13  C   UNL A   1      31.329  26.595  26.465  1.00  0.00     0.197 A 
ATOM     14  N   UNL A   1      32.557  26.597  25.856  1.00  0.00    -0.348 N 
ATOM     15  H   UNL A   1      33.154  27.370  25.735  1.00  0.00     0.167 HD
BRANCH   7  16
ATOM     16  C   UNL A   1      32.489  21.583  23.987  1.00  0.00     0.229 C 
ATOM     17  O   UNL A   1      31.929  21.851  22.921  1.00  0.00    -0.275 OA
BRANCH  16  18
ATOM     18  C   UNL A   1      32.791  20.131  24.311  1.00  0.00     0.161 C 
BRANCH  18  19
ATOM     19  C   UNL A   1      33.155  19.796  25.757  1.00  0.00     0.270 C 
BRANCH  19  20
ATOM     20  N   UNL A   1      32.802  18.472  26.277  1.00  0.00    -0.348 N 
ATOM     21  C   UNL A   1      32.447  17.484  25.269  1.00  0.00     0.330 C 
ATOM     22  H   UNL A   1      33.602  18.115  26.800  1.00  0.00     0.346 HD
ATOM     23  H   UNL A   1      31.968  18.605  26.849  1.00  0.00     0.346 HD
ENDBRANCH  19  20
ENDBRANCH  18  19
ENDBRANCH  16  18
ENDBRANCH   7  16
ENDBRANCH   3   6
ENDBRANCH   1   2
BRANCH   1  24
ATOM     24  C   UNL A   1      38.212  22.039  25.209  1.00  0.00     0.042 C 
BRANCH  24  25
ATOM     25  C   UNL A   1      39.223  21.825  26.319  1.00  0.00     0.118 C 
BRANCH  25  26
ATOM     26  N   UNL A   1      40.608  21.776  25.837  1.00  0.00    -0.352 N 
ATOM     27  C   UNL A   1      41.578  22.771  25.910  1.00  0.00     0.251 C 
ATOM     28  H   UNL A   1      40.887  20.934  25.410  1.00  0.00     0.163 HD
ATOM     29  O   UNL A   1      42.570  22.760  25.223  1.00  0.00    -0.269 OA
BRANCH  27  30
ATOM     30  C   UNL A   1      41.333  23.858  26.876  1.00  0.00     0.039 A 
ATOM     31  C   UNL A   1      42.039  23.939  28.079  1.00  0.00     0.014 A 
ATOM     32  C   UNL A   1      40.516  24.891  26.439  1.00  0.00     0.014 A 
ATOM     33  C   UNL A   1      42.016  25.143  28.782  1.00  0.00     0.010 A 
ATOM     34  C   UNL A   1      40.669  26.121  27.017  1.00  0.00     0.010 A 
ATOM     35  C   UNL A   1      41.363  26.248  28.219  1.00  0.00    -0.014 A 
BRANCH  35  36
ATOM     36  C   UNL A   1      41.476  27.587  28.795  1.00  0.00     0.031 A 
ATOM     37  C   UNL A   1      42.644  28.384  28.325  1.00  0.00     0.074 A 
ATOM     38  C   UNL A   1      40.459  28.156  29.481  1.00  0.00     0.049 A 
ATOM     39  N   UNL A   1      43.656  28.787  29.018  1.00  0.00    -0.248 NA
ATOM     40  C   UNL A   1      42.759  28.683  26.887  1.00  0.00     0.031 C 
ATOM     41  C   UNL A   1      39.118  27.594  29.713  1.00  0.00     0.029 A 
ATOM     42  N   UNL A   1      40.349  29.407  30.012  1.00  0.00    -0.354 N 
ATOM     43  C   UNL A   1      44.418  29.582  28.160  1.00  0.00     0.074 A 
ATOM     44  C   UNL A   1      43.938  29.311  26.833  1.00  0.00     0.031 C 
ATOM     45  C   UNL A   1      38.271  28.571  30.091  1.00  0.00     0.029 A 
ATOM     46  C   UNL A   1      39.049  29.766  30.347  1.00  0.00     0.049 A 
ATOM     47  H   UNL A   1      41.122  30.002  30.147  1.00  0.00     0.167 HD
ATOM     48  C   UNL A   1      45.155  30.618  28.659  1.00  0.00     0.037 A 
ATOM     49  C   UNL A   1      38.619  30.952  30.832  1.00  0.00     0.037 A 
ATOM     50  C   UNL A   1      45.228  30.530  30.096  1.00  0.00     0.049 A 
ATOM     51  C   UNL A   1      39.786  31.639  31.422  1.00  0.00     0.074 A 
ATOM     52  C   UNL A   1      45.923  29.798  31.031  1.00  0.00     0.029 A 
ATOM     53  N   UNL A   1      44.155  31.094  30.731  1.00  0.00    -0.354 N 
ATOM     54  N   UNL A   1      40.408  31.208  32.485  1.00  0.00    -0.248 NA
ATOM     55  C   UNL A   1      40.501  32.639  30.638  1.00  0.00     0.031 C 
ATOM     56  C   UNL A   1      45.134  29.820  32.222  1.00  0.00     0.029 A 
ATOM     57  C   UNL A   1      43.997  30.590  31.991  1.00  0.00     0.049 A 
ATOM     58  H   UNL A   1      43.570  31.777  30.330  1.00  0.00     0.167 HD
ATOM     59  C   UNL A   1      41.727  31.544  32.260  1.00  0.00     0.074 A 
ATOM     60  C   UNL A   1      41.697  32.573  31.230  1.00  0.00     0.031 C 
ATOM     61  C   UNL A   1      42.730  30.719  32.672  1.00  0.00     0.037 A 
BRANCH  48  62
ATOM     62  C   UNL A   1      45.384  31.964  27.983  1.00  0.00     0.064 A 
ATOM     63  C   UNL A   1      44.254  32.745  27.643  1.00  0.00     0.173 A 
ATOM     64  C   UNL A   1      46.588  32.356  27.364  1.00  0.00     0.173 A 
ATOM     65  F   UNL A   1      43.051  32.478  28.173  1.00  0.00    -0.203 F 
ATOM     66  C   UNL A   1      44.311  33.760  26.681  1.00  0.00     0.198 A 
ATOM     67  C   UNL A   1      46.650  33.400  26.439  1.00  0.00     0.198 A 
ATOM     68  F   UNL A   1      47.732  31.686  27.531  1.00  0.00    -0.203 F 
ATOM     69  F   UNL A   1      43.185  34.378  26.297  1.00  0.00    -0.200 F 
ATOM     70  C   UNL A   1      45.507  34.077  26.070  1.00  0.00     0.200 A 
ATOM     71  F   UNL A   1      47.819  33.685  25.846  1.00  0.00    -0.200 F 
ATOM     72  F   UNL A   1      45.555  34.999  25.099  1.00  0.00    -0.200 F 
ENDBRANCH  48  62
BRANCH  49  73
ATOM     73  C   UNL A   1      37.296  31.592  30.706  1.00  0.00     0.064 A 
ATOM     74  C   UNL A   1      36.402  31.629  31.785  1.00  0.00     0.173 A 
ATOM     75  C   UNL A   1      37.002  32.423  29.608  1.00  0.00     0.173 A 
ATOM     76  F   UNL A   1      36.630  30.881  32.875  1.00  0.00    -0.203 F 
ATOM     77  C   UNL A   1      35.299  32.486  31.789  1.00  0.00     0.198 A 
ATOM     78  C   UNL A   1      35.897  33.276  29.611  1.00  0.00     0.198 A 
ATOM     79  F   UNL A   1      37.833  32.487  28.557  1.00  0.00    -0.203 F 
ATOM     80  F   UNL A   1      34.505  32.546  32.867  1.00  0.00    -0.200 F 
ATOM     81  C   UNL A   1      35.057  33.320  30.710  1.00  0.00     0.200 A 
ATOM     82  F   UNL A   1      35.691  34.100  28.575  1.00  0.00    -0.200 F 
ATOM     83  F   UNL A   1      34.043  34.195  30.744  1.00  0.00    -0.200 F 
ENDBRANCH  49  73
BRANCH  61  84
ATOM     84  C   UNL A   1      42.421  29.775  33.791  1.00  0.00     0.064 A 
ATOM     85  C   UNL A   1      41.947  28.466  33.619  1.00  0.00     0.173 A 
ATOM     86  C   UNL A   1      42.673  30.208  35.098  1.00  0.00     0.173 A 
ATOM     87  F   UNL A   1      41.754  27.957  32.396  1.00  0.00    -0.203 F 
ATOM     88  C   UNL A   1      41.692  27.643  34.714  1.00  0.00     0.198 A 
ATOM     89  C   UNL A   1      42.452  29.374  36.189  1.00  0.00     0.198 A 
ATOM     90  F   UNL A   1      43.166  31.438  35.315  1.00  0.00    -0.203 F 
ATOM     91  F   UNL A   1      41.215  26.403  34.529  1.00  0.00    -0.200 F 
ATOM     92  C   UNL A   1      41.950  28.097  35.997  1.00  0.00     0.200 A 
ATOM     93  F   UNL A   1      42.740  29.805  37.424  1.00  0.00    -0.200 F 
ATOM     94  F   UNL A   1      41.732  27.298  37.051  1.00  0.00    -0.200 F 
ENDBRANCH  61  84
ENDBRANCH  35  36
ENDBRANCH  27  30
ENDBRANCH  25  26
ENDBRANCH  24  25
ENDBRANCH   1  24
TORSDOF 14
ENDMDL
MODEL 3
REMARK VINA RESULT:     -12.6      1.779      6.947
REMARK SMILES C[NH2+]CCC(=O)N1Cc2nc[nH]c2C[C@H]1C(=O)NCCCNC(=O)c1ccc(-c2c3nc(c(-c4c(F)c(F)c(F)c(F)c4F)c4ccc([nH]4)c(-c4c(F)c(F)c(F)c(F)c4F)c4nc(c(-c5c(F)c(F)c(F)c(F)c5F)c5ccc2[nH]5)C=C4)C=C3)cc1
REMARK SMILES IDX 19 1 18 2 16 3 17 4 15 6 7 7 8 8 9 9 14 10 10 11 13 12 11 13
REMARK SMILES IDX 12 14 5 16 6 17 4 18 3 19 2 20 1 21 20 24 21 25 22 26 23 27
REMARK SMILES IDX 24 29 25 30 26 31 87 32 27 33 86 34 28 35 29 36 30 37 80 38
REMARK SMILES IDX 31 39 85 40 79 41 81 42 32 43 84 44 78 45 77 46 33 48 65 49
REMARK SMILES IDX 45 50 64 51 46 52 49 53 63 54 82 55 47 56 48 57 62 59 83 60
REMARK SMILES IDX 50 61 34 62 35 63 43 64 36 65 37 66 41 67 44 68 38 69 39 70
REMARK SMILES IDX 42 71 40 72 66 73 67 74 75 75 68 76 69 77 73 78 76 79 70 80
REMARK SMILES IDX 71 81 74 82 72 83 51 84 52 85 60 86 53 87 54 88 58 89 61 90
REMARK SMILES IDX 55 91 56 92 59 93 57 94
REMARK H PARENT 18 5 12 15 2 22 2 23 22 28 81 47 49 58
REMARK Flexibility Score: inf
ROOT
ATOM      1  C   UNL A   1      33.045  28.584  25.661  1.00  0.00     0.117 C 
ENDROOT
BRANCH   1   2
ATOM      2  N   UNL A   1      32.075  27.722  26.313  1.00  0.00    -0.354 N 
ATOM      3  C   UNL A   1      31.162  26.840  25.839  1.00  0.00     0.243 C 
ATOM      4  O   UNL A   1      30.870  25.936  26.637  1.00  0.00    -0.273 OA
ATOM      5  H   UNL A   1      32.084  27.792  27.295  1.00  0.00     0.163 HD
BRANCH   3   6
ATOM      6  C   UNL A   1      30.544  26.808  24.415  1.00  0.00     0.180 C 
ATOM      7  N   UNL A   1      31.017  27.761  23.360  1.00  0.00    -0.324 N 
ATOM      8  C   UNL A   1      32.173  27.395  22.521  1.00  0.00     0.178 C 
ATOM      9  C   UNL A   1      32.282  25.921  22.375  1.00  0.00     0.081 A 
ATOM     10  C   UNL A   1      30.335  25.359  23.887  1.00  0.00     0.091 C 
ATOM     11  N   UNL A   1      33.338  25.273  21.790  1.00  0.00    -0.240 NA
ATOM     12  C   UNL A   1      31.446  25.012  22.978  1.00  0.00     0.042 A 
ATOM     13  C   UNL A   1      33.111  23.991  21.988  1.00  0.00     0.197 A 
ATOM     14  N   UNL A   1      31.943  23.780  22.674  1.00  0.00    -0.348 N 
ATOM     15  H   UNL A   1      31.542  22.910  22.901  1.00  0.00     0.167 HD
BRANCH   7  16
ATOM     16  C   UNL A   1      30.281  28.860  22.930  1.00  0.00     0.229 C 
ATOM     17  O   UNL A   1      29.899  28.964  21.762  1.00  0.00    -0.275 OA
BRANCH  16  18
ATOM     18  C   UNL A   1      30.098  30.040  23.868  1.00  0.00     0.161 C 
BRANCH  18  19
ATOM     19  C   UNL A   1      28.977  31.026  23.541  1.00  0.00     0.270 C 
BRANCH  19  20
ATOM     20  N   UNL A   1      29.262  32.122  22.609  1.00  0.00    -0.348 N 
ATOM     21  C   UNL A   1      29.003  33.458  23.125  1.00  0.00     0.330 C 
ATOM     22  H   UNL A   1      30.248  32.069  22.352  1.00  0.00     0.346 HD
ATOM     23  H   UNL A   1      28.628  31.995  21.820  1.00  0.00     0.346 HD
ENDBRANCH  19  20
ENDBRANCH  18  19
ENDBRANCH  16  18
ENDBRANCH   7  16
ENDBRANCH   3   6
ENDBRANCH   1   2
BRANCH   1  24
ATOM     24  C   UNL A   1      33.550  29.723  26.542  1.00  0.00     0.042 C 
BRANCH  24  25
ATOM     25  C   UNL A   1      34.773  29.347  27.356  1.00  0.00     0.118 C 
BRANCH  25  26
ATOM     26  N   UNL A   1      35.078  30.312  28.419  1.00  0.00    -0.352 N 
ATOM     27  C   UNL A   1      36.174  30.326  29.276  1.00  0.00     0.251 C 
ATOM     28  H   UNL A   1      34.427  31.041  28.540  1.00  0.00     0.163 HD
ATOM     29  O   UNL A   1      36.184  30.959  30.304  1.00  0.00    -0.269 OA
BRANCH  27  30
ATOM     30  C   UNL A   1      37.338  29.518  28.869  1.00  0.00     0.039 A 
ATOM     31  C   UNL A   1      38.068  29.817  27.717  1.00  0.00     0.014 A 
ATOM     32  C   UNL A   1      37.780  28.578  29.790  1.00  0.00     0.014 A 
ATOM     33  C   UNL A   1      39.332  29.247  27.565  1.00  0.00     0.010 A 
ATOM     34  C   UNL A   1      39.092  28.195  29.739  1.00  0.00     0.010 A 
ATOM     35  C   UNL A   1      39.857  28.469  28.606  1.00  0.00    -0.014 A 
BRANCH  35  36
ATOM     36  C   UNL A   1      41.248  28.018  28.606  1.00  0.00     0.031 A 
ATOM     37  C   UNL A   1      41.521  26.802  27.790  1.00  0.00     0.074 A 
ATOM     38  C   UNL A   1      42.249  28.796  29.078  1.00  0.00     0.049 A 
ATOM     39  N   UNL A   1      41.902  25.640  28.207  1.00  0.00    -0.248 NA
ATOM     40  C   UNL A   1      41.237  26.843  26.346  1.00  0.00     0.031 C 
ATOM     41  C   UNL A   1      42.141  30.170  29.593  1.00  0.00     0.029 A 
ATOM     42  N   UNL A   1      43.596  28.584  29.084  1.00  0.00    -0.354 N 
ATOM     43  C   UNL A   1      42.126  24.874  27.062  1.00  0.00     0.074 A 
ATOM     44  C   UNL A   1      41.507  25.587  25.979  1.00  0.00     0.031 C 
ATOM     45  C   UNL A   1      43.357  30.749  29.612  1.00  0.00     0.029 A 
ATOM     46  C   UNL A   1      44.346  29.728  29.333  1.00  0.00     0.049 A 
ATOM     47  H   UNL A   1      44.001  27.700  28.928  1.00  0.00     0.167 HD
ATOM     48  C   UNL A   1      43.069  23.887  27.071  1.00  0.00     0.037 A 
ATOM     49  C   UNL A   1      45.692  29.846  29.343  1.00  0.00     0.037 A 
ATOM     50  C   UNL A   1      43.500  23.622  28.420  1.00  0.00     0.049 A 
ATOM     51  C   UNL A   1      46.255  28.496  29.545  1.00  0.00     0.074 A 
ATOM     52  C   UNL A   1      43.021  22.951  29.522  1.00  0.00     0.029 A 
ATOM     53  N   UNL A   1      44.492  24.462  28.851  1.00  0.00    -0.354 N 
ATOM     54  N   UNL A   1      46.111  27.819  30.651  1.00  0.00    -0.248 NA
ATOM     55  C   UNL A   1      46.702  27.725  28.390  1.00  0.00     0.031 C 
ATOM     56  C   UNL A   1      43.661  23.537  30.657  1.00  0.00     0.029 A 
ATOM     57  C   UNL A   1      44.536  24.527  30.215  1.00  0.00     0.049 A 
ATOM     58  H   UNL A   1      45.096  24.957  28.252  1.00  0.00     0.167 HD
ATOM     59  C   UNL A   1      46.023  26.507  30.231  1.00  0.00     0.074 A 
ATOM     60  C   UNL A   1      46.580  26.491  28.886  1.00  0.00     0.031 C 
ATOM     61  C   UNL A   1      45.197  25.631  30.869  1.00  0.00     0.037 A 
BRANCH  48  62
ATOM     62  C   UNL A   1      43.981  23.506  25.911  1.00  0.00     0.064 A 
ATOM     63  C   UNL A   1      43.991  22.159  25.479  1.00  0.00     0.173 A 
ATOM     64  C   UNL A   1      45.058  24.289  25.448  1.00  0.00     0.173 A 
ATOM     65  F   UNL A   1      43.016  21.315  25.845  1.00  0.00    -0.203 F 
ATOM     66  C   UNL A   1      45.049  21.621  24.738  1.00  0.00     0.198 A 
ATOM     67  C   UNL A   1      46.089  23.759  24.669  1.00  0.00     0.198 A 
ATOM     68  F   UNL A   1      45.229  25.563  25.814  1.00  0.00    -0.203 F 
ATOM     69  F   UNL A   1      45.076  20.308  24.470  1.00  0.00    -0.200 F 
ATOM     70  C   UNL A   1      46.105  22.419  24.345  1.00  0.00     0.200 A 
ATOM     71  F   UNL A   1      47.113  24.548  24.308  1.00  0.00    -0.200 F 
ATOM     72  F   UNL A   1      47.153  21.896  23.697  1.00  0.00    -0.200 F 
ENDBRANCH  48  62
BRANCH  49  73
ATOM     73  C   UNL A   1      46.531  31.026  29.060  1.00  0.00     0.064 A 
ATOM     74  C   UNL A   1      47.376  31.568  30.038  1.00  0.00     0.173 A 
ATOM     75  C   UNL A   1      46.724  31.469  27.737  1.00  0.00     0.173 A 
ATOM     76  F   UNL A   1      47.265  31.176  31.316  1.00  0.00    -0.203 F 
ATOM     77  C   UNL A   1      48.392  32.467  29.708  1.00  0.00     0.198 A 
ATOM     78  C   UNL A   1      47.737  32.371  27.408  1.00  0.00     0.198 A 
ATOM     79  F   UNL A   1      45.994  30.963  26.733  1.00  0.00    -0.203 F 
ATOM     80  F   UNL A   1      49.226  32.910  30.659  1.00  0.00    -0.200 F 
ATOM     81  C   UNL A   1      48.583  32.855  28.392  1.00  0.00     0.200 A 
ATOM     82  F   UNL A   1      47.932  32.714  26.128  1.00  0.00    -0.200 F 
ATOM     83  F   UNL A   1      49.604  33.658  28.063  1.00  0.00    -0.200 F 
ENDBRANCH  49  73
BRANCH  61  84
ATOM     84  C   UNL A   1      44.829  25.948  32.284  1.00  0.00     0.064 A 
ATOM     85  C   UNL A   1      43.681  26.656  32.668  1.00  0.00     0.173 A 
ATOM     86  C   UNL A   1      45.659  25.458  33.300  1.00  0.00     0.173 A 
ATOM     87  F   UNL A   1      42.801  27.090  31.757  1.00  0.00    -0.203 F 
ATOM     88  C   UNL A   1      43.402  26.902  34.011  1.00  0.00     0.198 A 
ATOM     89  C   UNL A   1      45.361  25.673  34.640  1.00  0.00     0.198 A 
ATOM     90  F   UNL A   1      46.749  24.738  32.987  1.00  0.00    -0.203 F 
ATOM     91  F   UNL A   1      42.311  27.603  34.355  1.00  0.00    -0.200 F 
ATOM     92  C   UNL A   1      44.240  26.406  34.995  1.00  0.00     0.200 A 
ATOM     93  F   UNL A   1      46.155  25.157  35.588  1.00  0.00    -0.200 F 
ATOM     94  F   UNL A   1      43.960  26.616  36.288  1.00  0.00    -0.200 F 
ENDBRANCH  61  84
ENDBRANCH  35  36
ENDBRANCH  27  30
ENDBRANCH  25  26
ENDBRANCH  24  25
ENDBRANCH   1  24
TORSDOF 14
ENDMDL
