MODEL 1
REMARK VINA RESULT:     -14.5      0.000      0.000
REMARK SMILES Cc1ccc2oc(-c3ccc4c(c3)OCO4)c/c(=N\[C@H](C)C(=O)NCCCNC(=O)c3ccc(-c4c5nc(c(-c6c(F)c(F)c(F)c(F)c6F)c6ccc([nH]6)c(-c6c(F)c(F)c(F)c(F)c6F)c6nc(c(-c7c(F)c(F)c(F)c(F)c7F)c7ccc4[nH]7)C=C6)C=C5)cc3)c2c1
REMARK SMILES IDX 26 1 25 2 24 3 22 4 23 5 20 7 21 8 19 9 1 10 2 11 3 12 95 13
REMARK SMILES IDX 4 14 94 15 5 16 18 17 6 18 17 19 7 20 8 21 9 22 13 23 10 24
REMARK SMILES IDX 12 25 11 26 14 27 16 28 15 29 27 30 28 31 29 32 30 34 31 35
REMARK SMILES IDX 32 36 93 37 33 38 92 39 34 40 35 41 36 42 86 43 37 44 91 45
REMARK SMILES IDX 85 46 87 47 38 48 90 49 84 50 83 51 39 53 71 54 51 55 70 56
REMARK SMILES IDX 52 57 55 58 69 59 88 60 53 61 54 62 68 64 89 65 56 66 40 67
REMARK SMILES IDX 41 68 49 69 42 70 43 71 47 72 50 73 44 74 45 75 48 76 46 77
REMARK SMILES IDX 72 78 73 79 81 80 74 81 75 82 79 83 82 84 76 85 77 86 80 87
REMARK SMILES IDX 78 88 57 89 58 90 66 91 59 92 60 93 64 94 67 95 61 96 62 97
REMARK SMILES IDX 65 98 63 99
REMARK H PARENT 24 6 28 33 87 52 55 63
REMARK Flexibility Score: inf
ROOT
ATOM      1  C   UNL A   1      38.368  19.654  25.001  1.00  0.00     0.042 C 
ENDROOT
BRANCH   1   2
ATOM      2  C   UNL A   1      37.270  20.708  24.978  1.00  0.00     0.117 C 
BRANCH   2   3
ATOM      3  N   UNL A   1      37.675  21.962  25.578  1.00  0.00    -0.354 N 
ATOM      4  C   UNL A   1      37.221  23.237  25.414  1.00  0.00     0.244 C 
ATOM      5  O   UNL A   1      37.696  24.078  26.188  1.00  0.00    -0.273 OA
ATOM      6  H   UNL A   1      38.412  21.878  26.225  1.00  0.00     0.163 HD
BRANCH   4   7
ATOM      7  C   UNL A   1      36.296  23.690  24.267  1.00  0.00     0.191 C 
ATOM      8  C   UNL A   1      36.662  22.953  22.994  1.00  0.00     0.044 C 
BRANCH   7   9
ATOM      9  N   UNL A   1      34.888  23.763  24.670  1.00  0.00    -0.271 NA
ATOM     10  C   UNL A   1      30.652  26.475  25.980  1.00  0.00     0.044 C 
ATOM     11  C   UNL A   1      31.060  25.030  25.945  1.00  0.00    -0.050 A 
ATOM     12  C   UNL A   1      30.217  24.056  26.498  1.00  0.00     0.007 A 
ATOM     13  C   UNL A   1      32.292  24.642  25.398  1.00  0.00     0.017 A 
ATOM     14  C   UNL A   1      30.595  22.712  26.499  1.00  0.00     0.048 A 
ATOM     15  C   UNL A   1      32.669  23.292  25.391  1.00  0.00     0.043 A 
ATOM     16  C   UNL A   1      31.817  22.331  25.945  1.00  0.00     0.136 A 
ATOM     17  C   UNL A   1      34.001  22.866  24.864  1.00  0.00     0.073 A 
ATOM     18  O   UNL A   1      32.127  20.994  25.989  1.00  0.00    -0.456 OA
ATOM     19  C   UNL A   1      34.136  21.405  24.717  1.00  0.00     0.076 A 
ATOM     20  C   UNL A   1      33.240  20.592  25.289  1.00  0.00     0.136 A 
BRANCH  20  21
ATOM     21  C   UNL A   1      33.417  19.148  25.138  1.00  0.00     0.021 A 
ATOM     22  C   UNL A   1      34.382  18.619  24.251  1.00  0.00     0.016 A 
ATOM     23  C   UNL A   1      32.528  18.293  25.803  1.00  0.00     0.062 A 
ATOM     24  C   UNL A   1      34.455  17.243  24.014  1.00  0.00     0.051 A 
ATOM     25  C   UNL A   1      32.639  16.944  25.565  1.00  0.00     0.166 A 
ATOM     26  C   UNL A   1      33.573  16.432  24.693  1.00  0.00     0.165 A 
ATOM     27  O   UNL A   1      31.867  15.977  26.126  1.00  0.00    -0.454 OA
ATOM     28  O   UNL A   1      33.506  15.077  24.606  1.00  0.00    -0.454 OA
ATOM     29  C   UNL A   1      32.516  14.793  25.618  1.00  0.00     0.468 C 
ENDBRANCH  20  21
ENDBRANCH   7   9
ENDBRANCH   4   7
ENDBRANCH   2   3
ENDBRANCH   1   2
BRANCH   1  30
ATOM     30  C   UNL A   1      39.466  19.963  26.010  1.00  0.00     0.118 C 
BRANCH  30  31
ATOM     31  N   UNL A   1      40.554  18.988  25.955  1.00  0.00    -0.352 N 
ATOM     32  C   UNL A   1      41.914  19.155  26.021  1.00  0.00     0.251 C 
ATOM     33  H   UNL A   1      40.260  18.054  25.854  1.00  0.00     0.163 HD
ATOM     34  O   UNL A   1      42.653  18.206  25.751  1.00  0.00    -0.269 OA
BRANCH  32  35
ATOM     35  C   UNL A   1      42.508  20.461  26.383  1.00  0.00     0.039 A 
ATOM     36  C   UNL A   1      42.575  20.878  27.710  1.00  0.00     0.014 A 
ATOM     37  C   UNL A   1      43.022  21.284  25.374  1.00  0.00     0.014 A 
ATOM     38  C   UNL A   1      42.952  22.182  28.006  1.00  0.00     0.010 A 
ATOM     39  C   UNL A   1      43.517  22.554  25.689  1.00  0.00     0.010 A 
ATOM     40  C   UNL A   1      43.425  23.041  27.000  1.00  0.00    -0.014 A 
BRANCH  40  41
ATOM     41  C   UNL A   1      43.783  24.440  27.360  1.00  0.00     0.031 A 
ATOM     42  C   UNL A   1      45.164  24.975  27.092  1.00  0.00     0.074 A 
ATOM     43  C   UNL A   1      42.826  25.263  27.833  1.00  0.00     0.049 A 
ATOM     44  N   UNL A   1      45.618  26.197  27.230  1.00  0.00    -0.248 NA
ATOM     45  C   UNL A   1      46.173  24.017  26.613  1.00  0.00     0.031 C 
ATOM     46  C   UNL A   1      41.450  24.864  28.130  1.00  0.00     0.029 A 
ATOM     47  N   UNL A   1      42.845  26.610  28.097  1.00  0.00    -0.354 N 
ATOM     48  C   UNL A   1      46.956  26.151  26.861  1.00  0.00     0.074 A 
ATOM     49  C   UNL A   1      47.259  24.772  26.549  1.00  0.00     0.031 C 
ATOM     50  C   UNL A   1      40.735  25.953  28.445  1.00  0.00     0.029 A 
ATOM     51  C   UNL A   1      41.615  27.117  28.442  1.00  0.00     0.049 A 
ATOM     52  H   UNL A   1      43.660  27.160  28.044  1.00  0.00     0.167 HD
ATOM     53  C   UNL A   1      47.845  27.168  26.762  1.00  0.00     0.037 A 
ATOM     54  C   UNL A   1      41.234  28.378  28.725  1.00  0.00     0.037 A 
ATOM     55  C   UNL A   1      47.537  28.543  27.059  1.00  0.00     0.049 A 
ATOM     56  C   UNL A   1      42.255  29.479  28.681  1.00  0.00     0.074 A 
ATOM     57  C   UNL A   1      48.361  29.650  26.969  1.00  0.00     0.029 A 
ATOM     58  N   UNL A   1      46.304  28.997  27.508  1.00  0.00    -0.354 N 
ATOM     59  N   UNL A   1      43.508  29.426  28.300  1.00  0.00    -0.248 NA
ATOM     60  C   UNL A   1      41.816  30.809  29.126  1.00  0.00     0.031 C 
ATOM     61  C   UNL A   1      47.645  30.765  27.413  1.00  0.00     0.029 A 
ATOM     62  C   UNL A   1      46.358  30.362  27.736  1.00  0.00     0.049 A 
ATOM     63  H   UNL A   1      45.509  28.433  27.644  1.00  0.00     0.167 HD
ATOM     64  C   UNL A   1      44.009  30.710  28.458  1.00  0.00     0.074 A 
ATOM     65  C   UNL A   1      42.916  31.529  28.944  1.00  0.00     0.031 C 
ATOM     66  C   UNL A   1      45.265  31.163  28.231  1.00  0.00     0.037 A 
BRANCH  53  67
ATOM     67  C   UNL A   1      49.241  26.830  26.318  1.00  0.00     0.064 A 
ATOM     68  C   UNL A   1      50.209  26.368  27.224  1.00  0.00     0.173 A 
ATOM     69  C   UNL A   1      49.609  26.943  24.969  1.00  0.00     0.173 A 
ATOM     70  F   UNL A   1      49.911  26.247  28.527  1.00  0.00    -0.203 F 
ATOM     71  C   UNL A   1      51.502  26.068  26.803  1.00  0.00     0.198 A 
ATOM     72  C   UNL A   1      50.894  26.612  24.545  1.00  0.00     0.198 A 
ATOM     73  F   UNL A   1      48.721  27.370  24.058  1.00  0.00    -0.203 F 
ATOM     74  F   UNL A   1      52.426  25.679  27.694  1.00  0.00    -0.200 F 
ATOM     75  C   UNL A   1      51.841  26.185  25.463  1.00  0.00     0.200 A 
ATOM     76  F   UNL A   1      51.215  26.708  23.247  1.00  0.00    -0.200 F 
ATOM     77  F   UNL A   1      53.084  25.891  25.057  1.00  0.00    -0.200 F 
ENDBRANCH  53  67
BRANCH  54  78
ATOM     78  C   UNL A   1      39.810  28.653  29.048  1.00  0.00     0.064 A 
ATOM     79  C   UNL A   1      39.325  28.486  30.352  1.00  0.00     0.173 A 
ATOM     80  C   UNL A   1      38.923  29.148  28.080  1.00  0.00     0.173 A 
ATOM     81  F   UNL A   1      40.130  27.998  31.308  1.00  0.00    -0.203 F 
ATOM     82  C   UNL A   1      38.009  28.812  30.678  1.00  0.00     0.198 A 
ATOM     83  C   UNL A   1      37.617  29.499  28.413  1.00  0.00     0.198 A 
ATOM     84  F   UNL A   1      39.339  29.328  26.818  1.00  0.00    -0.203 F 
ATOM     85  F   UNL A   1      37.565  28.627  31.928  1.00  0.00    -0.200 F 
ATOM     86  C   UNL A   1      37.160  29.329  29.711  1.00  0.00     0.200 A 
ATOM     87  F   UNL A   1      36.806  30.018  27.479  1.00  0.00    -0.200 F 
ATOM     88  F   UNL A   1      35.904  29.667  30.030  1.00  0.00    -0.200 F 
ENDBRANCH  54  78
BRANCH  66  89
ATOM     89  C   UNL A   1      45.551  32.607  28.522  1.00  0.00     0.064 A 
ATOM     90  C   UNL A   1      45.319  33.599  27.559  1.00  0.00     0.173 A 
ATOM     91  C   UNL A   1      45.952  33.014  29.803  1.00  0.00     0.173 A 
ATOM     92  F   UNL A   1      44.950  33.257  26.314  1.00  0.00    -0.203 F 
ATOM     93  C   UNL A   1      45.474  34.947  27.868  1.00  0.00     0.198 A 
ATOM     94  C   UNL A   1      46.079  34.365  30.118  1.00  0.00     0.198 A 
ATOM     95  F   UNL A   1      46.181  32.104  30.762  1.00  0.00    -0.203 F 
ATOM     96  F   UNL A   1      45.263  35.877  26.926  1.00  0.00    -0.200 F 
ATOM     97  C   UNL A   1      45.840  35.329  29.150  1.00  0.00     0.200 A 
ATOM     98  F   UNL A   1      46.415  34.733  31.361  1.00  0.00    -0.200 F 
ATOM     99  F   UNL A   1      45.959  36.629  29.455  1.00  0.00    -0.200 F 
ENDBRANCH  66  89
ENDBRANCH  40  41
ENDBRANCH  32  35
ENDBRANCH  30  31
ENDBRANCH   1  30
TORSDOF 12
ENDMDL
MODEL 2
REMARK VINA RESULT:     -14.4      0.514      7.175
REMARK SMILES Cc1ccc2oc(-c3ccc4c(c3)OCO4)c/c(=N\[C@H](C)C(=O)NCCCNC(=O)c3ccc(-c4c5nc(c(-c6c(F)c(F)c(F)c(F)c6F)c6ccc([nH]6)c(-c6c(F)c(F)c(F)c(F)c6F)c6nc(c(-c7c(F)c(F)c(F)c(F)c7F)c7ccc4[nH]7)C=C6)C=C5)cc3)c2c1
REMARK SMILES IDX 26 1 25 2 24 3 22 4 23 5 20 7 21 8 19 9 1 10 2 11 3 12 95 13
REMARK SMILES IDX 4 14 94 15 5 16 18 17 6 18 17 19 7 20 8 21 9 22 13 23 10 24
REMARK SMILES IDX 12 25 11 26 14 27 16 28 15 29 27 30 28 31 29 32 30 34 31 35
REMARK SMILES IDX 32 36 93 37 33 38 92 39 34 40 35 41 36 42 86 43 37 44 91 45
REMARK SMILES IDX 85 46 87 47 38 48 90 49 84 50 83 51 39 53 71 54 51 55 70 56
REMARK SMILES IDX 52 57 55 58 69 59 88 60 53 61 54 62 68 64 89 65 56 66 40 67
REMARK SMILES IDX 41 68 49 69 42 70 43 71 47 72 50 73 44 74 45 75 48 76 46 77
REMARK SMILES IDX 72 78 73 79 81 80 74 81 75 82 79 83 82 84 76 85 77 86 80 87
REMARK SMILES IDX 78 88 57 89 58 90 66 91 59 92 60 93 64 94 67 95 61 96 62 97
REMARK SMILES IDX 65 98 63 99
REMARK H PARENT 24 6 28 33 87 52 55 63
REMARK Flexibility Score: inf
ROOT
ATOM      1  C   UNL A   1      38.473  19.653  25.106  1.00  0.00     0.042 C 
ENDROOT
BRANCH   1   2
ATOM      2  C   UNL A   1      37.376  20.704  24.995  1.00  0.00     0.117 C 
BRANCH   2   3
ATOM      3  N   UNL A   1      37.713  21.947  25.656  1.00  0.00    -0.354 N 
ATOM      4  C   UNL A   1      37.228  23.213  25.513  1.00  0.00     0.244 C 
ATOM      5  O   UNL A   1      37.639  24.040  26.337  1.00  0.00    -0.273 OA
ATOM      6  H   UNL A   1      38.421  21.862  26.335  1.00  0.00     0.163 HD
BRANCH   4   7
ATOM      7  C   UNL A   1      36.345  23.678  24.339  1.00  0.00     0.191 C 
ATOM      8  C   UNL A   1      36.749  22.947  23.074  1.00  0.00     0.044 C 
BRANCH   7   9
ATOM      9  N   UNL A   1      34.925  23.757  24.693  1.00  0.00    -0.271 NA
ATOM     10  C   UNL A   1      30.655  26.486  25.852  1.00  0.00     0.044 C 
ATOM     11  C   UNL A   1      31.059  25.040  25.835  1.00  0.00    -0.050 A 
ATOM     12  C   UNL A   1      30.196  24.070  26.363  1.00  0.00     0.007 A 
ATOM     13  C   UNL A   1      32.308  24.646  25.332  1.00  0.00     0.017 A 
ATOM     14  C   UNL A   1      30.570  22.725  26.383  1.00  0.00     0.048 A 
ATOM     15  C   UNL A   1      32.681  23.295  25.342  1.00  0.00     0.043 A 
ATOM     16  C   UNL A   1      31.808  22.339  25.870  1.00  0.00     0.136 A 
ATOM     17  C   UNL A   1      34.028  22.863  24.861  1.00  0.00     0.073 A 
ATOM     18  O   UNL A   1      32.113  21.000  25.929  1.00  0.00    -0.456 OA
ATOM     19  C   UNL A   1      34.164  21.401  24.724  1.00  0.00     0.076 A 
ATOM     20  C   UNL A   1      33.247  20.592  25.269  1.00  0.00     0.136 A 
BRANCH  20  21
ATOM     21  C   UNL A   1      33.425  19.147  25.129  1.00  0.00     0.021 A 
ATOM     22  C   UNL A   1      34.397  18.613  24.253  1.00  0.00     0.016 A 
ATOM     23  C   UNL A   1      32.530  18.297  25.793  1.00  0.00     0.062 A 
ATOM     24  C   UNL A   1      34.470  17.235  24.026  1.00  0.00     0.051 A 
ATOM     25  C   UNL A   1      32.642  16.947  25.564  1.00  0.00     0.166 A 
ATOM     26  C   UNL A   1      33.583  16.429  24.703  1.00  0.00     0.165 A 
ATOM     27  O   UNL A   1      31.865  15.984  26.125  1.00  0.00    -0.454 OA
ATOM     28  O   UNL A   1      33.516  15.074  24.624  1.00  0.00    -0.454 OA
ATOM     29  C   UNL A   1      32.518  14.796  25.631  1.00  0.00     0.468 C 
ENDBRANCH  20  21
ENDBRANCH   7   9
ENDBRANCH   4   7
ENDBRANCH   2   3
ENDBRANCH   1   2
BRANCH   1  30
ATOM     30  C   UNL A   1      39.544  20.020  26.124  1.00  0.00     0.118 C 
BRANCH  30  31
ATOM     31  N   UNL A   1      40.644  19.057  26.136  1.00  0.00    -0.352 N 
ATOM     32  C   UNL A   1      42.003  19.244  26.100  1.00  0.00     0.251 C 
ATOM     33  H   UNL A   1      40.362  18.115  26.177  1.00  0.00     0.163 HD
ATOM     34  O   UNL A   1      42.741  18.275  25.915  1.00  0.00    -0.269 OA
BRANCH  32  35
ATOM     35  C   UNL A   1      42.593  20.593  26.250  1.00  0.00     0.039 A 
ATOM     36  C   UNL A   1      42.772  21.164  27.507  1.00  0.00     0.014 A 
ATOM     37  C   UNL A   1      42.990  21.298  25.108  1.00  0.00     0.014 A 
ATOM     38  C   UNL A   1      43.140  22.499  27.613  1.00  0.00     0.010 A 
ATOM     39  C   UNL A   1      43.479  22.604  25.225  1.00  0.00     0.010 A 
ATOM     40  C   UNL A   1      43.496  23.241  26.474  1.00  0.00    -0.014 A 
BRANCH  40  41
ATOM     41  C   UNL A   1      43.849  24.678  26.634  1.00  0.00     0.031 A 
ATOM     42  C   UNL A   1      42.856  25.656  27.201  1.00  0.00     0.074 A 
ATOM     43  C   UNL A   1      45.106  25.080  26.364  1.00  0.00     0.049 A 
ATOM     44  N   UNL A   1      43.027  26.916  27.520  1.00  0.00    -0.248 NA
ATOM     45  C   UNL A   1      41.489  25.164  27.437  1.00  0.00     0.031 C 
ATOM     46  C   UNL A   1      46.159  24.226  25.815  1.00  0.00     0.029 A 
ATOM     47  N   UNL A   1      45.729  26.288  26.562  1.00  0.00    -0.354 N 
ATOM     48  C   UNL A   1      41.797  27.362  27.987  1.00  0.00     0.074 A 
ATOM     49  C   UNL A   1      40.872  26.259  27.856  1.00  0.00     0.031 C 
ATOM     50  C   UNL A   1      47.316  24.904  25.806  1.00  0.00     0.029 A 
ATOM     51  C   UNL A   1      47.074  26.262  26.281  1.00  0.00     0.049 A 
ATOM     52  H   UNL A   1      45.258  27.093  26.876  1.00  0.00     0.167 HD
ATOM     53  C   UNL A   1      41.474  28.571  28.505  1.00  0.00     0.037 A 
ATOM     54  C   UNL A   1      48.011  27.223  26.393  1.00  0.00     0.037 A 
ATOM     55  C   UNL A   1      42.400  29.663  28.648  1.00  0.00     0.049 A 
ATOM     56  C   UNL A   1      47.613  28.580  26.900  1.00  0.00     0.074 A 
ATOM     57  C   UNL A   1      42.176  30.920  29.181  1.00  0.00     0.029 A 
ATOM     58  N   UNL A   1      43.731  29.629  28.252  1.00  0.00    -0.354 N 
ATOM     59  N   UNL A   1      46.455  28.977  27.367  1.00  0.00    -0.248 NA
ATOM     60  C   UNL A   1      48.645  29.626  26.876  1.00  0.00     0.031 C 
ATOM     61  C   UNL A   1      43.353  31.663  29.059  1.00  0.00     0.029 A 
ATOM     62  C   UNL A   1      44.327  30.855  28.493  1.00  0.00     0.049 A 
ATOM     63  H   UNL A   1      44.182  28.848  27.857  1.00  0.00     0.167 HD
ATOM     64  C   UNL A   1      46.615  30.316  27.692  1.00  0.00     0.074 A 
ATOM     65  C   UNL A   1      47.991  30.658  27.396  1.00  0.00     0.031 C 
ATOM     66  C   UNL A   1      45.697  31.185  28.182  1.00  0.00     0.037 A 
BRANCH  53  67
ATOM     67  C   UNL A   1      40.053  28.777  28.951  1.00  0.00     0.064 A 
ATOM     68  C   UNL A   1      39.053  29.190  28.056  1.00  0.00     0.173 A 
ATOM     69  C   UNL A   1      39.680  28.535  30.282  1.00  0.00     0.173 A 
ATOM     70  F   UNL A   1      39.358  29.441  26.773  1.00  0.00    -0.203 F 
ATOM     71  C   UNL A   1      37.743  29.388  28.483  1.00  0.00     0.198 A 
ATOM     72  C   UNL A   1      38.362  28.704  30.699  1.00  0.00     0.198 A 
ATOM     73  F   UNL A   1      40.592  28.129  31.178  1.00  0.00    -0.203 F 
ATOM     74  F   UNL A   1      36.816  29.834  27.623  1.00  0.00    -0.200 F 
ATOM     75  C   UNL A   1      37.398  29.139  29.803  1.00  0.00     0.200 A 
ATOM     76  F   UNL A   1      38.025  28.445  31.971  1.00  0.00    -0.200 F 
ATOM     77  F   UNL A   1      36.135  29.326  30.213  1.00  0.00    -0.200 F 
ENDBRANCH  53  67
BRANCH  54  78
ATOM     78  C   UNL A   1      49.420  26.911  26.036  1.00  0.00     0.064 A 
ATOM     79  C   UNL A   1      50.312  26.420  26.998  1.00  0.00     0.173 A 
ATOM     80  C   UNL A   1      49.885  27.037  24.718  1.00  0.00     0.173 A 
ATOM     81  F   UNL A   1      49.920  26.300  28.275  1.00  0.00    -0.203 F 
ATOM     82  C   UNL A   1      51.613  26.057  26.654  1.00  0.00     0.198 A 
ATOM     83  C   UNL A   1      51.176  26.648  24.370  1.00  0.00     0.198 A 
ATOM     84  F   UNL A   1      49.069  27.500  23.760  1.00  0.00    -0.203 F 
ATOM     85  F   UNL A   1      52.452  25.606  27.596  1.00  0.00    -0.200 F 
ATOM     86  C   UNL A   1      52.040  26.160  25.338  1.00  0.00     0.200 A 
ATOM     87  F   UNL A   1      51.577  26.731  23.093  1.00  0.00    -0.200 F 
ATOM     88  F   UNL A   1      53.282  25.786  25.003  1.00  0.00    -0.200 F 
ENDBRANCH  54  78
BRANCH  66  89
ATOM     89  C   UNL A   1      46.130  32.603  28.414  1.00  0.00     0.064 A 
ATOM     90  C   UNL A   1      46.794  32.973  29.591  1.00  0.00     0.173 A 
ATOM     91  C   UNL A   1      45.980  33.571  27.410  1.00  0.00     0.173 A 
ATOM     92  F   UNL A   1      46.947  32.086  30.587  1.00  0.00    -0.203 F 
ATOM     93  C   UNL A   1      47.297  34.260  29.755  1.00  0.00     0.198 A 
ATOM     94  C   UNL A   1      46.508  34.850  27.564  1.00  0.00     0.198 A 
ATOM     95  F   UNL A   1      45.357  33.264  26.261  1.00  0.00    -0.203 F 
ATOM     96  F   UNL A   1      47.914  34.598  30.896  1.00  0.00    -0.200 F 
ATOM     97  C   UNL A   1      47.167  35.193  28.735  1.00  0.00     0.200 A 
ATOM     98  F   UNL A   1      46.397  35.743  26.572  1.00  0.00    -0.200 F 
ATOM     99  F   UNL A   1      47.678  36.423  28.882  1.00  0.00    -0.200 F 
ENDBRANCH  66  89
ENDBRANCH  40  41
ENDBRANCH  32  35
ENDBRANCH  30  31
ENDBRANCH   1  30
TORSDOF 12
ENDMDL
MODEL 3
REMARK VINA RESULT:     -14.4      6.288     11.864
REMARK SMILES Cc1ccc2oc(-c3ccc4c(c3)OCO4)c/c(=N\[C@H](C)C(=O)NCCCNC(=O)c3ccc(-c4c5nc(c(-c6c(F)c(F)c(F)c(F)c6F)c6ccc([nH]6)c(-c6c(F)c(F)c(F)c(F)c6F)c6nc(c(-c7c(F)c(F)c(F)c(F)c7F)c7ccc4[nH]7)C=C6)C=C5)cc3)c2c1
REMARK SMILES IDX 26 1 25 2 24 3 22 4 23 5 20 7 21 8 19 9 1 10 2 11 3 12 95 13
REMARK SMILES IDX 4 14 94 15 5 16 18 17 6 18 17 19 7 20 8 21 9 22 13 23 10 24
REMARK SMILES IDX 12 25 11 26 14 27 16 28 15 29 27 30 28 31 29 32 30 34 31 35
REMARK SMILES IDX 32 36 93 37 33 38 92 39 34 40 35 41 36 42 86 43 37 44 91 45
REMARK SMILES IDX 85 46 87 47 38 48 90 49 84 50 83 51 39 53 71 54 51 55 70 56
REMARK SMILES IDX 52 57 55 58 69 59 88 60 53 61 54 62 68 64 89 65 56 66 40 67
REMARK SMILES IDX 41 68 49 69 42 70 43 71 47 72 50 73 44 74 45 75 48 76 46 77
REMARK SMILES IDX 72 78 73 79 81 80 74 81 75 82 79 83 82 84 76 85 77 86 80 87
REMARK SMILES IDX 78 88 57 89 58 90 66 91 59 92 60 93 64 94 67 95 61 96 62 97
REMARK SMILES IDX 65 98 63 99
REMARK H PARENT 24 6 28 33 87 52 55 63
REMARK Flexibility Score: inf
ROOT
ATOM      1  C   UNL A   1      31.553  32.195  26.871  1.00  0.00     0.042 C 
ENDROOT
BRANCH   1   2
ATOM      2  C   UNL A   1      31.831  30.761  26.441  1.00  0.00     0.117 C 
BRANCH   2   3
ATOM      3  N   UNL A   1      33.121  30.274  26.884  1.00  0.00    -0.354 N 
ATOM      4  C   UNL A   1      33.589  29.014  27.108  1.00  0.00     0.244 C 
ATOM      5  O   UNL A   1      34.799  28.929  27.356  1.00  0.00    -0.273 OA
ATOM      6  H   UNL A   1      33.780  30.985  27.055  1.00  0.00     0.163 HD
BRANCH   4   7
ATOM      7  C   UNL A   1      32.698  27.760  27.206  1.00  0.00     0.191 C 
ATOM      8  C   UNL A   1      31.417  28.099  27.941  1.00  0.00     0.044 C 
BRANCH   7   9
ATOM      9  N   UNL A   1      32.621  27.019  25.944  1.00  0.00    -0.271 NA
ATOM     10  C   UNL A   1      33.772  22.895  22.995  1.00  0.00     0.044 C 
ATOM     11  C   UNL A   1      33.114  24.231  22.801  1.00  0.00    -0.050 A 
ATOM     12  C   UNL A   1      32.783  24.663  21.509  1.00  0.00     0.007 A 
ATOM     13  C   UNL A   1      32.858  25.075  23.892  1.00  0.00     0.017 A 
ATOM     14  C   UNL A   1      32.198  25.914  21.309  1.00  0.00     0.048 A 
ATOM     15  C   UNL A   1      32.262  26.328  23.694  1.00  0.00     0.043 A 
ATOM     16  C   UNL A   1      31.936  26.743  22.399  1.00  0.00     0.136 A 
ATOM     17  C   UNL A   1      32.032  27.262  24.837  1.00  0.00     0.073 A 
ATOM     18  O   UNL A   1      31.367  27.963  22.127  1.00  0.00    -0.456 OA
ATOM     19  C   UNL A   1      31.193  28.423  24.489  1.00  0.00     0.076 A 
ATOM     20  C   UNL A   1      30.945  28.705  23.204  1.00  0.00     0.136 A 
BRANCH  20  21
ATOM     21  C   UNL A   1      30.124  29.876  22.896  1.00  0.00     0.021 A 
ATOM     22  C   UNL A   1      29.655  30.729  23.921  1.00  0.00     0.016 A 
ATOM     23  C   UNL A   1      29.710  30.072  21.572  1.00  0.00     0.062 A 
ATOM     24  C   UNL A   1      28.763  31.767  23.632  1.00  0.00     0.051 A 
ATOM     25  C   UNL A   1      28.851  31.113  21.317  1.00  0.00     0.166 A 
ATOM     26  C   UNL A   1      28.387  31.936  22.319  1.00  0.00     0.165 A 
ATOM     27  O   UNL A   1      28.356  31.449  20.097  1.00  0.00    -0.454 OA
ATOM     28  O   UNL A   1      27.549  32.896  21.847  1.00  0.00    -0.454 OA
ATOM     29  C   UNL A   1      27.646  32.661  20.425  1.00  0.00     0.468 C 
ENDBRANCH  20  21
ENDBRANCH   7   9
ENDBRANCH   4   7
ENDBRANCH   2   3
ENDBRANCH   1   2
BRANCH   1  30
ATOM     30  C   UNL A   1      32.813  32.945  27.281  1.00  0.00     0.118 C 
BRANCH  30  31
ATOM     31  N   UNL A   1      32.522  34.304  27.733  1.00  0.00    -0.352 N 
ATOM     32  C   UNL A   1      33.067  35.051  28.747  1.00  0.00     0.251 C 
ATOM     33  H   UNL A   1      31.815  34.761  27.223  1.00  0.00     0.163 HD
ATOM     34  O   UNL A   1      32.525  36.107  29.078  1.00  0.00    -0.269 OA
BRANCH  32  35
ATOM     35  C   UNL A   1      34.277  34.595  29.467  1.00  0.00     0.039 A 
ATOM     36  C   UNL A   1      35.546  34.765  28.920  1.00  0.00     0.014 A 
ATOM     37  C   UNL A   1      34.141  33.995  30.724  1.00  0.00     0.014 A 
ATOM     38  C   UNL A   1      36.642  34.156  29.518  1.00  0.00     0.010 A 
ATOM     39  C   UNL A   1      35.266  33.489  31.385  1.00  0.00     0.010 A 
ATOM     40  C   UNL A   1      36.519  33.506  30.756  1.00  0.00    -0.014 A 
BRANCH  40  41
ATOM     41  C   UNL A   1      37.714  32.837  31.339  1.00  0.00     0.031 A 
ATOM     42  C   UNL A   1      38.185  33.175  32.729  1.00  0.00     0.074 A 
ATOM     43  C   UNL A   1      38.314  31.845  30.652  1.00  0.00     0.049 A 
ATOM     44  N   UNL A   1      39.131  32.613  33.440  1.00  0.00    -0.248 NA
ATOM     45  C   UNL A   1      37.514  34.293  33.410  1.00  0.00     0.031 C 
ATOM     46  C   UNL A   1      37.947  31.422  29.300  1.00  0.00     0.029 A 
ATOM     47  N   UNL A   1      39.317  30.979  31.009  1.00  0.00    -0.354 N 
ATOM     48  C   UNL A   1      39.169  33.307  34.642  1.00  0.00     0.074 A 
ATOM     49  C   UNL A   1      38.194  34.370  34.545  1.00  0.00     0.031 C 
ATOM     50  C   UNL A   1      38.646  30.325  28.978  1.00  0.00     0.029 A 
ATOM     51  C   UNL A   1      39.561  30.007  30.068  1.00  0.00     0.049 A 
ATOM     52  H   UNL A   1      39.813  31.046  31.857  1.00  0.00     0.167 HD
ATOM     53  C   UNL A   1      39.926  33.065  35.739  1.00  0.00     0.037 A 
ATOM     54  C   UNL A   1      40.423  28.972  30.080  1.00  0.00     0.037 A 
ATOM     55  C   UNL A   1      40.886  31.997  35.839  1.00  0.00     0.049 A 
ATOM     56  C   UNL A   1      41.306  28.767  31.278  1.00  0.00     0.074 A 
ATOM     57  C   UNL A   1      41.686  31.655  36.914  1.00  0.00     0.029 A 
ATOM     58  N   UNL A   1      41.178  31.098  34.822  1.00  0.00    -0.354 N 
ATOM     59  N   UNL A   1      41.309  29.413  32.419  1.00  0.00    -0.248 NA
ATOM     60  C   UNL A   1      42.319  27.707  31.183  1.00  0.00     0.031 C 
ATOM     61  C   UNL A   1      42.499  30.585  36.531  1.00  0.00     0.029 A 
ATOM     62  C   UNL A   1      42.173  30.227  35.232  1.00  0.00     0.049 A 
ATOM     63  H   UNL A   1      40.741  31.082  33.939  1.00  0.00     0.167 HD
ATOM     64  C   UNL A   1      42.320  28.840  33.178  1.00  0.00     0.074 A 
ATOM     65  C   UNL A   1      42.891  27.775  32.379  1.00  0.00     0.031 C 
ATOM     66  C   UNL A   1      42.740  29.177  34.421  1.00  0.00     0.037 A 
BRANCH  53  67
ATOM     67  C   UNL A   1      39.750  33.979  36.919  1.00  0.00     0.064 A 
ATOM     68  C   UNL A   1      40.384  35.231  36.983  1.00  0.00     0.173 A 
ATOM     69  C   UNL A   1      38.918  33.612  37.989  1.00  0.00     0.173 A 
ATOM     70  F   UNL A   1      41.195  35.627  35.989  1.00  0.00    -0.203 F 
ATOM     71  C   UNL A   1      40.221  36.063  38.087  1.00  0.00     0.198 A 
ATOM     72  C   UNL A   1      38.732  34.462  39.077  1.00  0.00     0.198 A 
ATOM     73  F   UNL A   1      38.280  32.433  37.976  1.00  0.00    -0.203 F 
ATOM     74  F   UNL A   1      40.878  37.230  38.150  1.00  0.00    -0.200 F 
ATOM     75  C   UNL A   1      39.391  35.680  39.129  1.00  0.00     0.200 A 
ATOM     76  F   UNL A   1      37.915  34.098  40.076  1.00  0.00    -0.200 F 
ATOM     77  F   UNL A   1      39.231  36.484  40.190  1.00  0.00    -0.200 F 
ENDBRANCH  53  67
BRANCH  54  78
ATOM     78  C   UNL A   1      40.463  28.044  28.920  1.00  0.00     0.064 A 
ATOM     79  C   UNL A   1      39.687  26.878  28.907  1.00  0.00     0.173 A 
ATOM     80  C   UNL A   1      41.226  28.333  27.779  1.00  0.00     0.173 A 
ATOM     81  F   UNL A   1      38.955  26.548  29.982  1.00  0.00    -0.203 F 
ATOM     82  C   UNL A   1      39.664  26.041  27.792  1.00  0.00     0.198 A 
ATOM     83  C   UNL A   1      41.181  27.512  26.655  1.00  0.00     0.198 A 
ATOM     84  F   UNL A   1      41.984  29.439  27.741  1.00  0.00    -0.203 F 
ATOM     85  F   UNL A   1      38.926  24.923  27.811  1.00  0.00    -0.200 F 
ATOM     86  C   UNL A   1      40.402  26.365  26.663  1.00  0.00     0.200 A 
ATOM     87  F   UNL A   1      41.880  27.840  25.559  1.00  0.00    -0.200 F 
ATOM     88  F   UNL A   1      40.360  25.575  25.582  1.00  0.00    -0.200 F 
ENDBRANCH  54  78
BRANCH  66  89
ATOM     89  C   UNL A   1      43.891  28.409  35.002  1.00  0.00     0.064 A 
ATOM     90  C   UNL A   1      45.203  28.894  34.911  1.00  0.00     0.173 A 
ATOM     91  C   UNL A   1      43.671  27.242  35.748  1.00  0.00     0.173 A 
ATOM     92  F   UNL A   1      45.467  29.998  34.195  1.00  0.00    -0.203 F 
ATOM     93  C   UNL A   1      46.253  28.241  35.550  1.00  0.00     0.198 A 
ATOM     94  C   UNL A   1      44.718  26.606  36.408  1.00  0.00     0.198 A 
ATOM     95  F   UNL A   1      42.432  26.740  35.869  1.00  0.00    -0.203 F 
ATOM     96  F   UNL A   1      47.503  28.713  35.436  1.00  0.00    -0.200 F 
ATOM     97  C   UNL A   1      46.008  27.106  36.310  1.00  0.00     0.200 A 
ATOM     98  F   UNL A   1      44.477  25.520  37.155  1.00  0.00    -0.200 F 
ATOM     99  F   UNL A   1      47.015  26.496  36.949  1.00  0.00    -0.200 F 
ENDBRANCH  66  89
ENDBRANCH  40  41
ENDBRANCH  32  35
ENDBRANCH  30  31
ENDBRANCH   1  30
TORSDOF 12
ENDMDL
