MODEL 1
REMARK VINA RESULT:     -12.2      0.000      0.000
REMARK SMILES COc1nc(-c2ccccc2)nc(C)c1CC(=O)NCCCNC(=O)c1ccc(-c2c3nc(c(-c4c(F)c(F)c(F)c(F)c4F)c4ccc([nH]4)c(-c4c(F)c(F)c(F)c(F)c4F)c4nc(c(-c5c(F)c(F)c(F)c(F)c5F)c5ccc2[nH]5)C=C4)C=C3)cc1
REMARK SMILES IDX 21 1 20 2 19 3 17 4 18 5 16 7 15 8 3 9 4 10 5 11 13 12 12 13
REMARK SMILES IDX 14 14 2 15 1 16 6 17 7 18 11 19 8 20 10 21 9 22 22 23 23 24
REMARK SMILES IDX 24 25 25 27 26 28 27 29 88 30 28 31 87 32 29 33 30 34 31 35
REMARK SMILES IDX 81 36 32 37 86 38 80 39 82 40 33 41 85 42 79 43 78 44 34 46
REMARK SMILES IDX 66 47 46 48 65 49 47 50 50 51 64 52 83 53 48 54 49 55 63 57
REMARK SMILES IDX 84 58 51 59 35 60 36 61 44 62 37 63 38 64 42 65 45 66 39 67
REMARK SMILES IDX 40 68 43 69 41 70 67 71 68 72 76 73 69 74 70 75 74 76 77 77
REMARK SMILES IDX 71 78 72 79 75 80 73 81 52 82 53 83 61 84 54 85 55 86 59 87
REMARK SMILES IDX 62 88 56 89 57 90 60 91 58 92
REMARK H PARENT 19 6 23 26 82 45 50 56
REMARK Flexibility Score: inf
ROOT
ATOM      1  C   UNL A   1      37.867  19.443  24.987  1.00  0.00     0.042 C 
ENDROOT
BRANCH   1   2
ATOM      2  C   UNL A   1      36.756  20.439  24.655  1.00  0.00     0.117 C 
BRANCH   2   3
ATOM      3  N   UNL A   1      35.526  20.172  25.376  1.00  0.00    -0.356 N 
ATOM      4  C   UNL A   1      34.278  20.703  25.234  1.00  0.00     0.224 C 
ATOM      5  O   UNL A   1      33.383  20.227  25.936  1.00  0.00    -0.275 OA
ATOM      6  H   UNL A   1      35.605  19.494  26.086  1.00  0.00     0.163 HD
BRANCH   4   7
ATOM      7  C   UNL A   1      33.978  21.789  24.210  1.00  0.00     0.143 C 
BRANCH   7   8
ATOM      8  C   UNL A   1      33.681  23.143  24.793  1.00  0.00     0.045 A 
ATOM      9  C   UNL A   1      34.681  24.106  24.887  1.00  0.00     0.220 A 
ATOM     10  N   UNL A   1      34.507  25.375  25.300  1.00  0.00    -0.193 NA
ATOM     11  C   UNL A   1      33.265  25.672  25.706  1.00  0.00     0.163 A 
ATOM     12  C   UNL A   1      32.442  23.553  25.256  1.00  0.00     0.049 A 
ATOM     13  N   UNL A   1      32.233  24.807  25.708  1.00  0.00    -0.233 NA
ATOM     14  C   UNL A   1      31.217  22.691  25.321  1.00  0.00     0.067 C 
BRANCH   9  15
ATOM     15  O   UNL A   1      35.981  23.686  24.714  1.00  0.00    -0.481 OA
ATOM     16  C   UNL A   1      36.754  23.845  25.897  1.00  0.00     0.280 C 
ENDBRANCH   9  15
BRANCH  11  17
ATOM     17  C   UNL A   1      32.960  27.023  26.194  1.00  0.00     0.019 A 
ATOM     18  C   UNL A   1      33.907  28.059  26.057  1.00  0.00     0.012 A 
ATOM     19  C   UNL A   1      31.763  27.319  26.865  1.00  0.00     0.012 A 
ATOM     20  C   UNL A   1      33.672  29.335  26.575  1.00  0.00     0.001 A 
ATOM     21  C   UNL A   1      31.533  28.592  27.401  1.00  0.00     0.001 A 
ATOM     22  C   UNL A   1      32.487  29.598  27.254  1.00  0.00     0.000 A 
ENDBRANCH  11  17
ENDBRANCH   7   8
ENDBRANCH   4   7
ENDBRANCH   2   3
ENDBRANCH   1   2
BRANCH   1  23
ATOM     23  C   UNL A   1      39.046  20.042  25.752  1.00  0.00     0.118 C 
BRANCH  23  24
ATOM     24  N   UNL A   1      40.149  19.106  25.913  1.00  0.00    -0.352 N 
ATOM     25  C   UNL A   1      41.489  19.315  26.118  1.00  0.00     0.251 C 
ATOM     26  H   UNL A   1      39.887  18.158  25.868  1.00  0.00     0.163 HD
ATOM     27  O   UNL A   1      42.263  18.366  26.030  1.00  0.00    -0.269 OA
BRANCH  25  28
ATOM     28  C   UNL A   1      42.021  20.661  26.433  1.00  0.00     0.039 A 
ATOM     29  C   UNL A   1      42.348  21.514  25.373  1.00  0.00     0.014 A 
ATOM     30  C   UNL A   1      42.265  21.064  27.747  1.00  0.00     0.014 A 
ATOM     31  C   UNL A   1      42.858  22.789  25.632  1.00  0.00     0.010 A 
ATOM     32  C   UNL A   1      42.710  22.361  28.008  1.00  0.00     0.010 A 
ATOM     33  C   UNL A   1      43.013  23.236  26.954  1.00  0.00    -0.014 A 
BRANCH  33  34
ATOM     34  C   UNL A   1      43.480  24.615  27.251  1.00  0.00     0.031 A 
ATOM     35  C   UNL A   1      42.528  25.640  27.797  1.00  0.00     0.074 A 
ATOM     36  C   UNL A   1      44.750  24.961  26.961  1.00  0.00     0.049 A 
ATOM     37  N   UNL A   1      42.728  26.912  28.039  1.00  0.00    -0.248 NA
ATOM     38  C   UNL A   1      41.161  25.183  28.087  1.00  0.00     0.031 C 
ATOM     39  C   UNL A   1      45.759  24.069  26.388  1.00  0.00     0.029 A 
ATOM     40  N   UNL A   1      45.404  26.160  27.095  1.00  0.00    -0.354 N 
ATOM     41  C   UNL A   1      41.513  27.409  28.489  1.00  0.00     0.074 A 
ATOM     42  C   UNL A   1      40.568  26.313  28.446  1.00  0.00     0.031 C 
ATOM     43  C   UNL A   1      46.907  24.746  26.235  1.00  0.00     0.029 A 
ATOM     44  C   UNL A   1      46.707  26.127  26.662  1.00  0.00     0.049 A 
ATOM     45  H   UNL A   1      44.979  26.968  27.466  1.00  0.00     0.167 HD
ATOM     46  C   UNL A   1      41.216  28.659  28.919  1.00  0.00     0.037 A 
ATOM     47  C   UNL A   1      47.633  27.103  26.607  1.00  0.00     0.037 A 
ATOM     48  C   UNL A   1      42.165  29.741  28.986  1.00  0.00     0.049 A 
ATOM     49  C   UNL A   1      47.279  28.483  27.090  1.00  0.00     0.074 A 
ATOM     50  C   UNL A   1      41.977  31.025  29.465  1.00  0.00     0.029 A 
ATOM     51  N   UNL A   1      43.482  29.662  28.558  1.00  0.00    -0.354 N 
ATOM     52  N   UNL A   1      46.144  28.924  27.574  1.00  0.00    -0.248 NA
ATOM     53  C   UNL A   1      48.338  29.500  27.022  1.00  0.00     0.031 C 
ATOM     54  C   UNL A   1      43.169  31.738  29.288  1.00  0.00     0.029 A 
ATOM     55  C   UNL A   1      44.112  30.883  28.743  1.00  0.00     0.049 A 
ATOM     56  H   UNL A   1      43.907  28.859  28.180  1.00  0.00     0.167 HD
ATOM     57  C   UNL A   1      46.357  30.257  27.893  1.00  0.00     0.074 A 
ATOM     58  C   UNL A   1      47.735  30.551  27.560  1.00  0.00     0.031 C 
ATOM     59  C   UNL A   1      45.488  31.158  28.413  1.00  0.00     0.037 A 
BRANCH  46  60
ATOM     60  C   UNL A   1      39.803  28.929  29.352  1.00  0.00     0.064 A 
ATOM     61  C   UNL A   1      38.831  29.384  28.449  1.00  0.00     0.173 A 
ATOM     62  C   UNL A   1      39.408  28.693  30.678  1.00  0.00     0.173 A 
ATOM     63  F   UNL A   1      39.160  29.634  27.173  1.00  0.00    -0.203 F 
ATOM     64  C   UNL A   1      37.523  29.623  28.864  1.00  0.00     0.198 A 
ATOM     65  C   UNL A   1      38.092  28.904  31.082  1.00  0.00     0.198 A 
ATOM     66  F   UNL A   1      40.296  28.250  31.582  1.00  0.00    -0.203 F 
ATOM     67  F   UNL A   1      36.624  30.105  27.995  1.00  0.00    -0.200 F 
ATOM     68  C   UNL A   1      37.154  29.376  30.177  1.00  0.00     0.200 A 
ATOM     69  F   UNL A   1      37.733  28.653  32.349  1.00  0.00    -0.200 F 
ATOM     70  F   UNL A   1      35.893  29.601  30.573  1.00  0.00    -0.200 F 
ENDBRANCH  46  60
BRANCH  47  71
ATOM     71  C   UNL A   1      48.994  26.801  26.095  1.00  0.00     0.064 A 
ATOM     72  C   UNL A   1      49.315  27.002  24.745  1.00  0.00     0.173 A 
ATOM     73  C   UNL A   1      50.001  26.310  26.939  1.00  0.00     0.173 A 
ATOM     74  F   UNL A   1      48.379  27.451  23.895  1.00  0.00    -0.203 F 
ATOM     75  C   UNL A   1      50.584  26.707  24.255  1.00  0.00     0.198 A 
ATOM     76  C   UNL A   1      51.279  26.040  26.453  1.00  0.00     0.198 A 
ATOM     77  F   UNL A   1      49.747  26.104  28.240  1.00  0.00    -0.203 F 
ATOM     78  F   UNL A   1      50.851  26.868  22.951  1.00  0.00    -0.200 F 
ATOM     79  C   UNL A   1      51.567  26.231  25.110  1.00  0.00     0.200 A 
ATOM     80  F   UNL A   1      52.229  25.594  27.286  1.00  0.00    -0.200 F 
ATOM     81  F   UNL A   1      52.790  25.952  24.639  1.00  0.00    -0.200 F 
ENDBRANCH  47  71
BRANCH  59  82
ATOM     82  C   UNL A   1      46.011  32.538  28.686  1.00  0.00     0.064 A 
ATOM     83  C   UNL A   1      46.623  32.865  29.906  1.00  0.00     0.173 A 
ATOM     84  C   UNL A   1      45.934  33.534  27.701  1.00  0.00     0.173 A 
ATOM     85  F   UNL A   1      46.705  31.953  30.885  1.00  0.00    -0.203 F 
ATOM     86  C   UNL A   1      47.116  34.147  30.136  1.00  0.00     0.198 A 
ATOM     87  C   UNL A   1      46.453  34.806  27.925  1.00  0.00     0.198 A 
ATOM     88  F   UNL A   1      45.364  33.271  26.516  1.00  0.00    -0.203 F 
ATOM     89  F   UNL A   1      47.654  34.451  31.326  1.00  0.00    -0.200 F 
ATOM     90  C   UNL A   1      47.037  35.114  29.145  1.00  0.00     0.200 A 
ATOM     91  F   UNL A   1      46.387  35.735  26.961  1.00  0.00    -0.200 F 
ATOM     92  F   UNL A   1      47.518  36.344  29.367  1.00  0.00    -0.200 F 
ENDBRANCH  59  82
ENDBRANCH  33  34
ENDBRANCH  25  28
ENDBRANCH  23  24
ENDBRANCH   1  23
TORSDOF 13
ENDMDL
MODEL 2
REMARK VINA RESULT:     -12.2      5.614     11.188
REMARK SMILES COc1nc(-c2ccccc2)nc(C)c1CC(=O)NCCCNC(=O)c1ccc(-c2c3nc(c(-c4c(F)c(F)c(F)c(F)c4F)c4ccc([nH]4)c(-c4c(F)c(F)c(F)c(F)c4F)c4nc(c(-c5c(F)c(F)c(F)c(F)c5F)c5ccc2[nH]5)C=C4)C=C3)cc1
REMARK SMILES IDX 21 1 20 2 19 3 17 4 18 5 16 7 15 8 3 9 4 10 5 11 13 12 12 13
REMARK SMILES IDX 14 14 2 15 1 16 6 17 7 18 11 19 8 20 10 21 9 22 22 23 23 24
REMARK SMILES IDX 24 25 25 27 26 28 27 29 88 30 28 31 87 32 29 33 30 34 31 35
REMARK SMILES IDX 81 36 32 37 86 38 80 39 82 40 33 41 85 42 79 43 78 44 34 46
REMARK SMILES IDX 66 47 46 48 65 49 47 50 50 51 64 52 83 53 48 54 49 55 63 57
REMARK SMILES IDX 84 58 51 59 35 60 36 61 44 62 37 63 38 64 42 65 45 66 39 67
REMARK SMILES IDX 40 68 43 69 41 70 67 71 68 72 76 73 69 74 70 75 74 76 77 77
REMARK SMILES IDX 71 78 72 79 75 80 73 81 52 82 53 83 61 84 54 85 55 86 59 87
REMARK SMILES IDX 62 88 56 89 57 90 60 91 58 92
REMARK H PARENT 19 6 23 26 82 45 50 56
REMARK Flexibility Score: inf
ROOT
ATOM      1  C   UNL A   1      31.294  32.269  26.577  1.00  0.00     0.042 C 
ENDROOT
BRANCH   1   2
ATOM      2  C   UNL A   1      31.373  30.766  26.316  1.00  0.00     0.117 C 
BRANCH   2   3
ATOM      3  N   UNL A   1      31.305  30.434  24.905  1.00  0.00    -0.356 N 
ATOM      4  C   UNL A   1      31.112  29.238  24.281  1.00  0.00     0.224 C 
ATOM      5  O   UNL A   1      31.014  29.257  23.051  1.00  0.00    -0.275 OA
ATOM      6  H   UNL A   1      31.416  31.202  24.297  1.00  0.00     0.163 HD
BRANCH   4   7
ATOM      7  C   UNL A   1      30.956  27.940  25.060  1.00  0.00     0.143 C 
BRANCH   7   8
ATOM      8  C   UNL A   1      32.093  26.968  24.905  1.00  0.00     0.045 A 
ATOM      9  C   UNL A   1      33.108  26.910  25.855  1.00  0.00     0.220 A 
ATOM     10  N   UNL A   1      34.117  26.020  25.867  1.00  0.00    -0.193 NA
ATOM     11  C   UNL A   1      34.143  25.181  24.822  1.00  0.00     0.163 A 
ATOM     12  C   UNL A   1      32.231  26.068  23.861  1.00  0.00     0.049 A 
ATOM     13  N   UNL A   1      33.245  25.180  23.819  1.00  0.00    -0.233 NA
ATOM     14  C   UNL A   1      31.310  25.968  22.682  1.00  0.00     0.067 C 
BRANCH   9  15
ATOM     15  O   UNL A   1      33.191  27.949  26.755  1.00  0.00    -0.481 OA
ATOM     16  C   UNL A   1      34.388  28.698  26.595  1.00  0.00     0.280 C 
ENDBRANCH   9  15
BRANCH  11  17
ATOM     17  C   UNL A   1      35.209  24.176  24.720  1.00  0.00     0.019 A 
ATOM     18  C   UNL A   1      36.072  23.940  25.810  1.00  0.00     0.012 A 
ATOM     19  C   UNL A   1      35.453  23.469  23.531  1.00  0.00     0.012 A 
ATOM     20  C   UNL A   1      37.137  23.042  25.717  1.00  0.00     0.001 A 
ATOM     21  C   UNL A   1      36.531  22.581  23.430  1.00  0.00     0.001 A 
ATOM     22  C   UNL A   1      37.371  22.368  24.522  1.00  0.00     0.000 A 
ENDBRANCH  11  17
ENDBRANCH   7   8
ENDBRANCH   4   7
ENDBRANCH   2   3
ENDBRANCH   1   2
BRANCH   1  23
ATOM     23  C   UNL A   1      32.591  32.892  27.092  1.00  0.00     0.118 C 
BRANCH  23  24
ATOM     24  N   UNL A   1      32.403  34.239  27.611  1.00  0.00    -0.352 N 
ATOM     25  C   UNL A   1      33.004  34.897  28.654  1.00  0.00     0.251 C 
ATOM     26  H   UNL A   1      31.727  34.770  27.130  1.00  0.00     0.163 HD
ATOM     27  O   UNL A   1      32.543  35.971  29.030  1.00  0.00    -0.269 OA
BRANCH  25  28
ATOM     28  C   UNL A   1      34.191  34.336  29.340  1.00  0.00     0.039 A 
ATOM     29  C   UNL A   1      34.020  33.756  30.602  1.00  0.00     0.014 A 
ATOM     30  C   UNL A   1      35.471  34.434  28.791  1.00  0.00     0.014 A 
ATOM     31  C   UNL A   1      35.117  33.221  31.282  1.00  0.00     0.010 A 
ATOM     32  C   UNL A   1      36.556  33.840  29.438  1.00  0.00     0.010 A 
ATOM     33  C   UNL A   1      36.390  33.230  30.690  1.00  0.00    -0.014 A 
BRANCH  33  34
ATOM     34  C   UNL A   1      37.555  32.597  31.362  1.00  0.00     0.031 A 
ATOM     35  C   UNL A   1      38.284  31.457  30.710  1.00  0.00     0.074 A 
ATOM     36  C   UNL A   1      37.913  33.008  32.595  1.00  0.00     0.049 A 
ATOM     37  N   UNL A   1      39.266  30.725  31.176  1.00  0.00    -0.248 NA
ATOM     38  C   UNL A   1      37.833  31.069  29.365  1.00  0.00     0.031 C 
ATOM     39  C   UNL A   1      37.258  34.076  33.352  1.00  0.00     0.029 A 
ATOM     40  N   UNL A   1      38.905  32.566  33.433  1.00  0.00    -0.354 N 
ATOM     41  C   UNL A   1      39.536  29.783  30.193  1.00  0.00     0.074 A 
ATOM     42  C   UNL A   1      38.587  30.006  29.123  1.00  0.00     0.031 C 
ATOM     43  C   UNL A   1      37.876  34.217  34.535  1.00  0.00     0.029 A 
ATOM     44  C   UNL A   1      38.944  33.227  34.637  1.00  0.00     0.049 A 
ATOM     45  H   UNL A   1      39.530  31.843  33.195  1.00  0.00     0.167 HD
ATOM     46  C   UNL A   1      40.502  28.832  30.174  1.00  0.00     0.037 A 
ATOM     47  C   UNL A   1      39.743  33.048  35.705  1.00  0.00     0.037 A 
ATOM     48  C   UNL A   1      41.462  28.630  31.229  1.00  0.00     0.049 A 
ATOM     49  C   UNL A   1      40.807  31.986  35.661  1.00  0.00     0.074 A 
ATOM     50  C   UNL A   1      42.517  27.735  31.276  1.00  0.00     0.029 A 
ATOM     51  N   UNL A   1      41.482  29.335  32.424  1.00  0.00    -0.354 N 
ATOM     52  N   UNL A   1      41.094  31.143  34.699  1.00  0.00    -0.248 NA
ATOM     53  C   UNL A   1      41.660  31.853  36.850  1.00  0.00     0.031 C 
ATOM     54  C   UNL A   1      43.149  27.868  32.517  1.00  0.00     0.029 A 
ATOM     55  C   UNL A   1      42.518  28.879  33.224  1.00  0.00     0.049 A 
ATOM     56  H   UNL A   1      40.853  30.052  32.667  1.00  0.00     0.167 HD
ATOM     57  C   UNL A   1      42.174  30.399  35.152  1.00  0.00     0.074 A 
ATOM     58  C   UNL A   1      42.501  30.900  36.472  1.00  0.00     0.031 C 
ATOM     59  C   UNL A   1      42.835  29.392  34.532  1.00  0.00     0.037 A 
BRANCH  46  60
ATOM     60  C   UNL A   1      40.569  27.932  28.974  1.00  0.00     0.064 A 
ATOM     61  C   UNL A   1      41.422  28.208  27.895  1.00  0.00     0.173 A 
ATOM     62  C   UNL A   1      39.798  26.761  28.918  1.00  0.00     0.173 A 
ATOM     63  F   UNL A   1      42.172  29.321  27.895  1.00  0.00    -0.203 F 
ATOM     64  C   UNL A   1      41.479  27.361  26.791  1.00  0.00     0.198 A 
ATOM     65  C   UNL A   1      39.880  25.900  27.825  1.00  0.00     0.198 A 
ATOM     66  F   UNL A   1      38.971  26.444  29.926  1.00  0.00    -0.203 F 
ATOM     67  F   UNL A   1      42.264  27.672  25.750  1.00  0.00    -0.200 F 
ATOM     68  C   UNL A   1      40.714  26.206  26.760  1.00  0.00     0.200 A 
ATOM     69  F   UNL A   1      39.149  24.777  27.803  1.00  0.00    -0.200 F 
ATOM     70  F   UNL A   1      40.774  25.388  25.699  1.00  0.00    -0.200 F 
ENDBRANCH  46  60
BRANCH  47  71
ATOM     71  C   UNL A   1      39.582  33.915  36.901  1.00  0.00     0.064 A 
ATOM     72  C   UNL A   1      38.792  33.505  37.984  1.00  0.00     0.173 A 
ATOM     73  C   UNL A   1      40.212  35.165  36.989  1.00  0.00     0.173 A 
ATOM     74  F   UNL A   1      38.153  32.328  37.937  1.00  0.00    -0.203 F 
ATOM     75  C   UNL A   1      38.624  34.319  39.102  1.00  0.00     0.198 A 
ATOM     76  C   UNL A   1      40.066  35.967  38.118  1.00  0.00     0.198 A 
ATOM     77  F   UNL A   1      40.983  35.602  35.981  1.00  0.00    -0.203 F 
ATOM     78  F   UNL A   1      37.829  33.921  40.104  1.00  0.00    -0.200 F 
ATOM     79  C   UNL A   1      39.266  35.548  39.170  1.00  0.00     0.200 A 
ATOM     80  F   UNL A   1      40.699  37.146  38.186  1.00  0.00    -0.200 F 
ATOM     81  F   UNL A   1      39.108  36.328  40.248  1.00  0.00    -0.200 F 
ENDBRANCH  47  71
BRANCH  59  82
ATOM     82  C   UNL A   1      43.999  28.785  35.259  1.00  0.00     0.064 A 
ATOM     83  C   UNL A   1      43.843  27.672  36.099  1.00  0.00     0.173 A 
ATOM     84  C   UNL A   1      45.293  29.299  35.082  1.00  0.00     0.173 A 
ATOM     85  F   UNL A   1      42.624  27.155  36.314  1.00  0.00    -0.203 F 
ATOM     86  C   UNL A   1      44.937  27.112  36.754  1.00  0.00     0.198 A 
ATOM     87  C   UNL A   1      46.388  28.719  35.716  1.00  0.00     0.198 A 
ATOM     88  F   UNL A   1      45.497  30.358  34.284  1.00  0.00    -0.203 F 
ATOM     89  F   UNL A   1      44.758  26.078  37.589  1.00  0.00    -0.200 F 
ATOM     90  C   UNL A   1      46.208  27.630  36.557  1.00  0.00     0.200 A 
ATOM     91  F   UNL A   1      47.617  29.213  35.514  1.00  0.00    -0.200 F 
ATOM     92  F   UNL A   1      47.260  27.086  37.183  1.00  0.00    -0.200 F 
ENDBRANCH  59  82
ENDBRANCH  33  34
ENDBRANCH  25  28
ENDBRANCH  23  24
ENDBRANCH   1  23
TORSDOF 13
ENDMDL
MODEL 3
REMARK VINA RESULT:     -12.1      4.731     10.274
REMARK SMILES COc1nc(-c2ccccc2)nc(C)c1CC(=O)NCCCNC(=O)c1ccc(-c2c3nc(c(-c4c(F)c(F)c(F)c(F)c4F)c4ccc([nH]4)c(-c4c(F)c(F)c(F)c(F)c4F)c4nc(c(-c5c(F)c(F)c(F)c(F)c5F)c5ccc2[nH]5)C=C4)C=C3)cc1
REMARK SMILES IDX 21 1 20 2 19 3 17 4 18 5 16 7 15 8 3 9 4 10 5 11 13 12 12 13
REMARK SMILES IDX 14 14 2 15 1 16 6 17 7 18 11 19 8 20 10 21 9 22 22 23 23 24
REMARK SMILES IDX 24 25 25 27 26 28 27 29 88 30 28 31 87 32 29 33 30 34 31 35
REMARK SMILES IDX 81 36 32 37 86 38 80 39 82 40 33 41 85 42 79 43 78 44 34 46
REMARK SMILES IDX 66 47 46 48 65 49 47 50 50 51 64 52 83 53 48 54 49 55 63 57
REMARK SMILES IDX 84 58 51 59 35 60 36 61 44 62 37 63 38 64 42 65 45 66 39 67
REMARK SMILES IDX 40 68 43 69 41 70 67 71 68 72 76 73 69 74 70 75 74 76 77 77
REMARK SMILES IDX 71 78 72 79 75 80 73 81 52 82 53 83 61 84 54 85 55 86 59 87
REMARK SMILES IDX 62 88 56 89 57 90 60 91 58 92
REMARK H PARENT 19 6 23 26 82 45 50 56
REMARK Flexibility Score: inf
ROOT
ATOM      1  C   UNL A   1      32.072  28.283  25.411  1.00  0.00     0.042 C 
ENDROOT
BRANCH   1   2
ATOM      2  C   UNL A   1      31.819  27.758  26.823  1.00  0.00     0.117 C 
BRANCH   2   3
ATOM      3  N   UNL A   1      31.010  26.554  26.841  1.00  0.00    -0.356 N 
ATOM      4  C   UNL A   1      31.336  25.259  26.569  1.00  0.00     0.224 C 
ATOM      5  O   UNL A   1      30.458  24.410  26.746  1.00  0.00    -0.275 OA
ATOM      6  H   UNL A   1      30.068  26.696  27.092  1.00  0.00     0.163 HD
BRANCH   4   7
ATOM      7  C   UNL A   1      32.738  24.857  26.131  1.00  0.00     0.143 C 
BRANCH   7   8
ATOM      8  C   UNL A   1      32.867  23.439  25.648  1.00  0.00     0.045 A 
ATOM      9  C   UNL A   1      32.678  23.129  24.305  1.00  0.00     0.220 A 
ATOM     10  N   UNL A   1      32.861  21.918  23.749  1.00  0.00    -0.193 NA
ATOM     11  C   UNL A   1      33.191  20.945  24.609  1.00  0.00     0.163 A 
ATOM     12  C   UNL A   1      33.188  22.354  26.448  1.00  0.00     0.049 A 
ATOM     13  N   UNL A   1      33.351  21.118  25.935  1.00  0.00    -0.233 NA
ATOM     14  C   UNL A   1      33.384  22.407  27.934  1.00  0.00     0.067 C 
BRANCH   9  15
ATOM     15  O   UNL A   1      32.087  24.089  23.513  1.00  0.00    -0.481 OA
ATOM     16  C   UNL A   1      30.727  23.785  23.233  1.00  0.00     0.280 C 
ENDBRANCH   9  15
BRANCH  11  17
ATOM     17  C   UNL A   1      33.401  19.576  24.119  1.00  0.00     0.019 A 
ATOM     18  C   UNL A   1      32.512  19.013  23.180  1.00  0.00     0.012 A 
ATOM     19  C   UNL A   1      34.436  18.763  24.605  1.00  0.00     0.012 A 
ATOM     20  C   UNL A   1      32.646  17.691  22.750  1.00  0.00     0.001 A 
ATOM     21  C   UNL A   1      34.562  17.432  24.189  1.00  0.00     0.001 A 
ATOM     22  C   UNL A   1      33.668  16.898  23.262  1.00  0.00     0.000 A 
ENDBRANCH  11  17
ENDBRANCH   7   8
ENDBRANCH   4   7
ENDBRANCH   2   3
ENDBRANCH   1   2
BRANCH   1  23
ATOM     23  C   UNL A   1      33.163  29.348  25.317  1.00  0.00     0.118 C 
BRANCH  23  24
ATOM     24  N   UNL A   1      32.733  30.643  25.824  1.00  0.00    -0.352 N 
ATOM     25  C   UNL A   1      33.183  31.393  26.880  1.00  0.00     0.251 C 
ATOM     26  H   UNL A   1      31.992  31.051  25.321  1.00  0.00     0.163 HD
ATOM     27  O   UNL A   1      32.534  32.373  27.237  1.00  0.00    -0.269 OA
BRANCH  25  28
ATOM     28  C   UNL A   1      34.426  31.043  27.603  1.00  0.00     0.039 A 
ATOM     29  C   UNL A   1      35.376  32.047  27.825  1.00  0.00     0.014 A 
ATOM     30  C   UNL A   1      34.699  29.733  28.003  1.00  0.00     0.014 A 
ATOM     31  C   UNL A   1      36.563  31.752  28.499  1.00  0.00     0.010 A 
ATOM     32  C   UNL A   1      35.853  29.452  28.735  1.00  0.00     0.010 A 
ATOM     33  C   UNL A   1      36.798  30.458  28.989  1.00  0.00    -0.014 A 
BRANCH  33  34
ATOM     34  C   UNL A   1      38.019  30.142  29.775  1.00  0.00     0.031 A 
ATOM     35  C   UNL A   1      39.054  29.199  29.230  1.00  0.00     0.074 A 
ATOM     36  C   UNL A   1      38.160  30.654  31.014  1.00  0.00     0.049 A 
ATOM     37  N   UNL A   1      40.139  28.738  29.801  1.00  0.00    -0.248 NA
ATOM     38  C   UNL A   1      38.826  28.684  27.871  1.00  0.00     0.031 C 
ATOM     39  C   UNL A   1      37.205  31.547  31.672  1.00  0.00     0.029 A 
ATOM     40  N   UNL A   1      39.154  30.485  31.945  1.00  0.00    -0.354 N 
ATOM     41  C   UNL A   1      40.711  27.869  28.882  1.00  0.00     0.074 A 
ATOM     42  C   UNL A   1      39.831  27.831  27.733  1.00  0.00     0.031 C 
ATOM     43  C   UNL A   1      37.667  31.860  32.893  1.00  0.00     0.029 A 
ATOM     44  C   UNL A   1      38.929  31.161  33.119  1.00  0.00     0.049 A 
ATOM     45  H   UNL A   1      39.953  29.930  31.786  1.00  0.00     0.167 HD
ATOM     46  C   UNL A   1      41.875  27.181  28.979  1.00  0.00     0.037 A 
ATOM     47  C   UNL A   1      39.653  31.205  34.253  1.00  0.00     0.037 A 
ATOM     48  C   UNL A   1      42.761  27.242  30.112  1.00  0.00     0.049 A 
ATOM     49  C   UNL A   1      40.941  30.432  34.335  1.00  0.00     0.074 A 
ATOM     50  C   UNL A   1      43.992  26.631  30.279  1.00  0.00     0.029 A 
ATOM     51  N   UNL A   1      42.509  27.956  31.275  1.00  0.00    -0.354 N 
ATOM     52  N   UNL A   1      41.503  29.664  33.435  1.00  0.00    -0.248 NA
ATOM     53  C   UNL A   1      41.696  30.536  35.592  1.00  0.00     0.031 C 
ATOM     54  C   UNL A   1      44.465  26.940  31.559  1.00  0.00     0.029 A 
ATOM     55  C   UNL A   1      43.552  27.783  32.171  1.00  0.00     0.049 A 
ATOM     56  H   UNL A   1      41.707  28.504  31.438  1.00  0.00     0.167 HD
ATOM     57  C   UNL A   1      42.688  29.215  34.002  1.00  0.00     0.074 A 
ATOM     58  C   UNL A   1      42.770  29.808  35.321  1.00  0.00     0.031 C 
ATOM     59  C   UNL A   1      43.623  28.385  33.478  1.00  0.00     0.037 A 
BRANCH  46  60
ATOM     60  C   UNL A   1      42.259  26.299  27.825  1.00  0.00     0.064 A 
ATOM     61  C   UNL A   1      41.730  25.008  27.679  1.00  0.00     0.173 A 
ATOM     62  C   UNL A   1      43.137  26.764  26.835  1.00  0.00     0.173 A 
ATOM     63  F   UNL A   1      40.893  24.513  28.603  1.00  0.00    -0.203 F 
ATOM     64  C   UNL A   1      42.089  24.204  26.600  1.00  0.00     0.198 A 
ATOM     65  C   UNL A   1      43.472  25.969  25.742  1.00  0.00     0.198 A 
ATOM     66  F   UNL A   1      43.667  27.994  26.922  1.00  0.00    -0.203 F 
ATOM     67  F   UNL A   1      41.609  22.956  26.507  1.00  0.00    -0.200 F 
ATOM     68  C   UNL A   1      42.954  24.687  25.630  1.00  0.00     0.200 A 
ATOM     69  F   UNL A   1      44.298  26.442  24.798  1.00  0.00    -0.200 F 
ATOM     70  F   UNL A   1      43.295  23.914  24.589  1.00  0.00    -0.200 F 
ENDBRANCH  46  60
BRANCH  47  71
ATOM     71  C   UNL A   1      39.186  32.033  35.395  1.00  0.00     0.064 A 
ATOM     72  C   UNL A   1      39.518  33.392  35.479  1.00  0.00     0.173 A 
ATOM     73  C   UNL A   1      38.401  31.487  36.421  1.00  0.00     0.173 A 
ATOM     74  F   UNL A   1      40.285  33.953  34.533  1.00  0.00    -0.203 F 
ATOM     75  C   UNL A   1      39.098  34.170  36.555  1.00  0.00     0.198 A 
ATOM     76  C   UNL A   1      37.958  32.273  37.482  1.00  0.00     0.198 A 
ATOM     77  F   UNL A   1      38.052  30.193  36.385  1.00  0.00    -0.203 F 
ATOM     78  F   UNL A   1      39.465  35.457  36.632  1.00  0.00    -0.200 F 
ATOM     79  C   UNL A   1      38.312  33.612  37.553  1.00  0.00     0.200 A 
ATOM     80  F   UNL A   1      37.188  31.733  38.437  1.00  0.00    -0.200 F 
ATOM     81  F   UNL A   1      37.904  34.362  38.585  1.00  0.00    -0.200 F 
ENDBRANCH  47  71
BRANCH  59  82
ATOM     82  C   UNL A   1      44.832  28.095  34.318  1.00  0.00     0.064 A 
ATOM     83  C   UNL A   1      44.881  26.989  35.179  1.00  0.00     0.173 A 
ATOM     84  C   UNL A   1      45.970  28.912  34.230  1.00  0.00     0.173 A 
ATOM     85  F   UNL A   1      43.813  26.188  35.311  1.00  0.00    -0.203 F 
ATOM     86  C   UNL A   1      46.018  26.726  35.941  1.00  0.00     0.198 A 
ATOM     87  C   UNL A   1      47.114  28.630  34.972  1.00  0.00     0.198 A 
ATOM     88  F   UNL A   1      45.976  29.979  33.417  1.00  0.00    -0.203 F 
ATOM     89  F   UNL A   1      46.026  25.691  36.792  1.00  0.00    -0.200 F 
ATOM     90  C   UNL A   1      47.134  27.542  35.831  1.00  0.00     0.200 A 
ATOM     91  F   UNL A   1      48.196  29.411  34.855  1.00  0.00    -0.200 F 
ATOM     92  F   UNL A   1      48.228  27.283  36.560  1.00  0.00    -0.200 F 
ENDBRANCH  59  82
ENDBRANCH  33  34
ENDBRANCH  25  28
ENDBRANCH  23  24
ENDBRANCH   1  23
TORSDOF 13
ENDMDL
