MODEL 1
REMARK VINA RESULT:     -12.0      0.000      0.000
REMARK SMILES CC(C)(C(=O)NCCCNC(=O)c1ccc(-c2c3nc(c(-c4c(F)c(F)c(F)c(F)c4F)c4ccc([nH]4)c(-c4c(F)c(F)c(F)c(F)c4F)c4nc(c(-c5c(F)c(F)c(F)c(F)c5F)c5ccc2[nH]5)C=C4)C=C3)cc1)C1CCCCC1
REMARK SMILES IDX 8 1 7 2 6 3 4 4 5 5 2 7 1 8 3 9 76 10 77 11 81 12 78 13
REMARK SMILES IDX 80 14 79 15 9 16 10 17 11 18 12 20 13 21 14 22 75 23 15 24
REMARK SMILES IDX 74 25 16 26 17 27 18 28 68 29 19 30 73 31 67 32 69 33 20 34
REMARK SMILES IDX 72 35 66 36 65 37 21 39 53 40 33 41 52 42 34 43 37 44 51 45
REMARK SMILES IDX 70 46 35 47 36 48 50 50 71 51 38 52 22 53 23 54 31 55 24 56
REMARK SMILES IDX 25 57 29 58 32 59 26 60 27 61 30 62 28 63 54 64 55 65 63 66
REMARK SMILES IDX 56 67 57 68 61 69 64 70 58 71 59 72 62 73 60 74 39 75 40 76
REMARK SMILES IDX 48 77 41 78 42 79 46 80 49 81 43 82 44 83 47 84 45 85
REMARK H PARENT 6 6 10 19 69 38 37 49
REMARK Flexibility Score: inf
ROOT
ATOM      1  C   UNL A   1      31.480  32.094  26.577  1.00  0.00     0.042 C 
ENDROOT
BRANCH   1   2
ATOM      2  C   UNL A   1      31.780  30.692  26.069  1.00  0.00     0.117 C 
BRANCH   2   3
ATOM      3  N   UNL A   1      31.639  29.704  27.120  1.00  0.00    -0.356 N 
ATOM      4  C   UNL A   1      31.746  28.352  27.153  1.00  0.00     0.225 C 
ATOM      5  O   UNL A   1      31.427  27.844  28.232  1.00  0.00    -0.275 OA
ATOM      6  H   UNL A   1      31.418  30.097  27.995  1.00  0.00     0.163 HD
BRANCH   4   7
ATOM      7  C   UNL A   1      32.229  27.511  25.945  1.00  0.00     0.046 C 
ATOM      8  C   UNL A   1      31.226  27.642  24.781  1.00  0.00     0.022 C 
ATOM      9  C   UNL A   1      33.624  28.000  25.492  1.00  0.00     0.022 C 
BRANCH   7  10
ATOM     10  C   UNL A   1      32.365  25.972  26.324  1.00  0.00     0.004 C 
ATOM     11  C   UNL A   1      31.103  25.139  25.986  1.00  0.00     0.005 C 
ATOM     12  C   UNL A   1      33.649  25.294  25.790  1.00  0.00     0.005 C 
ATOM     13  C   UNL A   1      31.246  23.670  26.372  1.00  0.00     0.000 C 
ATOM     14  C   UNL A   1      33.738  23.820  26.182  1.00  0.00     0.000 C 
ATOM     15  C   UNL A   1      32.495  23.051  25.762  1.00  0.00     0.000 C 
ENDBRANCH   7  10
ENDBRANCH   4   7
ENDBRANCH   2   3
ENDBRANCH   1   2
BRANCH   1  16
ATOM     16  C   UNL A   1      32.648  32.732  27.316  1.00  0.00     0.118 C 
BRANCH  16  17
ATOM     17  N   UNL A   1      32.418  34.141  27.617  1.00  0.00    -0.352 N 
ATOM     18  C   UNL A   1      32.987  34.937  28.580  1.00  0.00     0.251 C 
ATOM     19  H   UNL A   1      31.754  34.587  27.045  1.00  0.00     0.163 HD
ATOM     20  O   UNL A   1      32.514  36.043  28.828  1.00  0.00    -0.269 OA
BRANCH  18  21
ATOM     21  C   UNL A   1      34.162  34.451  29.329  1.00  0.00     0.039 A 
ATOM     22  C   UNL A   1      33.975  33.803  30.552  1.00  0.00     0.014 A 
ATOM     23  C   UNL A   1      35.447  34.631  28.815  1.00  0.00     0.014 A 
ATOM     24  C   UNL A   1      35.077  33.270  31.224  1.00  0.00     0.010 A 
ATOM     25  C   UNL A   1      36.527  34.015  29.433  1.00  0.00     0.010 A 
ATOM     26  C   UNL A   1      36.356  33.336  30.649  1.00  0.00    -0.014 A 
BRANCH  26  27
ATOM     27  C   UNL A   1      37.544  32.731  31.300  1.00  0.00     0.031 A 
ATOM     28  C   UNL A   1      38.263  31.598  30.624  1.00  0.00     0.074 A 
ATOM     29  C   UNL A   1      37.915  33.133  32.531  1.00  0.00     0.049 A 
ATOM     30  N   UNL A   1      39.223  30.833  31.078  1.00  0.00    -0.248 NA
ATOM     31  C   UNL A   1      37.817  31.255  29.263  1.00  0.00     0.031 C 
ATOM     32  C   UNL A   1      37.273  34.197  33.305  1.00  0.00     0.029 A 
ATOM     33  N   UNL A   1      38.911  32.676  33.358  1.00  0.00    -0.354 N 
ATOM     34  C   UNL A   1      39.474  29.908  30.074  1.00  0.00     0.074 A 
ATOM     35  C   UNL A   1      38.529  30.167  29.010  1.00  0.00     0.031 C 
ATOM     36  C   UNL A   1      37.901  34.323  34.485  1.00  0.00     0.029 A 
ATOM     37  C   UNL A   1      38.955  33.316  34.573  1.00  0.00     0.049 A 
ATOM     38  H   UNL A   1      39.534  31.958  33.103  1.00  0.00     0.167 HD
ATOM     39  C   UNL A   1      40.423  28.944  30.032  1.00  0.00     0.037 A 
ATOM     40  C   UNL A   1      39.744  33.099  35.642  1.00  0.00     0.037 A 
ATOM     41  C   UNL A   1      41.376  28.708  31.084  1.00  0.00     0.049 A 
ATOM     42  C   UNL A   1      40.779  32.008  35.579  1.00  0.00     0.074 A 
ATOM     43  C   UNL A   1      42.414  27.794  31.119  1.00  0.00     0.029 A 
ATOM     44  N   UNL A   1      41.406  29.395  32.290  1.00  0.00    -0.354 N 
ATOM     45  N   UNL A   1      41.048  31.176  34.602  1.00  0.00    -0.248 NA
ATOM     46  C   UNL A   1      41.626  31.830  36.767  1.00  0.00     0.031 C 
ATOM     47  C   UNL A   1      43.036  27.889  32.368  1.00  0.00     0.029 A 
ATOM     48  C   UNL A   1      42.430  28.908  33.085  1.00  0.00     0.049 A 
ATOM     49  H   UNL A   1      40.791  30.121  32.542  1.00  0.00     0.167 HD
ATOM     50  C   UNL A   1      42.117  30.404  35.039  1.00  0.00     0.074 A 
ATOM     51  C   UNL A   1      42.452  30.873  36.367  1.00  0.00     0.031 C 
ATOM     52  C   UNL A   1      42.764  29.400  34.398  1.00  0.00     0.037 A 
BRANCH  39  53
ATOM     53  C   UNL A   1      40.476  28.070  28.811  1.00  0.00     0.064 A 
ATOM     54  C   UNL A   1      41.243  28.415  27.688  1.00  0.00     0.173 A 
ATOM     55  C   UNL A   1      39.772  26.856  28.774  1.00  0.00     0.173 A 
ATOM     56  F   UNL A   1      41.926  29.570  27.665  1.00  0.00    -0.203 F 
ATOM     57  C   UNL A   1      41.276  27.597  26.562  1.00  0.00     0.198 A 
ATOM     58  C   UNL A   1      39.837  26.023  27.661  1.00  0.00     0.198 A 
ATOM     59  F   UNL A   1      39.026  26.474  29.822  1.00  0.00    -0.203 F 
ATOM     60  F   UNL A   1      41.969  27.977  25.480  1.00  0.00    -0.200 F 
ATOM     61  C   UNL A   1      40.580  26.398  26.552  1.00  0.00     0.200 A 
ATOM     62  F   UNL A   1      39.176  24.857  27.659  1.00  0.00    -0.200 F 
ATOM     63  F   UNL A   1      40.620  25.607  25.471  1.00  0.00    -0.200 F 
ENDBRANCH  39  53
BRANCH  40  64
ATOM     64  C   UNL A   1      39.598  33.943  36.859  1.00  0.00     0.064 A 
ATOM     65  C   UNL A   1      38.813  33.518  37.939  1.00  0.00     0.173 A 
ATOM     66  C   UNL A   1      40.228  35.192  36.965  1.00  0.00     0.173 A 
ATOM     67  F   UNL A   1      38.174  32.339  37.878  1.00  0.00    -0.203 F 
ATOM     68  C   UNL A   1      38.640  34.319  39.066  1.00  0.00     0.198 A 
ATOM     69  C   UNL A   1      40.082  35.979  38.105  1.00  0.00     0.198 A 
ATOM     70  F   UNL A   1      40.997  35.644  35.964  1.00  0.00    -0.203 F 
ATOM     71  F   UNL A   1      37.840  33.909  40.060  1.00  0.00    -0.200 F 
ATOM     72  C   UNL A   1      39.279  35.546  39.151  1.00  0.00     0.200 A 
ATOM     73  F   UNL A   1      40.714  37.156  38.191  1.00  0.00    -0.200 F 
ATOM     74  F   UNL A   1      39.115  36.315  40.235  1.00  0.00    -0.200 F 
ENDBRANCH  40  64
BRANCH  52  75
ATOM     75  C   UNL A   1      43.940  28.778  35.093  1.00  0.00     0.064 A 
ATOM     76  C   UNL A   1      45.242  29.276  34.942  1.00  0.00     0.173 A 
ATOM     77  C   UNL A   1      43.748  27.696  35.969  1.00  0.00     0.173 A 
ATOM     78  F   UNL A   1      45.480  30.299  34.108  1.00  0.00    -0.203 F 
ATOM     79  C   UNL A   1      46.312  28.700  35.621  1.00  0.00     0.198 A 
ATOM     80  C   UNL A   1      44.815  27.146  36.672  1.00  0.00     0.198 A 
ATOM     81  F   UNL A   1      42.522  27.186  36.155  1.00  0.00    -0.203 F 
ATOM     82  F   UNL A   1      47.555  29.162  35.424  1.00  0.00    -0.200 F 
ATOM     83  C   UNL A   1      46.097  27.643  36.492  1.00  0.00     0.200 A 
ATOM     84  F   UNL A   1      44.602  26.135  37.526  1.00  0.00    -0.200 F 
ATOM     85  F   UNL A   1      47.126  27.097  37.154  1.00  0.00    -0.200 F 
ENDBRANCH  52  75
ENDBRANCH  26  27
ENDBRANCH  18  21
ENDBRANCH  16  17
ENDBRANCH   1  16
TORSDOF 11
ENDMDL
MODEL 2
REMARK VINA RESULT:     -12.0      0.212      1.683
REMARK SMILES CC(C)(C(=O)NCCCNC(=O)c1ccc(-c2c3nc(c(-c4c(F)c(F)c(F)c(F)c4F)c4ccc([nH]4)c(-c4c(F)c(F)c(F)c(F)c4F)c4nc(c(-c5c(F)c(F)c(F)c(F)c5F)c5ccc2[nH]5)C=C4)C=C3)cc1)C1CCCCC1
REMARK SMILES IDX 8 1 7 2 6 3 4 4 5 5 2 7 1 8 3 9 76 10 77 11 81 12 78 13
REMARK SMILES IDX 80 14 79 15 9 16 10 17 11 18 12 20 13 21 14 22 75 23 15 24
REMARK SMILES IDX 74 25 16 26 17 27 18 28 68 29 19 30 73 31 67 32 69 33 20 34
REMARK SMILES IDX 72 35 66 36 65 37 21 39 53 40 33 41 52 42 34 43 37 44 51 45
REMARK SMILES IDX 70 46 35 47 36 48 50 50 71 51 38 52 22 53 23 54 31 55 24 56
REMARK SMILES IDX 25 57 29 58 32 59 26 60 27 61 30 62 28 63 54 64 55 65 63 66
REMARK SMILES IDX 56 67 57 68 61 69 64 70 58 71 59 72 62 73 60 74 39 75 40 76
REMARK SMILES IDX 48 77 41 78 42 79 46 80 49 81 43 82 44 83 47 84 45 85
REMARK H PARENT 6 6 10 19 69 38 37 49
REMARK Flexibility Score: inf
ROOT
ATOM      1  C   UNL A   1      31.474  32.128  26.705  1.00  0.00     0.042 C 
ENDROOT
BRANCH   1   2
ATOM      2  C   UNL A   1      31.773  30.753  26.126  1.00  0.00     0.117 C 
BRANCH   2   3
ATOM      3  N   UNL A   1      31.674  29.718  27.136  1.00  0.00    -0.356 N 
ATOM      4  C   UNL A   1      31.829  28.370  27.112  1.00  0.00     0.225 C 
ATOM      5  O   UNL A   1      31.536  27.807  28.170  1.00  0.00    -0.275 OA
ATOM      6  H   UNL A   1      31.446  30.066  28.028  1.00  0.00     0.163 HD
BRANCH   4   7
ATOM      7  C   UNL A   1      32.333  27.598  25.867  1.00  0.00     0.046 C 
ATOM      8  C   UNL A   1      31.213  27.520  24.809  1.00  0.00     0.022 C 
ATOM      9  C   UNL A   1      33.566  28.315  25.271  1.00  0.00     0.022 C 
BRANCH   7  10
ATOM     10  C   UNL A   1      32.778  26.117  26.240  1.00  0.00     0.004 C 
ATOM     11  C   UNL A   1      31.625  25.086  26.156  1.00  0.00     0.005 C 
ATOM     12  C   UNL A   1      34.036  25.621  25.490  1.00  0.00     0.005 C 
ATOM     13  C   UNL A   1      32.068  23.675  26.534  1.00  0.00     0.000 C 
ATOM     14  C   UNL A   1      34.429  24.198  25.884  1.00  0.00     0.000 C 
ATOM     15  C   UNL A   1      33.269  23.228  25.715  1.00  0.00     0.000 C 
ENDBRANCH   7  10
ENDBRANCH   4   7
ENDBRANCH   2   3
ENDBRANCH   1   2
BRANCH   1  16
ATOM     16  C   UNL A   1      32.696  32.809  27.307  1.00  0.00     0.118 C 
BRANCH  16  17
ATOM     17  N   UNL A   1      32.455  34.211  27.627  1.00  0.00    -0.352 N 
ATOM     18  C   UNL A   1      33.009  34.996  28.608  1.00  0.00     0.251 C 
ATOM     19  H   UNL A   1      31.794  34.663  27.054  1.00  0.00     0.163 HD
ATOM     20  O   UNL A   1      32.527  36.095  28.867  1.00  0.00    -0.269 OA
BRANCH  18  21
ATOM     21  C   UNL A   1      34.178  34.506  29.362  1.00  0.00     0.039 A 
ATOM     22  C   UNL A   1      33.985  33.880  30.596  1.00  0.00     0.014 A 
ATOM     23  C   UNL A   1      35.465  34.659  28.843  1.00  0.00     0.014 A 
ATOM     24  C   UNL A   1      35.080  33.341  31.275  1.00  0.00     0.010 A 
ATOM     25  C   UNL A   1      36.537  34.037  29.469  1.00  0.00     0.010 A 
ATOM     26  C   UNL A   1      36.358  33.380  30.696  1.00  0.00    -0.014 A 
BRANCH  26  27
ATOM     27  C   UNL A   1      37.539  32.769  31.354  1.00  0.00     0.031 A 
ATOM     28  C   UNL A   1      38.253  31.628  30.685  1.00  0.00     0.074 A 
ATOM     29  C   UNL A   1      37.907  33.172  32.586  1.00  0.00     0.049 A 
ATOM     30  N   UNL A   1      39.205  30.857  31.146  1.00  0.00    -0.248 NA
ATOM     31  C   UNL A   1      37.811  31.284  29.323  1.00  0.00     0.031 C 
ATOM     32  C   UNL A   1      37.270  34.243  33.353  1.00  0.00     0.029 A 
ATOM     33  N   UNL A   1      38.896  32.710  33.419  1.00  0.00    -0.354 N 
ATOM     34  C   UNL A   1      39.454  29.928  30.146  1.00  0.00     0.074 A 
ATOM     35  C   UNL A   1      38.516  30.191  29.077  1.00  0.00     0.031 C 
ATOM     36  C   UNL A   1      37.893  34.367  34.536  1.00  0.00     0.029 A 
ATOM     37  C   UNL A   1      38.939  33.353  34.632  1.00  0.00     0.049 A 
ATOM     38  H   UNL A   1      39.516  31.987  33.169  1.00  0.00     0.167 HD
ATOM     39  C   UNL A   1      40.397  28.956  30.112  1.00  0.00     0.037 A 
ATOM     40  C   UNL A   1      39.721  33.134  35.706  1.00  0.00     0.037 A 
ATOM     41  C   UNL A   1      41.343  28.717  31.169  1.00  0.00     0.049 A 
ATOM     42  C   UNL A   1      40.749  32.035  35.651  1.00  0.00     0.074 A 
ATOM     43  C   UNL A   1      42.374  27.796  31.212  1.00  0.00     0.029 A 
ATOM     44  N   UNL A   1      41.372  29.408  32.373  1.00  0.00    -0.354 N 
ATOM     45  N   UNL A   1      41.016  31.198  34.677  1.00  0.00    -0.248 NA
ATOM     46  C   UNL A   1      41.589  31.855  36.844  1.00  0.00     0.031 C 
ATOM     47  C   UNL A   1      42.991  27.890  32.464  1.00  0.00     0.029 A 
ATOM     48  C   UNL A   1      42.389  28.916  33.174  1.00  0.00     0.049 A 
ATOM     49  H   UNL A   1      40.761  30.139  32.620  1.00  0.00     0.167 HD
ATOM     50  C   UNL A   1      42.077  30.420  35.122  1.00  0.00     0.074 A 
ATOM     51  C   UNL A   1      42.410  30.890  36.450  1.00  0.00     0.031 C 
ATOM     52  C   UNL A   1      42.720  29.409  34.487  1.00  0.00     0.037 A 
BRANCH  39  53
ATOM     53  C   UNL A   1      40.448  28.078  28.894  1.00  0.00     0.064 A 
ATOM     54  C   UNL A   1      39.731  26.873  28.820  1.00  0.00     0.173 A 
ATOM     55  C   UNL A   1      41.202  28.460  27.773  1.00  0.00     0.173 A 
ATOM     56  F   UNL A   1      39.005  26.454  29.868  1.00  0.00    -0.203 F 
ATOM     57  C   UNL A   1      39.795  26.069  27.686  1.00  0.00     0.198 A 
ATOM     58  C   UNL A   1      41.233  27.670  26.627  1.00  0.00     0.198 A 
ATOM     59  F   UNL A   1      41.902  29.604  27.786  1.00  0.00    -0.203 F 
ATOM     60  F   UNL A   1      39.148  24.895  27.663  1.00  0.00    -0.200 F 
ATOM     61  C   UNL A   1      40.538  26.471  26.588  1.00  0.00     0.200 A 
ATOM     62  F   UNL A   1      41.939  28.069  25.560  1.00  0.00    -0.200 F 
ATOM     63  F   UNL A   1      40.591  25.700  25.493  1.00  0.00    -0.200 F 
ENDBRANCH  39  53
BRANCH  40  64
ATOM     64  C   UNL A   1      39.576  33.983  36.919  1.00  0.00     0.064 A 
ATOM     65  C   UNL A   1      38.795  33.560  38.004  1.00  0.00     0.173 A 
ATOM     66  C   UNL A   1      40.202  35.235  37.018  1.00  0.00     0.173 A 
ATOM     67  F   UNL A   1      38.160  32.378  37.950  1.00  0.00    -0.203 F 
ATOM     68  C   UNL A   1      38.623  34.365  39.127  1.00  0.00     0.198 A 
ATOM     69  C   UNL A   1      40.056  36.026  38.155  1.00  0.00     0.198 A 
ATOM     70  F   UNL A   1      40.967  35.685  36.012  1.00  0.00    -0.203 F 
ATOM     71  F   UNL A   1      37.827  33.957  40.126  1.00  0.00    -0.200 F 
ATOM     72  C   UNL A   1      39.258  35.595  39.205  1.00  0.00     0.200 A 
ATOM     73  F   UNL A   1      40.685  37.205  38.234  1.00  0.00    -0.200 F 
ATOM     74  F   UNL A   1      39.095  36.369  40.286  1.00  0.00    -0.200 F 
ENDBRANCH  40  64
BRANCH  52  75
ATOM     75  C   UNL A   1      43.888  28.781  35.190  1.00  0.00     0.064 A 
ATOM     76  C   UNL A   1      43.740  27.665  36.027  1.00  0.00     0.173 A 
ATOM     77  C   UNL A   1      45.186  29.275  34.978  1.00  0.00     0.173 A 
ATOM     78  F   UNL A   1      42.521  27.163  36.273  1.00  0.00    -0.203 F 
ATOM     79  C   UNL A   1      44.844  27.083  36.644  1.00  0.00     0.198 A 
ATOM     80  C   UNL A   1      46.290  28.668  35.569  1.00  0.00     0.198 A 
ATOM     81  F   UNL A   1      45.384  30.335  34.181  1.00  0.00    -0.203 F 
ATOM     82  F   UNL A   1      44.673  26.047  37.478  1.00  0.00    -0.200 F 
ATOM     83  C   UNL A   1      46.117  27.578  36.407  1.00  0.00     0.200 A 
ATOM     84  F   UNL A   1      47.521  29.138  35.325  1.00  0.00    -0.200 F 
ATOM     85  F   UNL A   1      47.180  27.008  36.993  1.00  0.00    -0.200 F 
ENDBRANCH  52  75
ENDBRANCH  26  27
ENDBRANCH  18  21
ENDBRANCH  16  17
ENDBRANCH   1  16
TORSDOF 11
ENDMDL
MODEL 3
REMARK VINA RESULT:     -12.0      0.258      1.688
REMARK SMILES CC(C)(C(=O)NCCCNC(=O)c1ccc(-c2c3nc(c(-c4c(F)c(F)c(F)c(F)c4F)c4ccc([nH]4)c(-c4c(F)c(F)c(F)c(F)c4F)c4nc(c(-c5c(F)c(F)c(F)c(F)c5F)c5ccc2[nH]5)C=C4)C=C3)cc1)C1CCCCC1
REMARK SMILES IDX 8 1 7 2 6 3 4 4 5 5 2 7 1 8 3 9 76 10 77 11 81 12 78 13
REMARK SMILES IDX 80 14 79 15 9 16 10 17 11 18 12 20 13 21 14 22 75 23 15 24
REMARK SMILES IDX 74 25 16 26 17 27 18 28 68 29 19 30 73 31 67 32 69 33 20 34
REMARK SMILES IDX 72 35 66 36 65 37 21 39 53 40 33 41 52 42 34 43 37 44 51 45
REMARK SMILES IDX 70 46 35 47 36 48 50 50 71 51 38 52 22 53 23 54 31 55 24 56
REMARK SMILES IDX 25 57 29 58 32 59 26 60 27 61 30 62 28 63 54 64 55 65 63 66
REMARK SMILES IDX 56 67 57 68 61 69 64 70 58 71 59 72 62 73 60 74 39 75 40 76
REMARK SMILES IDX 48 77 41 78 42 79 46 80 49 81 43 82 44 83 47 84 45 85
REMARK H PARENT 6 6 10 19 69 38 37 49
REMARK Flexibility Score: inf
ROOT
ATOM      1  C   UNL A   1      31.502  32.117  26.680  1.00  0.00     0.042 C 
ENDROOT
BRANCH   1   2
ATOM      2  C   UNL A   1      31.800  30.726  26.140  1.00  0.00     0.117 C 
BRANCH   2   3
ATOM      3  N   UNL A   1      31.646  29.714  27.166  1.00  0.00    -0.356 N 
ATOM      4  C   UNL A   1      31.747  28.360  27.167  1.00  0.00     0.225 C 
ATOM      5  O   UNL A   1      31.418  27.828  28.230  1.00  0.00    -0.275 OA
ATOM      6  H   UNL A   1      31.420  30.086  28.048  1.00  0.00     0.163 HD
BRANCH   4   7
ATOM      7  C   UNL A   1      32.235  27.547  25.942  1.00  0.00     0.046 C 
ATOM      8  C   UNL A   1      31.261  27.740  24.762  1.00  0.00     0.022 C 
ATOM      9  C   UNL A   1      33.651  28.016  25.534  1.00  0.00     0.022 C 
BRANCH   7  10
ATOM     10  C   UNL A   1      32.326  25.994  26.273  1.00  0.00     0.004 C 
ATOM     11  C   UNL A   1      31.056  25.202  25.873  1.00  0.00     0.005 C 
ATOM     12  C   UNL A   1      33.609  25.304  25.752  1.00  0.00     0.005 C 
ATOM     13  C   UNL A   1      31.155  23.718  26.214  1.00  0.00     0.000 C 
ATOM     14  C   UNL A   1      33.654  23.817  26.097  1.00  0.00     0.000 C 
ATOM     15  C   UNL A   1      32.406  23.090  25.618  1.00  0.00     0.000 C 
ENDBRANCH   7  10
ENDBRANCH   4   7
ENDBRANCH   2   3
ENDBRANCH   1   2
BRANCH   1  16
ATOM     16  C   UNL A   1      32.712  32.792  27.311  1.00  0.00     0.118 C 
BRANCH  16  17
ATOM     17  N   UNL A   1      32.469  34.196  27.626  1.00  0.00    -0.352 N 
ATOM     18  C   UNL A   1      33.010  34.980  28.615  1.00  0.00     0.251 C 
ATOM     19  H   UNL A   1      31.818  34.648  27.043  1.00  0.00     0.163 HD
ATOM     20  O   UNL A   1      32.527  36.081  28.865  1.00  0.00    -0.269 OA
BRANCH  18  21
ATOM     21  C   UNL A   1      34.167  34.487  29.387  1.00  0.00     0.039 A 
ATOM     22  C   UNL A   1      33.956  33.896  30.634  1.00  0.00     0.014 A 
ATOM     23  C   UNL A   1      35.459  34.605  28.871  1.00  0.00     0.014 A 
ATOM     24  C   UNL A   1      35.038  33.355  31.332  1.00  0.00     0.010 A 
ATOM     25  C   UNL A   1      36.517  33.980  29.517  1.00  0.00     0.010 A 
ATOM     26  C   UNL A   1      36.320  33.356  30.759  1.00  0.00    -0.014 A 
BRANCH  26  27
ATOM     27  C   UNL A   1      37.487  32.741  31.438  1.00  0.00     0.031 A 
ATOM     28  C   UNL A   1      38.188  31.576  30.797  1.00  0.00     0.074 A 
ATOM     29  C   UNL A   1      37.851  33.163  32.664  1.00  0.00     0.049 A 
ATOM     30  N   UNL A   1      39.125  30.801  31.281  1.00  0.00    -0.248 NA
ATOM     31  C   UNL A   1      37.751  31.212  29.439  1.00  0.00     0.031 C 
ATOM     32  C   UNL A   1      37.225  34.258  33.406  1.00  0.00     0.029 A 
ATOM     33  N   UNL A   1      38.827  32.702  33.514  1.00  0.00    -0.354 N 
ATOM     34  C   UNL A   1      39.367  29.848  30.301  1.00  0.00     0.074 A 
ATOM     35  C   UNL A   1      38.441  30.104  29.220  1.00  0.00     0.031 C 
ATOM     36  C   UNL A   1      37.841  34.396  34.591  1.00  0.00     0.029 A 
ATOM     37  C   UNL A   1      38.871  33.369  34.715  1.00  0.00     0.049 A 
ATOM     38  H   UNL A   1      39.437  31.965  33.284  1.00  0.00     0.167 HD
ATOM     39  C   UNL A   1      40.295  28.862  30.293  1.00  0.00     0.037 A 
ATOM     40  C   UNL A   1      39.641  33.159  35.799  1.00  0.00     0.037 A 
ATOM     41  C   UNL A   1      41.230  28.630  31.362  1.00  0.00     0.049 A 
ATOM     42  C   UNL A   1      40.653  32.044  35.773  1.00  0.00     0.074 A 
ATOM     43  C   UNL A   1      42.246  27.694  31.430  1.00  0.00     0.029 A 
ATOM     44  N   UNL A   1      41.261  29.343  32.552  1.00  0.00    -0.354 N 
ATOM     45  N   UNL A   1      40.915  31.184  34.818  1.00  0.00    -0.248 NA
ATOM     46  C   UNL A   1      41.481  31.874  36.975  1.00  0.00     0.031 C 
ATOM     47  C   UNL A   1      42.856  27.803  32.685  1.00  0.00     0.029 A 
ATOM     48  C   UNL A   1      42.264  28.852  33.371  1.00  0.00     0.049 A 
ATOM     49  H   UNL A   1      40.659  30.088  32.780  1.00  0.00     0.167 HD
ATOM     50  C   UNL A   1      41.961  30.399  35.287  1.00  0.00     0.074 A 
ATOM     51  C   UNL A   1      42.290  30.891  36.608  1.00  0.00     0.031 C 
ATOM     52  C   UNL A   1      42.592  29.367  34.676  1.00  0.00     0.037 A 
BRANCH  39  53
ATOM     53  C   UNL A   1      40.343  27.960  29.093  1.00  0.00     0.064 A 
ATOM     54  C   UNL A   1      39.625  26.754  29.046  1.00  0.00     0.173 A 
ATOM     55  C   UNL A   1      41.093  28.319  27.962  1.00  0.00     0.173 A 
ATOM     56  F   UNL A   1      38.902  26.356  30.104  1.00  0.00    -0.203 F 
ATOM     57  C   UNL A   1      39.685  25.926  27.928  1.00  0.00     0.198 A 
ATOM     58  C   UNL A   1      41.120  27.506  26.832  1.00  0.00     0.198 A 
ATOM     59  F   UNL A   1      41.793  29.462  27.950  1.00  0.00    -0.203 F 
ATOM     60  F   UNL A   1      39.038  24.753  27.931  1.00  0.00    -0.200 F 
ATOM     61  C   UNL A   1      40.424  26.306  26.819  1.00  0.00     0.200 A 
ATOM     62  F   UNL A   1      41.823  27.883  25.755  1.00  0.00    -0.200 F 
ATOM     63  F   UNL A   1      40.474  25.513  25.741  1.00  0.00    -0.200 F 
ENDBRANCH  39  53
BRANCH  40  64
ATOM     64  C   UNL A   1      39.501  34.033  36.994  1.00  0.00     0.064 A 
ATOM     65  C   UNL A   1      40.179  35.258  37.074  1.00  0.00     0.173 A 
ATOM     66  C   UNL A   1      38.699  33.663  38.084  1.00  0.00     0.173 A 
ATOM     67  F   UNL A   1      40.974  35.649  36.066  1.00  0.00    -0.203 F 
ATOM     68  C   UNL A   1      40.083  36.064  38.206  1.00  0.00     0.198 A 
ATOM     69  C   UNL A   1      38.577  34.484  39.202  1.00  0.00     0.198 A 
ATOM     70  F   UNL A   1      38.022  32.505  38.057  1.00  0.00    -0.203 F 
ATOM     71  F   UNL A   1      40.786  37.203  38.276  1.00  0.00    -0.200 F 
ATOM     72  C   UNL A   1      39.278  35.679  39.267  1.00  0.00     0.200 A 
ATOM     73  F   UNL A   1      37.785  34.118  40.218  1.00  0.00    -0.200 F 
ATOM     74  F   UNL A   1      39.184  36.456  40.355  1.00  0.00    -0.200 F 
ENDBRANCH  40  64
BRANCH  52  75
ATOM     75  C   UNL A   1      43.746  28.735  35.400  1.00  0.00     0.064 A 
ATOM     76  C   UNL A   1      45.068  29.163  35.210  1.00  0.00     0.173 A 
ATOM     77  C   UNL A   1      43.514  27.718  36.342  1.00  0.00     0.173 A 
ATOM     78  F   UNL A   1      45.344  30.121  34.313  1.00  0.00    -0.203 F 
ATOM     79  C   UNL A   1      46.117  28.580  35.915  1.00  0.00     0.198 A 
ATOM     80  C   UNL A   1      44.561  27.163  37.071  1.00  0.00     0.198 A 
ATOM     81  F   UNL A   1      42.268  27.277  36.568  1.00  0.00    -0.203 F 
ATOM     82  F   UNL A   1      47.378  28.971  35.681  1.00  0.00    -0.200 F 
ATOM     83  C   UNL A   1      45.862  27.589  36.851  1.00  0.00     0.200 A 
ATOM     84  F   UNL A   1      44.311  26.218  37.986  1.00  0.00    -0.200 F 
ATOM     85  F   UNL A   1      46.873  27.038  37.539  1.00  0.00    -0.200 F 
ENDBRANCH  52  75
ENDBRANCH  26  27
ENDBRANCH  18  21
ENDBRANCH  16  17
ENDBRANCH   1  16
TORSDOF 11
ENDMDL
