MODEL 1
REMARK VINA RESULT:     -14.9      0.000      0.000
REMARK SMILES Cc1cccc(N2CCN(c3ncc(NC(=O)c4ccccc4F)cc3C(=O)NCCCNC(=O)c3ccc(-c4c5nc(c(-c6c(F)c(F)c(F)c(F)c6F)c6ccc([nH]6)c(-c6c(F)c(F)c(F)c(F)c6F)c6nc(c(-c7c(F)c(F)c(F)c(F)c7F)c7ccc4[nH]7)C=C6)C=C5)cc3)C[C@@H]2C)c1
REMARK SMILES IDX 31 1 30 2 29 3 27 4 28 5 26 7 11 8 12 9 13 10 25 11 14 12
REMARK SMILES IDX 10 13 7 14 8 15 100 16 9 17 99 18 101 19 6 20 1 21 2 22 3 23
REMARK SMILES IDX 102 24 4 25 5 26 15 27 16 28 17 30 18 31 19 32 23 33 20 34
REMARK SMILES IDX 22 35 24 36 21 37 32 38 33 39 34 40 35 42 36 43 37 44 98 45
REMARK SMILES IDX 38 46 97 47 39 48 40 49 41 50 91 51 42 52 96 53 90 54 92 55
REMARK SMILES IDX 43 56 95 57 89 58 88 59 44 61 76 62 56 63 75 64 57 65 60 66
REMARK SMILES IDX 74 67 93 68 58 69 59 70 73 72 94 73 61 74 45 75 46 76 54 77
REMARK SMILES IDX 47 78 48 79 52 80 55 81 49 82 50 83 53 84 51 85 77 86 78 87
REMARK SMILES IDX 86 88 79 89 80 90 84 91 87 92 81 93 82 94 85 95 83 96 62 97
REMARK SMILES IDX 63 98 71 99 64 100 65 101 69 102 72 103 66 104 67 105 70 106
REMARK SMILES IDX 68 107
REMARK H PARENT 29 6 15 29 33 41 92 60 60 71
REMARK Flexibility Score: inf
ROOT
ATOM      1  C   UNL A   1      37.254  23.545  24.699  1.00  0.00     0.042 C 
ENDROOT
BRANCH   1   2
ATOM      2  C   UNL A   1      35.784  23.981  24.654  1.00  0.00     0.118 C 
BRANCH   2   3
ATOM      3  N   UNL A   1      35.313  24.005  23.281  1.00  0.00    -0.352 N 
ATOM      4  C   UNL A   1      34.036  24.026  22.767  1.00  0.00     0.255 C 
ATOM      5  O   UNL A   1      33.909  23.578  21.630  1.00  0.00    -0.269 OA
ATOM      6  H   UNL A   1      36.027  24.007  22.603  1.00  0.00     0.163 HD
BRANCH   4   7
ATOM      7  C   UNL A   1      32.858  24.490  23.547  1.00  0.00     0.084 A 
ATOM      8  C   UNL A   1      32.190  23.674  24.479  1.00  0.00     0.141 A 
ATOM      9  N   UNL A   1      31.123  24.161  25.179  1.00  0.00    -0.236 NA
ATOM     10  C   UNL A   1      30.709  25.437  24.969  1.00  0.00     0.139 A 
ATOM     11  C   UNL A   1      32.388  25.792  23.354  1.00  0.00     0.045 A 
ATOM     12  C   UNL A   1      31.296  26.283  24.050  1.00  0.00     0.060 A 
BRANCH   8  13
ATOM     13  N   UNL A   1      32.457  22.327  24.630  1.00  0.00    -0.352 N 
ATOM     14  N   UNL A   1      32.980  19.527  24.869  1.00  0.00    -0.365 N 
ATOM     15  C   UNL A   1      32.722  20.130  23.546  1.00  0.00     0.138 C 
ATOM     16  C   UNL A   1      33.431  20.450  25.948  1.00  0.00     0.098 C 
ATOM     17  C   UNL A   1      31.856  21.404  23.655  1.00  0.00     0.139 C 
ATOM     18  C   UNL A   1      32.532  21.726  25.978  1.00  0.00     0.142 C 
ATOM     19  C   UNL A   1      34.912  20.804  25.758  1.00  0.00     0.033 C 
BRANCH  14  20
ATOM     20  C   UNL A   1      33.338  18.187  24.946  1.00  0.00     0.037 A 
ATOM     21  C   UNL A   1      31.873  14.939  26.330  1.00  0.00     0.044 C 
ATOM     22  C   UNL A   1      32.810  15.906  25.670  1.00  0.00    -0.049 A 
ATOM     23  C   UNL A   1      33.975  15.440  25.055  1.00  0.00     0.003 A 
ATOM     24  C   UNL A   1      32.511  17.276  25.617  1.00  0.00     0.029 A 
ATOM     25  C   UNL A   1      34.822  16.330  24.402  1.00  0.00     0.002 A 
ATOM     26  C   UNL A   1      34.500  17.688  24.344  1.00  0.00     0.026 A 
ENDBRANCH  14  20
ENDBRANCH   8  13
BRANCH  12  27
ATOM     27  N   UNL A   1      30.861  27.574  23.718  1.00  0.00    -0.320 N 
ATOM     28  C   UNL A   1      30.999  28.765  24.385  1.00  0.00     0.258 C 
ATOM     29  H   UNL A   1      30.375  27.637  22.865  1.00  0.00     0.170 HD
ATOM     30  O   UNL A   1      30.260  29.707  24.103  1.00  0.00    -0.269 OA
BRANCH  28  31
ATOM     31  C   UNL A   1      32.094  28.980  25.350  1.00  0.00     0.075 A 
ATOM     32  C   UNL A   1      31.764  29.295  26.673  1.00  0.00     0.017 A 
ATOM     33  C   UNL A   1      33.433  29.000  24.952  1.00  0.00     0.135 A 
ATOM     34  C   UNL A   1      32.777  29.566  27.597  1.00  0.00     0.001 A 
ATOM     35  C   UNL A   1      34.444  29.246  25.876  1.00  0.00     0.040 A 
ATOM     36  F   UNL A   1      33.783  28.822  23.670  1.00  0.00    -0.206 F 
ATOM     37  C   UNL A   1      34.115  29.526  27.201  1.00  0.00     0.003 A 
ENDBRANCH  28  31
ENDBRANCH  12  27
ENDBRANCH   4   7
ENDBRANCH   2   3
ENDBRANCH   1   2
BRANCH   1  38
ATOM     38  C   UNL A   1      37.781  23.340  26.110  1.00  0.00     0.118 C 
BRANCH  38  39
ATOM     39  N   UNL A   1      39.226  23.152  26.163  1.00  0.00    -0.352 N 
ATOM     40  C   UNL A   1      40.178  24.033  26.647  1.00  0.00     0.251 C 
ATOM     41  H   UNL A   1      39.566  22.298  25.813  1.00  0.00     0.163 HD
ATOM     42  O   UNL A   1      41.356  23.730  26.708  1.00  0.00    -0.269 OA
BRANCH  40  43
ATOM     43  C   UNL A   1      39.694  25.318  27.196  1.00  0.00     0.039 A 
ATOM     44  C   UNL A   1      40.097  26.492  26.555  1.00  0.00     0.014 A 
ATOM     45  C   UNL A   1      39.102  25.348  28.458  1.00  0.00     0.014 A 
ATOM     46  C   UNL A   1      40.115  27.678  27.280  1.00  0.00     0.010 A 
ATOM     47  C   UNL A   1      39.193  26.508  29.202  1.00  0.00     0.010 A 
ATOM     48  C   UNL A   1      39.768  27.651  28.634  1.00  0.00    -0.014 A 
BRANCH  48  49
ATOM     49  C   UNL A   1      40.112  28.739  29.541  1.00  0.00     0.031 A 
ATOM     50  C   UNL A   1      39.138  29.802  29.846  1.00  0.00     0.074 A 
ATOM     51  C   UNL A   1      41.338  28.768  30.109  1.00  0.00     0.049 A 
ATOM     52  N   UNL A   1      39.457  31.016  30.148  1.00  0.00    -0.248 NA
ATOM     53  C   UNL A   1      37.702  29.578  29.789  1.00  0.00     0.031 C 
ATOM     54  C   UNL A   1      41.806  29.659  31.168  1.00  0.00     0.029 A 
ATOM     55  N   UNL A   1      42.502  28.113  29.663  1.00  0.00    -0.354 N 
ATOM     56  C   UNL A   1      38.318  31.648  30.595  1.00  0.00     0.074 A 
ATOM     57  C   UNL A   1      37.242  30.736  30.274  1.00  0.00     0.031 C 
ATOM     58  C   UNL A   1      43.143  29.752  31.089  1.00  0.00     0.029 A 
ATOM     59  C   UNL A   1      43.553  29.027  29.899  1.00  0.00     0.049 A 
ATOM     60  H   UNL A   1      42.568  27.213  29.273  1.00  0.00     0.167 HD
ATOM     61  C   UNL A   1      38.433  32.800  31.321  1.00  0.00     0.037 A 
ATOM     62  C   UNL A   1      44.298  29.543  28.881  1.00  0.00     0.037 A 
ATOM     63  C   UNL A   1      39.827  33.233  31.416  1.00  0.00     0.049 A 
ATOM     64  C   UNL A   1      44.305  31.051  28.830  1.00  0.00     0.074 A 
ATOM     65  C   UNL A   1      40.780  33.102  32.413  1.00  0.00     0.029 A 
ATOM     66  N   UNL A   1      40.510  33.636  30.271  1.00  0.00    -0.354 N 
ATOM     67  N   UNL A   1      43.383  31.800  29.366  1.00  0.00    -0.248 NA
ATOM     68  C   UNL A   1      45.324  31.825  28.129  1.00  0.00     0.031 C 
ATOM     69  C   UNL A   1      42.047  33.401  31.859  1.00  0.00     0.029 A 
ATOM     70  C   UNL A   1      41.866  33.722  30.524  1.00  0.00     0.049 A 
ATOM     71  H   UNL A   1      40.088  33.833  29.404  1.00  0.00     0.167 HD
ATOM     72  C   UNL A   1      43.647  33.116  29.083  1.00  0.00     0.074 A 
ATOM     73  C   UNL A   1      44.884  33.080  28.326  1.00  0.00     0.031 C 
ATOM     74  C   UNL A   1      42.810  34.117  29.490  1.00  0.00     0.037 A 
BRANCH  61  75
ATOM     75  C   UNL A   1      37.332  33.328  32.224  1.00  0.00     0.064 A 
ATOM     76  C   UNL A   1      36.260  34.086  31.700  1.00  0.00     0.173 A 
ATOM     77  C   UNL A   1      37.317  33.195  33.623  1.00  0.00     0.173 A 
ATOM     78  F   UNL A   1      36.038  34.175  30.382  1.00  0.00    -0.203 F 
ATOM     79  C   UNL A   1      35.363  34.786  32.513  1.00  0.00     0.198 A 
ATOM     80  C   UNL A   1      36.456  33.938  34.441  1.00  0.00     0.198 A 
ATOM     81  F   UNL A   1      38.090  32.294  34.242  1.00  0.00    -0.203 F 
ATOM     82  F   UNL A   1      34.382  35.508  31.952  1.00  0.00    -0.200 F 
ATOM     83  C   UNL A   1      35.493  34.752  33.884  1.00  0.00     0.200 A 
ATOM     84  F   UNL A   1      36.573  33.858  35.773  1.00  0.00    -0.200 F 
ATOM     85  F   UNL A   1      34.673  35.470  34.663  1.00  0.00    -0.200 F 
ENDBRANCH  61  75
BRANCH  62  86
ATOM     86  C   UNL A   1      44.391  28.661  27.689  1.00  0.00     0.064 A 
ATOM     87  C   UNL A   1      45.126  27.464  27.784  1.00  0.00     0.173 A 
ATOM     88  C   UNL A   1      43.527  28.803  26.597  1.00  0.00     0.173 A 
ATOM     89  F   UNL A   1      45.967  27.274  28.814  1.00  0.00    -0.203 F 
ATOM     90  C   UNL A   1      44.927  26.416  26.890  1.00  0.00     0.198 A 
ATOM     91  C   UNL A   1      43.342  27.755  25.692  1.00  0.00     0.198 A 
ATOM     92  F   UNL A   1      42.781  29.908  26.458  1.00  0.00    -0.203 F 
ATOM     93  F   UNL A   1      45.561  25.249  27.076  1.00  0.00    -0.200 F 
ATOM     94  C   UNL A   1      44.018  26.555  25.856  1.00  0.00     0.200 A 
ATOM     95  F   UNL A   1      42.438  27.876  24.709  1.00  0.00    -0.200 F 
ATOM     96  F   UNL A   1      43.763  25.520  25.044  1.00  0.00    -0.200 F 
ENDBRANCH  62  86
BRANCH  74  97
ATOM     97  C   UNL A   1      42.861  35.567  29.059  1.00  0.00     0.064 A 
ATOM     98  C   UNL A   1      42.145  36.095  27.972  1.00  0.00     0.173 A 
ATOM     99  C   UNL A   1      43.557  36.521  29.842  1.00  0.00     0.173 A 
ATOM    100  F   UNL A   1      41.337  35.330  27.228  1.00  0.00    -0.203 F 
ATOM    101  C   UNL A   1      42.184  37.455  27.647  1.00  0.00     0.198 A 
ATOM    102  C   UNL A   1      43.545  37.885  29.551  1.00  0.00     0.198 A 
ATOM    103  F   UNL A   1      44.250  36.166  30.934  1.00  0.00    -0.203 F 
ATOM    104  F   UNL A   1      41.520  37.897  26.570  1.00  0.00    -0.200 F 
ATOM    105  C   UNL A   1      42.875  38.351  28.441  1.00  0.00     0.200 A 
ATOM    106  F   UNL A   1      44.173  38.746  30.365  1.00  0.00    -0.200 F 
ATOM    107  F   UNL A   1      42.872  39.658  28.151  1.00  0.00    -0.200 F 
ENDBRANCH  74  97
ENDBRANCH  48  49
ENDBRANCH  40  43
ENDBRANCH  38  39
ENDBRANCH   1  38
TORSDOF 14
ENDMDL
MODEL 2
REMARK VINA RESULT:     -12.7      6.203     10.127
REMARK SMILES Cc1cccc(N2CCN(c3ncc(NC(=O)c4ccccc4F)cc3C(=O)NCCCNC(=O)c3ccc(-c4c5nc(c(-c6c(F)c(F)c(F)c(F)c6F)c6ccc([nH]6)c(-c6c(F)c(F)c(F)c(F)c6F)c6nc(c(-c7c(F)c(F)c(F)c(F)c7F)c7ccc4[nH]7)C=C6)C=C5)cc3)C[C@@H]2C)c1
REMARK SMILES IDX 31 1 30 2 29 3 27 4 28 5 26 7 11 8 12 9 13 10 25 11 14 12
REMARK SMILES IDX 10 13 7 14 8 15 100 16 9 17 99 18 101 19 6 20 1 21 2 22 3 23
REMARK SMILES IDX 102 24 4 25 5 26 15 27 16 28 17 30 18 31 19 32 23 33 20 34
REMARK SMILES IDX 22 35 24 36 21 37 32 38 33 39 34 40 35 42 36 43 37 44 98 45
REMARK SMILES IDX 38 46 97 47 39 48 40 49 41 50 91 51 42 52 96 53 90 54 92 55
REMARK SMILES IDX 43 56 95 57 89 58 88 59 44 61 76 62 56 63 75 64 57 65 60 66
REMARK SMILES IDX 74 67 93 68 58 69 59 70 73 72 94 73 61 74 45 75 46 76 54 77
REMARK SMILES IDX 47 78 48 79 52 80 55 81 49 82 50 83 53 84 51 85 77 86 78 87
REMARK SMILES IDX 86 88 79 89 80 90 84 91 87 92 81 93 82 94 85 95 83 96 62 97
REMARK SMILES IDX 63 98 71 99 64 100 65 101 69 102 72 103 66 104 67 105 70 106
REMARK SMILES IDX 68 107
REMARK H PARENT 29 6 15 29 33 41 92 60 60 71
REMARK Flexibility Score: inf
ROOT
ATOM      1  C   UNL A   1      45.181  29.299  27.423  1.00  0.00     0.042 C 
ENDROOT
BRANCH   1   2
ATOM      2  C   UNL A   1      43.662  29.477  27.534  1.00  0.00     0.118 C 
BRANCH   2   3
ATOM      3  N   UNL A   1      43.049  29.370  26.223  1.00  0.00    -0.352 N 
ATOM      4  C   UNL A   1      41.904  28.726  25.813  1.00  0.00     0.255 C 
ATOM      5  O   UNL A   1      41.868  28.400  24.628  1.00  0.00    -0.269 OA
ATOM      6  H   UNL A   1      43.535  29.838  25.505  1.00  0.00     0.163 HD
BRANCH   4   7
ATOM      7  C   UNL A   1      40.798  28.374  26.741  1.00  0.00     0.084 A 
ATOM      8  C   UNL A   1      40.698  27.117  27.368  1.00  0.00     0.141 A 
ATOM      9  N   UNL A   1      39.668  26.856  28.226  1.00  0.00    -0.236 NA
ATOM     10  C   UNL A   1      38.739  27.817  28.469  1.00  0.00     0.139 A 
ATOM     11  C   UNL A   1      39.811  29.326  27.012  1.00  0.00     0.045 A 
ATOM     12  C   UNL A   1      38.756  29.058  27.868  1.00  0.00     0.060 A 
BRANCH   8  13
ATOM     13  N   UNL A   1      41.515  26.049  27.050  1.00  0.00    -0.352 N 
ATOM     14  N   UNL A   1      43.138  23.794  26.380  1.00  0.00    -0.365 N 
ATOM     15  C   UNL A   1      41.706  23.818  26.021  1.00  0.00     0.138 C 
ATOM     16  C   UNL A   1      43.785  25.111  26.637  1.00  0.00     0.098 C 
ATOM     17  C   UNL A   1      40.890  24.719  26.974  1.00  0.00     0.139 C 
ATOM     18  C   UNL A   1      42.892  25.977  27.579  1.00  0.00     0.142 C 
ATOM     19  C   UNL A   1      44.072  25.827  25.310  1.00  0.00     0.033 C 
BRANCH  14  20
ATOM     20  C   UNL A   1      43.927  22.736  25.949  1.00  0.00     0.037 A 
ATOM     21  C   UNL A   1      43.516  19.007  25.219  1.00  0.00     0.044 C 
ATOM     22  C   UNL A   1      44.137  20.361  25.377  1.00  0.00    -0.049 A 
ATOM     23  C   UNL A   1      45.465  20.570  24.997  1.00  0.00     0.003 A 
ATOM     24  C   UNL A   1      43.387  21.446  25.859  1.00  0.00     0.029 A 
ATOM     25  C   UNL A   1      46.029  21.837  25.098  1.00  0.00     0.002 A 
ATOM     26  C   UNL A   1      45.263  22.909  25.563  1.00  0.00     0.026 A 
ENDBRANCH  14  20
ENDBRANCH   8  13
BRANCH  12  27
ATOM     27  N   UNL A   1      37.779  30.056  28.003  1.00  0.00    -0.320 N 
ATOM     28  C   UNL A   1      37.651  31.065  28.924  1.00  0.00     0.258 C 
ATOM     29  H   UNL A   1      37.068  30.029  27.324  1.00  0.00     0.170 HD
ATOM     30  O   UNL A   1      36.560  31.612  29.075  1.00  0.00    -0.269 OA
BRANCH  28  31
ATOM     31  C   UNL A   1      38.821  31.591  29.652  1.00  0.00     0.075 A 
ATOM     32  C   UNL A   1      39.568  30.707  30.439  1.00  0.00     0.017 A 
ATOM     33  C   UNL A   1      39.123  32.955  29.675  1.00  0.00     0.135 A 
ATOM     34  C   UNL A   1      40.645  31.185  31.190  1.00  0.00     0.001 A 
ATOM     35  C   UNL A   1      40.209  33.428  30.404  1.00  0.00     0.040 A 
ATOM     36  F   UNL A   1      38.360  33.849  29.031  1.00  0.00    -0.206 F 
ATOM     37  C   UNL A   1      40.973  32.541  31.160  1.00  0.00     0.003 A 
ENDBRANCH  28  31
ENDBRANCH  12  27
ENDBRANCH   4   7
ENDBRANCH   2   3
ENDBRANCH   1   2
BRANCH   1  38
ATOM     38  C   UNL A   1      45.702  28.074  28.158  1.00  0.00     0.118 C 
BRANCH  38  39
ATOM     39  N   UNL A   1      46.687  27.319  27.392  1.00  0.00    -0.352 N 
ATOM     40  C   UNL A   1      47.276  26.111  27.724  1.00  0.00     0.251 C 
ATOM     41  H   UNL A   1      46.967  27.716  26.535  1.00  0.00     0.163 HD
ATOM     42  O   UNL A   1      48.033  25.539  26.962  1.00  0.00    -0.269 OA
BRANCH  40  43
ATOM     43  C   UNL A   1      46.860  25.484  28.997  1.00  0.00     0.039 A 
ATOM     44  C   UNL A   1      45.749  24.639  28.974  1.00  0.00     0.014 A 
ATOM     45  C   UNL A   1      47.391  25.952  30.200  1.00  0.00     0.014 A 
ATOM     46  C   UNL A   1      45.029  24.447  30.148  1.00  0.00     0.010 A 
ATOM     47  C   UNL A   1      46.633  25.827  31.347  1.00  0.00     0.010 A 
ATOM     48  C   UNL A   1      45.416  25.136  31.301  1.00  0.00    -0.014 A 
BRANCH  48  49
ATOM     49  C   UNL A   1      44.524  25.290  32.444  1.00  0.00     0.031 A 
ATOM     50  C   UNL A   1      43.916  26.596  32.756  1.00  0.00     0.074 A 
ATOM     51  C   UNL A   1      44.250  24.219  33.221  1.00  0.00     0.049 A 
ATOM     52  N   UNL A   1      43.595  26.983  33.945  1.00  0.00    -0.248 NA
ATOM     53  C   UNL A   1      43.664  27.598  31.732  1.00  0.00     0.031 C 
ATOM     54  C   UNL A   1      43.254  24.125  34.287  1.00  0.00     0.029 A 
ATOM     55  N   UNL A   1      45.002  23.035  33.340  1.00  0.00    -0.354 N 
ATOM     56  C   UNL A   1      42.849  28.134  33.820  1.00  0.00     0.074 A 
ATOM     57  C   UNL A   1      42.991  28.516  32.433  1.00  0.00     0.031 C 
ATOM     58  C   UNL A   1      43.628  23.157  35.137  1.00  0.00     0.029 A 
ATOM     59  C   UNL A   1      44.936  22.693  34.710  1.00  0.00     0.049 A 
ATOM     60  H   UNL A   1      45.471  22.551  32.624  1.00  0.00     0.167 HD
ATOM     61  C   UNL A   1      42.075  28.546  34.869  1.00  0.00     0.037 A 
ATOM     62  C   UNL A   1      46.050  22.649  35.494  1.00  0.00     0.037 A 
ATOM     63  C   UNL A   1      42.264  27.690  36.040  1.00  0.00     0.049 A 
ATOM     64  C   UNL A   1      45.975  23.533  36.714  1.00  0.00     0.074 A 
ATOM     65  C   UNL A   1      41.525  26.637  36.557  1.00  0.00     0.029 A 
ATOM     66  N   UNL A   1      43.496  27.658  36.687  1.00  0.00    -0.354 N 
ATOM     67  N   UNL A   1      45.182  24.562  36.818  1.00  0.00    -0.248 NA
ATOM     68  C   UNL A   1      46.823  23.353  37.889  1.00  0.00     0.031 C 
ATOM     69  C   UNL A   1      42.326  25.954  37.501  1.00  0.00     0.029 A 
ATOM     70  C   UNL A   1      43.552  26.592  37.565  1.00  0.00     0.049 A 
ATOM     71  H   UNL A   1      44.225  28.304  36.541  1.00  0.00     0.167 HD
ATOM     72  C   UNL A   1      45.407  25.188  38.017  1.00  0.00     0.074 A 
ATOM     73  C   UNL A   1      46.427  24.380  38.660  1.00  0.00     0.031 C 
ATOM     74  C   UNL A   1      44.738  26.328  38.366  1.00  0.00     0.037 A 
BRANCH  61  75
ATOM     75  C   UNL A   1      40.903  29.500  34.713  1.00  0.00     0.064 A 
ATOM     76  C   UNL A   1      40.818  30.681  35.486  1.00  0.00     0.173 A 
ATOM     77  C   UNL A   1      39.792  29.269  33.886  1.00  0.00     0.173 A 
ATOM     78  F   UNL A   1      41.856  31.129  36.204  1.00  0.00    -0.203 F 
ATOM     79  C   UNL A   1      39.657  31.458  35.550  1.00  0.00     0.198 A 
ATOM     80  C   UNL A   1      38.608  30.011  33.989  1.00  0.00     0.198 A 
ATOM     81  F   UNL A   1      39.835  28.359  32.905  1.00  0.00    -0.203 F 
ATOM     82  F   UNL A   1      39.633  32.554  36.322  1.00  0.00    -0.200 F 
ATOM     83  C   UNL A   1      38.534  31.094  34.840  1.00  0.00     0.200 A 
ATOM     84  F   UNL A   1      37.541  29.665  33.257  1.00  0.00    -0.200 F 
ATOM     85  F   UNL A   1      37.403  31.802  34.946  1.00  0.00    -0.200 F 
ENDBRANCH  61  75
BRANCH  62  86
ATOM     86  C   UNL A   1      47.302  22.342  34.754  1.00  0.00     0.064 A 
ATOM     87  C   UNL A   1      48.141  23.405  34.367  1.00  0.00     0.173 A 
ATOM     88  C   UNL A   1      47.837  21.050  34.712  1.00  0.00     0.173 A 
ATOM     89  F   UNL A   1      47.680  24.667  34.393  1.00  0.00    -0.203 F 
ATOM     90  C   UNL A   1      49.481  23.197  34.057  1.00  0.00     0.198 A 
ATOM     91  C   UNL A   1      49.179  20.843  34.383  1.00  0.00     0.198 A 
ATOM     92  F   UNL A   1      47.100  19.996  35.089  1.00  0.00    -0.203 F 
ATOM     93  F   UNL A   1      50.279  24.244  33.802  1.00  0.00    -0.200 F 
ATOM     94  C   UNL A   1      50.005  21.917  34.086  1.00  0.00     0.200 A 
ATOM     95  F   UNL A   1      49.695  19.607  34.443  1.00  0.00    -0.200 F 
ATOM     96  F   UNL A   1      51.313  21.722  33.869  1.00  0.00    -0.200 F 
ENDBRANCH  62  86
BRANCH  74  97
ATOM     97  C   UNL A   1      45.046  27.232  39.540  1.00  0.00     0.064 A 
ATOM     98  C   UNL A   1      44.742  26.925  40.876  1.00  0.00     0.173 A 
ATOM     99  C   UNL A   1      45.801  28.417  39.351  1.00  0.00     0.173 A 
ATOM    100  F   UNL A   1      44.151  25.772  41.212  1.00  0.00    -0.203 F 
ATOM    101  C   UNL A   1      45.095  27.772  41.932  1.00  0.00     0.198 A 
ATOM    102  C   UNL A   1      46.205  29.228  40.412  1.00  0.00     0.198 A 
ATOM    103  F   UNL A   1      46.198  28.813  38.133  1.00  0.00    -0.203 F 
ATOM    104  F   UNL A   1      44.738  27.454  43.184  1.00  0.00    -0.200 F 
ATOM    105  C   UNL A   1      45.835  28.916  41.702  1.00  0.00     0.200 A 
ATOM    106  F   UNL A   1      46.971  30.303  40.175  1.00  0.00    -0.200 F 
ATOM    107  F   UNL A   1      46.210  29.700  42.721  1.00  0.00    -0.200 F 
ENDBRANCH  74  97
ENDBRANCH  48  49
ENDBRANCH  40  43
ENDBRANCH  38  39
ENDBRANCH   1  38
TORSDOF 14
ENDMDL
MODEL 3
REMARK VINA RESULT:     -12.6      6.003     13.324
REMARK SMILES Cc1cccc(N2CCN(c3ncc(NC(=O)c4ccccc4F)cc3C(=O)NCCCNC(=O)c3ccc(-c4c5nc(c(-c6c(F)c(F)c(F)c(F)c6F)c6ccc([nH]6)c(-c6c(F)c(F)c(F)c(F)c6F)c6nc(c(-c7c(F)c(F)c(F)c(F)c7F)c7ccc4[nH]7)C=C6)C=C5)cc3)C[C@@H]2C)c1
REMARK SMILES IDX 31 1 30 2 29 3 27 4 28 5 26 7 11 8 12 9 13 10 25 11 14 12
REMARK SMILES IDX 10 13 7 14 8 15 100 16 9 17 99 18 101 19 6 20 1 21 2 22 3 23
REMARK SMILES IDX 102 24 4 25 5 26 15 27 16 28 17 30 18 31 19 32 23 33 20 34
REMARK SMILES IDX 22 35 24 36 21 37 32 38 33 39 34 40 35 42 36 43 37 44 98 45
REMARK SMILES IDX 38 46 97 47 39 48 40 49 41 50 91 51 42 52 96 53 90 54 92 55
REMARK SMILES IDX 43 56 95 57 89 58 88 59 44 61 76 62 56 63 75 64 57 65 60 66
REMARK SMILES IDX 74 67 93 68 58 69 59 70 73 72 94 73 61 74 45 75 46 76 54 77
REMARK SMILES IDX 47 78 48 79 52 80 55 81 49 82 50 83 53 84 51 85 77 86 78 87
REMARK SMILES IDX 86 88 79 89 80 90 84 91 87 92 81 93 82 94 85 95 83 96 62 97
REMARK SMILES IDX 63 98 71 99 64 100 65 101 69 102 72 103 66 104 67 105 70 106
REMARK SMILES IDX 68 107
REMARK H PARENT 29 6 15 29 33 41 92 60 60 71
REMARK Flexibility Score: inf
ROOT
ATOM      1  C   UNL A   1      39.669  34.187  31.072  1.00  0.00     0.042 C 
ENDROOT
BRANCH   1   2
ATOM      2  C   UNL A   1      41.046  34.594  30.534  1.00  0.00     0.118 C 
BRANCH   2   3
ATOM      3  N   UNL A   1      41.007  34.693  29.086  1.00  0.00    -0.352 N 
ATOM      4  C   UNL A   1      41.686  35.519  28.221  1.00  0.00     0.255 C 
ATOM      5  O   UNL A   1      41.144  35.722  27.137  1.00  0.00    -0.269 OA
ATOM      6  H   UNL A   1      40.390  34.061  28.650  1.00  0.00     0.163 HD
BRANCH   4   7
ATOM      7  C   UNL A   1      42.963  36.192  28.580  1.00  0.00     0.084 A 
ATOM      8  C   UNL A   1      44.222  35.594  28.387  1.00  0.00     0.141 A 
ATOM      9  N   UNL A   1      45.362  36.268  28.720  1.00  0.00    -0.236 NA
ATOM     10  C   UNL A   1      45.273  37.519  29.241  1.00  0.00     0.139 A 
ATOM     11  C   UNL A   1      42.920  37.476  29.132  1.00  0.00     0.045 A 
ATOM     12  C   UNL A   1      44.074  38.155  29.486  1.00  0.00     0.060 A 
BRANCH   8  13
ATOM     13  N   UNL A   1      44.380  34.274  28.009  1.00  0.00    -0.352 N 
ATOM     14  N   UNL A   1      44.671  31.522  27.296  1.00  0.00    -0.365 N 
ATOM     15  C   UNL A   1      43.730  31.924  28.361  1.00  0.00     0.138 C 
ATOM     16  C   UNL A   1      45.067  32.576  26.321  1.00  0.00     0.098 C 
ATOM     17  C   UNL A   1      44.158  33.245  29.036  1.00  0.00     0.139 C 
ATOM     18  C   UNL A   1      45.454  33.888  27.071  1.00  0.00     0.142 C 
ATOM     19  C   UNL A   1      43.936  32.813  25.310  1.00  0.00     0.033 C 
BRANCH  14  20
ATOM     20  C   UNL A   1      44.715  30.193  26.896  1.00  0.00     0.037 A 
ATOM     21  C   UNL A   1      42.294  27.556  25.556  1.00  0.00     0.044 C 
ATOM     22  C   UNL A   1      43.551  28.212  26.041  1.00  0.00    -0.049 A 
ATOM     23  C   UNL A   1      44.764  27.520  25.991  1.00  0.00     0.003 A 
ATOM     24  C   UNL A   1      43.540  29.537  26.503  1.00  0.00     0.029 A 
ATOM     25  C   UNL A   1      45.940  28.143  26.397  1.00  0.00     0.002 A 
ATOM     26  C   UNL A   1      45.913  29.469  26.837  1.00  0.00     0.026 A 
ENDBRANCH  14  20
ENDBRANCH   8  13
BRANCH  12  27
ATOM     27  N   UNL A   1      43.910  39.402  30.106  1.00  0.00    -0.320 N 
ATOM     28  C   UNL A   1      43.671  40.644  29.573  1.00  0.00     0.258 C 
ATOM     29  H   UNL A   1      43.978  39.384  31.088  1.00  0.00     0.170 HD
ATOM     30  O   UNL A   1      43.900  41.646  30.247  1.00  0.00    -0.269 OA
BRANCH  28  31
ATOM     31  C   UNL A   1      43.030  40.799  28.254  1.00  0.00     0.075 A 
ATOM     32  C   UNL A   1      41.653  40.574  28.151  1.00  0.00     0.017 A 
ATOM     33  C   UNL A   1      43.775  41.041  27.097  1.00  0.00     0.135 A 
ATOM     34  C   UNL A   1      41.026  40.652  26.905  1.00  0.00     0.001 A 
ATOM     35  C   UNL A   1      43.149  41.142  25.859  1.00  0.00     0.040 A 
ATOM     36  F   UNL A   1      45.111  41.144  27.136  1.00  0.00    -0.206 F 
ATOM     37  C   UNL A   1      41.771  40.951  25.764  1.00  0.00     0.003 A 
ENDBRANCH  28  31
ENDBRANCH  12  27
ENDBRANCH   4   7
ENDBRANCH   2   3
ENDBRANCH   1   2
BRANCH   1  38
ATOM     38  C   UNL A   1      39.094  32.953  30.394  1.00  0.00     0.118 C 
BRANCH  38  39
ATOM     39  N   UNL A   1      37.665  32.781  30.627  1.00  0.00    -0.352 N 
ATOM     40  C   UNL A   1      36.911  31.632  30.459  1.00  0.00     0.251 C 
ATOM     41  H   UNL A   1      37.178  33.576  30.941  1.00  0.00     0.163 HD
ATOM     42  O   UNL A   1      35.733  31.593  30.760  1.00  0.00    -0.269 OA
BRANCH  40  43
ATOM     43  C   UNL A   1      37.621  30.417  30.004  1.00  0.00     0.039 A 
ATOM     44  C   UNL A   1      37.855  29.411  30.944  1.00  0.00     0.014 A 
ATOM     45  C   UNL A   1      38.267  30.420  28.768  1.00  0.00     0.014 A 
ATOM     46  C   UNL A   1      38.911  28.532  30.733  1.00  0.00     0.010 A 
ATOM     47  C   UNL A   1      39.364  29.599  28.596  1.00  0.00     0.010 A 
ATOM     48  C   UNL A   1      39.727  28.708  29.612  1.00  0.00    -0.014 A 
BRANCH  48  49
ATOM     49  C   UNL A   1      41.045  28.091  29.512  1.00  0.00     0.031 A 
ATOM     50  C   UNL A   1      41.196  26.714  29.009  1.00  0.00     0.074 A 
ATOM     51  C   UNL A   1      42.137  28.795  29.882  1.00  0.00     0.049 A 
ATOM     52  N   UNL A   1      42.141  25.910  29.365  1.00  0.00    -0.248 NA
ATOM     53  C   UNL A   1      40.247  26.119  28.081  1.00  0.00     0.031 C 
ATOM     54  C   UNL A   1      43.539  28.428  29.690  1.00  0.00     0.029 A 
ATOM     55  N   UNL A   1      42.184  29.918  30.730  1.00  0.00    -0.354 N 
ATOM     56  C   UNL A   1      42.098  24.820  28.524  1.00  0.00     0.074 A 
ATOM     57  C   UNL A   1      40.855  24.962  27.801  1.00  0.00     0.031 C 
ATOM     58  C   UNL A   1      44.277  29.063  30.613  1.00  0.00     0.029 A 
ATOM     59  C   UNL A   1      43.356  29.751  31.500  1.00  0.00     0.049 A 
ATOM     60  H   UNL A   1      41.538  30.659  30.775  1.00  0.00     0.167 HD
ATOM     61  C   UNL A   1      43.192  24.005  28.430  1.00  0.00     0.037 A 
ATOM     62  C   UNL A   1      43.312  29.606  32.855  1.00  0.00     0.037 A 
ATOM     63  C   UNL A   1      44.239  24.408  29.369  1.00  0.00     0.049 A 
ATOM     64  C   UNL A   1      43.973  28.347  33.358  1.00  0.00     0.074 A 
ATOM     65  C   UNL A   1      45.400  25.148  29.212  1.00  0.00     0.029 A 
ATOM     66  N   UNL A   1      44.020  24.309  30.740  1.00  0.00    -0.354 N 
ATOM     67  N   UNL A   1      44.168  27.286  32.626  1.00  0.00    -0.248 NA
ATOM     68  C   UNL A   1      44.419  28.171  34.736  1.00  0.00     0.031 C 
ATOM     69  C   UNL A   1      45.868  25.518  30.494  1.00  0.00     0.029 A 
ATOM     70  C   UNL A   1      44.996  24.999  31.435  1.00  0.00     0.049 A 
ATOM     71  H   UNL A   1      43.277  23.816  31.157  1.00  0.00     0.167 HD
ATOM     72  C   UNL A   1      44.726  26.299  33.397  1.00  0.00     0.074 A 
ATOM     73  C   UNL A   1      44.883  26.910  34.704  1.00  0.00     0.031 C 
ATOM     74  C   UNL A   1      44.995  25.059  32.889  1.00  0.00     0.037 A 
BRANCH  61  75
ATOM     75  C   UNL A   1      43.437  23.075  27.255  1.00  0.00     0.064 A 
ATOM     76  C   UNL A   1      42.680  21.892  27.091  1.00  0.00     0.173 A 
ATOM     77  C   UNL A   1      44.457  23.246  26.303  1.00  0.00     0.173 A 
ATOM     78  F   UNL A   1      41.577  21.657  27.812  1.00  0.00    -0.203 F 
ATOM     79  C   UNL A   1      43.026  20.897  26.172  1.00  0.00     0.198 A 
ATOM     80  C   UNL A   1      44.840  22.228  25.419  1.00  0.00     0.198 A 
ATOM     81  F   UNL A   1      45.074  24.424  26.152  1.00  0.00    -0.203 F 
ATOM     82  F   UNL A   1      42.280  19.786  26.083  1.00  0.00    -0.200 F 
ATOM     83  C   UNL A   1      44.137  21.043  25.370  1.00  0.00     0.200 A 
ATOM     84  F   UNL A   1      45.900  22.409  24.619  1.00  0.00    -0.200 F 
ATOM     85  F   UNL A   1      44.505  20.066  24.532  1.00  0.00    -0.200 F 
ENDBRANCH  61  75
BRANCH  62  86
ATOM     86  C   UNL A   1      42.138  30.253  33.496  1.00  0.00     0.064 A 
ATOM     87  C   UNL A   1      42.154  31.647  33.695  1.00  0.00     0.173 A 
ATOM     88  C   UNL A   1      40.906  29.600  33.613  1.00  0.00     0.173 A 
ATOM     89  F   UNL A   1      43.309  32.326  33.590  1.00  0.00    -0.203 F 
ATOM     90  C   UNL A   1      40.980  32.367  33.893  1.00  0.00     0.198 A 
ATOM     91  C   UNL A   1      39.731  30.323  33.828  1.00  0.00     0.198 A 
ATOM     92  F   UNL A   1      40.816  28.277  33.414  1.00  0.00    -0.203 F 
ATOM     93  F   UNL A   1      41.020  33.705  33.965  1.00  0.00    -0.200 F 
ATOM     94  C   UNL A   1      39.765  31.706  33.938  1.00  0.00     0.200 A 
ATOM     95  F   UNL A   1      38.551  29.687  33.840  1.00  0.00    -0.200 F 
ATOM     96  F   UNL A   1      38.625  32.402  34.045  1.00  0.00    -0.200 F 
ENDBRANCH  62  86
BRANCH  74  97
ATOM     97  C   UNL A   1      45.394  23.829  33.674  1.00  0.00     0.064 A 
ATOM     98  C   UNL A   1      44.566  22.711  33.865  1.00  0.00     0.173 A 
ATOM     99  C   UNL A   1      46.718  23.688  34.159  1.00  0.00     0.173 A 
ATOM    100  F   UNL A   1      43.335  22.653  33.342  1.00  0.00    -0.203 F 
ATOM    101  C   UNL A   1      45.000  21.573  34.555  1.00  0.00     0.198 A 
ATOM    102  C   UNL A   1      47.167  22.529  34.793  1.00  0.00     0.198 A 
ATOM    103  F   UNL A   1      47.630  24.659  34.010  1.00  0.00    -0.203 F 
ATOM    104  F   UNL A   1      44.153  20.554  34.751  1.00  0.00    -0.200 F 
ATOM    105  C   UNL A   1      46.302  21.478  35.009  1.00  0.00     0.200 A 
ATOM    106  F   UNL A   1      48.448  22.432  35.176  1.00  0.00    -0.200 F 
ATOM    107  F   UNL A   1      46.727  20.369  35.628  1.00  0.00    -0.200 F 
ENDBRANCH  74  97
ENDBRANCH  48  49
ENDBRANCH  40  43
ENDBRANCH  38  39
ENDBRANCH   1  38
TORSDOF 14
ENDMDL
