MODEL 1
REMARK VINA RESULT:     -12.1      0.000      0.000
REMARK SMILES COc1cc2c(c(OC)c1)[C@H](C)C[C@H](CC(=O)NCCCNC(=O)c1ccc(-c3c4nc(c(-c5c(F)c(F)c(F)c(F)c5F)c5ccc([nH]5)c(-c5c(F)c(F)c(F)c(F)c5F)c5nc(c(-c6c(F)c(F)c(F)c(F)c6F)c6ccc3[nH]6)C=C5)C=C4)cc1)C2
REMARK SMILES IDX 20 1 19 2 18 3 16 4 17 5 15 7 14 8 3 9 4 10 10 11 5 12 7 13
REMARK SMILES IDX 6 14 88 15 11 16 12 17 13 18 2 19 1 20 8 21 9 22 21 23 22 24
REMARK SMILES IDX 23 25 24 27 25 28 26 29 87 30 27 31 86 32 28 33 29 34 30 35
REMARK SMILES IDX 80 36 31 37 85 38 79 39 81 40 32 41 84 42 78 43 77 44 33 46
REMARK SMILES IDX 65 47 45 48 64 49 46 50 49 51 63 52 82 53 47 54 48 55 62 57
REMARK SMILES IDX 83 58 50 59 34 60 35 61 43 62 36 63 37 64 41 65 44 66 38 67
REMARK SMILES IDX 39 68 42 69 40 70 66 71 67 72 75 73 68 74 69 75 73 76 76 77
REMARK SMILES IDX 70 78 71 79 74 80 72 81 51 82 52 83 60 84 53 85 54 86 58 87
REMARK SMILES IDX 61 88 55 89 56 90 59 91 57 92
REMARK H PARENT 18 6 22 26 81 45 49 56
REMARK Flexibility Score: inf
ROOT
ATOM      1  C   UNL A   1      33.286  34.442  29.182  1.00  0.00     0.042 C 
ENDROOT
BRANCH   1   2
ATOM      2  C   UNL A   1      33.821  33.967  27.819  1.00  0.00     0.117 C 
BRANCH   2   3
ATOM      3  N   UNL A   1      34.896  32.983  27.891  1.00  0.00    -0.356 N 
ATOM      4  C   UNL A   1      34.904  31.620  27.781  1.00  0.00     0.220 C 
ATOM      5  O   UNL A   1      36.004  31.062  27.755  1.00  0.00    -0.275 OA
ATOM      6  H   UNL A   1      35.786  33.375  28.049  1.00  0.00     0.163 HD
BRANCH   4   7
ATOM      7  C   UNL A   1      33.623  30.793  27.745  1.00  0.00     0.104 C 
BRANCH   7   8
ATOM      8  C   UNL A   1      33.432  30.085  26.384  1.00  0.00     0.003 C 
ATOM      9  C   UNL A   1      30.449  28.645  22.737  1.00  0.00     0.122 A 
ATOM     10  C   UNL A   1      30.698  29.445  23.851  1.00  0.00     0.050 A 
ATOM     11  C   UNL A   1      31.329  27.621  22.405  1.00  0.00     0.093 A 
ATOM     12  C   UNL A   1      31.786  29.179  24.698  1.00  0.00    -0.037 A 
ATOM     13  C   UNL A   1      32.422  27.349  23.225  1.00  0.00     0.126 A 
ATOM     14  C   UNL A   1      32.634  28.086  24.410  1.00  0.00     0.000 A 
ATOM     15  C   UNL A   1      31.966  30.018  25.948  1.00  0.00     0.040 C 
ATOM     16  C   UNL A   1      33.723  27.690  25.374  1.00  0.00     0.020 C 
ATOM     17  C   UNL A   1      33.458  26.308  25.996  1.00  0.00     0.013 C 
ATOM     18  C   UNL A   1      33.987  28.678  26.504  1.00  0.00     0.012 C 
BRANCH   9  19
ATOM     19  O   UNL A   1      29.332  28.939  22.003  1.00  0.00    -0.497 OA
ATOM     20  C   UNL A   1      28.233  29.354  22.815  1.00  0.00     0.278 C 
ENDBRANCH   9  19
BRANCH  13  21
ATOM     21  O   UNL A   1      33.154  26.247  22.859  1.00  0.00    -0.496 OA
ATOM     22  C   UNL A   1      32.842  25.731  21.567  1.00  0.00     0.278 C 
ENDBRANCH  13  21
ENDBRANCH   7   8
ENDBRANCH   4   7
ENDBRANCH   2   3
ENDBRANCH   1   2
BRANCH   1  23
ATOM     23  C   UNL A   1      33.287  35.955  29.398  1.00  0.00     0.118 C 
BRANCH  23  24
ATOM     24  N   UNL A   1      32.538  36.310  30.593  1.00  0.00    -0.352 N 
ATOM     25  C   UNL A   1      32.608  35.851  31.885  1.00  0.00     0.251 C 
ATOM     26  H   UNL A   1      31.858  37.007  30.448  1.00  0.00     0.163 HD
ATOM     27  O   UNL A   1      31.657  36.081  32.629  1.00  0.00    -0.269 OA
BRANCH  25  28
ATOM     28  C   UNL A   1      33.776  35.104  32.427  1.00  0.00     0.039 A 
ATOM     29  C   UNL A   1      35.046  35.686  32.291  1.00  0.00     0.014 A 
ATOM     30  C   UNL A   1      33.685  33.800  32.918  1.00  0.00     0.014 A 
ATOM     31  C   UNL A   1      36.203  34.976  32.644  1.00  0.00     0.010 A 
ATOM     32  C   UNL A   1      34.837  33.113  33.328  1.00  0.00     0.010 A 
ATOM     33  C   UNL A   1      36.111  33.682  33.173  1.00  0.00    -0.014 A 
BRANCH  33  34
ATOM     34  C   UNL A   1      37.336  32.900  33.510  1.00  0.00     0.031 A 
ATOM     35  C   UNL A   1      38.081  33.164  34.796  1.00  0.00     0.074 A 
ATOM     36  C   UNL A   1      37.810  31.972  32.654  1.00  0.00     0.049 A 
ATOM     37  N   UNL A   1      39.206  32.645  35.227  1.00  0.00    -0.248 NA
ATOM     38  C   UNL A   1      37.496  34.157  35.709  1.00  0.00     0.031 C 
ATOM     39  C   UNL A   1      37.210  31.623  31.368  1.00  0.00     0.029 A 
ATOM     40  N   UNL A   1      38.916  31.159  32.736  1.00  0.00    -0.354 N 
ATOM     41  C   UNL A   1      39.477  33.272  36.437  1.00  0.00     0.074 A 
ATOM     42  C   UNL A   1      38.413  34.225  36.665  1.00  0.00     0.031 C 
ATOM     43  C   UNL A   1      37.948  30.663  30.784  1.00  0.00     0.029 A 
ATOM     44  C   UNL A   1      39.089  30.349  31.639  1.00  0.00     0.049 A 
ATOM     45  H   UNL A   1      39.528  31.156  33.509  1.00  0.00     0.167 HD
ATOM     46  C   UNL A   1      40.509  33.062  37.291  1.00  0.00     0.037 A 
ATOM     47  C   UNL A   1      40.063  29.464  31.348  1.00  0.00     0.037 A 
ATOM     48  C   UNL A   1      41.538  32.071  37.107  1.00  0.00     0.049 A 
ATOM     49  C   UNL A   1      41.185  29.235  32.326  1.00  0.00     0.074 A 
ATOM     50  C   UNL A   1      42.571  31.734  37.965  1.00  0.00     0.029 A 
ATOM     51  N   UNL A   1      41.658  31.254  35.996  1.00  0.00    -0.354 N 
ATOM     52  N   UNL A   1      41.393  29.795  33.491  1.00  0.00    -0.248 NA
ATOM     53  C   UNL A   1      42.205  28.246  31.946  1.00  0.00     0.031 C 
ATOM     54  C   UNL A   1      43.338  30.734  37.357  1.00  0.00     0.029 A 
ATOM     55  C   UNL A   1      42.760  30.425  36.138  1.00  0.00     0.049 A 
ATOM     56  H   UNL A   1      41.051  31.260  35.221  1.00  0.00     0.167 HD
ATOM     57  C   UNL A   1      42.546  29.207  33.995  1.00  0.00     0.074 A 
ATOM     58  C   UNL A   1      42.989  28.240  33.015  1.00  0.00     0.031 C 
ATOM     59  C   UNL A   1      43.181  29.451  35.167  1.00  0.00     0.037 A 
BRANCH  46  60
ATOM     60  C   UNL A   1      40.589  33.918  38.520  1.00  0.00     0.064 A 
ATOM     61  C   UNL A   1      41.313  35.118  38.534  1.00  0.00     0.173 A 
ATOM     62  C   UNL A   1      39.865  33.572  39.671  1.00  0.00     0.173 A 
ATOM     63  F   UNL A   1      42.027  35.488  37.461  1.00  0.00    -0.203 F 
ATOM     64  C   UNL A   1      41.321  35.934  39.662  1.00  0.00     0.198 A 
ATOM     65  C   UNL A   1      39.856  34.402  40.789  1.00  0.00     0.198 A 
ATOM     66  F   UNL A   1      39.148  32.438  39.703  1.00  0.00    -0.203 F 
ATOM     67  F   UNL A   1      42.042  37.064  39.664  1.00  0.00    -0.200 F 
ATOM     68  C   UNL A   1      40.587  35.580  40.784  1.00  0.00     0.200 A 
ATOM     69  F   UNL A   1      39.135  34.065  41.867  1.00  0.00    -0.200 F 
ATOM     70  F   UNL A   1      40.584  36.375  41.864  1.00  0.00    -0.200 F 
ENDBRANCH  46  60
BRANCH  47  71
ATOM     71  C   UNL A   1      40.024  28.710  30.068  1.00  0.00     0.064 A 
ATOM     72  C   UNL A   1      39.413  27.451  29.993  1.00  0.00     0.173 A 
ATOM     73  C   UNL A   1      40.625  29.216  28.905  1.00  0.00     0.173 A 
ATOM     74  F   UNL A   1      38.850  26.915  31.086  1.00  0.00    -0.203 F 
ATOM     75  C   UNL A   1      39.426  26.714  28.811  1.00  0.00     0.198 A 
ATOM     76  C   UNL A   1      40.614  28.489  27.718  1.00  0.00     0.198 A 
ATOM     77  F   UNL A   1      41.222  30.416  28.926  1.00  0.00    -0.203 F 
ATOM     78  F   UNL A   1      38.880  25.490  28.781  1.00  0.00    -0.200 F 
ATOM     79  C   UNL A   1      40.023  27.235  27.673  1.00  0.00     0.200 A 
ATOM     80  F   UNL A   1      41.185  29.000  26.618  1.00  0.00    -0.200 F 
ATOM     81  F   UNL A   1      40.039  26.524  26.538  1.00  0.00    -0.200 F 
ENDBRANCH  47  71
BRANCH  59  82
ATOM     82  C   UNL A   1      44.399  28.633  35.476  1.00  0.00     0.064 A 
ATOM     83  C   UNL A   1      45.683  29.064  35.115  1.00  0.00     0.173 A 
ATOM     84  C   UNL A   1      44.283  27.425  36.180  1.00  0.00     0.173 A 
ATOM     85  F   UNL A   1      45.843  30.205  34.428  1.00  0.00    -0.203 F 
ATOM     86  C   UNL A   1      46.806  28.304  35.429  1.00  0.00     0.198 A 
ATOM     87  C   UNL A   1      45.410  26.679  36.513  1.00  0.00     0.198 A 
ATOM     88  F   UNL A   1      43.076  26.973  36.553  1.00  0.00    -0.203 F 
ATOM     89  F   UNL A   1      48.022  28.715  35.040  1.00  0.00    -0.200 F 
ATOM     90  C   UNL A   1      46.671  27.116  36.133  1.00  0.00     0.200 A 
ATOM     91  F   UNL A   1      45.277  25.537  37.202  1.00  0.00    -0.200 F 
ATOM     92  F   UNL A   1      47.754  26.389  36.439  1.00  0.00    -0.200 F 
ENDBRANCH  59  82
ENDBRANCH  33  34
ENDBRANCH  25  28
ENDBRANCH  23  24
ENDBRANCH   1  23
TORSDOF 13
ENDMDL
MODEL 2
REMARK VINA RESULT:     -12.1      3.260      8.918
REMARK SMILES COc1cc2c(c(OC)c1)[C@H](C)C[C@H](CC(=O)NCCCNC(=O)c1ccc(-c3c4nc(c(-c5c(F)c(F)c(F)c(F)c5F)c5ccc([nH]5)c(-c5c(F)c(F)c(F)c(F)c5F)c5nc(c(-c6c(F)c(F)c(F)c(F)c6F)c6ccc3[nH]6)C=C5)C=C4)cc1)C2
REMARK SMILES IDX 20 1 19 2 18 3 16 4 17 5 15 7 14 8 3 9 4 10 10 11 5 12 7 13
REMARK SMILES IDX 6 14 88 15 11 16 12 17 13 18 2 19 1 20 8 21 9 22 21 23 22 24
REMARK SMILES IDX 23 25 24 27 25 28 26 29 87 30 27 31 86 32 28 33 29 34 30 35
REMARK SMILES IDX 80 36 31 37 85 38 79 39 81 40 32 41 84 42 78 43 77 44 33 46
REMARK SMILES IDX 65 47 45 48 64 49 46 50 49 51 63 52 82 53 47 54 48 55 62 57
REMARK SMILES IDX 83 58 50 59 34 60 35 61 43 62 36 63 37 64 41 65 44 66 38 67
REMARK SMILES IDX 39 68 42 69 40 70 66 71 67 72 75 73 68 74 69 75 73 76 76 77
REMARK SMILES IDX 70 78 71 79 74 80 72 81 51 82 52 83 60 84 53 85 54 86 58 87
REMARK SMILES IDX 61 88 55 89 56 90 59 91 57 92
REMARK H PARENT 18 6 22 26 81 45 49 56
REMARK Flexibility Score: inf
ROOT
ATOM      1  C   UNL A   1      33.270  29.005  24.032  1.00  0.00     0.042 C 
ENDROOT
BRANCH   1   2
ATOM      2  C   UNL A   1      32.269  28.360  23.055  1.00  0.00     0.117 C 
BRANCH   2   3
ATOM      3  N   UNL A   1      32.876  27.571  21.988  1.00  0.00    -0.356 N 
ATOM      4  C   UNL A   1      32.716  26.270  21.602  1.00  0.00     0.220 C 
ATOM      5  O   UNL A   1      33.278  25.915  20.562  1.00  0.00    -0.275 OA
ATOM      6  H   UNL A   1      33.524  28.072  21.441  1.00  0.00     0.163 HD
BRANCH   4   7
ATOM      7  C   UNL A   1      31.926  25.260  22.429  1.00  0.00     0.104 C 
BRANCH   7   8
ATOM      8  C   UNL A   1      32.793  24.046  22.839  1.00  0.00     0.003 C 
ATOM      9  C   UNL A   1      33.093  19.336  24.251  1.00  0.00     0.122 A 
ATOM     10  C   UNL A   1      32.371  20.386  23.684  1.00  0.00     0.050 A 
ATOM     11  C   UNL A   1      34.316  19.585  24.864  1.00  0.00     0.093 A 
ATOM     12  C   UNL A   1      32.821  21.711  23.795  1.00  0.00    -0.037 A 
ATOM     13  C   UNL A   1      34.788  20.891  24.972  1.00  0.00     0.126 A 
ATOM     14  C   UNL A   1      34.023  21.976  24.490  1.00  0.00     0.000 A 
ATOM     15  C   UNL A   1      31.959  22.828  23.242  1.00  0.00     0.040 C 
ATOM     16  C   UNL A   1      34.459  23.395  24.747  1.00  0.00     0.020 C 
ATOM     17  C   UNL A   1      34.436  23.735  26.247  1.00  0.00     0.013 C 
ATOM     18  C   UNL A   1      33.668  24.466  24.004  1.00  0.00     0.012 C 
BRANCH   9  19
ATOM     19  O   UNL A   1      32.549  18.085  24.149  1.00  0.00    -0.497 OA
ATOM     20  C   UNL A   1      32.530  17.390  25.397  1.00  0.00     0.278 C 
ENDBRANCH   9  19
BRANCH  13  21
ATOM     21  O   UNL A   1      35.948  21.025  25.693  1.00  0.00    -0.496 OA
ATOM     22  C   UNL A   1      37.126  20.615  25.001  1.00  0.00     0.278 C 
ENDBRANCH  13  21
ENDBRANCH   7   8
ENDBRANCH   4   7
ENDBRANCH   2   3
ENDBRANCH   1   2
BRANCH   1  23
ATOM     23  C   UNL A   1      32.825  29.051  25.493  1.00  0.00     0.118 C 
BRANCH  23  24
ATOM     24  N   UNL A   1      32.560  30.418  25.913  1.00  0.00    -0.352 N 
ATOM     25  C   UNL A   1      33.134  31.204  26.881  1.00  0.00     0.251 C 
ATOM     26  H   UNL A   1      31.837  30.859  25.410  1.00  0.00     0.163 HD
ATOM     27  O   UNL A   1      32.519  32.203  27.249  1.00  0.00    -0.269 OA
BRANCH  25  28
ATOM     28  C   UNL A   1      34.459  30.915  27.493  1.00  0.00     0.039 A 
ATOM     29  C   UNL A   1      34.676  29.627  28.006  1.00  0.00     0.014 A 
ATOM     30  C   UNL A   1      35.426  31.898  27.717  1.00  0.00     0.014 A 
ATOM     31  C   UNL A   1      35.842  29.328  28.726  1.00  0.00     0.010 A 
ATOM     32  C   UNL A   1      36.618  31.583  28.384  1.00  0.00     0.010 A 
ATOM     33  C   UNL A   1      36.830  30.302  28.919  1.00  0.00    -0.014 A 
BRANCH  33  34
ATOM     34  C   UNL A   1      38.053  30.009  29.722  1.00  0.00     0.031 A 
ATOM     35  C   UNL A   1      39.116  29.082  29.184  1.00  0.00     0.074 A 
ATOM     36  C   UNL A   1      38.207  30.542  30.951  1.00  0.00     0.049 A 
ATOM     37  N   UNL A   1      40.208  28.644  29.762  1.00  0.00    -0.248 NA
ATOM     38  C   UNL A   1      38.916  28.564  27.822  1.00  0.00     0.031 C 
ATOM     39  C   UNL A   1      37.256  31.435  31.610  1.00  0.00     0.029 A 
ATOM     40  N   UNL A   1      39.219  30.398  31.870  1.00  0.00    -0.354 N 
ATOM     41  C   UNL A   1      40.802  27.777  28.853  1.00  0.00     0.074 A 
ATOM     42  C   UNL A   1      39.940  27.732  27.692  1.00  0.00     0.031 C 
ATOM     43  C   UNL A   1      37.732  31.767  32.822  1.00  0.00     0.029 A 
ATOM     44  C   UNL A   1      39.005  31.087  33.040  1.00  0.00     0.049 A 
ATOM     45  H   UNL A   1      40.023  29.853  31.706  1.00  0.00     0.167 HD
ATOM     46  C   UNL A   1      41.966  27.092  28.967  1.00  0.00     0.037 A 
ATOM     47  C   UNL A   1      39.743  31.154  34.165  1.00  0.00     0.037 A 
ATOM     48  C   UNL A   1      42.864  27.180  30.089  1.00  0.00     0.049 A 
ATOM     49  C   UNL A   1      41.045  30.401  34.254  1.00  0.00     0.074 A 
ATOM     50  C   UNL A   1      44.105  26.587  30.247  1.00  0.00     0.029 A 
ATOM     51  N   UNL A   1      42.622  27.913  31.240  1.00  0.00    -0.354 N 
ATOM     52  N   UNL A   1      41.617  29.633  33.362  1.00  0.00    -0.248 NA
ATOM     53  C   UNL A   1      41.802  30.530  35.508  1.00  0.00     0.031 C 
ATOM     54  C   UNL A   1      44.600  26.934  31.509  1.00  0.00     0.029 A 
ATOM     55  C   UNL A   1      43.683  27.771  32.120  1.00  0.00     0.049 A 
ATOM     56  H   UNL A   1      41.817  28.453  31.406  1.00  0.00     0.167 HD
ATOM     57  C   UNL A   1      42.812  29.213  33.932  1.00  0.00     0.074 A 
ATOM     58  C   UNL A   1      42.889  29.818  35.244  1.00  0.00     0.031 C 
ATOM     59  C   UNL A   1      43.760  28.395  33.414  1.00  0.00     0.037 A 
BRANCH  46  60
ATOM     60  C   UNL A   1      42.356  26.179  27.843  1.00  0.00     0.064 A 
ATOM     61  C   UNL A   1      43.256  26.582  26.846  1.00  0.00     0.173 A 
ATOM     62  C   UNL A   1      41.886  24.857  27.811  1.00  0.00     0.173 A 
ATOM     63  F   UNL A   1      43.727  27.838  26.830  1.00  0.00    -0.203 F 
ATOM     64  C   UNL A   1      43.660  25.699  25.849  1.00  0.00     0.198 A 
ATOM     65  C   UNL A   1      42.310  23.969  26.825  1.00  0.00     0.198 A 
ATOM     66  F   UNL A   1      41.032  24.420  28.748  1.00  0.00    -0.203 F 
ATOM     67  F   UNL A   1      44.499  26.113  24.889  1.00  0.00    -0.200 F 
ATOM     68  C   UNL A   1      43.193  24.392  25.843  1.00  0.00     0.200 A 
ATOM     69  F   UNL A   1      41.870  22.704  26.830  1.00  0.00    -0.200 F 
ATOM     70  F   UNL A   1      43.595  23.539  24.890  1.00  0.00    -0.200 F 
ENDBRANCH  46  60
BRANCH  47  71
ATOM     71  C   UNL A   1      39.278  31.977  35.313  1.00  0.00     0.064 A 
ATOM     72  C   UNL A   1      39.625  33.330  35.415  1.00  0.00     0.173 A 
ATOM     73  C   UNL A   1      38.509  31.418  36.344  1.00  0.00     0.173 A 
ATOM     74  F   UNL A   1      40.382  33.900  34.466  1.00  0.00    -0.203 F 
ATOM     75  C   UNL A   1      39.240  34.090  36.517  1.00  0.00     0.198 A 
ATOM     76  C   UNL A   1      38.104  32.186  37.433  1.00  0.00     0.198 A 
ATOM     77  F   UNL A   1      38.152  30.127  36.293  1.00  0.00    -0.203 F 
ATOM     78  F   UNL A   1      39.630  35.369  36.615  1.00  0.00    -0.200 F 
ATOM     79  C   UNL A   1      38.478  33.519  37.524  1.00  0.00     0.200 A 
ATOM     80  F   UNL A   1      37.360  31.632  38.401  1.00  0.00    -0.200 F 
ATOM     81  F   UNL A   1      38.113  34.249  38.586  1.00  0.00    -0.200 F 
ENDBRANCH  47  71
BRANCH  59  82
ATOM     82  C   UNL A   1      44.982  28.138  34.245  1.00  0.00     0.064 A 
ATOM     83  C   UNL A   1      46.103  28.976  34.178  1.00  0.00     0.173 A 
ATOM     84  C   UNL A   1      45.012  27.066  35.150  1.00  0.00     0.173 A 
ATOM     85  F   UNL A   1      46.127  30.005  33.318  1.00  0.00    -0.203 F 
ATOM     86  C   UNL A   1      47.221  28.737  34.972  1.00  0.00     0.198 A 
ATOM     87  C   UNL A   1      46.122  26.843  35.959  1.00  0.00     0.198 A 
ATOM     88  F   UNL A   1      43.961  26.240  35.254  1.00  0.00    -0.203 F 
ATOM     89  F   UNL A   1      48.299  29.527  34.865  1.00  0.00    -0.200 F 
ATOM     90  C   UNL A   1      47.228  27.676  35.867  1.00  0.00     0.200 A 
ATOM     91  F   UNL A   1      46.123  25.824  36.829  1.00  0.00    -0.200 F 
ATOM     92  F   UNL A   1      48.303  27.451  36.634  1.00  0.00    -0.200 F 
ENDBRANCH  59  82
ENDBRANCH  33  34
ENDBRANCH  25  28
ENDBRANCH  23  24
ENDBRANCH   1  23
TORSDOF 13
ENDMDL
MODEL 3
REMARK VINA RESULT:     -12.0      3.275      8.942
REMARK SMILES COc1cc2c(c(OC)c1)[C@H](C)C[C@H](CC(=O)NCCCNC(=O)c1ccc(-c3c4nc(c(-c5c(F)c(F)c(F)c(F)c5F)c5ccc([nH]5)c(-c5c(F)c(F)c(F)c(F)c5F)c5nc(c(-c6c(F)c(F)c(F)c(F)c6F)c6ccc3[nH]6)C=C5)C=C4)cc1)C2
REMARK SMILES IDX 20 1 19 2 18 3 16 4 17 5 15 7 14 8 3 9 4 10 10 11 5 12 7 13
REMARK SMILES IDX 6 14 88 15 11 16 12 17 13 18 2 19 1 20 8 21 9 22 21 23 22 24
REMARK SMILES IDX 23 25 24 27 25 28 26 29 87 30 27 31 86 32 28 33 29 34 30 35
REMARK SMILES IDX 80 36 31 37 85 38 79 39 81 40 32 41 84 42 78 43 77 44 33 46
REMARK SMILES IDX 65 47 45 48 64 49 46 50 49 51 63 52 82 53 47 54 48 55 62 57
REMARK SMILES IDX 83 58 50 59 34 60 35 61 43 62 36 63 37 64 41 65 44 66 38 67
REMARK SMILES IDX 39 68 42 69 40 70 66 71 67 72 75 73 68 74 69 75 73 76 76 77
REMARK SMILES IDX 70 78 71 79 74 80 72 81 51 82 52 83 60 84 53 85 54 86 58 87
REMARK SMILES IDX 61 88 55 89 56 90 59 91 57 92
REMARK H PARENT 18 6 22 26 81 45 49 56
REMARK Flexibility Score: inf
ROOT
ATOM      1  C   UNL A   1      33.132  29.004  24.053  1.00  0.00     0.042 C 
ENDROOT
BRANCH   1   2
ATOM      2  C   UNL A   1      32.171  28.265  23.103  1.00  0.00     0.117 C 
BRANCH   2   3
ATOM      3  N   UNL A   1      32.822  27.511  22.037  1.00  0.00    -0.356 N 
ATOM      4  C   UNL A   1      32.671  26.226  21.595  1.00  0.00     0.220 C 
ATOM      5  O   UNL A   1      33.279  25.905  20.570  1.00  0.00    -0.275 OA
ATOM      6  H   UNL A   1      33.498  28.026  21.540  1.00  0.00     0.163 HD
BRANCH   4   7
ATOM      7  C   UNL A   1      31.836  25.194  22.346  1.00  0.00     0.104 C 
BRANCH   7   8
ATOM      8  C   UNL A   1      32.683  23.977  22.787  1.00  0.00     0.003 C 
ATOM      9  C   UNL A   1      32.908  19.307  24.339  1.00  0.00     0.122 A 
ATOM     10  C   UNL A   1      32.201  20.352  23.744  1.00  0.00     0.050 A 
ATOM     11  C   UNL A   1      34.139  19.551  24.936  1.00  0.00     0.093 A 
ATOM     12  C   UNL A   1      32.676  21.671  23.812  1.00  0.00    -0.037 A 
ATOM     13  C   UNL A   1      34.635  20.852  25.002  1.00  0.00     0.126 A 
ATOM     14  C   UNL A   1      33.887  21.935  24.493  1.00  0.00     0.000 A 
ATOM     15  C   UNL A   1      31.830  22.786  23.232  1.00  0.00     0.040 C 
ATOM     16  C   UNL A   1      34.350  23.353  24.703  1.00  0.00     0.020 C 
ATOM     17  C   UNL A   1      34.343  23.738  26.193  1.00  0.00     0.013 C 
ATOM     18  C   UNL A   1      33.574  24.415  23.934  1.00  0.00     0.012 C 
BRANCH   9  19
ATOM     19  O   UNL A   1      32.340  18.063  24.278  1.00  0.00    -0.497 OA
ATOM     20  C   UNL A   1      32.705  17.237  25.384  1.00  0.00     0.278 C 
ENDBRANCH   9  19
BRANCH  13  21
ATOM     21  O   UNL A   1      35.803  20.986  25.711  1.00  0.00    -0.496 OA
ATOM     22  C   UNL A   1      36.986  20.741  24.954  1.00  0.00     0.278 C 
ENDBRANCH  13  21
ENDBRANCH   7   8
ENDBRANCH   4   7
ENDBRANCH   2   3
ENDBRANCH   1   2
BRANCH   1  23
ATOM     23  C   UNL A   1      32.689  29.073  25.513  1.00  0.00     0.118 C 
BRANCH  23  24
ATOM     24  N   UNL A   1      32.452  30.449  25.920  1.00  0.00    -0.352 N 
ATOM     25  C   UNL A   1      33.050  31.235  26.874  1.00  0.00     0.251 C 
ATOM     26  H   UNL A   1      31.733  30.898  25.420  1.00  0.00     0.163 HD
ATOM     27  O   UNL A   1      32.458  32.249  27.236  1.00  0.00    -0.269 OA
BRANCH  25  28
ATOM     28  C   UNL A   1      34.376  30.928  27.476  1.00  0.00     0.039 A 
ATOM     29  C   UNL A   1      34.576  29.640  27.997  1.00  0.00     0.014 A 
ATOM     30  C   UNL A   1      35.361  31.896  27.683  1.00  0.00     0.014 A 
ATOM     31  C   UNL A   1      35.743  29.327  28.709  1.00  0.00     0.010 A 
ATOM     32  C   UNL A   1      36.554  31.565  28.342  1.00  0.00     0.010 A 
ATOM     33  C   UNL A   1      36.749  30.285  28.885  1.00  0.00    -0.014 A 
BRANCH  33  34
ATOM     34  C   UNL A   1      37.975  29.978  29.679  1.00  0.00     0.031 A 
ATOM     35  C   UNL A   1      39.022  29.038  29.133  1.00  0.00     0.074 A 
ATOM     36  C   UNL A   1      38.144  30.509  30.907  1.00  0.00     0.049 A 
ATOM     37  N   UNL A   1      40.113  28.587  29.704  1.00  0.00    -0.248 NA
ATOM     38  C   UNL A   1      38.806  28.522  27.773  1.00  0.00     0.031 C 
ATOM     39  C   UNL A   1      37.209  31.414  31.573  1.00  0.00     0.029 A 
ATOM     40  N   UNL A   1      39.161  30.354  31.818  1.00  0.00    -0.354 N 
ATOM     41  C   UNL A   1      40.690  27.713  28.791  1.00  0.00     0.074 A 
ATOM     42  C   UNL A   1      39.819  27.677  27.636  1.00  0.00     0.031 C 
ATOM     43  C   UNL A   1      37.697  31.741  32.781  1.00  0.00     0.029 A 
ATOM     44  C   UNL A   1      38.964  31.045  32.990  1.00  0.00     0.049 A 
ATOM     45  H   UNL A   1      39.957  29.798  31.649  1.00  0.00     0.167 HD
ATOM     46  C   UNL A   1      41.847  27.014  28.896  1.00  0.00     0.037 A 
ATOM     47  C   UNL A   1      39.711  31.104  34.110  1.00  0.00     0.037 A 
ATOM     48  C   UNL A   1      42.754  27.091  30.012  1.00  0.00     0.049 A 
ATOM     49  C   UNL A   1      41.004  30.335  34.189  1.00  0.00     0.074 A 
ATOM     50  C   UNL A   1      43.989  26.483  30.161  1.00  0.00     0.029 A 
ATOM     51  N   UNL A   1      42.529  27.827  31.164  1.00  0.00    -0.354 N 
ATOM     52  N   UNL A   1      41.561  29.560  33.293  1.00  0.00    -0.248 NA
ATOM     53  C   UNL A   1      41.772  30.456  35.438  1.00  0.00     0.031 C 
ATOM     54  C   UNL A   1      44.497  26.825  31.420  1.00  0.00     0.029 A 
ATOM     55  C   UNL A   1      43.595  27.673  32.037  1.00  0.00     0.049 A 
ATOM     56  H   UNL A   1      41.731  28.377  31.337  1.00  0.00     0.167 HD
ATOM     57  C   UNL A   1      42.755  29.125  33.855  1.00  0.00     0.074 A 
ATOM     58  C   UNL A   1      42.849  29.730  35.166  1.00  0.00     0.031 C 
ATOM     59  C   UNL A   1      43.689  28.296  33.330  1.00  0.00     0.037 A 
BRANCH  46  60
ATOM     60  C   UNL A   1      42.218  26.096  27.770  1.00  0.00     0.064 A 
ATOM     61  C   UNL A   1      43.157  26.467  26.798  1.00  0.00     0.173 A 
ATOM     62  C   UNL A   1      41.686  24.798  27.711  1.00  0.00     0.173 A 
ATOM     63  F   UNL A   1      43.689  27.698  26.808  1.00  0.00    -0.203 F 
ATOM     64  C   UNL A   1      43.540  25.576  25.798  1.00  0.00     0.198 A 
ATOM     65  C   UNL A   1      42.088  23.903  26.724  1.00  0.00     0.198 A 
ATOM     66  F   UNL A   1      40.791  24.393  28.625  1.00  0.00    -0.203 F 
ATOM     67  F   UNL A   1      44.420  25.960  24.862  1.00  0.00    -0.200 F 
ATOM     68  C   UNL A   1      43.012  24.293  25.767  1.00  0.00     0.200 A 
ATOM     69  F   UNL A   1      41.588  22.660  26.703  1.00  0.00    -0.200 F 
ATOM     70  F   UNL A   1      43.394  23.433  24.812  1.00  0.00    -0.200 F 
ENDBRANCH  46  60
BRANCH  47  71
ATOM     71  C   UNL A   1      39.265  31.932  35.260  1.00  0.00     0.064 A 
ATOM     72  C   UNL A   1      38.497  31.375  36.292  1.00  0.00     0.173 A 
ATOM     73  C   UNL A   1      39.566  33.300  35.333  1.00  0.00     0.173 A 
ATOM     74  F   UNL A   1      38.162  30.078  36.251  1.00  0.00    -0.203 F 
ATOM     75  C   UNL A   1      38.028  32.161  37.342  1.00  0.00     0.198 A 
ATOM     76  C   UNL A   1      39.117  34.078  36.397  1.00  0.00     0.198 A 
ATOM     77  F   UNL A   1      40.297  33.879  34.369  1.00  0.00    -0.203 F 
ATOM     78  F   UNL A   1      37.252  31.614  38.289  1.00  0.00    -0.200 F 
ATOM     79  C   UNL A   1      38.340  33.510  37.396  1.00  0.00     0.200 A 
ATOM     80  F   UNL A   1      39.428  35.381  36.449  1.00  0.00    -0.200 F 
ATOM     81  F   UNL A   1      37.884  34.266  38.404  1.00  0.00    -0.200 F 
ENDBRANCH  47  71
BRANCH  59  82
ATOM     82  C   UNL A   1      44.913  28.024  34.152  1.00  0.00     0.064 A 
ATOM     83  C   UNL A   1      44.983  26.929  35.024  1.00  0.00     0.173 A 
ATOM     84  C   UNL A   1      46.044  28.846  34.033  1.00  0.00     0.173 A 
ATOM     85  F   UNL A   1      43.922  26.124  35.182  1.00  0.00    -0.203 F 
ATOM     86  C   UNL A   1      46.135  26.678  35.764  1.00  0.00     0.198 A 
ATOM     87  C   UNL A   1      47.203  28.578  34.757  1.00  0.00     0.198 A 
ATOM     88  F   UNL A   1      46.028  29.903  33.208  1.00  0.00    -0.203 F 
ATOM     89  F   UNL A   1      46.168  25.648  36.621  1.00  0.00    -0.200 F 
ATOM     90  C   UNL A   1      47.246  27.497  35.625  1.00  0.00     0.200 A 
ATOM     91  F   UNL A   1      48.278  29.366  34.614  1.00  0.00    -0.200 F 
ATOM     92  F   UNL A   1      48.356  27.250  36.334  1.00  0.00    -0.200 F 
ENDBRANCH  59  82
ENDBRANCH  33  34
ENDBRANCH  25  28
ENDBRANCH  23  24
ENDBRANCH   1  23
TORSDOF 13
ENDMDL
