MODEL 1
REMARK VINA RESULT:     -12.5      0.000      0.000
REMARK SMILES C[C@H]1[C@H](C(=O)NCCCNC(=O)c2ccc(-c3c4nc(c(-c5c(F)c(F)c(F)c(F)c5F)c5ccc([nH]5)c(-c5c(F)c(F)c(F)c(F)c5F)c5nc(c(-c6c(F)c(F)c(F)c(F)c6F)c6ccc3[nH]6)C=C5)C=C4)cc2)CC[N@@H+]1CC(=O)N1CCCC1
REMARK SMILES IDX 8 1 7 2 6 3 4 4 5 5 3 7 1 8 2 9 78 10 76 11 77 12 79 14
REMARK SMILES IDX 80 15 81 16 82 17 83 18 86 19 84 20 85 21 9 22 10 23 11 24
REMARK SMILES IDX 12 26 13 27 14 28 75 29 15 30 74 31 16 32 17 33 18 34 68 35
REMARK SMILES IDX 19 36 73 37 67 38 69 39 20 40 72 41 66 42 65 43 21 45 53 46
REMARK SMILES IDX 33 47 52 48 34 49 37 50 51 51 70 52 35 53 36 54 50 56 71 57
REMARK SMILES IDX 38 58 22 59 23 60 31 61 24 62 25 63 29 64 32 65 26 66 27 67
REMARK SMILES IDX 30 68 28 69 54 70 55 71 63 72 56 73 57 74 61 75 64 76 58 77
REMARK SMILES IDX 59 78 62 79 60 80 39 81 40 82 48 83 41 84 42 85 46 86 49 87
REMARK SMILES IDX 43 88 44 89 47 90 45 91
REMARK H PARENT 6 6 78 13 10 25 69 44 37 55
REMARK Flexibility Score: inf
ROOT
ATOM      1  C   UNL A   1      33.687  28.984  24.770  1.00  0.00     0.042 C 
ENDROOT
BRANCH   1   2
ATOM      2  C   UNL A   1      33.304  28.886  23.258  1.00  0.00     0.117 C 
BRANCH   2   3
ATOM      3  N   UNL A   1      33.518  27.640  22.515  1.00  0.00    -0.356 N 
ATOM      4  C   UNL A   1      32.755  26.619  22.035  1.00  0.00     0.229 C 
ATOM      5  O   UNL A   1      33.322  25.974  21.132  1.00  0.00    -0.275 OA
ATOM      6  H   UNL A   1      34.470  27.505  22.307  1.00  0.00     0.163 HD
BRANCH   4   7
ATOM      7  C   UNL A   1      31.378  26.079  22.485  1.00  0.00     0.142 C 
ATOM      8  C   UNL A   1      30.797  23.647  23.241  1.00  0.00     0.076 C 
ATOM      9  C   UNL A   1      31.511  24.969  23.547  1.00  0.00     0.194 C 
ATOM     10  N   UNL A   1      30.890  25.468  24.782  1.00  0.00    -0.324 N 
ATOM     11  C   UNL A   1      30.296  26.991  23.005  1.00  0.00     0.081 C 
ATOM     12  C   UNL A   1      30.221  26.740  24.505  1.00  0.00     0.263 C 
ATOM     13  H   UNL A   1      30.173  24.806  25.082  1.00  0.00     0.348 HD
BRANCH  10  14
ATOM     14  C   UNL A   1      31.808  25.482  25.944  1.00  0.00     0.364 C 
BRANCH  14  15
ATOM     15  C   UNL A   1      31.790  24.139  26.686  1.00  0.00     0.277 C 
ATOM     16  O   UNL A   1      30.792  23.801  27.284  1.00  0.00    -0.268 OA
ATOM     17  N   UNL A   1      32.972  23.419  26.757  1.00  0.00    -0.338 N 
ATOM     18  C   UNL A   1      34.103  23.457  25.858  1.00  0.00     0.119 C 
ATOM     19  C   UNL A   1      33.244  22.536  27.863  1.00  0.00     0.119 C 
ATOM     20  C   UNL A   1      34.994  22.286  26.285  1.00  0.00     0.023 C 
ATOM     21  C   UNL A   1      34.185  21.500  27.313  1.00  0.00     0.023 C 
ENDBRANCH  14  15
ENDBRANCH  10  14
ENDBRANCH   4   7
ENDBRANCH   2   3
ENDBRANCH   1   2
BRANCH   1  22
ATOM     22  C   UNL A   1      32.622  29.135  25.872  1.00  0.00     0.118 C 
BRANCH  22  23
ATOM     23  N   UNL A   1      32.424  30.524  26.272  1.00  0.00    -0.352 N 
ATOM     24  C   UNL A   1      33.147  31.365  27.086  1.00  0.00     0.251 C 
ATOM     25  H   UNL A   1      31.620  30.939  25.885  1.00  0.00     0.163 HD
ATOM     26  O   UNL A   1      32.636  32.438  27.411  1.00  0.00    -0.269 OA
BRANCH  24  27
ATOM     27  C   UNL A   1      34.515  31.063  27.591  1.00  0.00     0.039 A 
ATOM     28  C   UNL A   1      34.756  29.775  28.094  1.00  0.00     0.014 A 
ATOM     29  C   UNL A   1      35.499  32.041  27.752  1.00  0.00     0.014 A 
ATOM     30  C   UNL A   1      35.962  29.467  28.739  1.00  0.00     0.010 A 
ATOM     31  C   UNL A   1      36.727  31.722  28.367  1.00  0.00     0.010 A 
ATOM     32  C   UNL A   1      36.966  30.437  28.888  1.00  0.00    -0.014 A 
BRANCH  32  33
ATOM     33  C   UNL A   1      38.223  30.096  29.626  1.00  0.00     0.031 A 
ATOM     34  C   UNL A   1      38.460  30.599  31.029  1.00  0.00     0.074 A 
ATOM     35  C   UNL A   1      39.150  29.300  29.054  1.00  0.00     0.049 A 
ATOM     36  N   UNL A   1      39.446  30.336  31.854  1.00  0.00    -0.248 NA
ATOM     37  C   UNL A   1      37.465  31.534  31.573  1.00  0.00     0.031 C 
ATOM     38  C   UNL A   1      39.079  28.772  27.693  1.00  0.00     0.029 A 
ATOM     39  N   UNL A   1      40.329  28.788  29.548  1.00  0.00    -0.354 N 
ATOM     40  C   UNL A   1      39.186  31.065  33.010  1.00  0.00     0.074 A 
ATOM     41  C   UNL A   1      37.984  31.830  32.755  1.00  0.00     0.031 C 
ATOM     42  C   UNL A   1      40.147  27.990  27.468  1.00  0.00     0.029 A 
ATOM     43  C   UNL A   1      40.991  27.973  28.660  1.00  0.00     0.049 A 
ATOM     44  H   UNL A   1      40.666  28.986  30.451  1.00  0.00     0.167 HD
ATOM     45  C   UNL A   1      39.867  31.079  34.183  1.00  0.00     0.037 A 
ATOM     46  C   UNL A   1      42.142  27.283  28.791  1.00  0.00     0.037 A 
ATOM     47  C   UNL A   1      41.059  30.314  34.447  1.00  0.00     0.049 A 
ATOM     48  C   UNL A   1      42.881  27.312  30.104  1.00  0.00     0.074 A 
ATOM     49  C   UNL A   1      41.795  30.231  35.617  1.00  0.00     0.029 A 
ATOM     50  N   UNL A   1      41.698  29.502  33.520  1.00  0.00    -0.354 N 
ATOM     51  N   UNL A   1      42.581  27.947  31.210  1.00  0.00    -0.248 NA
ATOM     52  C   UNL A   1      44.113  26.513  30.190  1.00  0.00     0.031 C 
ATOM     53  C   UNL A   1      42.903  29.409  35.385  1.00  0.00     0.029 A 
ATOM     54  C   UNL A   1      42.829  28.934  34.086  1.00  0.00     0.049 A 
ATOM     55  H   UNL A   1      41.392  29.351  32.596  1.00  0.00     0.167 HD
ATOM     56  C   UNL A   1      43.569  27.610  32.127  1.00  0.00     0.074 A 
ATOM     57  C   UNL A   1      44.465  26.692  31.455  1.00  0.00     0.031 C 
ATOM     58  C   UNL A   1      43.720  28.026  33.408  1.00  0.00     0.037 A 
BRANCH  45  59
ATOM     59  C   UNL A   1      39.329  31.952  35.286  1.00  0.00     0.064 A 
ATOM     60  C   UNL A   1      38.509  31.435  36.300  1.00  0.00     0.173 A 
ATOM     61  C   UNL A   1      39.664  33.314  35.350  1.00  0.00     0.173 A 
ATOM     62  F   UNL A   1      38.154  30.141  36.287  1.00  0.00    -0.203 F 
ATOM     63  C   UNL A   1      38.012  32.253  37.311  1.00  0.00     0.198 A 
ATOM     64  C   UNL A   1      39.193  34.123  36.381  1.00  0.00     0.198 A 
ATOM     65  F   UNL A   1      40.457  33.861  34.415  1.00  0.00    -0.203 F 
ATOM     66  F   UNL A   1      37.184  31.747  38.236  1.00  0.00    -0.200 F 
ATOM     67  C   UNL A   1      38.359  33.595  37.355  1.00  0.00     0.200 A 
ATOM     68  F   UNL A   1      39.542  35.416  36.431  1.00  0.00    -0.200 F 
ATOM     69  F   UNL A   1      37.881  34.381  38.330  1.00  0.00    -0.200 F 
ENDBRANCH  45  59
BRANCH  46  70
ATOM     70  C   UNL A   1      42.656  26.475  27.650  1.00  0.00     0.064 A 
ATOM     71  C   UNL A   1      43.609  26.994  26.762  1.00  0.00     0.173 A 
ATOM     72  C   UNL A   1      42.198  25.169  27.423  1.00  0.00     0.173 A 
ATOM     73  F   UNL A   1      44.060  28.247  26.920  1.00  0.00    -0.203 F 
ATOM     74  C   UNL A   1      44.070  26.244  25.681  1.00  0.00     0.198 A 
ATOM     75  C   UNL A   1      42.683  24.410  26.359  1.00  0.00     0.198 A 
ATOM     76  F   UNL A   1      41.286  24.625  28.241  1.00  0.00    -0.203 F 
ATOM     77  F   UNL A   1      44.946  26.782  24.820  1.00  0.00    -0.200 F 
ATOM     78  C   UNL A   1      43.612  24.950  25.485  1.00  0.00     0.200 A 
ATOM     79  F   UNL A   1      42.246  23.155  26.181  1.00  0.00    -0.200 F 
ATOM     80  F   UNL A   1      44.061  24.228  24.449  1.00  0.00    -0.200 F 
ENDBRANCH  46  70
BRANCH  58  81
ATOM     81  C   UNL A   1      44.891  27.478  34.177  1.00  0.00     0.064 A 
ATOM     82  C   UNL A   1      46.124  28.145  34.215  1.00  0.00     0.173 A 
ATOM     83  C   UNL A   1      44.769  26.284  34.905  1.00  0.00     0.173 A 
ATOM     84  F   UNL A   1      46.299  29.283  33.527  1.00  0.00    -0.203 F 
ATOM     85  C   UNL A   1      47.202  27.620  34.924  1.00  0.00     0.198 A 
ATOM     86  C   UNL A   1      45.840  25.778  35.639  1.00  0.00     0.198 A 
ATOM     87  F   UNL A   1      43.610  25.609  34.910  1.00  0.00    -0.203 F 
ATOM     88  F   UNL A   1      48.387  28.246  34.900  1.00  0.00    -0.200 F 
ATOM     89  C   UNL A   1      47.058  26.441  35.640  1.00  0.00     0.200 A 
ATOM     90  F   UNL A   1      45.693  24.647  36.343  1.00  0.00    -0.200 F 
ATOM     91  F   UNL A   1      48.094  25.939  36.325  1.00  0.00    -0.200 F 
ENDBRANCH  58  81
ENDBRANCH  32  33
ENDBRANCH  24  27
ENDBRANCH  22  23
ENDBRANCH   1  22
TORSDOF 12
ENDMDL
MODEL 2
REMARK VINA RESULT:     -12.4      1.658      2.683
REMARK SMILES C[C@H]1[C@H](C(=O)NCCCNC(=O)c2ccc(-c3c4nc(c(-c5c(F)c(F)c(F)c(F)c5F)c5ccc([nH]5)c(-c5c(F)c(F)c(F)c(F)c5F)c5nc(c(-c6c(F)c(F)c(F)c(F)c6F)c6ccc3[nH]6)C=C5)C=C4)cc2)CC[N@@H+]1CC(=O)N1CCCC1
REMARK SMILES IDX 8 1 7 2 6 3 4 4 5 5 3 7 1 8 2 9 78 10 76 11 77 12 79 14
REMARK SMILES IDX 80 15 81 16 82 17 83 18 86 19 84 20 85 21 9 22 10 23 11 24
REMARK SMILES IDX 12 26 13 27 14 28 75 29 15 30 74 31 16 32 17 33 18 34 68 35
REMARK SMILES IDX 19 36 73 37 67 38 69 39 20 40 72 41 66 42 65 43 21 45 53 46
REMARK SMILES IDX 33 47 52 48 34 49 37 50 51 51 70 52 35 53 36 54 50 56 71 57
REMARK SMILES IDX 38 58 22 59 23 60 31 61 24 62 25 63 29 64 32 65 26 66 27 67
REMARK SMILES IDX 30 68 28 69 54 70 55 71 63 72 56 73 57 74 61 75 64 76 58 77
REMARK SMILES IDX 59 78 62 79 60 80 39 81 40 82 48 83 41 84 42 85 46 86 49 87
REMARK SMILES IDX 43 88 44 89 47 90 45 91
REMARK H PARENT 6 6 78 13 10 25 69 44 37 55
REMARK Flexibility Score: inf
ROOT
ATOM      1  C   UNL A   1      31.778  28.402  26.131  1.00  0.00     0.042 C 
ENDROOT
BRANCH   1   2
ATOM      2  C   UNL A   1      31.476  27.122  25.288  1.00  0.00     0.117 C 
BRANCH   2   3
ATOM      3  N   UNL A   1      31.088  25.871  25.946  1.00  0.00    -0.356 N 
ATOM      4  C   UNL A   1      31.712  24.761  26.430  1.00  0.00     0.229 C 
ATOM      5  O   UNL A   1      31.015  24.134  27.251  1.00  0.00    -0.275 OA
ATOM      6  H   UNL A   1      30.113  25.818  26.071  1.00  0.00     0.163 HD
BRANCH   4   7
ATOM      7  C   UNL A   1      33.066  24.112  26.062  1.00  0.00     0.142 C 
ATOM      8  C   UNL A   1      34.244  22.111  27.257  1.00  0.00     0.076 C 
ATOM      9  C   UNL A   1      33.089  22.603  26.377  1.00  0.00     0.194 C 
ATOM     10  N   UNL A   1      33.244  21.892  25.100  1.00  0.00    -0.324 N 
ATOM     11  C   UNL A   1      33.657  24.233  24.680  1.00  0.00     0.081 C 
ATOM     12  C   UNL A   1      33.500  22.863  24.035  1.00  0.00     0.263 C 
ATOM     13  H   UNL A   1      34.060  21.282  25.159  1.00  0.00     0.348 HD
BRANCH  10  14
ATOM     14  C   UNL A   1      32.153  20.929  24.821  1.00  0.00     0.364 C 
BRANCH  14  15
ATOM     15  C   UNL A   1      32.486  20.044  23.613  1.00  0.00     0.277 C 
ATOM     16  O   UNL A   1      32.153  20.399  22.504  1.00  0.00    -0.268 OA
ATOM     17  N   UNL A   1      33.040  18.796  23.852  1.00  0.00    -0.338 N 
ATOM     18  C   UNL A   1      33.810  18.359  24.996  1.00  0.00     0.119 C 
ATOM     19  C   UNL A   1      32.830  17.698  22.943  1.00  0.00     0.119 C 
ATOM     20  C   UNL A   1      34.363  16.985  24.603  1.00  0.00     0.023 C 
ATOM     21  C   UNL A   1      34.028  16.807  23.126  1.00  0.00     0.023 C 
ENDBRANCH  14  15
ENDBRANCH  10  14
ENDBRANCH   4   7
ENDBRANCH   2   3
ENDBRANCH   1   2
BRANCH   1  22
ATOM     22  C   UNL A   1      32.867  29.411  25.722  1.00  0.00     0.118 C 
BRANCH  22  23
ATOM     23  N   UNL A   1      32.631  30.742  26.269  1.00  0.00    -0.352 N 
ATOM     24  C   UNL A   1      33.310  31.494  27.201  1.00  0.00     0.251 C 
ATOM     25  H   UNL A   1      31.835  31.189  25.901  1.00  0.00     0.163 HD
ATOM     26  O   UNL A   1      32.769  32.516  27.626  1.00  0.00    -0.269 OA
BRANCH  24  27
ATOM     27  C   UNL A   1      34.663  31.153  27.720  1.00  0.00     0.039 A 
ATOM     28  C   UNL A   1      34.888  29.834  28.142  1.00  0.00     0.014 A 
ATOM     29  C   UNL A   1      35.646  32.115  27.970  1.00  0.00     0.014 A 
ATOM     30  C   UNL A   1      36.077  29.479  28.796  1.00  0.00     0.010 A 
ATOM     31  C   UNL A   1      36.856  31.751  28.595  1.00  0.00     0.010 A 
ATOM     32  C   UNL A   1      37.079  30.433  29.035  1.00  0.00    -0.014 A 
BRANCH  32  33
ATOM     33  C   UNL A   1      38.315  30.039  29.781  1.00  0.00     0.031 A 
ATOM     34  C   UNL A   1      38.558  30.522  31.190  1.00  0.00     0.074 A 
ATOM     35  C   UNL A   1      39.217  29.213  29.210  1.00  0.00     0.049 A 
ATOM     36  N   UNL A   1      39.526  30.215  32.022  1.00  0.00    -0.248 NA
ATOM     37  C   UNL A   1      37.594  31.489  31.733  1.00  0.00     0.031 C 
ATOM     38  C   UNL A   1      39.138  28.699  27.845  1.00  0.00     0.029 A 
ATOM     39  N   UNL A   1      40.370  28.653  29.710  1.00  0.00    -0.354 N 
ATOM     40  C   UNL A   1      39.283  30.943  33.181  1.00  0.00     0.074 A 
ATOM     41  C   UNL A   1      38.113  31.755  32.923  1.00  0.00     0.031 C 
ATOM     42  C   UNL A   1      40.177  27.879  27.622  1.00  0.00     0.029 A 
ATOM     43  C   UNL A   1      41.010  27.821  28.821  1.00  0.00     0.049 A 
ATOM     44  H   UNL A   1      40.707  28.831  30.617  1.00  0.00     0.167 HD
ATOM     45  C   UNL A   1      39.953  30.922  34.361  1.00  0.00     0.037 A 
ATOM     46  C   UNL A   1      42.133  27.087  28.956  1.00  0.00     0.037 A 
ATOM     47  C   UNL A   1      41.114  30.111  34.628  1.00  0.00     0.049 A 
ATOM     48  C   UNL A   1      42.860  27.077  30.276  1.00  0.00     0.074 A 
ATOM     49  C   UNL A   1      41.836  29.991  35.804  1.00  0.00     0.029 A 
ATOM     50  N   UNL A   1      41.730  29.283  33.700  1.00  0.00    -0.354 N 
ATOM     51  N   UNL A   1      42.575  27.714  31.384  1.00  0.00    -0.248 NA
ATOM     52  C   UNL A   1      44.060  26.231  30.366  1.00  0.00     0.031 C 
ATOM     53  C   UNL A   1      42.914  29.130  35.574  1.00  0.00     0.029 A 
ATOM     54  C   UNL A   1      42.834  28.667  34.271  1.00  0.00     0.049 A 
ATOM     55  H   UNL A   1      41.427  29.151  32.772  1.00  0.00     0.167 HD
ATOM     56  C   UNL A   1      43.541  27.333  32.307  1.00  0.00     0.074 A 
ATOM     57  C   UNL A   1      44.407  26.387  31.635  1.00  0.00     0.031 C 
ATOM     58  C   UNL A   1      43.696  27.732  33.593  1.00  0.00     0.037 A 
BRANCH  45  59
ATOM     59  C   UNL A   1      39.440  31.806  35.466  1.00  0.00     0.064 A 
ATOM     60  C   UNL A   1      38.526  31.334  36.421  1.00  0.00     0.173 A 
ATOM     61  C   UNL A   1      39.889  33.130  35.593  1.00  0.00     0.173 A 
ATOM     62  F   UNL A   1      38.061  30.078  36.346  1.00  0.00    -0.203 F 
ATOM     63  C   UNL A   1      38.053  32.162  37.435  1.00  0.00     0.198 A 
ATOM     64  C   UNL A   1      39.439  33.946  36.628  1.00  0.00     0.198 A 
ATOM     65  F   UNL A   1      40.773  33.632  34.717  1.00  0.00    -0.203 F 
ATOM     66  F   UNL A   1      37.137  31.704  38.301  1.00  0.00    -0.200 F 
ATOM     67  C   UNL A   1      38.513  33.466  37.541  1.00  0.00     0.200 A 
ATOM     68  F   UNL A   1      39.897  35.201  36.739  1.00  0.00    -0.200 F 
ATOM     69  F   UNL A   1      38.058  34.261  38.520  1.00  0.00    -0.200 F 
ENDBRANCH  45  59
BRANCH  46  70
ATOM     70  C   UNL A   1      42.626  26.269  27.813  1.00  0.00     0.064 A 
ATOM     71  C   UNL A   1      43.603  26.761  26.935  1.00  0.00     0.173 A 
ATOM     72  C   UNL A   1      42.124  24.981  27.574  1.00  0.00     0.173 A 
ATOM     73  F   UNL A   1      44.095  27.996  27.105  1.00  0.00    -0.203 F 
ATOM     74  C   UNL A   1      44.045  26.003  25.852  1.00  0.00     0.198 A 
ATOM     75  C   UNL A   1      42.590  24.213  26.508  1.00  0.00     0.198 A 
ATOM     76  F   UNL A   1      41.189  24.463  28.382  1.00  0.00    -0.203 F 
ATOM     77  F   UNL A   1      44.944  26.516  25.000  1.00  0.00    -0.200 F 
ATOM     78  C   UNL A   1      43.544  24.727  25.644  1.00  0.00     0.200 A 
ATOM     79  F   UNL A   1      42.112  22.976  26.319  1.00  0.00    -0.200 F 
ATOM     80  F   UNL A   1      43.974  23.996  24.605  1.00  0.00    -0.200 F 
ENDBRANCH  46  70
BRANCH  58  81
ATOM     81  C   UNL A   1      44.838  27.134  34.367  1.00  0.00     0.064 A 
ATOM     82  C   UNL A   1      44.698  25.933  35.078  1.00  0.00     0.173 A 
ATOM     83  C   UNL A   1      46.096  27.758  34.378  1.00  0.00     0.173 A 
ATOM     84  F   UNL A   1      43.515  25.303  35.112  1.00  0.00    -0.203 F 
ATOM     85  C   UNL A   1      45.763  25.397  35.798  1.00  0.00     0.198 A 
ATOM     86  C   UNL A   1      47.168  27.202  35.072  1.00  0.00     0.198 A 
ATOM     87  F   UNL A   1      46.289  28.904  33.708  1.00  0.00    -0.203 F 
ATOM     88  F   UNL A   1      45.590  24.278  36.515  1.00  0.00    -0.200 F 
ATOM     89  C   UNL A   1      46.998  26.028  35.790  1.00  0.00     0.200 A 
ATOM     90  F   UNL A   1      48.364  27.806  35.050  1.00  0.00    -0.200 F 
ATOM     91  F   UNL A   1      48.023  25.509  36.480  1.00  0.00    -0.200 F 
ENDBRANCH  58  81
ENDBRANCH  32  33
ENDBRANCH  24  27
ENDBRANCH  22  23
ENDBRANCH   1  22
TORSDOF 12
ENDMDL
MODEL 3
REMARK VINA RESULT:     -12.4      0.961      2.550
REMARK SMILES C[C@H]1[C@H](C(=O)NCCCNC(=O)c2ccc(-c3c4nc(c(-c5c(F)c(F)c(F)c(F)c5F)c5ccc([nH]5)c(-c5c(F)c(F)c(F)c(F)c5F)c5nc(c(-c6c(F)c(F)c(F)c(F)c6F)c6ccc3[nH]6)C=C5)C=C4)cc2)CC[N@@H+]1CC(=O)N1CCCC1
REMARK SMILES IDX 8 1 7 2 6 3 4 4 5 5 3 7 1 8 2 9 78 10 76 11 77 12 79 14
REMARK SMILES IDX 80 15 81 16 82 17 83 18 86 19 84 20 85 21 9 22 10 23 11 24
REMARK SMILES IDX 12 26 13 27 14 28 75 29 15 30 74 31 16 32 17 33 18 34 68 35
REMARK SMILES IDX 19 36 73 37 67 38 69 39 20 40 72 41 66 42 65 43 21 45 53 46
REMARK SMILES IDX 33 47 52 48 34 49 37 50 51 51 70 52 35 53 36 54 50 56 71 57
REMARK SMILES IDX 38 58 22 59 23 60 31 61 24 62 25 63 29 64 32 65 26 66 27 67
REMARK SMILES IDX 30 68 28 69 54 70 55 71 63 72 56 73 57 74 61 75 64 76 58 77
REMARK SMILES IDX 59 78 62 79 60 80 39 81 40 82 48 83 41 84 42 85 46 86 49 87
REMARK SMILES IDX 43 88 44 89 47 90 45 91
REMARK H PARENT 6 6 78 13 10 25 69 44 37 55
REMARK Flexibility Score: inf
ROOT
ATOM      1  C   UNL A   1      31.768  29.098  26.931  1.00  0.00     0.042 C 
ENDROOT
BRANCH   1   2
ATOM      2  C   UNL A   1      32.200  27.621  27.201  1.00  0.00     0.117 C 
BRANCH   2   3
ATOM      3  N   UNL A   1      31.357  26.506  26.758  1.00  0.00    -0.356 N 
ATOM      4  C   UNL A   1      31.511  25.178  26.499  1.00  0.00     0.229 C 
ATOM      5  O   UNL A   1      30.433  24.552  26.524  1.00  0.00    -0.275 OA
ATOM      6  H   UNL A   1      30.428  26.796  26.608  1.00  0.00     0.163 HD
BRANCH   4   7
ATOM      7  C   UNL A   1      32.756  24.358  26.089  1.00  0.00     0.142 C 
ATOM      8  C   UNL A   1      32.811  21.938  25.109  1.00  0.00     0.076 C 
ATOM      9  C   UNL A   1      32.464  23.418  24.903  1.00  0.00     0.194 C 
ATOM     10  N   UNL A   1      33.302  23.859  23.778  1.00  0.00    -0.324 N 
ATOM     11  C   UNL A   1      34.068  25.019  25.752  1.00  0.00     0.081 C 
ATOM     12  C   UNL A   1      34.224  24.896  24.242  1.00  0.00     0.263 C 
ATOM     13  H   UNL A   1      33.865  23.072  23.457  1.00  0.00     0.348 HD
BRANCH  10  14
ATOM     14  C   UNL A   1      32.528  24.206  22.563  1.00  0.00     0.364 C 
BRANCH  14  15
ATOM     15  C   UNL A   1      32.700  25.686  22.197  1.00  0.00     0.277 C 
ATOM     16  O   UNL A   1      33.653  26.028  21.530  1.00  0.00    -0.268 OA
ATOM     17  N   UNL A   1      31.828  26.603  22.760  1.00  0.00    -0.338 N 
ATOM     18  C   UNL A   1      30.485  26.382  23.250  1.00  0.00     0.119 C 
ATOM     19  C   UNL A   1      32.226  27.967  22.997  1.00  0.00     0.119 C 
ATOM     20  C   UNL A   1      29.923  27.781  23.521  1.00  0.00     0.023 C 
ATOM     21  C   UNL A   1      30.948  28.759  22.956  1.00  0.00     0.023 C 
ENDBRANCH  14  15
ENDBRANCH  10  14
ENDBRANCH   4   7
ENDBRANCH   2   3
ENDBRANCH   1   2
BRANCH   1  22
ATOM     22  C   UNL A   1      32.609  30.046  26.056  1.00  0.00     0.118 C 
BRANCH  22  23
ATOM     23  N   UNL A   1      32.537  31.433  26.504  1.00  0.00    -0.352 N 
ATOM     24  C   UNL A   1      33.326  32.174  27.353  1.00  0.00     0.251 C 
ATOM     25  H   UNL A   1      31.779  31.934  26.126  1.00  0.00     0.163 HD
ATOM     26  O   UNL A   1      32.913  33.278  27.712  1.00  0.00    -0.269 OA
BRANCH  24  27
ATOM     27  C   UNL A   1      34.655  31.729  27.857  1.00  0.00     0.039 A 
ATOM     28  C   UNL A   1      34.755  30.428  28.374  1.00  0.00     0.014 A 
ATOM     29  C   UNL A   1      35.742  32.594  28.002  1.00  0.00     0.014 A 
ATOM     30  C   UNL A   1      35.923  29.996  29.018  1.00  0.00     0.010 A 
ATOM     31  C   UNL A   1      36.930  32.149  28.616  1.00  0.00     0.010 A 
ATOM     32  C   UNL A   1      37.029  30.851  29.151  1.00  0.00    -0.014 A 
BRANCH  32  33
ATOM     33  C   UNL A   1      38.244  30.383  29.889  1.00  0.00     0.031 A 
ATOM     34  C   UNL A   1      38.505  30.817  31.311  1.00  0.00     0.074 A 
ATOM     35  C   UNL A   1      39.109  29.533  29.299  1.00  0.00     0.049 A 
ATOM     36  N   UNL A   1      39.455  30.445  32.136  1.00  0.00    -0.248 NA
ATOM     37  C   UNL A   1      37.583  31.812  31.877  1.00  0.00     0.031 C 
ATOM     38  C   UNL A   1      39.011  29.058  27.920  1.00  0.00     0.029 A 
ATOM     39  N   UNL A   1      40.235  28.908  29.785  1.00  0.00    -0.354 N 
ATOM     40  C   UNL A   1      39.243  31.154  33.313  1.00  0.00     0.074 A 
ATOM     41  C   UNL A   1      38.111  32.024  33.074  1.00  0.00     0.031 C 
ATOM     42  C   UNL A   1      40.013  28.198  27.677  1.00  0.00     0.029 A 
ATOM     43  C   UNL A   1      40.839  28.071  28.876  1.00  0.00     0.049 A 
ATOM     44  H   UNL A   1      40.577  29.047  30.697  1.00  0.00     0.167 HD
ATOM     45  C   UNL A   1      39.908  31.072  34.493  1.00  0.00     0.037 A 
ATOM     46  C   UNL A   1      41.928  27.284  28.994  1.00  0.00     0.037 A 
ATOM     47  C   UNL A   1      41.030  30.202  34.740  1.00  0.00     0.049 A 
ATOM     48  C   UNL A   1      42.650  27.207  30.314  1.00  0.00     0.074 A 
ATOM     49  C   UNL A   1      41.742  30.019  35.915  1.00  0.00     0.029 A 
ATOM     50  N   UNL A   1      41.611  29.371  33.792  1.00  0.00    -0.354 N 
ATOM     51  N   UNL A   1      42.390  27.827  31.438  1.00  0.00    -0.248 NA
ATOM     52  C   UNL A   1      43.811  26.306  30.384  1.00  0.00     0.031 C 
ATOM     53  C   UNL A   1      42.781  29.116  35.664  1.00  0.00     0.029 A 
ATOM     54  C   UNL A   1      42.684  28.692  34.349  1.00  0.00     0.049 A 
ATOM     55  H   UNL A   1      41.305  29.278  32.861  1.00  0.00     0.167 HD
ATOM     56  C   UNL A   1      43.336  27.379  32.352  1.00  0.00     0.074 A 
ATOM     57  C   UNL A   1      44.161  26.413  31.657  1.00  0.00     0.031 C 
ATOM     58  C   UNL A   1      43.505  27.737  33.648  1.00  0.00     0.037 A 
BRANCH  45  59
ATOM     59  C   UNL A   1      39.431  31.949  35.620  1.00  0.00     0.064 A 
ATOM     60  C   UNL A   1      38.467  31.507  36.539  1.00  0.00     0.173 A 
ATOM     61  C   UNL A   1      39.966  33.233  35.804  1.00  0.00     0.173 A 
ATOM     62  F   UNL A   1      37.919  30.289  36.409  1.00  0.00    -0.203 F 
ATOM     63  C   UNL A   1      38.029  32.328  37.574  1.00  0.00     0.198 A 
ATOM     64  C   UNL A   1      39.550  34.041  36.860  1.00  0.00     0.198 A 
ATOM     65  F   UNL A   1      40.901  33.705  34.965  1.00  0.00    -0.203 F 
ATOM     66  F   UNL A   1      37.066  31.904  38.404  1.00  0.00    -0.200 F 
ATOM     67  C   UNL A   1      38.574  33.593  37.737  1.00  0.00     0.200 A 
ATOM     68  F   UNL A   1      40.089  35.257  37.027  1.00  0.00    -0.200 F 
ATOM     69  F   UNL A   1      38.153  34.382  38.735  1.00  0.00    -0.200 F 
ENDBRANCH  45  59
BRANCH  46  70
ATOM     70  C   UNL A   1      42.386  26.475  27.831  1.00  0.00     0.064 A 
ATOM     71  C   UNL A   1      43.369  26.955  26.953  1.00  0.00     0.173 A 
ATOM     72  C   UNL A   1      41.846  25.207  27.571  1.00  0.00     0.173 A 
ATOM     73  F   UNL A   1      43.898  28.173  27.141  1.00  0.00    -0.203 F 
ATOM     74  C   UNL A   1      43.779  26.206  25.851  1.00  0.00     0.198 A 
ATOM     75  C   UNL A   1      42.280  24.446  26.486  1.00  0.00     0.198 A 
ATOM     76  F   UNL A   1      40.903  24.700  28.379  1.00  0.00    -0.203 F 
ATOM     77  F   UNL A   1      44.685  26.710  25.000  1.00  0.00    -0.200 F 
ATOM     78  C   UNL A   1      43.239  24.950  25.623  1.00  0.00     0.200 A 
ATOM     79  F   UNL A   1      41.764  23.227  26.278  1.00  0.00    -0.200 F 
ATOM     80  F   UNL A   1      43.639  24.227  24.567  1.00  0.00    -0.200 F 
ENDBRANCH  46  70
BRANCH  58  81
ATOM     81  C   UNL A   1      44.617  27.069  34.408  1.00  0.00     0.064 A 
ATOM     82  C   UNL A   1      45.901  27.629  34.482  1.00  0.00     0.173 A 
ATOM     83  C   UNL A   1      44.389  25.864  35.093  1.00  0.00     0.173 A 
ATOM     84  F   UNL A   1      46.177  28.771  33.835  1.00  0.00    -0.203 F 
ATOM     85  C   UNL A   1      46.923  26.993  35.182  1.00  0.00     0.198 A 
ATOM     86  C   UNL A   1      45.404  25.247  35.819  1.00  0.00     0.198 A 
ATOM     87  F   UNL A   1      43.178  25.288  35.064  1.00  0.00    -0.203 F 
ATOM     88  F   UNL A   1      48.155  27.519  35.191  1.00  0.00    -0.200 F 
ATOM     89  C   UNL A   1      46.673  25.806  35.855  1.00  0.00     0.200 A 
ATOM     90  F   UNL A   1      45.156  24.109  36.482  1.00  0.00    -0.200 F 
ATOM     91  F   UNL A   1      47.656  25.197  36.532  1.00  0.00    -0.200 F 
ENDBRANCH  58  81
ENDBRANCH  32  33
ENDBRANCH  24  27
ENDBRANCH  22  23
ENDBRANCH   1  22
TORSDOF 12
ENDMDL
