MODEL 1
REMARK VINA RESULT:     -14.0      0.000      0.000
REMARK SMILES CCC[NH2+][C@@]1(C(=O)NCCCNC(=O)c2ccc(-c3c4nc(c(-c5c(F)c(F)c(F)c(F)c5F)c5ccc([nH]5)c(-c5c(F)c(F)c(F)c(F)c5F)c5nc(c(-c6c(F)c(F)c(F)c(F)c6F)c6ccc3[nH]6)C=C5)C=C4)cc2)CC[C@H]([N@@H+]2CCC[C@@H]2C)C1
REMARK SMILES IDX 9 1 8 2 6 3 7 4 5 6 78 7 87 8 79 9 80 10 4 11 3 14 2 15 1 16
REMARK SMILES IDX 81 17 82 18 85 19 83 21 84 22 86 23 10 24 11 25 12 26 13 27
REMARK SMILES IDX 14 29 15 30 16 31 77 32 17 33 76 34 18 35 19 36 20 37 70 38
REMARK SMILES IDX 21 39 75 40 69 41 71 42 22 43 74 44 68 45 67 46 23 48 55 49
REMARK SMILES IDX 35 50 54 51 36 52 39 53 53 54 72 55 37 56 38 57 52 59 73 60
REMARK SMILES IDX 40 61 24 62 25 63 33 64 26 65 27 66 31 67 34 68 28 69 29 70
REMARK SMILES IDX 32 71 30 72 56 73 57 74 65 75 58 76 59 77 63 78 66 79 60 80
REMARK SMILES IDX 61 81 64 82 62 83 41 84 42 85 50 86 43 87 44 88 48 89 51 90
REMARK SMILES IDX 45 91 46 92 49 93 47 94
REMARK H PARENT 8 5 4 12 4 13 81 20 12 28 71 47 39 58
REMARK Flexibility Score: inf
ROOT
ATOM      1  C   UNL A   1      36.877  21.352  24.610  1.00  0.00     0.118 C 
ENDROOT
BRANCH   1   2
ATOM      2  N   UNL A   1      35.914  21.820  26.208  1.00  0.00    -0.351 N 
ATOM      3  C   UNL A   1      34.371  21.867  26.540  1.00  0.00     0.281 C 
ATOM      4  O   UNL A   1      34.088  22.465  27.593  1.00  0.00    -0.268 OA
ATOM      5  H   UNL A   1      36.493  22.080  26.962  1.00  0.00     0.163 HD
BRANCH   3   6
ATOM      6  C   UNL A   1      32.930  21.144  25.505  1.00  0.00     0.181 C 
ATOM      7  C   UNL A   1      32.973  20.953  23.904  1.00  0.00     0.085 C 
ATOM      8  C   UNL A   1      31.420  21.760  25.440  1.00  0.00     0.144 C 
ATOM      9  C   UNL A   1      32.094  22.081  23.220  1.00  0.00     0.072 C 
ATOM     10  C   UNL A   1      31.437  22.948  24.334  1.00  0.00     0.191 C 
BRANCH   6  11
ATOM     11  N   UNL A   1      33.009  19.716  25.929  1.00  0.00    -0.333 N 
ATOM     12  H   UNL A   1      33.966  19.543  26.235  1.00  0.00     0.347 HD
ATOM     13  H   UNL A   1      32.290  19.624  26.646  1.00  0.00     0.347 HD
BRANCH  11  14
ATOM     14  C   UNL A   1      32.678  18.697  24.952  1.00  0.00     0.261 C 
BRANCH  14  15
ATOM     15  C   UNL A   1      33.885  17.764  24.780  1.00  0.00     0.058 C 
ATOM     16  C   UNL A   1      33.886  16.995  23.465  1.00  0.00     0.010 C 
ENDBRANCH  14  15
ENDBRANCH  11  14
ENDBRANCH   6  11
BRANCH  10  17
ATOM     17  N   UNL A   1      32.060  24.158  24.935  1.00  0.00    -0.330 N 
ATOM     18  C   UNL A   1      32.039  25.086  26.429  1.00  0.00     0.262 C 
ATOM     19  C   UNL A   1      32.341  25.135  23.781  1.00  0.00     0.181 C 
ATOM     20  H   UNL A   1      32.543  23.479  25.523  1.00  0.00     0.348 HD
ATOM     21  C   UNL A   1      33.169  26.747  26.251  1.00  0.00     0.067 C 
ATOM     22  C   UNL A   1      33.626  26.778  24.164  1.00  0.00     0.070 C 
ATOM     23  C   UNL A   1      30.397  25.441  23.954  1.00  0.00     0.075 C 
ENDBRANCH  10  17
ENDBRANCH   3   6
ENDBRANCH   1   2
BRANCH   1  24
ATOM     24  C   UNL A   1      38.459  19.815  24.986  1.00  0.00     0.042 C 
BRANCH  24  25
ATOM     25  C   UNL A   1      39.759  20.065  26.275  1.00  0.00     0.118 C 
BRANCH  25  26
ATOM     26  N   UNL A   1      41.021  19.243  26.147  1.00  0.00    -0.352 N 
ATOM     27  C   UNL A   1      42.243  19.712  25.738  1.00  0.00     0.251 C 
ATOM     28  H   UNL A   1      40.960  18.288  26.379  1.00  0.00     0.163 HD
ATOM     29  O   UNL A   1      43.008  19.076  25.030  1.00  0.00    -0.269 OA
BRANCH  27  30
ATOM     30  C   UNL A   1      42.589  21.004  26.306  1.00  0.00     0.039 A 
ATOM     31  C   UNL A   1      42.705  21.217  27.675  1.00  0.00     0.014 A 
ATOM     32  C   UNL A   1      42.872  21.990  25.355  1.00  0.00     0.014 A 
ATOM     33  C   UNL A   1      43.105  22.475  28.091  1.00  0.00     0.010 A 
ATOM     34  C   UNL A   1      43.422  23.167  25.761  1.00  0.00     0.010 A 
ATOM     35  C   UNL A   1      43.452  23.441  27.129  1.00  0.00    -0.014 A 
BRANCH  35  36
ATOM     36  C   UNL A   1      43.722  24.833  27.481  1.00  0.00     0.031 A 
ATOM     37  C   UNL A   1      45.158  25.269  27.546  1.00  0.00     0.074 A 
ATOM     38  C   UNL A   1      42.693  25.609  27.845  1.00  0.00     0.049 A 
ATOM     39  N   UNL A   1      45.659  26.393  27.974  1.00  0.00    -0.248 NA
ATOM     40  C   UNL A   1      46.178  24.276  27.144  1.00  0.00     0.031 C 
ATOM     41  C   UNL A   1      41.289  25.195  27.882  1.00  0.00     0.029 A 
ATOM     42  N   UNL A   1      42.678  26.905  28.262  1.00  0.00    -0.354 N 
ATOM     43  C   UNL A   1      47.035  26.226  27.918  1.00  0.00     0.074 A 
ATOM     44  C   UNL A   1      47.298  24.864  27.527  1.00  0.00     0.031 C 
ATOM     45  C   UNL A   1      40.537  26.244  28.252  1.00  0.00     0.029 A 
ATOM     46  C   UNL A   1      41.417  27.375  28.518  1.00  0.00     0.049 A 
ATOM     47  H   UNL A   1      43.491  27.451  28.368  1.00  0.00     0.167 HD
ATOM     48  C   UNL A   1      47.992  27.157  28.126  1.00  0.00     0.037 A 
ATOM     49  C   UNL A   1      41.041  28.600  28.917  1.00  0.00     0.037 A 
ATOM     50  C   UNL A   1      47.676  28.515  28.463  1.00  0.00     0.049 A 
ATOM     51  C   UNL A   1      42.122  29.630  29.106  1.00  0.00     0.074 A 
ATOM     52  C   UNL A   1      48.527  29.586  28.640  1.00  0.00     0.029 A 
ATOM     53  N   UNL A   1      46.382  28.983  28.664  1.00  0.00    -0.354 N 
ATOM     54  N   UNL A   1      43.423  29.499  28.979  1.00  0.00    -0.248 NA
ATOM     55  C   UNL A   1      41.684  30.978  29.473  1.00  0.00     0.031 C 
ATOM     56  C   UNL A   1      47.752  30.690  29.006  1.00  0.00     0.029 A 
ATOM     57  C   UNL A   1      46.412  30.328  28.982  1.00  0.00     0.049 A 
ATOM     58  H   UNL A   1      45.566  28.438  28.591  1.00  0.00     0.167 HD
ATOM     59  C   UNL A   1      43.959  30.756  29.216  1.00  0.00     0.074 A 
ATOM     60  C   UNL A   1      42.835  31.634  29.477  1.00  0.00     0.031 C 
ATOM     61  C   UNL A   1      45.257  31.156  29.219  1.00  0.00     0.037 A 
BRANCH  48  62
ATOM     62  C   UNL A   1      49.425  26.733  27.976  1.00  0.00     0.064 A 
ATOM     63  C   UNL A   1      50.241  26.462  29.088  1.00  0.00     0.173 A 
ATOM     64  C   UNL A   1      49.996  26.597  26.702  1.00  0.00     0.173 A 
ATOM     65  F   UNL A   1      49.756  26.596  30.332  1.00  0.00    -0.203 F 
ATOM     66  C   UNL A   1      51.580  26.113  28.932  1.00  0.00     0.198 A 
ATOM     67  C   UNL A   1      51.325  26.208  26.548  1.00  0.00     0.198 A 
ATOM     68  F   UNL A   1      49.268  26.849  25.604  1.00  0.00    -0.203 F 
ATOM     69  F   UNL A   1      52.354  25.931  30.010  1.00  0.00    -0.200 F 
ATOM     70  C   UNL A   1      52.118  25.977  27.662  1.00  0.00     0.200 A 
ATOM     71  F   UNL A   1      51.840  26.066  25.320  1.00  0.00    -0.200 F 
ATOM     72  F   UNL A   1      53.405  25.633  27.510  1.00  0.00    -0.200 F 
ENDBRANCH  48  62
BRANCH  49  73
ATOM     73  C   UNL A   1      39.602  28.914  29.094  1.00  0.00     0.064 A 
ATOM     74  C   UNL A   1      38.815  29.314  28.006  1.00  0.00     0.173 A 
ATOM     75  C   UNL A   1      38.975  28.795  30.343  1.00  0.00     0.173 A 
ATOM     76  F   UNL A   1      39.368  29.438  26.790  1.00  0.00    -0.203 F 
ATOM     77  C   UNL A   1      37.465  29.619  28.166  1.00  0.00     0.198 A 
ATOM     78  C   UNL A   1      37.617  29.067  30.495  1.00  0.00     0.198 A 
ATOM     79  F   UNL A   1      39.676  28.389  31.412  1.00  0.00    -0.203 F 
ATOM     80  F   UNL A   1      36.749  30.048  27.117  1.00  0.00    -0.200 F 
ATOM     81  C   UNL A   1      36.866  29.492  29.410  1.00  0.00     0.200 A 
ATOM     82  F   UNL A   1      37.037  28.915  31.694  1.00  0.00    -0.200 F 
ATOM     83  F   UNL A   1      35.567  29.781  29.563  1.00  0.00    -0.200 F 
ENDBRANCH  49  73
BRANCH  61  84
ATOM     84  C   UNL A   1      45.509  32.614  29.458  1.00  0.00     0.064 A 
ATOM     85  C   UNL A   1      45.758  33.122  30.741  1.00  0.00     0.173 A 
ATOM     86  C   UNL A   1      45.545  33.505  28.374  1.00  0.00     0.173 A 
ATOM     87  F   UNL A   1      45.725  32.309  31.808  1.00  0.00    -0.203 F 
ATOM     88  C   UNL A   1      45.995  34.479  30.934  1.00  0.00     0.198 A 
ATOM     89  C   UNL A   1      45.826  34.853  28.567  1.00  0.00     0.198 A 
ATOM     90  F   UNL A   1      45.328  33.064  27.126  1.00  0.00    -0.203 F 
ATOM     91  F   UNL A   1      46.165  34.954  32.175  1.00  0.00    -0.200 F 
ATOM     92  C   UNL A   1      46.037  35.340  29.848  1.00  0.00     0.200 A 
ATOM     93  F   UNL A   1      45.890  35.678  27.514  1.00  0.00    -0.200 F 
ATOM     94  F   UNL A   1      46.275  36.645  30.036  1.00  0.00    -0.200 F 
ENDBRANCH  61  84
ENDBRANCH  35  36
ENDBRANCH  27  30
ENDBRANCH  25  26
ENDBRANCH  24  25
ENDBRANCH   1  24
TORSDOF 14
ENDMDL
MODEL 2
REMARK VINA RESULT:     -13.9      1.054      7.498
REMARK SMILES CCC[NH2+][C@@]1(C(=O)NCCCNC(=O)c2ccc(-c3c4nc(c(-c5c(F)c(F)c(F)c(F)c5F)c5ccc([nH]5)c(-c5c(F)c(F)c(F)c(F)c5F)c5nc(c(-c6c(F)c(F)c(F)c(F)c6F)c6ccc3[nH]6)C=C5)C=C4)cc2)CC[C@H]([N@@H+]2CCC[C@@H]2C)C1
REMARK SMILES IDX 9 1 8 2 6 3 7 4 5 6 78 7 87 8 79 9 80 10 4 11 3 14 2 15 1 16
REMARK SMILES IDX 81 17 82 18 85 19 83 21 84 22 86 23 10 24 11 25 12 26 13 27
REMARK SMILES IDX 14 29 15 30 16 31 77 32 17 33 76 34 18 35 19 36 20 37 70 38
REMARK SMILES IDX 21 39 75 40 69 41 71 42 22 43 74 44 68 45 67 46 23 48 55 49
REMARK SMILES IDX 35 50 54 51 36 52 39 53 53 54 72 55 37 56 38 57 52 59 73 60
REMARK SMILES IDX 40 61 24 62 25 63 33 64 26 65 27 66 31 67 34 68 28 69 29 70
REMARK SMILES IDX 32 71 30 72 56 73 57 74 65 75 58 76 59 77 63 78 66 79 60 80
REMARK SMILES IDX 61 81 64 82 62 83 41 84 42 85 50 86 43 87 44 88 48 89 51 90
REMARK SMILES IDX 45 91 46 92 49 93 47 94
REMARK H PARENT 8 5 4 12 4 13 81 20 12 28 71 47 39 58
REMARK Flexibility Score: inf
ROOT
ATOM      1  C   UNL A   1      36.486  21.468  24.589  1.00  0.00     0.118 C 
ENDROOT
BRANCH   1   2
ATOM      2  N   UNL A   1      35.508  21.943  26.176  1.00  0.00    -0.351 N 
ATOM      3  C   UNL A   1      33.963  22.088  26.465  1.00  0.00     0.281 C 
ATOM      4  O   UNL A   1      33.691  22.664  27.533  1.00  0.00    -0.268 OA
ATOM      5  H   UNL A   1      36.080  22.131  26.956  1.00  0.00     0.163 HD
BRANCH   3   6
ATOM      6  C   UNL A   1      32.508  21.512  25.361  1.00  0.00     0.181 C 
ATOM      7  C   UNL A   1      32.572  21.428  23.751  1.00  0.00     0.085 C 
ATOM      8  C   UNL A   1      31.033  22.209  25.313  1.00  0.00     0.144 C 
ATOM      9  C   UNL A   1      31.765  22.644  23.131  1.00  0.00     0.072 C 
ATOM     10  C   UNL A   1      31.131  23.467  24.292  1.00  0.00     0.191 C 
BRANCH   6  11
ATOM     11  N   UNL A   1      32.506  20.057  25.687  1.00  0.00    -0.333 N 
ATOM     12  H   UNL A   1      33.328  19.875  26.261  1.00  0.00     0.347 HD
ATOM     13  H   UNL A   1      31.605  19.899  26.138  1.00  0.00     0.347 HD
BRANCH  11  14
ATOM     14  C   UNL A   1      32.530  19.113  24.587  1.00  0.00     0.261 C 
BRANCH  14  15
ATOM     15  C   UNL A   1      33.850  18.331  24.632  1.00  0.00     0.058 C 
ATOM     16  C   UNL A   1      34.009  17.323  23.501  1.00  0.00     0.010 C 
ENDBRANCH  14  15
ENDBRANCH  11  14
ENDBRANCH   6  11
BRANCH  10  17
ATOM     17  N   UNL A   1      31.803  24.599  24.983  1.00  0.00    -0.330 N 
ATOM     18  C   UNL A   1      31.733  25.486  26.501  1.00  0.00     0.262 C 
ATOM     19  C   UNL A   1      32.268  25.577  23.891  1.00  0.00     0.181 C 
ATOM     20  H   UNL A   1      32.171  23.864  25.587  1.00  0.00     0.348 HD
ATOM     21  C   UNL A   1      33.015  27.042  26.475  1.00  0.00     0.067 C 
ATOM     22  C   UNL A   1      33.652  27.087  24.436  1.00  0.00     0.070 C 
ATOM     23  C   UNL A   1      30.349  26.052  23.910  1.00  0.00     0.075 C 
ENDBRANCH  10  17
ENDBRANCH   3   6
ENDBRANCH   1   2
BRANCH   1  24
ATOM     24  C   UNL A   1      38.124  20.001  25.001  1.00  0.00     0.042 C 
BRANCH  24  25
ATOM     25  C   UNL A   1      39.530  20.417  26.126  1.00  0.00     0.118 C 
BRANCH  25  26
ATOM     26  N   UNL A   1      40.625  19.385  26.267  1.00  0.00    -0.352 N 
ATOM     27  C   UNL A   1      41.949  19.578  25.964  1.00  0.00     0.251 C 
ATOM     28  H   UNL A   1      40.366  18.499  26.608  1.00  0.00     0.163 HD
ATOM     29  O   UNL A   1      42.654  18.726  25.447  1.00  0.00    -0.269 OA
BRANCH  27  30
ATOM     30  C   UNL A   1      42.464  20.863  26.405  1.00  0.00     0.039 A 
ATOM     31  C   UNL A   1      42.653  21.178  27.746  1.00  0.00     0.014 A 
ATOM     32  C   UNL A   1      42.828  21.721  25.362  1.00  0.00     0.014 A 
ATOM     33  C   UNL A   1      43.213  22.410  28.037  1.00  0.00     0.010 A 
ATOM     34  C   UNL A   1      43.527  22.854  25.646  1.00  0.00     0.010 A 
ATOM     35  C   UNL A   1      43.638  23.241  26.983  1.00  0.00    -0.014 A 
BRANCH  35  36
ATOM     36  C   UNL A   1      44.082  24.614  27.202  1.00  0.00     0.031 A 
ATOM     37  C   UNL A   1      43.065  25.606  27.688  1.00  0.00     0.074 A 
ATOM     38  C   UNL A   1      45.330  24.945  26.845  1.00  0.00     0.049 A 
ATOM     39  N   UNL A   1      43.170  26.899  27.815  1.00  0.00    -0.248 NA
ATOM     40  C   UNL A   1      41.718  25.084  28.004  1.00  0.00     0.031 C 
ATOM     41  C   UNL A   1      46.325  24.027  26.284  1.00  0.00     0.029 A 
ATOM     42  N   UNL A   1      45.967  26.148  26.896  1.00  0.00    -0.354 N 
ATOM     43  C   UNL A   1      41.908  27.334  28.192  1.00  0.00     0.074 A 
ATOM     44  C   UNL A   1      41.024  26.197  28.165  1.00  0.00     0.031 C 
ATOM     45  C   UNL A   1      47.472  24.696  26.090  1.00  0.00     0.029 A 
ATOM     46  C   UNL A   1      47.268  26.088  26.470  1.00  0.00     0.049 A 
ATOM     47  H   UNL A   1      45.536  26.976  27.207  1.00  0.00     0.167 HD
ATOM     48  C   UNL A   1      41.541  28.576  28.580  1.00  0.00     0.037 A 
ATOM     49  C   UNL A   1      48.179  27.072  26.412  1.00  0.00     0.037 A 
ATOM     50  C   UNL A   1      42.473  29.664  28.639  1.00  0.00     0.049 A 
ATOM     51  C   UNL A   1      47.757  28.437  26.885  1.00  0.00     0.074 A 
ATOM     52  C   UNL A   1      42.270  30.958  29.071  1.00  0.00     0.029 A 
ATOM     53  N   UNL A   1      43.806  29.566  28.253  1.00  0.00    -0.354 N 
ATOM     54  N   UNL A   1      46.583  28.839  27.317  1.00  0.00    -0.248 NA
ATOM     55  C   UNL A   1      48.787  29.478  26.880  1.00  0.00     0.031 C 
ATOM     56  C   UNL A   1      43.466  31.660  28.893  1.00  0.00     0.029 A 
ATOM     57  C   UNL A   1      44.435  30.785  28.421  1.00  0.00     0.049 A 
ATOM     58  H   UNL A   1      44.237  28.750  27.911  1.00  0.00     0.167 HD
ATOM     59  C   UNL A   1      46.740  30.170  27.670  1.00  0.00     0.074 A 
ATOM     60  C   UNL A   1      48.130  30.497  27.414  1.00  0.00     0.031 C 
ATOM     61  C   UNL A   1      45.828  31.048  28.161  1.00  0.00     0.037 A 
BRANCH  48  62
ATOM     62  C   UNL A   1      40.108  28.791  28.972  1.00  0.00     0.064 A 
ATOM     63  C   UNL A   1      39.665  28.625  30.296  1.00  0.00     0.173 A 
ATOM     64  C   UNL A   1      39.157  29.165  28.011  1.00  0.00     0.173 A 
ATOM     65  F   UNL A   1      40.525  28.247  31.255  1.00  0.00    -0.203 F 
ATOM     66  C   UNL A   1      38.323  28.787  30.633  1.00  0.00     0.198 A 
ATOM     67  C   UNL A   1      37.823  29.365  28.360  1.00  0.00     0.198 A 
ATOM     68  F   UNL A   1      39.519  29.332  26.730  1.00  0.00    -0.203 F 
ATOM     69  F   UNL A   1      37.916  28.552  31.888  1.00  0.00    -0.200 F 
ATOM     70  C   UNL A   1      37.406  29.165  29.667  1.00  0.00     0.200 A 
ATOM     71  F   UNL A   1      36.939  29.743  27.426  1.00  0.00    -0.200 F 
ATOM     72  F   UNL A   1      36.115  29.328  29.992  1.00  0.00    -0.200 F 
ENDBRANCH  48  62
BRANCH  49  73
ATOM     73  C   UNL A   1      49.560  26.778  25.957  1.00  0.00     0.064 A 
ATOM     74  C   UNL A   1      49.937  26.993  24.624  1.00  0.00     0.173 A 
ATOM     75  C   UNL A   1      50.539  26.306  26.843  1.00  0.00     0.173 A 
ATOM     76  F   UNL A   1      49.039  27.448  23.739  1.00  0.00    -0.203 F 
ATOM     77  C   UNL A   1      51.230  26.711  24.187  1.00  0.00     0.198 A 
ATOM     78  C   UNL A   1      51.840  26.057  26.413  1.00  0.00     0.198 A 
ATOM     79  F   UNL A   1      50.238  26.110  28.135  1.00  0.00    -0.203 F 
ATOM     80  F   UNL A   1      51.548  26.878  22.896  1.00  0.00    -0.200 F 
ATOM     81  C   UNL A   1      52.181  26.247  25.082  1.00  0.00     0.200 A 
ATOM     82  F   UNL A   1      52.763  25.635  27.288  1.00  0.00    -0.200 F 
ATOM     83  F   UNL A   1      53.426  25.980  24.663  1.00  0.00    -0.200 F 
ENDBRANCH  49  73
BRANCH  61  84
ATOM     84  C   UNL A   1      46.330  32.419  28.499  1.00  0.00     0.064 A 
ATOM     85  C   UNL A   1      46.305  33.467  27.570  1.00  0.00     0.173 A 
ATOM     86  C   UNL A   1      46.803  32.692  29.793  1.00  0.00     0.173 A 
ATOM     87  F   UNL A   1      45.871  33.251  26.319  1.00  0.00    -0.203 F 
ATOM     88  C   UNL A   1      46.772  34.732  27.912  1.00  0.00     0.198 A 
ATOM     89  C   UNL A   1      47.228  33.968  30.143  1.00  0.00     0.198 A 
ATOM     90  F   UNL A   1      46.833  31.724  30.722  1.00  0.00    -0.203 F 
ATOM     91  F   UNL A   1      46.801  35.703  26.989  1.00  0.00    -0.200 F 
ATOM     92  C   UNL A   1      47.224  34.983  29.199  1.00  0.00     0.200 A 
ATOM     93  F   UNL A   1      47.642  34.213  31.393  1.00  0.00    -0.200 F 
ATOM     94  F   UNL A   1      47.665  36.204  29.528  1.00  0.00    -0.200 F 
ENDBRANCH  61  84
ENDBRANCH  35  36
ENDBRANCH  27  30
ENDBRANCH  25  26
ENDBRANCH  24  25
ENDBRANCH   1  24
TORSDOF 14
ENDMDL
MODEL 3
REMARK VINA RESULT:     -13.8      5.671     10.965
REMARK SMILES CCC[NH2+][C@@]1(C(=O)NCCCNC(=O)c2ccc(-c3c4nc(c(-c5c(F)c(F)c(F)c(F)c5F)c5ccc([nH]5)c(-c5c(F)c(F)c(F)c(F)c5F)c5nc(c(-c6c(F)c(F)c(F)c(F)c6F)c6ccc3[nH]6)C=C5)C=C4)cc2)CC[C@H]([N@@H+]2CCC[C@@H]2C)C1
REMARK SMILES IDX 9 1 8 2 6 3 7 4 5 6 78 7 87 8 79 9 80 10 4 11 3 14 2 15 1 16
REMARK SMILES IDX 81 17 82 18 85 19 83 21 84 22 86 23 10 24 11 25 12 26 13 27
REMARK SMILES IDX 14 29 15 30 16 31 77 32 17 33 76 34 18 35 19 36 20 37 70 38
REMARK SMILES IDX 21 39 75 40 69 41 71 42 22 43 74 44 68 45 67 46 23 48 55 49
REMARK SMILES IDX 35 50 54 51 36 52 39 53 53 54 72 55 37 56 38 57 52 59 73 60
REMARK SMILES IDX 40 61 24 62 25 63 33 64 26 65 27 66 31 67 34 68 28 69 29 70
REMARK SMILES IDX 32 71 30 72 56 73 57 74 65 75 58 76 59 77 63 78 66 79 60 80
REMARK SMILES IDX 61 81 64 82 62 83 41 84 42 85 50 86 43 87 44 88 48 89 51 90
REMARK SMILES IDX 45 91 46 92 49 93 47 94
REMARK H PARENT 8 5 4 12 4 13 81 20 12 28 71 47 39 58
REMARK Flexibility Score: inf
ROOT
ATOM      1  C   UNL A   1      31.966  29.824  26.499  1.00  0.00     0.118 C 
ENDROOT
BRANCH   1   2
ATOM      2  N   UNL A   1      33.085  29.654  24.943  1.00  0.00    -0.351 N 
ATOM      3  C   UNL A   1      32.857  28.955  23.547  1.00  0.00     0.281 C 
ATOM      4  O   UNL A   1      33.889  28.812  22.868  1.00  0.00    -0.268 OA
ATOM      5  H   UNL A   1      33.967  30.084  25.036  1.00  0.00     0.163 HD
BRANCH   3   6
ATOM      6  C   UNL A   1      31.210  28.298  22.823  1.00  0.00     0.181 C 
ATOM      7  C   UNL A   1      29.891  27.996  23.702  1.00  0.00     0.085 C 
ATOM      8  C   UNL A   1      31.039  26.899  21.998  1.00  0.00     0.144 C 
ATOM      9  C   UNL A   1      29.733  26.430  23.886  1.00  0.00     0.072 C 
ATOM     10  C   UNL A   1      30.870  25.715  23.096  1.00  0.00     0.191 C 
BRANCH   6  11
ATOM     11  N   UNL A   1      30.751  29.516  22.096  1.00  0.00    -0.333 N 
ATOM     12  H   UNL A   1      31.481  30.221  22.196  1.00  0.00     0.347 HD
ATOM     13  H   UNL A   1      30.574  29.193  21.145  1.00  0.00     0.347 HD
BRANCH  11  14
ATOM     14  C   UNL A   1      29.503  30.127  22.509  1.00  0.00     0.261 C 
BRANCH  14  15
ATOM     15  C   UNL A   1      28.707  30.526  21.259  1.00  0.00     0.058 C 
ATOM     16  C   UNL A   1      28.408  32.017  21.168  1.00  0.00     0.010 C 
ENDBRANCH  14  15
ENDBRANCH  11  14
ENDBRANCH   6  11
BRANCH  10  17
ATOM     17  N   UNL A   1      32.206  25.387  23.661  1.00  0.00    -0.330 N 
ATOM     18  C   UNL A   1      33.873  25.168  23.143  1.00  0.00     0.262 C 
ATOM     19  C   UNL A   1      31.966  24.465  24.868  1.00  0.00     0.181 C 
ATOM     20  H   UNL A   1      32.411  26.363  23.448  1.00  0.00     0.348 HD
ATOM     21  C   UNL A   1      35.022  24.560  24.684  1.00  0.00     0.067 C 
ATOM     22  C   UNL A   1      33.581  24.140  26.204  1.00  0.00     0.070 C 
ATOM     23  C   UNL A   1      31.696  23.137  23.429  1.00  0.00     0.075 C 
ENDBRANCH  10  17
ENDBRANCH   3   6
ENDBRANCH   1   2
BRANCH   1  24
ATOM     24  C   UNL A   1      31.742  31.950  27.162  1.00  0.00     0.042 C 
BRANCH  24  25
ATOM     25  C   UNL A   1      33.194  33.090  27.250  1.00  0.00     0.118 C 
BRANCH  25  26
ATOM     26  N   UNL A   1      32.987  34.412  27.952  1.00  0.00    -0.352 N 
ATOM     27  C   UNL A   1      33.233  34.660  29.279  1.00  0.00     0.251 C 
ATOM     28  H   UNL A   1      32.648  35.160  27.409  1.00  0.00     0.163 HD
ATOM     29  O   UNL A   1      32.528  35.375  29.974  1.00  0.00    -0.269 OA
BRANCH  27  30
ATOM     30  C   UNL A   1      34.470  34.069  29.761  1.00  0.00     0.039 A 
ATOM     31  C   UNL A   1      35.723  34.521  29.364  1.00  0.00     0.014 A 
ATOM     32  C   UNL A   1      34.289  33.064  30.716  1.00  0.00     0.014 A 
ATOM     33  C   UNL A   1      36.828  33.921  29.944  1.00  0.00     0.010 A 
ATOM     34  C   UNL A   1      35.368  32.596  31.401  1.00  0.00     0.010 A 
ATOM     35  C   UNL A   1      36.639  32.957  30.952  1.00  0.00    -0.014 A 
BRANCH  35  36
ATOM     36  C   UNL A   1      37.741  32.165  31.491  1.00  0.00     0.031 A 
ATOM     37  C   UNL A   1      38.215  32.485  32.880  1.00  0.00     0.074 A 
ATOM     38  C   UNL A   1      38.348  31.285  30.684  1.00  0.00     0.049 A 
ATOM     39  N   UNL A   1      39.258  32.034  33.519  1.00  0.00    -0.248 NA
ATOM     40  C   UNL A   1      37.455  33.510  33.627  1.00  0.00     0.031 C 
ATOM     41  C   UNL A   1      37.974  31.008  29.295  1.00  0.00     0.029 A 
ATOM     42  N   UNL A   1      39.414  30.471  30.918  1.00  0.00    -0.354 N 
ATOM     43  C   UNL A   1      39.287  32.738  34.714  1.00  0.00     0.074 A 
ATOM     44  C   UNL A   1      38.236  33.723  34.672  1.00  0.00     0.031 C 
ATOM     45  C   UNL A   1      38.772  30.042  28.815  1.00  0.00     0.029 A 
ATOM     46  C   UNL A   1      39.733  29.677  29.849  1.00  0.00     0.049 A 
ATOM     47  H   UNL A   1      39.907  30.455  31.770  1.00  0.00     0.167 HD
ATOM     48  C   UNL A   1      40.097  32.533  35.776  1.00  0.00     0.037 A 
ATOM     49  C   UNL A   1      40.700  28.752  29.746  1.00  0.00     0.037 A 
ATOM     50  C   UNL A   1      41.096  31.504  35.788  1.00  0.00     0.049 A 
ATOM     51  C   UNL A   1      41.565  28.517  30.954  1.00  0.00     0.074 A 
ATOM     52  C   UNL A   1      41.946  31.132  36.808  1.00  0.00     0.029 A 
ATOM     53  N   UNL A   1      41.364  30.671  34.707  1.00  0.00    -0.354 N 
ATOM     54  N   UNL A   1      41.548  29.127  32.118  1.00  0.00    -0.248 NA
ATOM     55  C   UNL A   1      42.567  27.456  30.845  1.00  0.00     0.031 C 
ATOM     56  C   UNL A   1      42.769  30.110  36.325  1.00  0.00     0.029 A 
ATOM     57  C   UNL A   1      42.382  29.794  35.030  1.00  0.00     0.049 A 
ATOM     58  H   UNL A   1      40.899  30.701  33.841  1.00  0.00     0.167 HD
ATOM     59  C   UNL A   1      42.512  28.501  32.893  1.00  0.00     0.074 A 
ATOM     60  C   UNL A   1      43.080  27.453  32.067  1.00  0.00     0.031 C 
ATOM     61  C   UNL A   1      42.899  28.760  34.169  1.00  0.00     0.037 A 
BRANCH  48  62
ATOM     62  C   UNL A   1      39.913  33.417  36.977  1.00  0.00     0.064 A 
ATOM     63  C   UNL A   1      40.691  34.570  37.178  1.00  0.00     0.173 A 
ATOM     64  C   UNL A   1      38.947  33.107  37.945  1.00  0.00     0.173 A 
ATOM     65  F   UNL A   1      41.646  34.906  36.297  1.00  0.00    -0.203 F 
ATOM     66  C   UNL A   1      40.536  35.354  38.320  1.00  0.00     0.198 A 
ATOM     67  C   UNL A   1      38.767  33.916  39.066  1.00  0.00     0.198 A 
ATOM     68  F   UNL A   1      38.179  32.015  37.810  1.00  0.00    -0.203 F 
ATOM     69  F   UNL A   1      41.341  36.406  38.522  1.00  0.00    -0.200 F 
ATOM     70  C   UNL A   1      39.569  35.031  39.257  1.00  0.00     0.200 A 
ATOM     71  F   UNL A   1      37.823  33.609  39.965  1.00  0.00    -0.200 F 
ATOM     72  F   UNL A   1      39.414  35.788  40.352  1.00  0.00    -0.200 F 
ENDBRANCH  48  62
BRANCH  49  73
ATOM     73  C   UNL A   1      40.844  27.964  28.498  1.00  0.00     0.064 A 
ATOM     74  C   UNL A   1      41.678  28.406  27.462  1.00  0.00     0.173 A 
ATOM     75  C   UNL A   1      40.178  26.742  28.322  1.00  0.00     0.173 A 
ATOM     76  F   UNL A   1      42.341  29.565  27.584  1.00  0.00    -0.203 F 
ATOM     77  C   UNL A   1      41.812  27.675  26.283  1.00  0.00     0.198 A 
ATOM     78  C   UNL A   1      40.339  25.996  27.156  1.00  0.00     0.198 A 
ATOM     79  F   UNL A   1      39.389  26.261  29.293  1.00  0.00    -0.203 F 
ATOM     80  F   UNL A   1      42.577  28.147  25.289  1.00  0.00    -0.200 F 
ATOM     81  C   UNL A   1      41.145  26.469  26.133  1.00  0.00     0.200 A 
ATOM     82  F   UNL A   1      39.714  24.818  27.028  1.00  0.00    -0.200 F 
ATOM     83  F   UNL A   1      41.277  25.764  25.001  1.00  0.00    -0.200 F 
ENDBRANCH  49  73
BRANCH  61  84
ATOM     84  C   UNL A   1      43.943  27.856  34.751  1.00  0.00     0.064 A 
ATOM     85  C   UNL A   1      43.609  26.654  35.388  1.00  0.00     0.173 A 
ATOM     86  C   UNL A   1      45.302  28.185  34.625  1.00  0.00     0.173 A 
ATOM     87  F   UNL A   1      42.323  26.304  35.540  1.00  0.00    -0.203 F 
ATOM     88  C   UNL A   1      44.598  25.831  35.916  1.00  0.00     0.198 A 
ATOM     89  C   UNL A   1      46.289  27.338  35.115  1.00  0.00     0.198 A 
ATOM     90  F   UNL A   1      45.672  29.319  34.010  1.00  0.00    -0.203 F 
ATOM     91  F   UNL A   1      44.255  24.719  36.580  1.00  0.00    -0.200 F 
ATOM     92  C   UNL A   1      45.936  26.169  35.771  1.00  0.00     0.200 A 
ATOM     93  F   UNL A   1      47.581  27.655  34.953  1.00  0.00    -0.200 F 
ATOM     94  F   UNL A   1      46.887  25.369  36.272  1.00  0.00    -0.200 F 
ENDBRANCH  61  84
ENDBRANCH  35  36
ENDBRANCH  27  30
ENDBRANCH  25  26
ENDBRANCH  24  25
ENDBRANCH   1  24
TORSDOF 14
ENDMDL
