MODEL 1
REMARK VINA RESULT:     -10.9      0.000      0.000
REMARK SMILES COC(=O)[C@@H]1[C@@H](NC(=O)COCC(=O)NCCCNC(=O)c2ccc(-c3c4nc(c(-c5c(F)c(F)c(F)c(F)c5F)c5ccc([nH]5)c(-c5c(F)c(F)c(F)c(F)c5F)c5nc(c(-c6c(F)c(F)c(F)c(F)c6F)c6ccc3[nH]6)C=C5)C=C4)cc2)CCN1C(C)=O
REMARK SMILES IDX 13 1 14 2 15 3 12 5 11 6 10 7 8 8 7 9 9 11 6 12 5 13 87 14
REMARK SMILES IDX 85 15 86 16 3 17 4 18 2 19 1 20 88 21 89 22 90 23 16 24
REMARK SMILES IDX 17 25 18 26 19 27 20 28 21 30 22 31 23 32 84 33 24 34 83 35
REMARK SMILES IDX 25 36 26 37 27 38 77 39 28 40 82 41 76 42 78 43 29 44 81 45
REMARK SMILES IDX 75 46 74 47 30 49 62 50 42 51 61 52 43 53 46 54 60 55 79 56
REMARK SMILES IDX 44 57 45 58 59 60 80 61 47 62 31 63 32 64 40 65 33 66 34 67
REMARK SMILES IDX 38 68 41 69 35 70 36 71 39 72 37 73 63 74 64 75 72 76 65 77
REMARK SMILES IDX 66 78 70 79 73 80 67 81 68 82 71 83 69 84 48 85 49 86 57 87
REMARK SMILES IDX 50 88 51 89 55 90 58 91 52 92 53 93 56 94 54 95
REMARK H PARENT 15 4 7 10 19 29 78 48 46 59
REMARK Flexibility Score: inf
ROOT
ATOM      1  C   UNL A   1      32.638  29.142  24.650  1.00  0.00     0.246 C 
ATOM      2  O   UNL A   1      32.628  28.853  23.454  1.00  0.00    -0.272 OA
ATOM      3  N   UNL A   1      31.652  29.945  25.147  1.00  0.00    -0.354 N 
ATOM      4  H   UNL A   1      30.956  30.219  24.506  1.00  0.00     0.163 HD
ENDROOT
BRANCH   1   5
ATOM      5  C   UNL A   1      33.704  28.608  25.604  1.00  0.00     0.260 C 
BRANCH   5   6
ATOM      6  O   UNL A   1      33.208  27.683  26.566  1.00  0.00    -0.362 OA
BRANCH   6   7
ATOM      7  C   UNL A   1      32.972  26.392  26.018  1.00  0.00     0.260 C 
BRANCH   7   8
ATOM      8  C   UNL A   1      31.644  25.747  26.441  1.00  0.00     0.246 C 
ATOM      9  N   UNL A   1      31.606  24.417  26.753  1.00  0.00    -0.349 N 
ATOM     10  H   UNL A   1      30.773  24.095  27.165  1.00  0.00     0.163 HD
ATOM     11  O   UNL A   1      30.605  26.402  26.523  1.00  0.00    -0.272 OA
BRANCH   9  12
ATOM     12  C   UNL A   1      32.644  23.415  26.549  1.00  0.00     0.118 C 
ATOM     13  C   UNL A   1      32.215  22.253  25.625  1.00  0.00     0.217 C 
ATOM     14  N   UNL A   1      33.123  21.165  25.999  1.00  0.00    -0.327 N 
ATOM     15  C   UNL A   1      33.039  22.655  27.817  1.00  0.00     0.049 C 
ATOM     16  C   UNL A   1      33.770  21.436  27.269  1.00  0.00     0.122 C 
BRANCH  13  17
ATOM     17  C   UNL A   1      32.326  22.729  24.180  1.00  0.00     0.330 C 
ATOM     18  O   UNL A   1      31.626  22.342  23.249  1.00  0.00    -0.250 OA
BRANCH  17  19
ATOM     19  O   UNL A   1      33.391  23.576  24.072  1.00  0.00    -0.467 OA
ATOM     20  C   UNL A   1      34.484  23.081  23.301  1.00  0.00     0.282 C 
ENDBRANCH  17  19
ENDBRANCH  13  17
BRANCH  14  21
ATOM     21  C   UNL A   1      33.122  19.974  25.316  1.00  0.00     0.220 C 
ATOM     22  C   UNL A   1      34.421  19.539  24.683  1.00  0.00     0.114 C 
ATOM     23  O   UNL A   1      32.090  19.327  25.151  1.00  0.00    -0.275 OA
ENDBRANCH  14  21
ENDBRANCH   9  12
ENDBRANCH   7   8
ENDBRANCH   6   7
ENDBRANCH   5   6
ENDBRANCH   1   5
BRANCH   3  24
ATOM     24  C   UNL A   1      31.497  30.446  26.500  1.00  0.00     0.117 C 
BRANCH  24  25
ATOM     25  C   UNL A   1      31.405  31.967  26.551  1.00  0.00     0.042 C 
BRANCH  25  26
ATOM     26  C   UNL A   1      32.688  32.665  26.999  1.00  0.00     0.118 C 
BRANCH  26  27
ATOM     27  N   UNL A   1      32.457  34.007  27.513  1.00  0.00    -0.352 N 
ATOM     28  C   UNL A   1      33.068  34.691  28.533  1.00  0.00     0.251 C 
ATOM     29  H   UNL A   1      31.747  34.508  27.051  1.00  0.00     0.163 HD
ATOM     30  O   UNL A   1      32.609  35.774  28.888  1.00  0.00    -0.269 OA
BRANCH  28  31
ATOM     31  C   UNL A   1      34.253  34.138  29.226  1.00  0.00     0.039 A 
ATOM     32  C   UNL A   1      34.056  33.126  30.171  1.00  0.00     0.014 A 
ATOM     33  C   UNL A   1      35.538  34.630  28.992  1.00  0.00     0.014 A 
ATOM     34  C   UNL A   1      35.151  32.568  30.836  1.00  0.00     0.010 A 
ATOM     35  C   UNL A   1      36.637  34.028  29.604  1.00  0.00     0.010 A 
ATOM     36  C   UNL A   1      36.453  32.993  30.534  1.00  0.00    -0.014 A 
BRANCH  36  37
ATOM     37  C   UNL A   1      37.633  32.363  31.179  1.00  0.00     0.031 A 
ATOM     38  C   UNL A   1      38.395  31.276  30.474  1.00  0.00     0.074 A 
ATOM     39  C   UNL A   1      37.983  32.731  32.427  1.00  0.00     0.049 A 
ATOM     40  N   UNL A   1      39.404  30.561  30.902  1.00  0.00    -0.248 NA
ATOM     41  C   UNL A   1      37.947  30.928  29.118  1.00  0.00     0.031 C 
ATOM     42  C   UNL A   1      37.298  33.743  33.232  1.00  0.00     0.029 A 
ATOM     43  N   UNL A   1      38.995  32.287  33.241  1.00  0.00    -0.354 N 
ATOM     44  C   UNL A   1      39.700  29.670  29.878  1.00  0.00     0.074 A 
ATOM     45  C   UNL A   1      38.736  29.904  28.825  1.00  0.00     0.031 C 
ATOM     46  C   UNL A   1      37.919  33.855  34.417  1.00  0.00     0.029 A 
ATOM     47  C   UNL A   1      39.023  32.902  34.469  1.00  0.00     0.049 A 
ATOM     48  H   UNL A   1      39.638  31.593  32.970  1.00  0.00     0.167 HD
ATOM     49  C   UNL A   1      40.697  28.756  29.815  1.00  0.00     0.037 A 
ATOM     50  C   UNL A   1      39.843  32.711  35.519  1.00  0.00     0.037 A 
ATOM     51  C   UNL A   1      41.673  28.545  30.851  1.00  0.00     0.049 A 
ATOM     52  C   UNL A   1      40.944  31.694  35.420  1.00  0.00     0.074 A 
ATOM     53  C   UNL A   1      42.757  27.684  30.855  1.00  0.00     0.029 A 
ATOM     54  N   UNL A   1      41.683  29.203  32.072  1.00  0.00    -0.354 N 
ATOM     55  N   UNL A   1      41.252  30.902  34.422  1.00  0.00    -0.248 NA
ATOM     56  C   UNL A   1      41.819  31.549  36.592  1.00  0.00     0.031 C 
ATOM     57  C   UNL A   1      43.401  27.795  32.092  1.00  0.00     0.029 A 
ATOM     58  C   UNL A   1      42.744  28.756  32.842  1.00  0.00     0.049 A 
ATOM     59  H   UNL A   1      41.032  29.888  32.350  1.00  0.00     0.167 HD
ATOM     60  C   UNL A   1      42.367  30.185  34.834  1.00  0.00     0.074 A 
ATOM     61  C   UNL A   1      42.691  30.645  36.168  1.00  0.00     0.031 C 
ATOM     62  C   UNL A   1      43.058  29.230  34.165  1.00  0.00     0.037 A 
BRANCH  49  63
ATOM     63  C   UNL A   1      40.786  27.914  28.576  1.00  0.00     0.064 A 
ATOM     64  C   UNL A   1      41.571  28.301  27.480  1.00  0.00     0.173 A 
ATOM     65  C   UNL A   1      40.109  26.687  28.498  1.00  0.00     0.173 A 
ATOM     66  F   UNL A   1      42.230  29.469  27.501  1.00  0.00    -0.203 F 
ATOM     67  C   UNL A   1      41.654  27.504  26.341  1.00  0.00     0.198 A 
ATOM     68  C   UNL A   1      40.216  25.881  27.367  1.00  0.00     0.198 A 
ATOM     69  F   UNL A   1      39.349  26.267  29.520  1.00  0.00    -0.203 F 
ATOM     70  F   UNL A   1      42.374  27.917  25.288  1.00  0.00    -0.200 F 
ATOM     71  C   UNL A   1      40.982  26.293  26.288  1.00  0.00     0.200 A 
ATOM     72  F   UNL A   1      39.576  24.704  27.322  1.00  0.00    -0.200 F 
ATOM     73  F   UNL A   1      41.068  25.525  25.193  1.00  0.00    -0.200 F 
ENDBRANCH  49  63
BRANCH  50  74
ATOM     74  C   UNL A   1      39.668  33.526  36.750  1.00  0.00     0.064 A 
ATOM     75  C   UNL A   1      40.306  34.766  36.884  1.00  0.00     0.173 A 
ATOM     76  C   UNL A   1      38.864  33.085  37.809  1.00  0.00     0.173 A 
ATOM     77  F   UNL A   1      41.102  35.219  35.904  1.00  0.00    -0.203 F 
ATOM     78  C   UNL A   1      40.160  35.527  38.041  1.00  0.00     0.198 A 
ATOM     79  C   UNL A   1      38.698  33.859  38.956  1.00  0.00     0.198 A 
ATOM     80  F   UNL A   1      38.227  31.908  37.726  1.00  0.00    -0.203 F 
ATOM     81  F   UNL A   1      40.814  36.691  38.162  1.00  0.00    -0.200 F 
ATOM     82  C   UNL A   1      39.353  35.077  39.074  1.00  0.00     0.200 A 
ATOM     83  F   UNL A   1      37.906  33.427  39.946  1.00  0.00    -0.200 F 
ATOM     84  F   UNL A   1      39.209  35.812  40.185  1.00  0.00    -0.200 F 
ENDBRANCH  50  74
BRANCH  62  85
ATOM     85  C   UNL A   1      44.256  28.643  34.853  1.00  0.00     0.064 A 
ATOM     86  C   UNL A   1      44.154  27.497  35.653  1.00  0.00     0.173 A 
ATOM     87  C   UNL A   1      45.525  29.215  34.679  1.00  0.00     0.173 A 
ATOM     88  F   UNL A   1      42.959  26.923  35.863  1.00  0.00    -0.203 F 
ATOM     89  C   UNL A   1      45.277  26.957  36.275  1.00  0.00     0.198 A 
ATOM     90  C   UNL A   1      46.650  28.658  35.280  1.00  0.00     0.198 A 
ATOM     91  F   UNL A   1      45.675  30.310  33.918  1.00  0.00    -0.203 F 
ATOM     92  F   UNL A   1      45.150  25.887  37.071  1.00  0.00    -0.200 F 
ATOM     93  C   UNL A   1      46.524  27.533  36.082  1.00  0.00     0.200 A 
ATOM     94  F   UNL A   1      47.856  29.209  35.084  1.00  0.00    -0.200 F 
ATOM     95  F   UNL A   1      47.605  27.009  36.677  1.00  0.00    -0.200 F 
ENDBRANCH  62  85
ENDBRANCH  36  37
ENDBRANCH  28  31
ENDBRANCH  26  27
ENDBRANCH  25  26
ENDBRANCH  24  25
ENDBRANCH   3  24
TORSDOF 17
ENDMDL
MODEL 2
REMARK VINA RESULT:     -10.9      0.571      2.028
REMARK SMILES COC(=O)[C@@H]1[C@@H](NC(=O)COCC(=O)NCCCNC(=O)c2ccc(-c3c4nc(c(-c5c(F)c(F)c(F)c(F)c5F)c5ccc([nH]5)c(-c5c(F)c(F)c(F)c(F)c5F)c5nc(c(-c6c(F)c(F)c(F)c(F)c6F)c6ccc3[nH]6)C=C5)C=C4)cc2)CCN1C(C)=O
REMARK SMILES IDX 13 1 14 2 15 3 12 5 11 6 10 7 8 8 7 9 9 11 6 12 5 13 87 14
REMARK SMILES IDX 85 15 86 16 3 17 4 18 2 19 1 20 88 21 89 22 90 23 16 24
REMARK SMILES IDX 17 25 18 26 19 27 20 28 21 30 22 31 23 32 84 33 24 34 83 35
REMARK SMILES IDX 25 36 26 37 27 38 77 39 28 40 82 41 76 42 78 43 29 44 81 45
REMARK SMILES IDX 75 46 74 47 30 49 62 50 42 51 61 52 43 53 46 54 60 55 79 56
REMARK SMILES IDX 44 57 45 58 59 60 80 61 47 62 31 63 32 64 40 65 33 66 34 67
REMARK SMILES IDX 38 68 41 69 35 70 36 71 39 72 37 73 63 74 64 75 72 76 65 77
REMARK SMILES IDX 66 78 70 79 73 80 67 81 68 82 71 83 69 84 48 85 49 86 57 87
REMARK SMILES IDX 50 88 51 89 55 90 58 91 52 92 53 93 56 94 54 95
REMARK H PARENT 15 4 7 10 19 29 78 48 46 59
REMARK Flexibility Score: inf
ROOT
ATOM      1  C   UNL A   1      32.723  29.313  24.930  1.00  0.00     0.246 C 
ATOM      2  O   UNL A   1      32.718  29.039  23.730  1.00  0.00    -0.272 OA
ATOM      3  N   UNL A   1      31.827  30.227  25.405  1.00  0.00    -0.354 N 
ATOM      4  H   UNL A   1      31.192  30.591  24.745  1.00  0.00     0.163 HD
ENDROOT
BRANCH   1   5
ATOM      5  C   UNL A   1      33.682  28.642  25.909  1.00  0.00     0.260 C 
BRANCH   5   6
ATOM      6  O   UNL A   1      33.073  27.646  26.724  1.00  0.00    -0.362 OA
BRANCH   6   7
ATOM      7  C   UNL A   1      33.017  26.374  26.090  1.00  0.00     0.260 C 
BRANCH   7   8
ATOM      8  C   UNL A   1      31.714  25.596  26.323  1.00  0.00     0.246 C 
ATOM      9  N   UNL A   1      31.760  24.247  26.540  1.00  0.00    -0.349 N 
ATOM     10  H   UNL A   1      30.921  23.830  26.838  1.00  0.00     0.163 HD
ATOM     11  O   UNL A   1      30.620  26.158  26.335  1.00  0.00    -0.272 OA
BRANCH   9  12
ATOM     12  C   UNL A   1      32.897  23.349  26.383  1.00  0.00     0.118 C 
ATOM     13  C   UNL A   1      32.634  22.174  25.415  1.00  0.00     0.217 C 
ATOM     14  N   UNL A   1      33.614  21.165  25.826  1.00  0.00    -0.327 N 
ATOM     15  C   UNL A   1      33.285  22.600  27.660  1.00  0.00     0.049 C 
ATOM     16  C   UNL A   1      34.156  21.466  27.137  1.00  0.00     0.122 C 
BRANCH  13  17
ATOM     17  C   UNL A   1      32.785  22.691  23.988  1.00  0.00     0.330 C 
ATOM     18  O   UNL A   1      32.228  22.223  23.000  1.00  0.00    -0.250 OA
BRANCH  17  19
ATOM     19  O   UNL A   1      33.716  23.689  23.974  1.00  0.00    -0.467 OA
ATOM     20  C   UNL A   1      33.620  24.593  22.875  1.00  0.00     0.282 C 
ENDBRANCH  17  19
ENDBRANCH  13  17
BRANCH  14  21
ATOM     21  C   UNL A   1      33.764  19.995  25.124  1.00  0.00     0.220 C 
ATOM     22  C   UNL A   1      32.546  19.116  24.977  1.00  0.00     0.114 C 
ATOM     23  O   UNL A   1      34.860  19.633  24.701  1.00  0.00    -0.275 OA
ENDBRANCH  14  21
ENDBRANCH   9  12
ENDBRANCH   7   8
ENDBRANCH   6   7
ENDBRANCH   5   6
ENDBRANCH   1   5
BRANCH   3  24
ATOM     24  C   UNL A   1      31.689  30.729  26.759  1.00  0.00     0.117 C 
BRANCH  24  25
ATOM     25  C   UNL A   1      31.447  32.235  26.800  1.00  0.00     0.042 C 
BRANCH  25  26
ATOM     26  C   UNL A   1      32.700  33.072  27.042  1.00  0.00     0.118 C 
BRANCH  26  27
ATOM     27  N   UNL A   1      32.415  34.367  27.643  1.00  0.00    -0.352 N 
ATOM     28  C   UNL A   1      32.981  34.996  28.722  1.00  0.00     0.251 C 
ATOM     29  H   UNL A   1      31.697  34.876  27.202  1.00  0.00     0.163 HD
ATOM     30  O   UNL A   1      32.478  36.036  29.142  1.00  0.00    -0.269 OA
BRANCH  28  31
ATOM     31  C   UNL A   1      34.170  34.434  29.400  1.00  0.00     0.039 A 
ATOM     32  C   UNL A   1      34.000  33.845  30.657  1.00  0.00     0.014 A 
ATOM     33  C   UNL A   1      35.446  34.521  28.841  1.00  0.00     0.014 A 
ATOM     34  C   UNL A   1      35.095  33.291  31.323  1.00  0.00     0.010 A 
ATOM     35  C   UNL A   1      36.528  33.909  29.473  1.00  0.00     0.010 A 
ATOM     36  C   UNL A   1      36.363  33.290  30.721  1.00  0.00    -0.014 A 
BRANCH  36  37
ATOM     37  C   UNL A   1      37.525  32.644  31.383  1.00  0.00     0.031 A 
ATOM     38  C   UNL A   1      38.252  31.515  30.709  1.00  0.00     0.074 A 
ATOM     39  C   UNL A   1      37.888  33.037  32.619  1.00  0.00     0.049 A 
ATOM     40  N   UNL A   1      39.241  30.782  31.157  1.00  0.00    -0.248 NA
ATOM     41  C   UNL A   1      37.791  31.142  29.364  1.00  0.00     0.031 C 
ATOM     42  C   UNL A   1      37.235  34.092  33.396  1.00  0.00     0.029 A 
ATOM     43  N   UNL A   1      38.887  32.586  33.445  1.00  0.00    -0.354 N 
ATOM     44  C   UNL A   1      39.507  29.854  30.159  1.00  0.00     0.074 A 
ATOM     45  C   UNL A   1      38.549  30.086  29.100  1.00  0.00     0.031 C 
ATOM     46  C   UNL A   1      37.862  34.220  34.576  1.00  0.00     0.029 A 
ATOM     47  C   UNL A   1      38.937  33.235  34.654  1.00  0.00     0.049 A 
ATOM     48  H   UNL A   1      39.509  31.866  33.194  1.00  0.00     0.167 HD
ATOM     49  C   UNL A   1      40.477  28.909  30.121  1.00  0.00     0.037 A 
ATOM     50  C   UNL A   1      39.752  33.051  35.709  1.00  0.00     0.037 A 
ATOM     51  C   UNL A   1      41.448  28.699  31.161  1.00  0.00     0.049 A 
ATOM     52  C   UNL A   1      40.823  31.999  35.638  1.00  0.00     0.074 A 
ATOM     53  C   UNL A   1      42.506  27.806  31.189  1.00  0.00     0.029 A 
ATOM     54  N   UNL A   1      41.480  29.391  32.362  1.00  0.00    -0.354 N 
ATOM     55  N   UNL A   1      41.104  31.169  34.663  1.00  0.00    -0.248 NA
ATOM     56  C   UNL A   1      41.695  31.861  36.813  1.00  0.00     0.031 C 
ATOM     57  C   UNL A   1      43.156  27.933  32.421  1.00  0.00     0.029 A 
ATOM     58  C   UNL A   1      42.529  28.935  33.144  1.00  0.00     0.049 A 
ATOM     59  H   UNL A   1      40.850  30.103  32.622  1.00  0.00     0.167 HD
ATOM     60  C   UNL A   1      42.198  30.431  35.094  1.00  0.00     0.074 A 
ATOM     61  C   UNL A   1      42.539  30.920  36.414  1.00  0.00     0.031 C 
ATOM     62  C   UNL A   1      42.860  29.438  34.452  1.00  0.00     0.037 A 
BRANCH  49  63
ATOM     63  C   UNL A   1      40.538  28.029  28.907  1.00  0.00     0.064 A 
ATOM     64  C   UNL A   1      39.805  26.836  28.826  1.00  0.00     0.173 A 
ATOM     65  C   UNL A   1      41.310  28.401  27.795  1.00  0.00     0.173 A 
ATOM     66  F   UNL A   1      39.060  26.431  29.866  1.00  0.00    -0.203 F 
ATOM     67  C   UNL A   1      39.862  26.034  27.689  1.00  0.00     0.198 A 
ATOM     68  C   UNL A   1      41.343  27.610  26.649  1.00  0.00     0.198 A 
ATOM     69  F   UNL A   1      42.026  29.535  27.817  1.00  0.00    -0.203 F 
ATOM     70  F   UNL A   1      39.189  24.876  27.654  1.00  0.00    -0.200 F 
ATOM     71  C   UNL A   1      40.626  26.424  26.600  1.00  0.00     0.200 A 
ATOM     72  F   UNL A   1      42.072  27.995  25.592  1.00  0.00    -0.200 F 
ATOM     73  F   UNL A   1      40.675  25.655  25.504  1.00  0.00    -0.200 F 
ENDBRANCH  49  63
BRANCH  50  74
ATOM     74  C   UNL A   1      39.604  33.906  36.916  1.00  0.00     0.064 A 
ATOM     75  C   UNL A   1      38.829  33.482  38.003  1.00  0.00     0.173 A 
ATOM     76  C   UNL A   1      40.232  35.155  37.006  1.00  0.00     0.173 A 
ATOM     77  F   UNL A   1      38.194  32.302  37.952  1.00  0.00    -0.203 F 
ATOM     78  C   UNL A   1      38.672  34.285  39.130  1.00  0.00     0.198 A 
ATOM     79  C   UNL A   1      40.095  35.947  38.145  1.00  0.00     0.198 A 
ATOM     80  F   UNL A   1      40.989  35.603  35.995  1.00  0.00    -0.203 F 
ATOM     81  F   UNL A   1      37.893  33.873  40.140  1.00  0.00    -0.200 F 
ATOM     82  C   UNL A   1      39.309  35.514  39.204  1.00  0.00     0.200 A 
ATOM     83  F   UNL A   1      40.723  37.128  38.218  1.00  0.00    -0.200 F 
ATOM     84  F   UNL A   1      39.162  36.284  40.290  1.00  0.00    -0.200 F 
ENDBRANCH  50  74
BRANCH  62  85
ATOM     85  C   UNL A   1      44.040  28.835  35.155  1.00  0.00     0.064 A 
ATOM     86  C   UNL A   1      45.328  29.374  35.022  1.00  0.00     0.173 A 
ATOM     87  C   UNL A   1      43.874  27.726  35.999  1.00  0.00     0.173 A 
ATOM     88  F   UNL A   1      45.540  30.423  34.214  1.00  0.00    -0.203 F 
ATOM     89  C   UNL A   1      46.412  28.810  35.690  1.00  0.00     0.198 A 
ATOM     90  C   UNL A   1      44.955  27.181  36.686  1.00  0.00     0.198 A 
ATOM     91  F   UNL A   1      42.661  27.178  36.163  1.00  0.00    -0.203 F 
ATOM     92  F   UNL A   1      47.641  29.314  35.515  1.00  0.00    -0.200 F 
ATOM     93  C   UNL A   1      46.222  27.720  36.527  1.00  0.00     0.200 A 
ATOM     94  F   UNL A   1      44.769  26.135  37.503  1.00  0.00    -0.200 F 
ATOM     95  F   UNL A   1      47.266  27.181  37.175  1.00  0.00    -0.200 F 
ENDBRANCH  62  85
ENDBRANCH  36  37
ENDBRANCH  28  31
ENDBRANCH  26  27
ENDBRANCH  25  26
ENDBRANCH  24  25
ENDBRANCH   3  24
TORSDOF 17
ENDMDL
MODEL 3
REMARK VINA RESULT:     -10.8      5.367     11.035
REMARK SMILES COC(=O)[C@@H]1[C@@H](NC(=O)COCC(=O)NCCCNC(=O)c2ccc(-c3c4nc(c(-c5c(F)c(F)c(F)c(F)c5F)c5ccc([nH]5)c(-c5c(F)c(F)c(F)c(F)c5F)c5nc(c(-c6c(F)c(F)c(F)c(F)c6F)c6ccc3[nH]6)C=C5)C=C4)cc2)CCN1C(C)=O
REMARK SMILES IDX 13 1 14 2 15 3 12 5 11 6 10 7 8 8 7 9 9 11 6 12 5 13 87 14
REMARK SMILES IDX 85 15 86 16 3 17 4 18 2 19 1 20 88 21 89 22 90 23 16 24
REMARK SMILES IDX 17 25 18 26 19 27 20 28 21 30 22 31 23 32 84 33 24 34 83 35
REMARK SMILES IDX 25 36 26 37 27 38 77 39 28 40 82 41 76 42 78 43 29 44 81 45
REMARK SMILES IDX 75 46 74 47 30 49 62 50 42 51 61 52 43 53 46 54 60 55 79 56
REMARK SMILES IDX 44 57 45 58 59 60 80 61 47 62 31 63 32 64 40 65 33 66 34 67
REMARK SMILES IDX 38 68 41 69 35 70 36 71 39 72 37 73 63 74 64 75 72 76 65 77
REMARK SMILES IDX 66 78 70 79 73 80 67 81 68 82 71 83 69 84 48 85 49 86 57 87
REMARK SMILES IDX 50 88 51 89 55 90 58 91 52 92 53 93 56 94 54 95
REMARK H PARENT 15 4 7 10 19 29 78 48 46 59
REMARK Flexibility Score: inf
ROOT
ATOM      1  C   UNL A   1      36.063  22.418  25.858  1.00  0.00     0.246 C 
ATOM      2  O   UNL A   1      36.433  23.561  26.125  1.00  0.00    -0.272 OA
ATOM      3  N   UNL A   1      36.981  21.511  25.414  1.00  0.00    -0.354 N 
ATOM      4  H   UNL A   1      37.913  21.828  25.370  1.00  0.00     0.163 HD
ENDROOT
BRANCH   1   5
ATOM      5  C   UNL A   1      34.613  21.974  26.035  1.00  0.00     0.260 C 
BRANCH   5   6
ATOM      6  O   UNL A   1      33.683  22.705  25.242  1.00  0.00    -0.362 OA
BRANCH   6   7
ATOM      7  C   UNL A   1      33.952  22.609  23.849  1.00  0.00     0.260 C 
BRANCH   7   8
ATOM      8  C   UNL A   1      32.706  22.509  22.958  1.00  0.00     0.246 C 
ATOM      9  N   UNL A   1      32.118  23.648  22.485  1.00  0.00    -0.349 N 
ATOM     10  H   UNL A   1      31.425  23.522  21.798  1.00  0.00     0.163 HD
ATOM     11  O   UNL A   1      32.223  21.422  22.643  1.00  0.00    -0.272 OA
BRANCH   9  12
ATOM     12  C   UNL A   1      32.387  25.027  22.872  1.00  0.00     0.118 C 
ATOM     13  C   UNL A   1      31.128  25.923  22.901  1.00  0.00     0.217 C 
ATOM     14  N   UNL A   1      31.669  27.277  22.755  1.00  0.00    -0.327 N 
ATOM     15  C   UNL A   1      33.273  25.793  21.887  1.00  0.00     0.049 C 
ATOM     16  C   UNL A   1      33.038  27.246  22.278  1.00  0.00     0.122 C 
BRANCH  13  17
ATOM     17  C   UNL A   1      30.383  25.653  24.205  1.00  0.00     0.330 C 
ATOM     18  O   UNL A   1      29.221  25.972  24.438  1.00  0.00    -0.250 OA
BRANCH  17  19
ATOM     19  O   UNL A   1      31.246  25.093  25.102  1.00  0.00    -0.467 OA
ATOM     20  C   UNL A   1      30.632  24.333  26.141  1.00  0.00     0.282 C 
ENDBRANCH  17  19
ENDBRANCH  13  17
BRANCH  14  21
ATOM     21  C   UNL A   1      30.853  28.379  22.839  1.00  0.00     0.220 C 
ATOM     22  C   UNL A   1      30.998  29.255  24.059  1.00  0.00     0.114 C 
ATOM     23  O   UNL A   1      29.982  28.601  22.000  1.00  0.00    -0.275 OA
ENDBRANCH  14  21
ENDBRANCH   9  12
ENDBRANCH   7   8
ENDBRANCH   6   7
ENDBRANCH   5   6
ENDBRANCH   1   5
BRANCH   3  24
ATOM     24  C   UNL A   1      36.760  20.138  25.000  1.00  0.00     0.117 C 
BRANCH  24  25
ATOM     25  C   UNL A   1      38.059  19.344  24.896  1.00  0.00     0.042 C 
BRANCH  25  26
ATOM     26  C   UNL A   1      39.202  19.885  25.752  1.00  0.00     0.118 C 
BRANCH  26  27
ATOM     27  N   UNL A   1      40.302  18.942  25.895  1.00  0.00    -0.352 N 
ATOM     28  C   UNL A   1      41.637  19.155  26.130  1.00  0.00     0.251 C 
ATOM     29  H   UNL A   1      40.046  17.996  25.811  1.00  0.00     0.163 HD
ATOM     30  O   UNL A   1      42.415  18.206  26.071  1.00  0.00    -0.269 OA
BRANCH  28  31
ATOM     31  C   UNL A   1      42.156  20.508  26.431  1.00  0.00     0.039 A 
ATOM     32  C   UNL A   1      42.635  21.285  25.372  1.00  0.00     0.014 A 
ATOM     33  C   UNL A   1      42.221  20.997  27.737  1.00  0.00     0.014 A 
ATOM     34  C   UNL A   1      43.121  22.572  25.613  1.00  0.00     0.010 A 
ATOM     35  C   UNL A   1      42.642  22.306  27.971  1.00  0.00     0.010 A 
ATOM     36  C   UNL A   1      43.098  23.105  26.911  1.00  0.00    -0.014 A 
BRANCH  36  37
ATOM     37  C   UNL A   1      43.545  24.496  27.176  1.00  0.00     0.031 A 
ATOM     38  C   UNL A   1      42.577  25.518  27.704  1.00  0.00     0.074 A 
ATOM     39  C   UNL A   1      44.810  24.854  26.884  1.00  0.00     0.049 A 
ATOM     40  N   UNL A   1      42.762  26.794  27.931  1.00  0.00    -0.248 NA
ATOM     41  C   UNL A   1      41.214  25.049  27.992  1.00  0.00     0.031 C 
ATOM     42  C   UNL A   1      45.831  23.966  26.327  1.00  0.00     0.029 A 
ATOM     43  N   UNL A   1      45.449  26.063  27.004  1.00  0.00    -0.354 N 
ATOM     44  C   UNL A   1      41.538  27.282  28.370  1.00  0.00     0.074 A 
ATOM     45  C   UNL A   1      40.607  26.176  28.337  1.00  0.00     0.031 C 
ATOM     46  C   UNL A   1      46.973  24.655  26.170  1.00  0.00     0.029 A 
ATOM     47  C   UNL A   1      46.756  26.038  26.583  1.00  0.00     0.049 A 
ATOM     48  H   UNL A   1      45.012  26.871  27.357  1.00  0.00     0.167 HD
ATOM     49  C   UNL A   1      41.227  28.534  28.783  1.00  0.00     0.037 A 
ATOM     50  C   UNL A   1      47.673  27.023  26.529  1.00  0.00     0.037 A 
ATOM     51  C   UNL A   1      42.162  29.626  28.844  1.00  0.00     0.049 A 
ATOM     52  C   UNL A   1      47.302  28.401  26.999  1.00  0.00     0.074 A 
ATOM     53  C   UNL A   1      41.957  30.915  29.304  1.00  0.00     0.029 A 
ATOM     54  N   UNL A   1      43.484  29.556  28.430  1.00  0.00    -0.354 N 
ATOM     55  N   UNL A   1      46.159  28.835  27.470  1.00  0.00    -0.248 NA
ATOM     56  C   UNL A   1      48.353  29.427  26.935  1.00  0.00     0.031 C 
ATOM     57  C   UNL A   1      43.144  31.636  29.135  1.00  0.00     0.029 A 
ATOM     58  C   UNL A   1      44.101  30.784  28.609  1.00  0.00     0.049 A 
ATOM     59  H   UNL A   1      43.920  28.753  28.063  1.00  0.00     0.167 HD
ATOM     60  C   UNL A   1      46.358  30.173  27.783  1.00  0.00     0.074 A 
ATOM     61  C   UNL A   1      47.736  30.477  27.460  1.00  0.00     0.031 C 
ATOM     62  C   UNL A   1      45.477  31.068  28.291  1.00  0.00     0.037 A 
BRANCH  49  63
ATOM     63  C   UNL A   1      39.811  28.790  29.209  1.00  0.00     0.064 A 
ATOM     64  C   UNL A   1      39.397  28.599  30.535  1.00  0.00     0.173 A 
ATOM     65  C   UNL A   1      38.866  29.268  28.288  1.00  0.00     0.173 A 
ATOM     66  F   UNL A   1      40.259  28.135  31.451  1.00  0.00    -0.203 F 
ATOM     67  C   UNL A   1      38.082  28.852  30.919  1.00  0.00     0.198 A 
ATOM     68  C   UNL A   1      37.559  29.544  28.682  1.00  0.00     0.198 A 
ATOM     69  F   UNL A   1      39.211  29.472  27.008  1.00  0.00    -0.203 F 
ATOM     70  F   UNL A   1      37.698  28.619  32.182  1.00  0.00    -0.200 F 
ATOM     71  C   UNL A   1      37.166  29.330  29.994  1.00  0.00     0.200 A 
ATOM     72  F   UNL A   1      36.678  30.018  27.790  1.00  0.00    -0.200 F 
ATOM     73  F   UNL A   1      35.904  29.578  30.366  1.00  0.00    -0.200 F 
ENDBRANCH  49  63
BRANCH  50  74
ATOM     74  C   UNL A   1      49.043  26.730  26.035  1.00  0.00     0.064 A 
ATOM     75  C   UNL A   1      49.398  26.999  24.706  1.00  0.00     0.173 A 
ATOM     76  C   UNL A   1      50.020  26.180  26.875  1.00  0.00     0.173 A 
ATOM     77  F   UNL A   1      48.489  27.506  23.860  1.00  0.00    -0.203 F 
ATOM     78  C   UNL A   1      50.675  26.712  24.231  1.00  0.00     0.198 A 
ATOM     79  C   UNL A   1      51.306  25.917  26.405  1.00  0.00     0.198 A 
ATOM     80  F   UNL A   1      49.732  25.911  28.156  1.00  0.00    -0.203 F 
ATOM     81  F   UNL A   1      50.977  26.941  22.946  1.00  0.00    -0.200 F 
ATOM     82  C   UNL A   1      51.630  26.176  25.081  1.00  0.00     0.200 A 
ATOM     83  F   UNL A   1      52.230  25.412  27.234  1.00  0.00    -0.200 F 
ATOM     84  F   UNL A   1      52.861  25.904  24.626  1.00  0.00    -0.200 F 
ENDBRANCH  50  74
BRANCH  62  85
ATOM     85  C   UNL A   1      45.986  32.453  28.562  1.00  0.00     0.064 A 
ATOM     86  C   UNL A   1      46.581  32.790  29.786  1.00  0.00     0.173 A 
ATOM     87  C   UNL A   1      45.907  33.444  27.572  1.00  0.00     0.173 A 
ATOM     88  F   UNL A   1      46.664  31.882  30.770  1.00  0.00    -0.203 F 
ATOM     89  C   UNL A   1      47.059  34.078  30.018  1.00  0.00     0.198 A 
ATOM     90  C   UNL A   1      46.410  34.722  27.797  1.00  0.00     0.198 A 
ATOM     91  F   UNL A   1      45.350  33.169  26.383  1.00  0.00    -0.203 F 
ATOM     92  F   UNL A   1      47.585  34.391  31.209  1.00  0.00    -0.200 F 
ATOM     93  C   UNL A   1      46.980  35.039  29.021  1.00  0.00     0.200 A 
ATOM     94  F   UNL A   1      46.343  35.647  26.829  1.00  0.00    -0.200 F 
ATOM     95  F   UNL A   1      47.446  36.277  29.243  1.00  0.00    -0.200 F 
ENDBRANCH  62  85
ENDBRANCH  36  37
ENDBRANCH  28  31
ENDBRANCH  26  27
ENDBRANCH  25  26
ENDBRANCH  24  25
ENDBRANCH   3  24
TORSDOF 17
ENDMDL
