MODEL 1
REMARK VINA RESULT:     -15.1      0.000      0.000
REMARK SMILES Cc1ccc(S(=O)(=O)n2cc(C(=O)C(=O)N[C@H](Cc3c[nH]c4ccccc34)C(=O)NCC(=O)NCCCNC(=O)c3ccc(-c4c5nc(c(-c6c(F)c(F)c(F)c(F)c6F)c6ccc([nH]6)c(-c6c(F)c(F)c(F)c(F)c6F)c6nc(c(-c7c(F)c(F)c(F)c(F)c7F)c7ccc4[nH]7)C=C6)C=C5)cc3)c3ccccc32)cc1
REMARK SMILES IDX 32 1 33 2 34 3 31 5 30 6 28 7 29 8 17 10 16 11 14 12 15 13
REMARK SMILES IDX 12 15 13 16 11 17 9 18 10 19 109 20 104 21 108 22 105 23
REMARK SMILES IDX 107 24 106 25 6 26 7 27 8 28 5 29 1 30 2 31 3 32 111 33 4 34
REMARK SMILES IDX 110 35 18 36 19 37 20 38 27 39 21 40 22 41 26 42 23 44 25 45
REMARK SMILES IDX 24 46 35 47 36 48 37 49 38 50 39 51 40 53 41 54 42 55 103 56
REMARK SMILES IDX 43 57 102 58 44 59 45 60 46 61 96 62 47 63 101 64 95 65
REMARK SMILES IDX 97 66 48 67 100 68 94 69 93 70 49 72 81 73 61 74 80 75 62 76
REMARK SMILES IDX 65 77 79 78 98 79 63 80 64 81 78 83 99 84 66 85 50 86 51 87
REMARK SMILES IDX 59 88 52 89 53 90 57 91 60 92 54 93 55 94 58 95 56 96 82 97
REMARK SMILES IDX 83 98 91 99 84 100 85 101 89 102 92 103 86 104 87 105 90 106
REMARK SMILES IDX 88 107 67 108 68 109 76 110 69 111 70 112 74 113 77 114
REMARK SMILES IDX 71 115 72 116 75 117 73 118
REMARK H PARENT 34 4 30 9 16 14 21 43 38 52 97 71 65 82
REMARK Flexibility Score: inf
ROOT
ATOM      1  C   UNL A   1      37.018  22.978  24.702  1.00  0.00     0.239 C 
ATOM      2  O   UNL A   1      36.726  23.080  23.507  1.00  0.00    -0.273 OA
ATOM      3  N   UNL A   1      38.193  22.353  25.008  1.00  0.00    -0.355 N 
ATOM      4  H   UNL A   1      38.652  21.926  24.249  1.00  0.00     0.163 HD
ENDROOT
BRANCH   1   5
ATOM      5  C   UNL A   1      36.173  23.676  25.776  1.00  0.00     0.216 C 
BRANCH   5   6
ATOM      6  N   UNL A   1      35.508  22.767  26.678  1.00  0.00    -0.345 N 
ATOM      7  C   UNL A   1      34.257  22.277  26.787  1.00  0.00     0.243 C 
ATOM      8  O   UNL A   1      34.142  21.483  27.730  1.00  0.00    -0.273 OA
ATOM      9  H   UNL A   1      36.109  22.425  27.379  1.00  0.00     0.164 HD
BRANCH   7  10
ATOM     10  C   UNL A   1      33.022  22.606  25.887  1.00  0.00     0.176 C 
BRANCH  10  11
ATOM     11  N   UNL A   1      31.617  22.440  26.417  1.00  0.00    -0.337 N 
ATOM     12  C   UNL A   1      30.539  23.282  26.680  1.00  0.00     0.293 C 
ATOM     13  O   UNL A   1      29.529  22.828  27.207  1.00  0.00    -0.265 OA
ATOM     14  H   UNL A   1      31.411  21.499  26.628  1.00  0.00     0.164 HD
BRANCH  12  15
ATOM     15  C   UNL A   1      30.581  24.754  26.281  1.00  0.00     0.252 C 
ATOM     16  O   UNL A   1      29.536  25.365  26.502  1.00  0.00    -0.283 OA
BRANCH  15  17
ATOM     17  C   UNL A   1      31.708  25.497  25.684  1.00  0.00     0.054 A 
ATOM     18  N   UNL A   1      33.572  26.618  25.048  1.00  0.00    -0.240 N 
ATOM     19  C   UNL A   1      32.804  26.217  26.168  1.00  0.00     0.117 A 
ATOM     20  C   UNL A   1      33.164  25.800  23.993  1.00  0.00     0.065 A 
ATOM     21  C   UNL A   1      31.814  25.635  24.267  1.00  0.00     0.012 A 
ATOM     22  C   UNL A   1      33.695  25.613  22.713  1.00  0.00     0.028 A 
ATOM     23  C   UNL A   1      30.910  25.603  23.196  1.00  0.00     0.011 A 
ATOM     24  C   UNL A   1      32.763  25.656  21.671  1.00  0.00     0.002 A 
ATOM     25  C   UNL A   1      31.392  25.696  21.899  1.00  0.00     0.001 A 
BRANCH  18  26
ATOM     26  S   UNL A   1      33.655  28.350  24.562  1.00  0.00     0.268 S 
ATOM     27  O   UNL A   1      34.628  28.391  23.489  1.00  0.00    -0.201 OA
ATOM     28  O   UNL A   1      33.872  29.077  25.803  1.00  0.00    -0.201 OA
BRANCH  26  29
ATOM     29  C   UNL A   1      32.135  29.012  23.947  1.00  0.00     0.088 A 
ATOM     30  C   UNL A   1      28.431  29.972  21.961  1.00  0.00     0.044 C 
ATOM     31  C   UNL A   1      29.711  29.645  22.675  1.00  0.00    -0.051 A 
ATOM     32  C   UNL A   1      30.853  29.418  21.911  1.00  0.00     0.005 A 
ATOM     33  C   UNL A   1      29.801  29.577  24.079  1.00  0.00     0.005 A 
ATOM     34  C   UNL A   1      32.049  29.099  22.542  1.00  0.00     0.022 A 
ATOM     35  C   UNL A   1      31.012  29.255  24.724  1.00  0.00     0.022 A 
ENDBRANCH  26  29
ENDBRANCH  18  26
ENDBRANCH  15  17
ENDBRANCH  12  15
ENDBRANCH  10  11
BRANCH  10  36
ATOM     36  C   UNL A   1      33.161  22.459  24.335  1.00  0.00     0.072 C 
BRANCH  36  37
ATOM     37  C   UNL A   1      32.733  21.207  23.596  1.00  0.00    -0.020 A 
ATOM     38  C   UNL A   1      31.904  21.207  22.483  1.00  0.00     0.087 A 
ATOM     39  C   UNL A   1      33.149  19.833  23.765  1.00  0.00     0.003 A 
ATOM     40  N   UNL A   1      31.802  19.929  21.998  1.00  0.00    -0.361 N 
ATOM     41  C   UNL A   1      32.446  19.058  22.838  1.00  0.00     0.046 A 
ATOM     42  C   UNL A   1      34.030  19.151  24.629  1.00  0.00     0.010 A 
ATOM     43  H   UNL A   1      31.338  19.674  21.169  1.00  0.00     0.166 HD
ATOM     44  C   UNL A   1      32.467  17.657  22.817  1.00  0.00     0.026 A 
ATOM     45  C   UNL A   1      34.086  17.748  24.611  1.00  0.00     0.001 A 
ATOM     46  C   UNL A   1      33.293  17.012  23.737  1.00  0.00     0.002 A 
ENDBRANCH  36  37
ENDBRANCH  10  36
ENDBRANCH   7  10
ENDBRANCH   5   6
ENDBRANCH   1   5
BRANCH   3  47
ATOM     47  C   UNL A   1      38.865  22.225  26.291  1.00  0.00     0.117 C 
BRANCH  47  48
ATOM     48  C   UNL A   1      40.272  21.690  26.127  1.00  0.00     0.042 C 
BRANCH  48  49
ATOM     49  C   UNL A   1      41.272  22.815  25.896  1.00  0.00     0.118 C 
BRANCH  49  50
ATOM     50  N   UNL A   1      41.865  23.268  27.149  1.00  0.00    -0.352 N 
ATOM     51  C   UNL A   1      41.842  24.481  27.821  1.00  0.00     0.251 C 
ATOM     52  H   UNL A   1      42.387  22.571  27.612  1.00  0.00     0.163 HD
ATOM     53  O   UNL A   1      42.586  24.673  28.758  1.00  0.00    -0.269 OA
BRANCH  51  54
ATOM     54  C   UNL A   1      40.721  25.415  27.529  1.00  0.00     0.039 A 
ATOM     55  C   UNL A   1      41.128  26.560  26.837  1.00  0.00     0.014 A 
ATOM     56  C   UNL A   1      39.650  25.462  28.405  1.00  0.00     0.014 A 
ATOM     57  C   UNL A   1      40.746  27.798  27.327  1.00  0.00     0.010 A 
ATOM     58  C   UNL A   1      39.385  26.685  28.991  1.00  0.00     0.010 A 
ATOM     59  C   UNL A   1      40.015  27.841  28.510  1.00  0.00    -0.014 A 
BRANCH  59  60
ATOM     60  C   UNL A   1      39.972  29.031  29.355  1.00  0.00     0.031 A 
ATOM     61  C   UNL A   1      38.933  30.051  29.106  1.00  0.00     0.074 A 
ATOM     62  C   UNL A   1      40.856  29.186  30.369  1.00  0.00     0.049 A 
ATOM     63  N   UNL A   1      39.022  31.289  29.458  1.00  0.00    -0.248 NA
ATOM     64  C   UNL A   1      37.716  29.753  28.363  1.00  0.00     0.031 C 
ATOM     65  C   UNL A   1      40.798  30.180  31.440  1.00  0.00     0.029 A 
ATOM     66  N   UNL A   1      42.124  28.587  30.519  1.00  0.00    -0.354 N 
ATOM     67  C   UNL A   1      37.802  31.882  29.223  1.00  0.00     0.074 A 
ATOM     68  C   UNL A   1      37.039  30.894  28.500  1.00  0.00     0.031 C 
ATOM     69  C   UNL A   1      42.032  30.350  31.940  1.00  0.00     0.029 A 
ATOM     70  C   UNL A   1      42.944  29.573  31.118  1.00  0.00     0.049 A 
ATOM     71  H   UNL A   1      42.385  27.673  30.261  1.00  0.00     0.167 HD
ATOM     72  C   UNL A   1      37.536  33.102  29.775  1.00  0.00     0.037 A 
ATOM     73  C   UNL A   1      44.049  30.076  30.495  1.00  0.00     0.037 A 
ATOM     74  C   UNL A   1      38.720  33.654  30.427  1.00  0.00     0.049 A 
ATOM     75  C   UNL A   1      44.002  31.567  30.276  1.00  0.00     0.074 A 
ATOM     76  C   UNL A   1      39.141  33.681  31.748  1.00  0.00     0.029 A 
ATOM     77  N   UNL A   1      39.828  33.997  29.656  1.00  0.00    -0.354 N 
ATOM     78  N   UNL A   1      42.907  32.274  30.306  1.00  0.00    -0.248 NA
ATOM     79  C   UNL A   1      45.181  32.368  29.963  1.00  0.00     0.031 C 
ATOM     80  C   UNL A   1      40.523  33.993  31.764  1.00  0.00     0.029 A 
ATOM     81  C   UNL A   1      40.940  34.174  30.457  1.00  0.00     0.049 A 
ATOM     82  H   UNL A   1      39.819  34.099  28.677  1.00  0.00     0.167 HD
ATOM     83  C   UNL A   1      43.199  33.574  29.991  1.00  0.00     0.074 A 
ATOM     84  C   UNL A   1      44.639  33.588  29.808  1.00  0.00     0.031 C 
ATOM     85  C   UNL A   1      42.230  34.530  29.886  1.00  0.00     0.037 A 
BRANCH  72  86
ATOM     86  C   UNL A   1      36.124  33.611  29.991  1.00  0.00     0.064 A 
ATOM     87  C   UNL A   1      35.336  34.040  28.902  1.00  0.00     0.173 A 
ATOM     88  C   UNL A   1      35.525  33.793  31.252  1.00  0.00     0.173 A 
ATOM     89  F   UNL A   1      35.704  33.808  27.637  1.00  0.00    -0.203 F 
ATOM     90  C   UNL A   1      34.132  34.732  29.072  1.00  0.00     0.198 A 
ATOM     91  C   UNL A   1      34.357  34.543  31.428  1.00  0.00     0.198 A 
ATOM     92  F   UNL A   1      36.017  33.200  32.346  1.00  0.00    -0.203 F 
ATOM     93  F   UNL A   1      33.435  35.127  27.997  1.00  0.00    -0.200 F 
ATOM     94  C   UNL A   1      33.669  35.027  30.336  1.00  0.00     0.200 A 
ATOM     95  F   UNL A   1      33.906  34.789  32.667  1.00  0.00    -0.200 F 
ATOM     96  F   UNL A   1      32.549  35.743  30.502  1.00  0.00    -0.200 F 
ENDBRANCH  72  86
BRANCH  73  97
ATOM     97  C   UNL A   1      44.745  29.108  29.609  1.00  0.00     0.064 A 
ATOM     98  C   UNL A   1      45.532  28.111  30.201  1.00  0.00     0.173 A 
ATOM     99  C   UNL A   1      44.356  28.907  28.285  1.00  0.00     0.173 A 
ATOM    100  F   UNL A   1      46.063  28.326  31.407  1.00  0.00    -0.203 F 
ATOM    101  C   UNL A   1      45.748  26.882  29.587  1.00  0.00     0.198 A 
ATOM    102  C   UNL A   1      44.614  27.692  27.644  1.00  0.00     0.198 A 
ATOM    103  F   UNL A   1      43.632  29.836  27.645  1.00  0.00    -0.203 F 
ATOM    104  F   UNL A   1      46.383  25.902  30.247  1.00  0.00    -0.200 F 
ATOM    105  C   UNL A   1      45.257  26.661  28.315  1.00  0.00     0.200 A 
ATOM    106  F   UNL A   1      44.156  27.486  26.402  1.00  0.00    -0.200 F 
ATOM    107  F   UNL A   1      45.387  25.457  27.743  1.00  0.00    -0.200 F 
ENDBRANCH  73  97
BRANCH  85 108
ATOM    108  C   UNL A   1      42.424  35.916  29.323  1.00  0.00     0.064 A 
ATOM    109  C   UNL A   1      43.147  36.929  29.973  1.00  0.00     0.173 A 
ATOM    110  C   UNL A   1      41.995  36.218  28.008  1.00  0.00     0.173 A 
ATOM    111  F   UNL A   1      43.710  36.721  31.172  1.00  0.00    -0.203 F 
ATOM    112  C   UNL A   1      43.366  38.175  29.383  1.00  0.00     0.198 A 
ATOM    113  C   UNL A   1      42.265  37.444  27.400  1.00  0.00     0.198 A 
ATOM    114  F   UNL A   1      41.324  35.325  27.267  1.00  0.00    -0.203 F 
ATOM    115  F   UNL A   1      44.025  39.125  30.062  1.00  0.00    -0.200 F 
ATOM    116  C   UNL A   1      42.935  38.430  28.094  1.00  0.00     0.200 A 
ATOM    117  F   UNL A   1      41.887  37.655  26.131  1.00  0.00    -0.200 F 
ATOM    118  F   UNL A   1      43.187  39.611  27.515  1.00  0.00    -0.200 F 
ENDBRANCH  85 108
ENDBRANCH  59  60
ENDBRANCH  51  54
ENDBRANCH  49  50
ENDBRANCH  48  49
ENDBRANCH  47  48
ENDBRANCH   3  47
TORSDOF 19
ENDMDL
MODEL 2
REMARK VINA RESULT:     -14.3      3.743     10.409
REMARK SMILES Cc1ccc(S(=O)(=O)n2cc(C(=O)C(=O)N[C@H](Cc3c[nH]c4ccccc34)C(=O)NCC(=O)NCCCNC(=O)c3ccc(-c4c5nc(c(-c6c(F)c(F)c(F)c(F)c6F)c6ccc([nH]6)c(-c6c(F)c(F)c(F)c(F)c6F)c6nc(c(-c7c(F)c(F)c(F)c(F)c7F)c7ccc4[nH]7)C=C6)C=C5)cc3)c3ccccc32)cc1
REMARK SMILES IDX 32 1 33 2 34 3 31 5 30 6 28 7 29 8 17 10 16 11 14 12 15 13
REMARK SMILES IDX 12 15 13 16 11 17 9 18 10 19 109 20 104 21 108 22 105 23
REMARK SMILES IDX 107 24 106 25 6 26 7 27 8 28 5 29 1 30 2 31 3 32 111 33 4 34
REMARK SMILES IDX 110 35 18 36 19 37 20 38 27 39 21 40 22 41 26 42 23 44 25 45
REMARK SMILES IDX 24 46 35 47 36 48 37 49 38 50 39 51 40 53 41 54 42 55 103 56
REMARK SMILES IDX 43 57 102 58 44 59 45 60 46 61 96 62 47 63 101 64 95 65
REMARK SMILES IDX 97 66 48 67 100 68 94 69 93 70 49 72 81 73 61 74 80 75 62 76
REMARK SMILES IDX 65 77 79 78 98 79 63 80 64 81 78 83 99 84 66 85 50 86 51 87
REMARK SMILES IDX 59 88 52 89 53 90 57 91 60 92 54 93 55 94 58 95 56 96 82 97
REMARK SMILES IDX 83 98 91 99 84 100 85 101 89 102 92 103 86 104 87 105 90 106
REMARK SMILES IDX 88 107 67 108 68 109 76 110 69 111 70 112 74 113 77 114
REMARK SMILES IDX 71 115 72 116 75 117 73 118
REMARK H PARENT 34 4 30 9 16 14 21 43 38 52 97 71 65 82
REMARK Flexibility Score: inf
ROOT
ATOM      1  C   UNL A   1      32.549  30.323  26.681  1.00  0.00     0.239 C 
ATOM      2  O   UNL A   1      31.425  30.514  26.207  1.00  0.00    -0.273 OA
ATOM      3  N   UNL A   1      33.211  31.408  27.179  1.00  0.00    -0.355 N 
ATOM      4  H   UNL A   1      32.782  32.278  27.006  1.00  0.00     0.163 HD
ENDROOT
BRANCH   1   5
ATOM      5  C   UNL A   1      33.094  28.899  26.850  1.00  0.00     0.216 C 
BRANCH   5   6
ATOM      6  N   UNL A   1      33.307  28.202  25.604  1.00  0.00    -0.345 N 
ATOM      7  C   UNL A   1      32.537  27.461  24.782  1.00  0.00     0.243 C 
ATOM      8  O   UNL A   1      33.154  27.071  23.782  1.00  0.00    -0.273 OA
ATOM      9  H   UNL A   1      34.231  28.289  25.277  1.00  0.00     0.164 HD
BRANCH   7  10
ATOM     10  C   UNL A   1      31.034  27.075  24.975  1.00  0.00     0.176 C 
BRANCH  10  11
ATOM     11  N   UNL A   1      30.643  25.932  25.882  1.00  0.00    -0.337 N 
ATOM     12  C   UNL A   1      30.543  24.548  25.764  1.00  0.00     0.293 C 
ATOM     13  O   UNL A   1      30.097  23.889  26.698  1.00  0.00    -0.265 OA
ATOM     14  H   UNL A   1      30.399  26.244  26.785  1.00  0.00     0.164 HD
BRANCH  12  15
ATOM     15  C   UNL A   1      31.022  23.834  24.504  1.00  0.00     0.252 C 
ATOM     16  O   UNL A   1      30.322  24.039  23.513  1.00  0.00    -0.283 OA
BRANCH  15  17
ATOM     17  C   UNL A   1      32.199  22.956  24.353  1.00  0.00     0.054 A 
ATOM     18  N   UNL A   1      33.828  21.438  23.931  1.00  0.00    -0.240 N 
ATOM     19  C   UNL A   1      32.430  21.657  23.891  1.00  0.00     0.117 A 
ATOM     20  C   UNL A   1      34.410  22.705  24.009  1.00  0.00     0.065 A 
ATOM     21  C   UNL A   1      33.488  23.395  24.783  1.00  0.00     0.012 A 
ATOM     22  C   UNL A   1      35.741  23.116  23.889  1.00  0.00     0.028 A 
ATOM     23  C   UNL A   1      33.959  24.324  25.721  1.00  0.00     0.011 A 
ATOM     24  C   UNL A   1      36.185  23.992  24.886  1.00  0.00     0.002 A 
ATOM     25  C   UNL A   1      35.322  24.556  25.819  1.00  0.00     0.001 A 
BRANCH  18  26
ATOM     26  S   UNL A   1      34.547  20.295  25.121  1.00  0.00     0.268 S 
ATOM     27  O   UNL A   1      34.241  20.863  26.419  1.00  0.00    -0.201 OA
ATOM     28  O   UNL A   1      35.923  20.117  24.683  1.00  0.00    -0.201 OA
BRANCH  26  29
ATOM     29  C   UNL A   1      33.874  18.661  25.067  1.00  0.00     0.088 A 
ATOM     30  C   UNL A   1      32.907  14.469  25.348  1.00  0.00     0.044 C 
ATOM     31  C   UNL A   1      33.219  15.935  25.255  1.00  0.00    -0.051 A 
ATOM     32  C   UNL A   1      34.443  16.315  24.711  1.00  0.00     0.005 A 
ATOM     33  C   UNL A   1      32.318  16.931  25.678  1.00  0.00     0.005 A 
ATOM     34  C   UNL A   1      34.768  17.663  24.625  1.00  0.00     0.022 A 
ATOM     35  C   UNL A   1      32.641  18.301  25.593  1.00  0.00     0.022 A 
ENDBRANCH  26  29
ENDBRANCH  18  26
ENDBRANCH  15  17
ENDBRANCH  12  15
ENDBRANCH  10  11
BRANCH  10  36
ATOM     36  C   UNL A   1      30.027  27.365  23.812  1.00  0.00     0.072 C 
BRANCH  36  37
ATOM     37  C   UNL A   1      30.029  28.672  23.044  1.00  0.00    -0.020 A 
ATOM     38  C   UNL A   1      30.950  28.991  22.056  1.00  0.00     0.087 A 
ATOM     39  C   UNL A   1      29.079  29.761  23.050  1.00  0.00     0.003 A 
ATOM     40  N   UNL A   1      30.606  30.193  21.493  1.00  0.00    -0.361 N 
ATOM     41  C   UNL A   1      29.548  30.740  22.170  1.00  0.00     0.046 A 
ATOM     42  C   UNL A   1      27.877  30.040  23.732  1.00  0.00     0.010 A 
ATOM     43  H   UNL A   1      31.052  30.601  20.716  1.00  0.00     0.166 HD
ATOM     44  C   UNL A   1      28.973  32.011  22.039  1.00  0.00     0.026 A 
ATOM     45  C   UNL A   1      27.269  31.299  23.600  1.00  0.00     0.001 A 
ATOM     46  C   UNL A   1      27.828  32.280  22.787  1.00  0.00     0.002 A 
ENDBRANCH  36  37
ENDBRANCH  10  36
ENDBRANCH   7  10
ENDBRANCH   5   6
ENDBRANCH   1   5
BRANCH   3  47
ATOM     47  C   UNL A   1      34.457  31.469  27.927  1.00  0.00     0.117 C 
BRANCH  47  48
ATOM     48  C   UNL A   1      34.471  32.642  28.883  1.00  0.00     0.042 C 
BRANCH  48  49
ATOM     49  C   UNL A   1      34.908  32.218  30.278  1.00  0.00     0.118 C 
BRANCH  49  50
ATOM     50  N   UNL A   1      36.299  32.571  30.532  1.00  0.00    -0.352 N 
ATOM     51  C   UNL A   1      37.471  31.829  30.564  1.00  0.00     0.251 C 
ATOM     52  H   UNL A   1      36.435  33.529  30.719  1.00  0.00     0.163 HD
ATOM     53  O   UNL A   1      38.491  32.318  31.000  1.00  0.00    -0.269 OA
BRANCH  51  54
ATOM     54  C   UNL A   1      37.497  30.539  29.822  1.00  0.00     0.039 A 
ATOM     55  C   UNL A   1      37.633  29.427  30.660  1.00  0.00     0.014 A 
ATOM     56  C   UNL A   1      38.010  30.522  28.537  1.00  0.00     0.014 A 
ATOM     57  C   UNL A   1      38.618  28.497  30.367  1.00  0.00     0.010 A 
ATOM     58  C   UNL A   1      39.089  29.689  28.314  1.00  0.00     0.010 A 
ATOM     59  C   UNL A   1      39.451  28.741  29.280  1.00  0.00    -0.014 A 
BRANCH  59  60
ATOM     60  C   UNL A   1      40.770  28.128  29.160  1.00  0.00     0.031 A 
ATOM     61  C   UNL A   1      40.868  26.691  28.832  1.00  0.00     0.074 A 
ATOM     62  C   UNL A   1      41.891  28.871  29.322  1.00  0.00     0.049 A 
ATOM     63  N   UNL A   1      41.885  25.945  29.102  1.00  0.00    -0.248 NA
ATOM     64  C   UNL A   1      39.768  25.960  28.217  1.00  0.00     0.031 C 
ATOM     65  C   UNL A   1      43.261  28.476  29.001  1.00  0.00     0.029 A 
ATOM     66  N   UNL A   1      42.035  30.091  30.017  1.00  0.00    -0.354 N 
ATOM     67  C   UNL A   1      41.688  24.728  28.490  1.00  0.00     0.074 A 
ATOM     68  C   UNL A   1      40.335  24.775  27.990  1.00  0.00     0.031 C 
ATOM     69  C   UNL A   1      44.109  29.227  29.723  1.00  0.00     0.029 A 
ATOM     70  C   UNL A   1      43.309  30.034  30.629  1.00  0.00     0.049 A 
ATOM     71  H   UNL A   1      41.384  30.828  30.066  1.00  0.00     0.167 HD
ATOM     72  C   UNL A   1      42.737  23.863  28.371  1.00  0.00     0.037 A 
ATOM     73  C   UNL A   1      43.468  30.069  31.983  1.00  0.00     0.037 A 
ATOM     74  C   UNL A   1      43.908  24.354  29.093  1.00  0.00     0.049 A 
ATOM     75  C   UNL A   1      44.163  28.856  32.550  1.00  0.00     0.074 A 
ATOM     76  C   UNL A   1      45.044  25.037  28.688  1.00  0.00     0.029 A 
ATOM     77  N   UNL A   1      43.862  24.458  30.481  1.00  0.00    -0.354 N 
ATOM     78  N   UNL A   1      44.269  27.718  31.922  1.00  0.00    -0.248 NA
ATOM     79  C   UNL A   1      44.751  28.820  33.885  1.00  0.00     0.031 C 
ATOM     80  C   UNL A   1      45.655  25.596  29.838  1.00  0.00     0.029 A 
ATOM     81  C   UNL A   1      44.903  25.239  30.944  1.00  0.00     0.049 A 
ATOM     82  H   UNL A   1      43.182  24.033  31.052  1.00  0.00     0.167 HD
ATOM     83  C   UNL A   1      44.882  26.806  32.740  1.00  0.00     0.074 A 
ATOM     84  C   UNL A   1      45.185  27.549  33.948  1.00  0.00     0.031 C 
ATOM     85  C   UNL A   1      45.070  25.507  32.363  1.00  0.00     0.037 A 
BRANCH  72  86
ATOM     86  C   UNL A   1      42.773  22.758  27.334  1.00  0.00     0.064 A 
ATOM     87  C   UNL A   1      41.987  21.596  27.488  1.00  0.00     0.173 A 
ATOM     88  C   UNL A   1      43.631  22.737  26.218  1.00  0.00     0.173 A 
ATOM     89  F   UNL A   1      41.025  21.519  28.415  1.00  0.00    -0.203 F 
ATOM     90  C   UNL A   1      42.163  20.459  26.692  1.00  0.00     0.198 A 
ATOM     91  C   UNL A   1      43.856  21.581  25.464  1.00  0.00     0.198 A 
ATOM     92  F   UNL A   1      44.232  23.851  25.784  1.00  0.00    -0.203 F 
ATOM     93  F   UNL A   1      41.394  19.380  26.897  1.00  0.00    -0.200 F 
ATOM     94  C   UNL A   1      43.132  20.434  25.713  1.00  0.00     0.200 A 
ATOM     95  F   UNL A   1      44.782  21.590  24.493  1.00  0.00    -0.200 F 
ATOM     96  F   UNL A   1      43.344  19.326  24.991  1.00  0.00    -0.200 F 
ENDBRANCH  72  86
BRANCH  73  97
ATOM     97  C   UNL A   1      42.444  30.873  32.699  1.00  0.00     0.064 A 
ATOM     98  C   UNL A   1      41.373  30.199  33.303  1.00  0.00     0.173 A 
ATOM     99  C   UNL A   1      42.692  32.179  33.121  1.00  0.00     0.173 A 
ATOM    100  F   UNL A   1      40.994  29.012  32.826  1.00  0.00    -0.203 F 
ATOM    101  C   UNL A   1      40.713  30.714  34.413  1.00  0.00     0.198 A 
ATOM    102  C   UNL A   1      41.996  32.720  34.205  1.00  0.00     0.198 A 
ATOM    103  F   UNL A   1      43.678  32.893  32.561  1.00  0.00    -0.203 F 
ATOM    104  F   UNL A   1      39.792  29.975  35.051  1.00  0.00    -0.200 F 
ATOM    105  C   UNL A   1      41.050  31.967  34.886  1.00  0.00     0.200 A 
ATOM    106  F   UNL A   1      42.310  33.944  34.651  1.00  0.00    -0.200 F 
ATOM    107  F   UNL A   1      40.480  32.441  36.002  1.00  0.00    -0.200 F 
ENDBRANCH  73  97
BRANCH  85 108
ATOM    108  C   UNL A   1      45.516  24.388  33.272  1.00  0.00     0.064 A 
ATOM    109  C   UNL A   1      44.708  23.292  33.614  1.00  0.00     0.173 A 
ATOM    110  C   UNL A   1      46.858  24.321  33.715  1.00  0.00     0.173 A 
ATOM    111  F   UNL A   1      43.455  23.180  33.151  1.00  0.00    -0.203 F 
ATOM    112  C   UNL A   1      45.185  22.239  34.398  1.00  0.00     0.198 A 
ATOM    113  C   UNL A   1      47.347  23.241  34.451  1.00  0.00     0.198 A 
ATOM    114  F   UNL A   1      47.741  25.289  33.427  1.00  0.00    -0.203 F 
ATOM    115  F   UNL A   1      44.361  21.236  34.734  1.00  0.00    -0.200 F 
ATOM    116  C   UNL A   1      46.505  22.208  34.808  1.00  0.00     0.200 A 
ATOM    117  F   UNL A   1      48.642  23.200  34.794  1.00  0.00    -0.200 F 
ATOM    118  F   UNL A   1      46.970  21.175  35.522  1.00  0.00    -0.200 F 
ENDBRANCH  85 108
ENDBRANCH  59  60
ENDBRANCH  51  54
ENDBRANCH  49  50
ENDBRANCH  48  49
ENDBRANCH  47  48
ENDBRANCH   3  47
TORSDOF 19
ENDMDL
MODEL 3
REMARK VINA RESULT:     -14.1      3.769      9.956
REMARK SMILES Cc1ccc(S(=O)(=O)n2cc(C(=O)C(=O)N[C@H](Cc3c[nH]c4ccccc34)C(=O)NCC(=O)NCCCNC(=O)c3ccc(-c4c5nc(c(-c6c(F)c(F)c(F)c(F)c6F)c6ccc([nH]6)c(-c6c(F)c(F)c(F)c(F)c6F)c6nc(c(-c7c(F)c(F)c(F)c(F)c7F)c7ccc4[nH]7)C=C6)C=C5)cc3)c3ccccc32)cc1
REMARK SMILES IDX 32 1 33 2 34 3 31 5 30 6 28 7 29 8 17 10 16 11 14 12 15 13
REMARK SMILES IDX 12 15 13 16 11 17 9 18 10 19 109 20 104 21 108 22 105 23
REMARK SMILES IDX 107 24 106 25 6 26 7 27 8 28 5 29 1 30 2 31 3 32 111 33 4 34
REMARK SMILES IDX 110 35 18 36 19 37 20 38 27 39 21 40 22 41 26 42 23 44 25 45
REMARK SMILES IDX 24 46 35 47 36 48 37 49 38 50 39 51 40 53 41 54 42 55 103 56
REMARK SMILES IDX 43 57 102 58 44 59 45 60 46 61 96 62 47 63 101 64 95 65
REMARK SMILES IDX 97 66 48 67 100 68 94 69 93 70 49 72 81 73 61 74 80 75 62 76
REMARK SMILES IDX 65 77 79 78 98 79 63 80 64 81 78 83 99 84 66 85 50 86 51 87
REMARK SMILES IDX 59 88 52 89 53 90 57 91 60 92 54 93 55 94 58 95 56 96 82 97
REMARK SMILES IDX 83 98 91 99 84 100 85 101 89 102 92 103 86 104 87 105 90 106
REMARK SMILES IDX 88 107 67 108 68 109 76 110 69 111 70 112 74 113 77 114
REMARK SMILES IDX 71 115 72 116 75 117 73 118
REMARK H PARENT 34 4 30 9 16 14 21 43 38 52 97 71 65 82
REMARK Flexibility Score: inf
ROOT
ATOM      1  C   UNL A   1      32.415  30.840  26.841  1.00  0.00     0.239 C 
ATOM      2  O   UNL A   1      31.406  31.173  26.213  1.00  0.00    -0.273 OA
ATOM      3  N   UNL A   1      33.168  31.837  27.392  1.00  0.00    -0.355 N 
ATOM      4  H   UNL A   1      32.906  32.751  27.137  1.00  0.00     0.163 HD
ENDROOT
BRANCH   1   5
ATOM      5  C   UNL A   1      32.707  29.360  27.125  1.00  0.00     0.216 C 
BRANCH   5   6
ATOM      6  N   UNL A   1      33.069  28.600  25.953  1.00  0.00    -0.345 N 
ATOM      7  C   UNL A   1      32.432  27.729  25.146  1.00  0.00     0.243 C 
ATOM      8  O   UNL A   1      33.151  27.331  24.220  1.00  0.00    -0.273 OA
ATOM      9  H   UNL A   1      34.002  28.754  25.678  1.00  0.00     0.164 HD
BRANCH   7  10
ATOM     10  C   UNL A   1      30.962  27.211  25.273  1.00  0.00     0.176 C 
BRANCH  10  11
ATOM     11  N   UNL A   1      30.640  26.016  26.139  1.00  0.00    -0.337 N 
ATOM     12  C   UNL A   1      30.571  24.637  25.957  1.00  0.00     0.293 C 
ATOM     13  O   UNL A   1      30.182  23.922  26.875  1.00  0.00    -0.265 OA
ATOM     14  H   UNL A   1      30.426  26.278  27.065  1.00  0.00     0.164 HD
BRANCH  12  15
ATOM     15  C   UNL A   1      31.015  23.998  24.645  1.00  0.00     0.252 C 
ATOM     16  O   UNL A   1      30.348  24.338  23.669  1.00  0.00    -0.283 OA
BRANCH  15  17
ATOM     17  C   UNL A   1      32.126  23.050  24.431  1.00  0.00     0.054 A 
ATOM     18  N   UNL A   1      33.626  21.425  23.938  1.00  0.00    -0.240 N 
ATOM     19  C   UNL A   1      32.244  21.718  24.022  1.00  0.00     0.117 A 
ATOM     20  C   UNL A   1      34.277  22.660  23.889  1.00  0.00     0.065 A 
ATOM     21  C   UNL A   1      33.472  23.437  24.708  1.00  0.00     0.012 A 
ATOM     22  C   UNL A   1      35.607  22.990  23.618  1.00  0.00     0.028 A 
ATOM     23  C   UNL A   1      34.079  24.385  25.543  1.00  0.00     0.011 A 
ATOM     24  C   UNL A   1      36.192  23.889  24.517  1.00  0.00     0.002 A 
ATOM     25  C   UNL A   1      35.455  24.546  25.496  1.00  0.00     0.001 A 
BRANCH  18  26
ATOM     26  S   UNL A   1      34.402  20.305  25.115  1.00  0.00     0.268 S 
ATOM     27  O   UNL A   1      34.096  20.860  26.419  1.00  0.00    -0.201 OA
ATOM     28  O   UNL A   1      35.777  20.175  24.656  1.00  0.00    -0.201 OA
BRANCH  26  29
ATOM     29  C   UNL A   1      33.785  18.649  25.068  1.00  0.00     0.088 A 
ATOM     30  C   UNL A   1      32.964  14.426  25.359  1.00  0.00     0.044 C 
ATOM     31  C   UNL A   1      33.225  15.902  25.263  1.00  0.00    -0.051 A 
ATOM     32  C   UNL A   1      34.430  16.324  24.706  1.00  0.00     0.005 A 
ATOM     33  C   UNL A   1      32.295  16.867  25.695  1.00  0.00     0.005 A 
ATOM     34  C   UNL A   1      34.707  17.682  24.617  1.00  0.00     0.022 A 
ATOM     35  C   UNL A   1      32.570  18.247  25.606  1.00  0.00     0.022 A 
ENDBRANCH  26  29
ENDBRANCH  18  26
ENDBRANCH  15  17
ENDBRANCH  12  15
ENDBRANCH  10  11
BRANCH  10  36
ATOM     36  C   UNL A   1      29.975  27.446  24.081  1.00  0.00     0.072 C 
BRANCH  36  37
ATOM     37  C   UNL A   1      30.023  28.692  23.221  1.00  0.00    -0.020 A 
ATOM     38  C   UNL A   1      30.975  28.921  22.237  1.00  0.00     0.087 A 
ATOM     39  C   UNL A   1      29.095  29.796  23.121  1.00  0.00     0.003 A 
ATOM     40  N   UNL A   1      30.670  30.084  21.579  1.00  0.00    -0.361 N 
ATOM     41  C   UNL A   1      29.606  30.699  22.185  1.00  0.00     0.046 A 
ATOM     42  C   UNL A   1      27.882  30.146  23.749  1.00  0.00     0.010 A 
ATOM     43  H   UNL A   1      31.143  30.427  20.787  1.00  0.00     0.166 HD
ATOM     44  C   UNL A   1      29.060  31.967  21.947  1.00  0.00     0.026 A 
ATOM     45  C   UNL A   1      27.303  31.403  23.509  1.00  0.00     0.001 A 
ATOM     46  C   UNL A   1      27.902  32.311  22.642  1.00  0.00     0.002 A 
ENDBRANCH  36  37
ENDBRANCH  10  36
ENDBRANCH   7  10
ENDBRANCH   5   6
ENDBRANCH   1   5
BRANCH   3  47
ATOM     47  C   UNL A   1      34.300  31.747  28.300  1.00  0.00     0.117 C 
BRANCH  47  48
ATOM     48  C   UNL A   1      35.348  32.792  27.982  1.00  0.00     0.042 C 
BRANCH  48  49
ATOM     49  C   UNL A   1      35.725  33.598  29.217  1.00  0.00     0.118 C 
BRANCH  49  50
ATOM     50  N   UNL A   1      34.591  34.365  29.720  1.00  0.00    -0.352 N 
ATOM     51  C   UNL A   1      33.974  34.435  30.960  1.00  0.00     0.251 C 
ATOM     52  H   UNL A   1      34.181  34.952  29.042  1.00  0.00     0.163 HD
ATOM     53  O   UNL A   1      32.910  35.005  31.080  1.00  0.00    -0.269 OA
BRANCH  51  54
ATOM     54  C   UNL A   1      34.765  34.031  32.153  1.00  0.00     0.039 A 
ATOM     55  C   UNL A   1      35.836  34.892  32.418  1.00  0.00     0.014 A 
ATOM     56  C   UNL A   1      34.842  32.688  32.476  1.00  0.00     0.014 A 
ATOM     57  C   UNL A   1      37.093  34.342  32.607  1.00  0.00     0.010 A 
ATOM     58  C   UNL A   1      36.107  32.133  32.513  1.00  0.00     0.010 A 
ATOM     59  C   UNL A   1      37.235  32.964  32.478  1.00  0.00    -0.014 A 
BRANCH  59  60
ATOM     60  C   UNL A   1      38.520  32.340  32.179  1.00  0.00     0.031 A 
ATOM     61  C   UNL A   1      38.546  31.089  31.394  1.00  0.00     0.074 A 
ATOM     62  C   UNL A   1      39.675  32.912  32.595  1.00  0.00     0.049 A 
ATOM     63  N   UNL A   1      39.509  30.230  31.415  1.00  0.00    -0.248 NA
ATOM     64  C   UNL A   1      37.428  30.676  30.556  1.00  0.00     0.031 C 
ATOM     65  C   UNL A   1      41.031  32.556  32.180  1.00  0.00     0.029 A 
ATOM     66  N   UNL A   1      39.865  33.821  33.656  1.00  0.00    -0.354 N 
ATOM     67  C   UNL A   1      39.263  29.300  30.431  1.00  0.00     0.074 A 
ATOM     68  C   UNL A   1      37.934  29.598  29.957  1.00  0.00     0.031 C 
ATOM     69  C   UNL A   1      41.895  32.968  33.121  1.00  0.00     0.029 A 
ATOM     70  C   UNL A   1      41.112  33.482  34.232  1.00  0.00     0.049 A 
ATOM     71  H   UNL A   1      39.256  34.543  33.939  1.00  0.00     0.167 HD
ATOM     72  C   UNL A   1      40.265  28.455  30.046  1.00  0.00     0.037 A 
ATOM     73  C   UNL A   1      41.226  33.056  35.524  1.00  0.00     0.037 A 
ATOM     74  C   UNL A   1      41.436  28.602  30.906  1.00  0.00     0.049 A 
ATOM     75  C   UNL A   1      41.829  31.681  35.665  1.00  0.00     0.074 A 
ATOM     76  C   UNL A   1      42.623  29.304  30.767  1.00  0.00     0.029 A 
ATOM     77  N   UNL A   1      41.348  28.244  32.249  1.00  0.00    -0.354 N 
ATOM     78  N   UNL A   1      41.891  30.811  34.696  1.00  0.00    -0.248 NA
ATOM     79  C   UNL A   1      42.367  31.168  36.920  1.00  0.00     0.031 C 
ATOM     80  C   UNL A   1      43.225  29.410  32.046  1.00  0.00     0.029 A 
ATOM     81  C   UNL A   1      42.416  28.758  32.960  1.00  0.00     0.049 A 
ATOM     82  H   UNL A   1      40.625  27.700  32.637  1.00  0.00     0.167 HD
ATOM     83  C   UNL A   1      42.422  29.642  35.173  1.00  0.00     0.074 A 
ATOM     84  C   UNL A   1      42.725  29.922  36.564  1.00  0.00     0.031 C 
ATOM     85  C   UNL A   1      42.548  28.530  34.390  1.00  0.00     0.037 A 
BRANCH  72  86
ATOM     86  C   UNL A   1      40.273  27.755  28.702  1.00  0.00     0.064 A 
ATOM     87  C   UNL A   1      39.715  26.468  28.553  1.00  0.00     0.173 A 
ATOM     88  C   UNL A   1      40.900  28.255  27.545  1.00  0.00     0.173 A 
ATOM     89  F   UNL A   1      38.966  25.914  29.514  1.00  0.00    -0.203 F 
ATOM     90  C   UNL A   1      39.908  25.692  27.406  1.00  0.00     0.198 A 
ATOM     91  C   UNL A   1      41.152  27.459  26.423  1.00  0.00     0.198 A 
ATOM     92  F   UNL A   1      41.233  29.547  27.439  1.00  0.00    -0.203 F 
ATOM     93  F   UNL A   1      39.364  24.469  27.331  1.00  0.00    -0.200 F 
ATOM     94  C   UNL A   1      40.670  26.169  26.361  1.00  0.00     0.200 A 
ATOM     95  F   UNL A   1      41.868  27.955  25.402  1.00  0.00    -0.200 F 
ATOM     96  F   UNL A   1      40.908  25.405  25.286  1.00  0.00    -0.200 F 
ENDBRANCH  72  86
BRANCH  73  97
ATOM     97  C   UNL A   1      40.225  33.644  36.451  1.00  0.00     0.064 A 
ATOM     98  C   UNL A   1      39.103  32.876  36.793  1.00  0.00     0.173 A 
ATOM     99  C   UNL A   1      40.529  34.726  37.277  1.00  0.00     0.173 A 
ATOM    100  F   UNL A   1      38.676  31.931  35.953  1.00  0.00    -0.203 F 
ATOM    101  C   UNL A   1      38.440  33.041  38.004  1.00  0.00     0.198 A 
ATOM    102  C   UNL A   1      39.833  34.928  38.472  1.00  0.00     0.198 A 
ATOM    103  F   UNL A   1      41.567  35.524  36.990  1.00  0.00    -0.203 F 
ATOM    104  F   UNL A   1      37.464  32.192  38.358  1.00  0.00    -0.200 F 
ATOM    105  C   UNL A   1      38.829  34.051  38.862  1.00  0.00     0.200 A 
ATOM    106  F   UNL A   1      40.197  35.921  39.294  1.00  0.00    -0.200 F 
ATOM    107  F   UNL A   1      38.253  34.172  40.065  1.00  0.00    -0.200 F 
ENDBRANCH  73  97
BRANCH  85 108
ATOM    108  C   UNL A   1      42.897  27.148  34.881  1.00  0.00     0.064 A 
ATOM    109  C   UNL A   1      41.960  26.111  35.026  1.00  0.00     0.173 A 
ATOM    110  C   UNL A   1      44.249  26.782  35.086  1.00  0.00     0.173 A 
ATOM    111  F   UNL A   1      40.664  26.301  34.741  1.00  0.00    -0.203 F 
ATOM    112  C   UNL A   1      42.337  24.823  35.413  1.00  0.00     0.198 A 
ATOM    113  C   UNL A   1      44.628  25.481  35.417  1.00  0.00     0.198 A 
ATOM    114  F   UNL A   1      45.243  27.671  34.946  1.00  0.00    -0.203 F 
ATOM    115  F   UNL A   1      41.400  23.879  35.580  1.00  0.00    -0.200 F 
ATOM    116  C   UNL A   1      43.670  24.506  35.598  1.00  0.00     0.200 A 
ATOM    117  F   UNL A   1      45.927  25.177  35.540  1.00  0.00    -0.200 F 
ATOM    118  F   UNL A   1      44.030  23.258  35.926  1.00  0.00    -0.200 F 
ENDBRANCH  85 108
ENDBRANCH  59  60
ENDBRANCH  51  54
ENDBRANCH  49  50
ENDBRANCH  48  49
ENDBRANCH  47  48
ENDBRANCH   3  47
TORSDOF 19
ENDMDL
