MODEL 1
REMARK VINA RESULT:     -12.1      0.000      0.000
REMARK SMILES O=C(NCCCNC(=O)[C@@H]1CS[C@H](c2cc(Br)ccc2O)[NH2+]1)c1ccc(-c2c3nc(c(-c4c(F)c(F)c(F)c(F)c4F)c4ccc([nH]4)c(-c4c(F)c(F)c(F)c(F)c4F)c4nc(c(-c5c(F)c(F)c(F)c(F)c5F)c5ccc2[nH]5)C=C4)C=C3)cc1
REMARK SMILES IDX 5 1 4 2 3 3 1 4 2 5 23 7 24 8 85 9 25 10 84 11 26 12 27 13
REMARK SMILES IDX 28 14 78 15 29 16 83 17 77 18 79 19 30 20 82 21 76 22 75 23
REMARK SMILES IDX 31 25 63 26 43 27 62 28 44 29 47 30 61 31 80 32 45 33 46 34
REMARK SMILES IDX 60 36 81 37 48 38 32 39 33 40 41 41 34 42 35 43 39 44 42 45
REMARK SMILES IDX 36 46 37 47 40 48 38 49 64 50 65 51 73 52 66 53 67 54 71 55
REMARK SMILES IDX 74 56 68 57 69 58 72 59 70 60 49 61 50 62 58 63 51 64 52 65
REMARK SMILES IDX 56 66 59 67 53 68 54 69 57 70 55 71 6 72 7 73 8 74 9 76
REMARK SMILES IDX 10 77 11 78 22 79 12 80 13 81 14 84 15 85 20 86 16 87 19 88
REMARK SMILES IDX 17 89 18 90 21 91
REMARK H PARENT 3 6 79 24 47 35 7 75 22 82 22 83 21 92
REMARK Flexibility Score: inf
ROOT
ATOM      1  C   UNL A   1      31.489  32.143  26.446  1.00  0.00     0.042 C 
ENDROOT
BRANCH   1   2
ATOM      2  C   UNL A   1      32.646  32.694  27.269  1.00  0.00     0.118 C 
BRANCH   2   3
ATOM      3  N   UNL A   1      32.455  34.093  27.626  1.00  0.00    -0.352 N 
ATOM      4  O   UNL A   1      32.580  35.933  28.920  1.00  0.00    -0.269 OA
ATOM      5  C   UNL A   1      33.035  34.828  28.627  1.00  0.00     0.251 C 
ATOM      6  H   UNL A   1      31.813  34.585  27.065  1.00  0.00     0.163 HD
BRANCH   5   7
ATOM      7  C   UNL A   1      34.204  34.296  29.354  1.00  0.00     0.039 A 
ATOM      8  C   UNL A   1      34.027  33.523  30.505  1.00  0.00     0.014 A 
ATOM      9  C   UNL A   1      35.487  34.523  28.849  1.00  0.00     0.014 A 
ATOM     10  C   UNL A   1      35.132  33.081  31.219  1.00  0.00     0.010 A 
ATOM     11  C   UNL A   1      36.595  33.994  29.514  1.00  0.00     0.010 A 
ATOM     12  C   UNL A   1      36.424  33.273  30.707  1.00  0.00    -0.014 A 
BRANCH  12  13
ATOM     13  C   UNL A   1      37.564  32.586  31.356  1.00  0.00     0.031 A 
ATOM     14  C   UNL A   1      38.258  31.430  30.701  1.00  0.00     0.074 A 
ATOM     15  C   UNL A   1      37.954  33.023  32.571  1.00  0.00     0.049 A 
ATOM     16  N   UNL A   1      39.241  30.697  31.159  1.00  0.00    -0.248 NA
ATOM     17  C   UNL A   1      37.788  31.035  29.364  1.00  0.00     0.031 C 
ATOM     18  C   UNL A   1      37.332  34.131  33.304  1.00  0.00     0.029 A 
ATOM     19  N   UNL A   1      38.954  32.598  33.406  1.00  0.00    -0.354 N 
ATOM     20  C   UNL A   1      39.493  29.744  30.182  1.00  0.00     0.074 A 
ATOM     21  C   UNL A   1      38.553  29.981  29.107  1.00  0.00     0.031 C 
ATOM     22  C   UNL A   1      37.975  34.310  34.465  1.00  0.00     0.029 A 
ATOM     23  C   UNL A   1      39.002  33.284  34.594  1.00  0.00     0.049 A 
ATOM     24  H   UNL A   1      39.576  31.870  33.176  1.00  0.00     0.167 HD
ATOM     25  C   UNL A   1      40.427  28.763  30.194  1.00  0.00     0.037 A 
ATOM     26  C   UNL A   1      39.758  33.084  35.688  1.00  0.00     0.037 A 
ATOM     27  C   UNL A   1      41.370  28.558  31.264  1.00  0.00     0.049 A 
ATOM     28  C   UNL A   1      40.754  31.961  35.679  1.00  0.00     0.074 A 
ATOM     29  C   UNL A   1      42.413  27.649  31.329  1.00  0.00     0.029 A 
ATOM     30  N   UNL A   1      41.375  29.257  32.462  1.00  0.00    -0.354 N 
ATOM     31  N   UNL A   1      41.040  31.118  34.717  1.00  0.00    -0.248 NA
ATOM     32  C   UNL A   1      41.529  31.753  36.909  1.00  0.00     0.031 C 
ATOM     33  C   UNL A   1      43.001  27.749  32.593  1.00  0.00     0.029 A 
ATOM     34  C   UNL A   1      42.367  28.762  33.294  1.00  0.00     0.049 A 
ATOM     35  H   UNL A   1      40.764  29.996  32.688  1.00  0.00     0.167 HD
ATOM     36  C   UNL A   1      42.030  30.288  35.219  1.00  0.00     0.074 A 
ATOM     37  C   UNL A   1      42.321  30.749  36.561  1.00  0.00     0.031 C 
ATOM     38  C   UNL A   1      42.637  29.231  34.628  1.00  0.00     0.037 A 
BRANCH  25  39
ATOM     39  C   UNL A   1      40.482  27.812  29.035  1.00  0.00     0.064 A 
ATOM     40  C   UNL A   1      39.676  26.668  28.975  1.00  0.00     0.173 A 
ATOM     41  C   UNL A   1      41.278  28.114  27.917  1.00  0.00     0.173 A 
ATOM     42  F   UNL A   1      38.903  26.330  30.019  1.00  0.00    -0.203 F 
ATOM     43  C   UNL A   1      39.665  25.859  27.841  1.00  0.00     0.198 A 
ATOM     44  C   UNL A   1      41.246  27.317  26.777  1.00  0.00     0.198 A 
ATOM     45  F   UNL A   1      42.063  29.202  27.922  1.00  0.00    -0.203 F 
ATOM     46  F   UNL A   1      38.899  24.758  27.812  1.00  0.00    -0.200 F 
ATOM     47  C   UNL A   1      40.440  26.190  26.740  1.00  0.00     0.200 A 
ATOM     48  F   UNL A   1      41.985  27.648  25.708  1.00  0.00    -0.200 F 
ATOM     49  F   UNL A   1      40.409  25.422  25.641  1.00  0.00    -0.200 F 
ENDBRANCH  25  39
BRANCH  26  50
ATOM     50  C   UNL A   1      39.559  33.926  36.897  1.00  0.00     0.064 A 
ATOM     51  C   UNL A   1      38.772  33.485  37.968  1.00  0.00     0.173 A 
ATOM     52  C   UNL A   1      40.137  35.202  36.995  1.00  0.00     0.173 A 
ATOM     53  F   UNL A   1      38.184  32.281  37.916  1.00  0.00    -0.203 F 
ATOM     54  C   UNL A   1      38.544  34.301  39.075  1.00  0.00     0.198 A 
ATOM     55  C   UNL A   1      39.940  36.000  38.118  1.00  0.00     0.198 A 
ATOM     56  F   UNL A   1      40.905  35.671  35.999  1.00  0.00    -0.203 F 
ATOM     57  F   UNL A   1      37.736  33.879  40.058  1.00  0.00    -0.200 F 
ATOM     58  C   UNL A   1      39.132  35.554  39.151  1.00  0.00     0.200 A 
ATOM     59  F   UNL A   1      40.526  37.202  38.194  1.00  0.00    -0.200 F 
ATOM     60  F   UNL A   1      38.910  36.338  40.216  1.00  0.00    -0.200 F 
ENDBRANCH  26  50
BRANCH  38  61
ATOM     61  C   UNL A   1      43.678  28.507  35.428  1.00  0.00     0.064 A 
ATOM     62  C   UNL A   1      45.036  28.849  35.340  1.00  0.00     0.173 A 
ATOM     63  C   UNL A   1      43.312  27.489  36.321  1.00  0.00     0.173 A 
ATOM     64  F   UNL A   1      45.437  29.802  34.485  1.00  0.00    -0.203 F 
ATOM     65  C   UNL A   1      45.991  28.186  36.105  1.00  0.00     0.198 A 
ATOM     66  C   UNL A   1      44.266  26.851  37.108  1.00  0.00     0.198 A 
ATOM     67  F   UNL A   1      42.026  27.126  36.444  1.00  0.00    -0.203 F 
ATOM     68  F   UNL A   1      47.287  28.499  35.971  1.00  0.00    -0.200 F 
ATOM     69  C   UNL A   1      45.604  27.195  36.994  1.00  0.00     0.200 A 
ATOM     70  F   UNL A   1      43.889  25.904  37.979  1.00  0.00    -0.200 F 
ATOM     71  F   UNL A   1      46.524  26.567  37.740  1.00  0.00    -0.200 F 
ENDBRANCH  38  61
ENDBRANCH  12  13
ENDBRANCH   5   7
ENDBRANCH   2   3
ENDBRANCH   1   2
BRANCH   1  72
ATOM     72  C   UNL A   1      31.430  30.623  26.428  1.00  0.00     0.118 C 
BRANCH  72  73
ATOM     73  N   UNL A   1      31.966  30.088  25.197  1.00  0.00    -0.351 N 
ATOM     74  C   UNL A   1      31.640  28.960  24.516  1.00  0.00     0.279 C 
ATOM     75  H   UNL A   1      32.681  30.627  24.787  1.00  0.00     0.163 HD
ATOM     76  O   UNL A   1      32.284  28.723  23.492  1.00  0.00    -0.268 OA
BRANCH  74  77
ATOM     77  C   UNL A   1      30.508  28.048  25.007  1.00  0.00     0.283 C 
ATOM     78  C   UNL A   1      31.026  27.088  26.070  1.00  0.00     0.151 C 
ATOM     79  N   UNL A   1      29.912  27.341  23.834  1.00  0.00    -0.320 N 
ATOM     80  S   UNL A   1      30.099  25.585  25.748  1.00  0.00    -0.087 SA
ATOM     81  C   UNL A   1      30.114  25.888  23.952  1.00  0.00     0.278 C 
ATOM     82  H   UNL A   1      30.358  27.674  22.979  1.00  0.00     0.348 HD
ATOM     83  H   UNL A   1      28.911  27.533  23.807  1.00  0.00     0.348 HD
BRANCH  81  84
ATOM     84  C   UNL A   1      31.346  25.343  23.232  1.00  0.00     0.063 A 
ATOM     85  C   UNL A   1      32.027  24.222  23.758  1.00  0.00     0.030 A 
ATOM     86  C   UNL A   1      31.789  25.800  21.979  1.00  0.00     0.125 A 
ATOM     87  C   UNL A   1      33.139  23.672  23.112  1.00  0.00     0.018 A 
ATOM     88  C   UNL A   1      32.902  25.255  21.333  1.00  0.00     0.048 A 
ATOM     89  Br  UNL A   1      34.023  22.184  23.873  1.00  0.00    -0.051 Br
ATOM     90  C   UNL A   1      33.594  24.199  21.910  1.00  0.00     0.019 A 
BRANCH  86  91
ATOM     91  O   UNL A   1      31.167  26.803  21.293  1.00  0.00    -0.507 OA
ATOM     92  H   UNL A   1      30.447  27.260  21.681  1.00  0.00     0.293 HD
ENDBRANCH  86  91
ENDBRANCH  81  84
ENDBRANCH  74  77
ENDBRANCH  72  73
ENDBRANCH   1  72
TORSDOF 12
ENDMDL
MODEL 2
REMARK VINA RESULT:     -12.1      1.784      2.596
REMARK SMILES O=C(NCCCNC(=O)[C@@H]1CS[C@H](c2cc(Br)ccc2O)[NH2+]1)c1ccc(-c2c3nc(c(-c4c(F)c(F)c(F)c(F)c4F)c4ccc([nH]4)c(-c4c(F)c(F)c(F)c(F)c4F)c4nc(c(-c5c(F)c(F)c(F)c(F)c5F)c5ccc2[nH]5)C=C4)C=C3)cc1
REMARK SMILES IDX 5 1 4 2 3 3 1 4 2 5 23 7 24 8 85 9 25 10 84 11 26 12 27 13
REMARK SMILES IDX 28 14 78 15 29 16 83 17 77 18 79 19 30 20 82 21 76 22 75 23
REMARK SMILES IDX 31 25 63 26 43 27 62 28 44 29 47 30 61 31 80 32 45 33 46 34
REMARK SMILES IDX 60 36 81 37 48 38 32 39 33 40 41 41 34 42 35 43 39 44 42 45
REMARK SMILES IDX 36 46 37 47 40 48 38 49 64 50 65 51 73 52 66 53 67 54 71 55
REMARK SMILES IDX 74 56 68 57 69 58 72 59 70 60 49 61 50 62 58 63 51 64 52 65
REMARK SMILES IDX 56 66 59 67 53 68 54 69 57 70 55 71 6 72 7 73 8 74 9 76
REMARK SMILES IDX 10 77 11 78 22 79 12 80 13 81 14 84 15 85 20 86 16 87 19 88
REMARK SMILES IDX 17 89 18 90 21 91
REMARK H PARENT 3 6 79 24 47 35 7 75 22 82 22 83 21 92
REMARK Flexibility Score: inf
ROOT
ATOM      1  C   UNL A   1      31.403  31.935  26.501  1.00  0.00     0.042 C 
ENDROOT
BRANCH   1   2
ATOM      2  C   UNL A   1      32.600  32.506  27.251  1.00  0.00     0.118 C 
BRANCH   2   3
ATOM      3  N   UNL A   1      32.436  33.920  27.561  1.00  0.00    -0.352 N 
ATOM      4  O   UNL A   1      32.606  35.801  28.788  1.00  0.00    -0.269 OA
ATOM      5  C   UNL A   1      33.039  34.680  28.529  1.00  0.00     0.251 C 
ATOM      6  H   UNL A   1      31.796  34.403  26.990  1.00  0.00     0.163 HD
BRANCH   5   7
ATOM      7  C   UNL A   1      34.207  34.153  29.262  1.00  0.00     0.039 A 
ATOM      8  C   UNL A   1      34.028  33.355  30.395  1.00  0.00     0.014 A 
ATOM      9  C   UNL A   1      35.493  34.412  28.780  1.00  0.00     0.014 A 
ATOM     10  C   UNL A   1      35.130  32.918  31.116  1.00  0.00     0.010 A 
ATOM     11  C   UNL A   1      36.600  33.889  29.450  1.00  0.00     0.010 A 
ATOM     12  C   UNL A   1      36.425  33.142  30.626  1.00  0.00    -0.014 A 
BRANCH  12  13
ATOM     13  C   UNL A   1      37.569  32.461  31.277  1.00  0.00     0.031 A 
ATOM     14  C   UNL A   1      38.265  31.304  30.627  1.00  0.00     0.074 A 
ATOM     15  C   UNL A   1      37.958  32.907  32.489  1.00  0.00     0.049 A 
ATOM     16  N   UNL A   1      39.251  30.577  31.089  1.00  0.00    -0.248 NA
ATOM     17  C   UNL A   1      37.795  30.901  29.293  1.00  0.00     0.031 C 
ATOM     18  C   UNL A   1      37.334  34.016  33.217  1.00  0.00     0.029 A 
ATOM     19  N   UNL A   1      38.961  32.489  33.326  1.00  0.00    -0.354 N 
ATOM     20  C   UNL A   1      39.505  29.619  30.117  1.00  0.00     0.074 A 
ATOM     21  C   UNL A   1      38.563  29.848  29.041  1.00  0.00     0.031 C 
ATOM     22  C   UNL A   1      37.977  34.203  34.377  1.00  0.00     0.029 A 
ATOM     23  C   UNL A   1      39.008  33.182  34.510  1.00  0.00     0.049 A 
ATOM     24  H   UNL A   1      39.585  31.762  33.099  1.00  0.00     0.167 HD
ATOM     25  C   UNL A   1      40.442  28.642  30.133  1.00  0.00     0.037 A 
ATOM     26  C   UNL A   1      39.765  32.989  35.605  1.00  0.00     0.037 A 
ATOM     27  C   UNL A   1      41.387  28.445  31.203  1.00  0.00     0.049 A 
ATOM     28  C   UNL A   1      40.765  31.869  35.601  1.00  0.00     0.074 A 
ATOM     29  C   UNL A   1      42.432  27.539  31.272  1.00  0.00     0.029 A 
ATOM     30  N   UNL A   1      41.390  29.150  32.397  1.00  0.00    -0.354 N 
ATOM     31  N   UNL A   1      41.052  31.022  34.643  1.00  0.00    -0.248 NA
ATOM     32  C   UNL A   1      41.541  31.670  36.831  1.00  0.00     0.031 C 
ATOM     33  C   UNL A   1      43.021  27.648  32.535  1.00  0.00     0.029 A 
ATOM     34  C   UNL A   1      42.385  28.662  33.231  1.00  0.00     0.049 A 
ATOM     35  H   UNL A   1      40.778  29.888  32.620  1.00  0.00     0.167 HD
ATOM     36  C   UNL A   1      42.045  30.198  35.149  1.00  0.00     0.074 A 
ATOM     37  C   UNL A   1      42.336  30.667  36.487  1.00  0.00     0.031 C 
ATOM     38  C   UNL A   1      42.655  29.139  34.562  1.00  0.00     0.037 A 
BRANCH  25  39
ATOM     39  C   UNL A   1      40.499  27.685  28.979  1.00  0.00     0.064 A 
ATOM     40  C   UNL A   1      39.685  26.545  28.919  1.00  0.00     0.173 A 
ATOM     41  C   UNL A   1      41.304  27.975  27.865  1.00  0.00     0.173 A 
ATOM     42  F   UNL A   1      38.903  26.218  29.959  1.00  0.00    -0.203 F 
ATOM     43  C   UNL A   1      39.677  25.730  27.789  1.00  0.00     0.198 A 
ATOM     44  C   UNL A   1      41.275  27.173  26.729  1.00  0.00     0.198 A 
ATOM     45  F   UNL A   1      42.096  29.058  27.870  1.00  0.00    -0.203 F 
ATOM     46  F   UNL A   1      38.904  24.635  27.760  1.00  0.00    -0.200 F 
ATOM     47  C   UNL A   1      40.462  26.051  26.691  1.00  0.00     0.200 A 
ATOM     48  F   UNL A   1      42.023  27.495  25.664  1.00  0.00    -0.200 F 
ATOM     49  F   UNL A   1      40.433  25.279  25.596  1.00  0.00    -0.200 F 
ENDBRANCH  25  39
BRANCH  26  50
ATOM     50  C   UNL A   1      39.565  33.837  36.809  1.00  0.00     0.064 A 
ATOM     51  C   UNL A   1      38.757  33.412  37.871  1.00  0.00     0.173 A 
ATOM     52  C   UNL A   1      40.163  35.104  36.912  1.00  0.00     0.173 A 
ATOM     53  F   UNL A   1      38.150  32.218  37.814  1.00  0.00    -0.203 F 
ATOM     54  C   UNL A   1      38.529  34.234  38.974  1.00  0.00     0.198 A 
ATOM     55  C   UNL A   1      39.965  35.907  38.031  1.00  0.00     0.198 A 
ATOM     56  F   UNL A   1      40.951  35.557  35.925  1.00  0.00    -0.203 F 
ATOM     57  F   UNL A   1      37.701  33.828  39.946  1.00  0.00    -0.200 F 
ATOM     58  C   UNL A   1      39.136  35.477  39.054  1.00  0.00     0.200 A 
ATOM     59  F   UNL A   1      40.570  37.099  38.113  1.00  0.00    -0.200 F 
ATOM     60  F   UNL A   1      38.914  36.267  40.115  1.00  0.00    -0.200 F 
ENDBRANCH  26  50
BRANCH  38  61
ATOM     61  C   UNL A   1      43.699  28.423  35.365  1.00  0.00     0.064 A 
ATOM     62  C   UNL A   1      43.360  27.378  36.237  1.00  0.00     0.173 A 
ATOM     63  C   UNL A   1      45.056  28.754  35.229  1.00  0.00     0.173 A 
ATOM     64  F   UNL A   1      42.074  27.039  36.416  1.00  0.00    -0.203 F 
ATOM     65  C   UNL A   1      44.340  26.704  36.959  1.00  0.00     0.198 A 
ATOM     66  C   UNL A   1      46.035  28.055  35.928  1.00  0.00     0.198 A 
ATOM     67  F   UNL A   1      45.432  29.744  34.405  1.00  0.00    -0.203 F 
ATOM     68  F   UNL A   1      43.989  25.740  37.821  1.00  0.00    -0.200 F 
ATOM     69  C   UNL A   1      45.677  27.036  36.797  1.00  0.00     0.200 A 
ATOM     70  F   UNL A   1      47.328  28.368  35.758  1.00  0.00    -0.200 F 
ATOM     71  F   UNL A   1      46.620  26.376  37.483  1.00  0.00    -0.200 F 
ENDBRANCH  38  61
ENDBRANCH  12  13
ENDBRANCH   5   7
ENDBRANCH   2   3
ENDBRANCH   1   2
BRANCH   1  72
ATOM     72  C   UNL A   1      31.686  30.592  25.846  1.00  0.00     0.118 C 
BRANCH  72  73
ATOM     73  N   UNL A   1      31.403  29.496  26.745  1.00  0.00    -0.351 N 
ATOM     74  C   UNL A   1      31.578  28.160  26.582  1.00  0.00     0.279 C 
ATOM     75  H   UNL A   1      31.023  29.761  27.614  1.00  0.00     0.163 HD
ATOM     76  O   UNL A   1      31.220  27.434  27.511  1.00  0.00    -0.268 OA
BRANCH  74  77
ATOM     77  C   UNL A   1      32.210  27.605  25.298  1.00  0.00     0.283 C 
ATOM     78  C   UNL A   1      32.684  28.744  24.406  1.00  0.00     0.151 C 
ATOM     79  N   UNL A   1      31.220  26.715  24.617  1.00  0.00    -0.320 N 
ATOM     80  S   UNL A   1      32.361  28.130  22.751  1.00  0.00    -0.087 SA
ATOM     81  C   UNL A   1      30.856  27.264  23.301  1.00  0.00     0.278 C 
ATOM     82  H   UNL A   1      30.383  26.641  25.194  1.00  0.00     0.348 HD
ATOM     83  H   UNL A   1      31.640  25.795  24.486  1.00  0.00     0.348 HD
BRANCH  81  84
ATOM     84  C   UNL A   1      29.593  28.124  23.284  1.00  0.00     0.063 A 
ATOM     85  C   UNL A   1      29.665  29.466  22.848  1.00  0.00     0.030 A 
ATOM     86  C   UNL A   1      28.304  27.631  23.548  1.00  0.00     0.125 A 
ATOM     87  C   UNL A   1      28.527  30.277  22.784  1.00  0.00     0.018 A 
ATOM     88  C   UNL A   1      27.166  28.440  23.491  1.00  0.00     0.048 A 
ATOM     89  Br  UNL A   1      28.688  32.072  22.211  1.00  0.00    -0.051 Br
ATOM     90  C   UNL A   1      27.278  29.775  23.126  1.00  0.00     0.019 A 
BRANCH  86  91
ATOM     91  O   UNL A   1      28.060  26.328  23.876  1.00  0.00    -0.507 OA
ATOM     92  H   UNL A   1      28.693  25.842  24.368  1.00  0.00     0.293 HD
ENDBRANCH  86  91
ENDBRANCH  81  84
ENDBRANCH  74  77
ENDBRANCH  72  73
ENDBRANCH   1  72
TORSDOF 12
ENDMDL
MODEL 3
REMARK VINA RESULT:     -12.1      6.203     11.478
REMARK SMILES O=C(NCCCNC(=O)[C@@H]1CS[C@H](c2cc(Br)ccc2O)[NH2+]1)c1ccc(-c2c3nc(c(-c4c(F)c(F)c(F)c(F)c4F)c4ccc([nH]4)c(-c4c(F)c(F)c(F)c(F)c4F)c4nc(c(-c5c(F)c(F)c(F)c(F)c5F)c5ccc2[nH]5)C=C4)C=C3)cc1
REMARK SMILES IDX 5 1 4 2 3 3 1 4 2 5 23 7 24 8 85 9 25 10 84 11 26 12 27 13
REMARK SMILES IDX 28 14 78 15 29 16 83 17 77 18 79 19 30 20 82 21 76 22 75 23
REMARK SMILES IDX 31 25 63 26 43 27 62 28 44 29 47 30 61 31 80 32 45 33 46 34
REMARK SMILES IDX 60 36 81 37 48 38 32 39 33 40 41 41 34 42 35 43 39 44 42 45
REMARK SMILES IDX 36 46 37 47 40 48 38 49 64 50 65 51 73 52 66 53 67 54 71 55
REMARK SMILES IDX 74 56 68 57 69 58 72 59 70 60 49 61 50 62 58 63 51 64 52 65
REMARK SMILES IDX 56 66 59 67 53 68 54 69 57 70 55 71 6 72 7 73 8 74 9 76
REMARK SMILES IDX 10 77 11 78 22 79 12 80 13 81 14 84 15 85 20 86 16 87 19 88
REMARK SMILES IDX 17 89 18 90 21 91
REMARK H PARENT 3 6 79 24 47 35 7 75 22 82 22 83 21 92
REMARK Flexibility Score: inf
ROOT
ATOM      1  C   UNL A   1      38.055  19.852  25.176  1.00  0.00     0.042 C 
ENDROOT
BRANCH   1   2
ATOM      2  C   UNL A   1      39.190  20.209  26.127  1.00  0.00     0.118 C 
BRANCH   2   3
ATOM      3  N   UNL A   1      40.261  19.221  26.109  1.00  0.00    -0.352 N 
ATOM      4  O   UNL A   1      42.365  18.457  25.860  1.00  0.00    -0.269 OA
ATOM      5  C   UNL A   1      41.619  19.403  26.109  1.00  0.00     0.251 C 
ATOM      6  H   UNL A   1      39.965  18.283  26.094  1.00  0.00     0.163 HD
BRANCH   5   7
ATOM      7  C   UNL A   1      42.188  20.732  26.407  1.00  0.00     0.039 A 
ATOM      8  C   UNL A   1      42.434  21.642  25.375  1.00  0.00     0.014 A 
ATOM      9  C   UNL A   1      42.427  21.094  27.736  1.00  0.00     0.014 A 
ATOM     10  C   UNL A   1      43.028  22.864  25.656  1.00  0.00     0.010 A 
ATOM     11  C   UNL A   1      42.934  22.362  28.026  1.00  0.00     0.010 A 
ATOM     12  C   UNL A   1      43.242  23.253  26.986  1.00  0.00    -0.014 A 
BRANCH  12  13
ATOM     13  C   UNL A   1      43.649  24.649  27.270  1.00  0.00     0.031 A 
ATOM     14  C   UNL A   1      42.668  25.664  27.774  1.00  0.00     0.074 A 
ATOM     15  C   UNL A   1      44.935  24.987  27.046  1.00  0.00     0.049 A 
ATOM     16  N   UNL A   1      42.860  26.934  28.028  1.00  0.00    -0.248 NA
ATOM     17  C   UNL A   1      41.292  25.204  28.018  1.00  0.00     0.031 C 
ATOM     18  C   UNL A   1      45.967  24.078  26.538  1.00  0.00     0.029 A 
ATOM     19  N   UNL A   1      45.598  26.176  27.208  1.00  0.00    -0.354 N 
ATOM     20  C   UNL A   1      41.630  27.430  28.439  1.00  0.00     0.074 A 
ATOM     21  C   UNL A   1      40.693  26.328  28.392  1.00  0.00     0.031 C 
ATOM     22  C   UNL A   1      47.132  24.733  26.450  1.00  0.00     0.029 A 
ATOM     23  C   UNL A   1      46.914  26.125  26.821  1.00  0.00     0.049 A 
ATOM     24  H   UNL A   1      45.171  26.988  27.567  1.00  0.00     0.167 HD
ATOM     25  C   UNL A   1      41.324  28.693  28.818  1.00  0.00     0.037 A 
ATOM     26  C   UNL A   1      47.836  27.101  26.729  1.00  0.00     0.037 A 
ATOM     27  C   UNL A   1      42.278  29.772  28.881  1.00  0.00     0.049 A 
ATOM     28  C   UNL A   1      47.448  28.497  27.120  1.00  0.00     0.074 A 
ATOM     29  C   UNL A   1      42.086  31.065  29.338  1.00  0.00     0.029 A 
ATOM     30  N   UNL A   1      43.597  29.690  28.459  1.00  0.00    -0.354 N 
ATOM     31  N   UNL A   1      46.304  28.937  27.585  1.00  0.00    -0.248 NA
ATOM     32  C   UNL A   1      48.473  29.537  26.965  1.00  0.00     0.031 C 
ATOM     33  C   UNL A   1      43.266  31.783  29.125  1.00  0.00     0.029 A 
ATOM     34  C   UNL A   1      44.214  30.924  28.594  1.00  0.00     0.049 A 
ATOM     35  H   UNL A   1      44.031  28.875  28.116  1.00  0.00     0.167 HD
ATOM     36  C   UNL A   1      46.473  30.297  27.787  1.00  0.00     0.074 A 
ATOM     37  C   UNL A   1      47.841  30.607  27.425  1.00  0.00     0.031 C 
ATOM     38  C   UNL A   1      45.575  31.213  28.223  1.00  0.00     0.037 A 
BRANCH  25  39
ATOM     39  C   UNL A   1      39.903  29.009  29.180  1.00  0.00     0.064 A 
ATOM     40  C   UNL A   1      38.951  29.357  28.212  1.00  0.00     0.173 A 
ATOM     41  C   UNL A   1      39.465  28.852  30.505  1.00  0.00     0.173 A 
ATOM     42  F   UNL A   1      39.319  29.527  26.933  1.00  0.00    -0.203 F 
ATOM     43  C   UNL A   1      37.614  29.539  28.558  1.00  0.00     0.198 A 
ATOM     44  C   UNL A   1      38.125  29.011  30.842  1.00  0.00     0.198 A 
ATOM     45  F   UNL A   1      40.336  28.513  31.468  1.00  0.00    -0.203 F 
ATOM     46  F   UNL A   1      36.722  29.890  27.619  1.00  0.00    -0.200 F 
ATOM     47  C   UNL A   1      37.199  29.354  29.868  1.00  0.00     0.200 A 
ATOM     48  F   UNL A   1      37.725  28.816  32.107  1.00  0.00    -0.200 F 
ATOM     49  F   UNL A   1      35.908  29.507  30.193  1.00  0.00    -0.200 F 
ENDBRANCH  25  39
BRANCH  26  50
ATOM     50  C   UNL A   1      49.189  26.800  26.194  1.00  0.00     0.064 A 
ATOM     51  C   UNL A   1      49.487  26.963  24.835  1.00  0.00     0.173 A 
ATOM     52  C   UNL A   1      50.210  26.320  27.031  1.00  0.00     0.173 A 
ATOM     53  F   UNL A   1      48.541  27.402  23.991  1.00  0.00    -0.203 F 
ATOM     54  C   UNL A   1      50.741  26.627  24.328  1.00  0.00     0.198 A 
ATOM     55  C   UNL A   1      51.474  26.022  26.530  1.00  0.00     0.198 A 
ATOM     56  F   UNL A   1      49.981  26.151  28.342  1.00  0.00    -0.203 F 
ATOM     57  F   UNL A   1      50.978  26.733  23.014  1.00  0.00    -0.200 F 
ATOM     58  C   UNL A   1      51.734  26.162  25.176  1.00  0.00     0.200 A 
ATOM     59  F   UNL A   1      52.436  25.592  27.358  1.00  0.00    -0.200 F 
ATOM     60  F   UNL A   1      52.940  25.839  24.687  1.00  0.00    -0.200 F 
ENDBRANCH  26  50
BRANCH  38  61
ATOM     61  C   UNL A   1      46.045  32.632  28.336  1.00  0.00     0.064 A 
ATOM     62  C   UNL A   1      46.663  33.106  29.503  1.00  0.00     0.173 A 
ATOM     63  C   UNL A   1      45.916  33.515  27.253  1.00  0.00     0.173 A 
ATOM     64  F   UNL A   1      46.790  32.305  30.572  1.00  0.00    -0.203 F 
ATOM     65  C   UNL A   1      47.117  34.418  29.588  1.00  0.00     0.198 A 
ATOM     66  C   UNL A   1      46.402  34.817  27.331  1.00  0.00     0.198 A 
ATOM     67  F   UNL A   1      45.335  33.109  26.114  1.00  0.00    -0.203 F 
ATOM     68  F   UNL A   1      47.662  34.863  30.729  1.00  0.00    -0.200 F 
ATOM     69  C   UNL A   1      46.995  35.269  28.500  1.00  0.00     0.200 A 
ATOM     70  F   UNL A   1      46.296  35.633  26.273  1.00  0.00    -0.200 F 
ATOM     71  F   UNL A   1      47.445  36.529  28.579  1.00  0.00    -0.200 F 
ENDBRANCH  38  61
ENDBRANCH  12  13
ENDBRANCH   5   7
ENDBRANCH   2   3
ENDBRANCH   1   2
BRANCH   1  72
ATOM     72  C   UNL A   1      37.261  21.060  24.702  1.00  0.00     0.118 C 
BRANCH  72  73
ATOM     73  N   UNL A   1      36.139  21.328  25.573  1.00  0.00    -0.351 N 
ATOM     74  C   UNL A   1      34.842  21.597  25.275  1.00  0.00     0.279 C 
ATOM     75  H   UNL A   1      36.348  21.313  26.535  1.00  0.00     0.163 HD
ATOM     76  O   UNL A   1      34.088  21.818  26.224  1.00  0.00    -0.268 OA
BRANCH  74  77
ATOM     77  C   UNL A   1      34.359  21.601  23.818  1.00  0.00     0.283 C 
ATOM     78  C   UNL A   1      34.631  22.955  23.175  1.00  0.00     0.151 C 
ATOM     79  N   UNL A   1      32.912  21.230  23.787  1.00  0.00    -0.320 N 
ATOM     80  S   UNL A   1      33.218  23.183  22.092  1.00  0.00    -0.087 SA
ATOM     81  C   UNL A   1      32.106  22.345  23.266  1.00  0.00     0.278 C 
ATOM     82  H   UNL A   1      32.603  21.004  24.733  1.00  0.00     0.348 HD
ATOM     83  H   UNL A   1      32.792  20.422  23.176  1.00  0.00     0.348 HD
BRANCH  81  84
ATOM     84  C   UNL A   1      31.504  23.264  24.328  1.00  0.00     0.063 A 
ATOM     85  C   UNL A   1      31.311  24.634  24.042  1.00  0.00     0.030 A 
ATOM     86  C   UNL A   1      30.990  22.812  25.556  1.00  0.00     0.125 A 
ATOM     87  C   UNL A   1      30.732  25.502  24.974  1.00  0.00     0.018 A 
ATOM     88  C   UNL A   1      30.417  23.678  26.491  1.00  0.00     0.048 A 
ATOM     89  Br  UNL A   1      30.516  27.330  24.543  1.00  0.00    -0.051 Br
ATOM     90  C   UNL A   1      30.304  25.032  26.209  1.00  0.00     0.019 A 
BRANCH  86  91
ATOM     91  O   UNL A   1      31.005  21.499  25.929  1.00  0.00    -0.507 OA
ATOM     92  H   UNL A   1      30.869  21.266  26.827  1.00  0.00     0.293 HD
ENDBRANCH  86  91
ENDBRANCH  81  84
ENDBRANCH  74  77
ENDBRANCH  72  73
ENDBRANCH   1  72
TORSDOF 12
ENDMDL
