MODEL 1
REMARK VINA RESULT:     -11.0      0.000      0.000
REMARK SMILES O=C(Cc1ccc(-c2ccc(Cl)cc2)cc1)NCCCNC(=O)c1ccc(-c2c3nc(c(-c4c(F)c(F)c(F)c(F)c4F)c4ccc([nH]4)c(-c4c(F)c(F)c(F)c(F)c4F)c4nc(c(-c5c(F)c(F)c(F)c(F)c5F)c5ccc2[nH]5)C=C4)C=C3)cc1
REMARK SMILES IDX 19 1 18 2 17 3 1 4 2 5 3 7 4 8 5 9 16 10 6 11 15 12 7 13
REMARK SMILES IDX 8 14 9 15 14 16 10 17 13 18 11 19 12 20 20 21 21 22 22 23
REMARK SMILES IDX 23 25 24 26 25 27 86 28 26 29 85 30 27 31 28 32 29 33 79 34
REMARK SMILES IDX 30 35 84 36 78 37 80 38 31 39 83 40 77 41 76 42 32 44 64 45
REMARK SMILES IDX 44 46 63 47 45 48 48 49 62 50 81 51 46 52 47 53 61 55 82 56
REMARK SMILES IDX 49 57 33 58 34 59 42 60 35 61 36 62 40 63 43 64 37 65 38 66
REMARK SMILES IDX 41 67 39 68 65 69 66 70 74 71 67 72 68 73 72 74 75 75 69 76
REMARK SMILES IDX 70 77 73 78 71 79 50 80 51 81 59 82 52 83 53 84 57 85 60 86
REMARK SMILES IDX 54 87 55 88 58 89 56 90
REMARK H PARENT 17 6 21 24 80 43 48 54
REMARK Flexibility Score: inf
ROOT
ATOM      1  C   UNL A   1      34.768  34.456  27.952  1.00  0.00     0.042 C 
ENDROOT
BRANCH   1   2
ATOM      2  C   UNL A   1      33.937  35.452  28.749  1.00  0.00     0.117 C 
BRANCH   2   3
ATOM      3  N   UNL A   1      34.050  35.267  30.182  1.00  0.00    -0.356 N 
ATOM      4  O   UNL A   1      32.499  36.873  30.736  1.00  0.00    -0.275 OA
ATOM      5  C   UNL A   1      33.222  35.938  31.064  1.00  0.00     0.224 C 
ATOM      6  H   UNL A   1      34.730  34.650  30.536  1.00  0.00     0.163 HD
BRANCH   5   7
ATOM      7  C   UNL A   1      33.239  35.362  32.472  1.00  0.00     0.135 C 
BRANCH   7   8
ATOM      8  C   UNL A   1      34.409  34.431  32.717  1.00  0.00    -0.039 A 
ATOM      9  C   UNL A   1      34.360  33.079  32.353  1.00  0.00     0.005 A 
ATOM     10  C   UNL A   1      35.592  34.923  33.282  1.00  0.00     0.005 A 
ATOM     11  C   UNL A   1      35.445  32.234  32.586  1.00  0.00     0.009 A 
ATOM     12  C   UNL A   1      36.682  34.072  33.511  1.00  0.00     0.009 A 
ATOM     13  C   UNL A   1      36.622  32.712  33.173  1.00  0.00    -0.018 A 
BRANCH  13  14
ATOM     14  C   UNL A   1      37.737  31.791  33.436  1.00  0.00    -0.018 A 
ATOM     15  C   UNL A   1      38.938  32.257  34.001  1.00  0.00     0.010 A 
ATOM     16  C   UNL A   1      37.655  30.436  33.077  1.00  0.00     0.010 A 
ATOM     17  C   UNL A   1      40.027  31.402  34.185  1.00  0.00     0.021 A 
ATOM     18  C   UNL A   1      38.744  29.578  33.260  1.00  0.00     0.021 A 
ATOM     19  C   UNL A   1      39.927  30.066  33.809  1.00  0.00     0.041 A 
ATOM     20  Cl  UNL A   1      41.275  29.017  34.012  1.00  0.00    -0.084 Cl
ENDBRANCH  13  14
ENDBRANCH   7   8
ENDBRANCH   5   7
ENDBRANCH   2   3
ENDBRANCH   1   2
BRANCH   1  21
ATOM     21  C   UNL A   1      34.983  33.103  28.626  1.00  0.00     0.118 C 
BRANCH  21  22
ATOM     22  N   UNL A   1      34.060  32.068  28.182  1.00  0.00    -0.352 N 
ATOM     23  C   UNL A   1      34.295  30.731  27.953  1.00  0.00     0.251 C 
ATOM     24  H   UNL A   1      33.135  32.367  28.024  1.00  0.00     0.163 HD
ATOM     25  O   UNL A   1      33.409  30.017  27.493  1.00  0.00    -0.269 OA
BRANCH  23  26
ATOM     26  C   UNL A   1      35.634  30.160  28.217  1.00  0.00     0.039 A 
ATOM     27  C   UNL A   1      36.576  30.148  27.184  1.00  0.00     0.014 A 
ATOM     28  C   UNL A   1      35.975  29.673  29.482  1.00  0.00     0.014 A 
ATOM     29  C   UNL A   1      37.887  29.743  27.446  1.00  0.00     0.010 A 
ATOM     30  C   UNL A   1      37.298  29.334  29.758  1.00  0.00     0.010 A 
ATOM     31  C   UNL A   1      38.272  29.385  28.748  1.00  0.00    -0.014 A 
BRANCH  31  32
ATOM     32  C   UNL A   1      39.692  29.106  29.086  1.00  0.00     0.031 A 
ATOM     33  C   UNL A   1      40.521  30.137  29.797  1.00  0.00     0.074 A 
ATOM     34  C   UNL A   1      40.261  27.957  28.672  1.00  0.00     0.049 A 
ATOM     35  N   UNL A   1      41.800  30.121  30.079  1.00  0.00    -0.248 NA
ATOM     36  C   UNL A   1      39.826  31.359  30.228  1.00  0.00     0.031 C 
ATOM     37  C   UNL A   1      39.577  26.894  27.933  1.00  0.00     0.029 A 
ATOM     38  N   UNL A   1      41.549  27.498  28.795  1.00  0.00    -0.354 N 
ATOM     39  C   UNL A   1      42.065  31.331  30.704  1.00  0.00     0.074 A 
ATOM     40  C   UNL A   1      40.824  32.077  30.722  1.00  0.00     0.031 C 
ATOM     41  C   UNL A   1      40.447  25.903  27.680  1.00  0.00     0.029 A 
ATOM     42  C   UNL A   1      41.758  26.277  28.202  1.00  0.00     0.049 A 
ATOM     43  H   UNL A   1      42.256  27.997  29.263  1.00  0.00     0.167 HD
ATOM     44  C   UNL A   1      43.232  31.772  31.230  1.00  0.00     0.037 A 
ATOM     45  C   UNL A   1      42.882  25.547  28.077  1.00  0.00     0.037 A 
ATOM     46  C   UNL A   1      44.459  31.019  31.234  1.00  0.00     0.049 A 
ATOM     47  C   UNL A   1      44.169  26.067  28.657  1.00  0.00     0.074 A 
ATOM     48  C   UNL A   1      45.675  31.354  31.807  1.00  0.00     0.029 A 
ATOM     49  N   UNL A   1      44.629  29.780  30.634  1.00  0.00    -0.354 N 
ATOM     50  N   UNL A   1      44.393  27.185  29.302  1.00  0.00    -0.248 NA
ATOM     51  C   UNL A   1      45.360  25.222  28.490  1.00  0.00     0.031 C 
ATOM     52  C   UNL A   1      46.592  30.339  31.515  1.00  0.00     0.029 A 
ATOM     53  C   UNL A   1      45.936  29.350  30.799  1.00  0.00     0.049 A 
ATOM     54  H   UNL A   1      43.925  29.281  30.161  1.00  0.00     0.167 HD
ATOM     55  C   UNL A   1      45.739  27.170  29.637  1.00  0.00     0.074 A 
ATOM     56  C   UNL A   1      46.281  25.923  29.137  1.00  0.00     0.031 C 
ATOM     57  C   UNL A   1      46.462  28.107  30.297  1.00  0.00     0.037 A 
BRANCH  44  58
ATOM     58  C   UNL A   1      43.240  33.138  31.852  1.00  0.00     0.064 A 
ATOM     59  C   UNL A   1      43.340  34.299  31.072  1.00  0.00     0.173 A 
ATOM     60  C   UNL A   1      43.104  33.289  33.241  1.00  0.00     0.173 A 
ATOM     61  F   UNL A   1      43.483  34.207  29.741  1.00  0.00    -0.203 F 
ATOM     62  C   UNL A   1      43.330  35.560  31.660  1.00  0.00     0.198 A 
ATOM     63  C   UNL A   1      43.067  34.553  33.823  1.00  0.00     0.198 A 
ATOM     64  F   UNL A   1      42.999  32.210  34.031  1.00  0.00    -0.203 F 
ATOM     65  F   UNL A   1      43.472  36.654  30.899  1.00  0.00    -0.200 F 
ATOM     66  C   UNL A   1      43.187  35.687  33.034  1.00  0.00     0.200 A 
ATOM     67  F   UNL A   1      42.916  34.674  35.149  1.00  0.00    -0.200 F 
ATOM     68  F   UNL A   1      43.171  36.902  33.598  1.00  0.00    -0.200 F 
ENDBRANCH  44  58
BRANCH  45  69
ATOM     69  C   UNL A   1      42.841  24.234  27.381  1.00  0.00     0.064 A 
ATOM     70  C   UNL A   1      42.496  23.065  28.072  1.00  0.00     0.173 A 
ATOM     71  C   UNL A   1      43.150  24.122  26.018  1.00  0.00     0.173 A 
ATOM     72  F   UNL A   1      42.215  23.120  29.382  1.00  0.00    -0.203 F 
ATOM     73  C   UNL A   1      42.478  21.828  27.430  1.00  0.00     0.198 A 
ATOM     74  C   UNL A   1      43.106  22.888  25.370  1.00  0.00     0.198 A 
ATOM     75  F   UNL A   1      43.485  25.211  25.312  1.00  0.00    -0.203 F 
ATOM     76  F   UNL A   1      42.186  20.721  28.124  1.00  0.00    -0.200 F 
ATOM     77  C   UNL A   1      42.777  21.742  26.078  1.00  0.00     0.200 A 
ATOM     78  F   UNL A   1      43.385  22.811  24.062  1.00  0.00    -0.200 F 
ATOM     79  F   UNL A   1      42.757  20.553  25.460  1.00  0.00    -0.200 F 
ENDBRANCH  45  69
BRANCH  57  80
ATOM     80  C   UNL A   1      47.913  27.812  30.538  1.00  0.00     0.064 A 
ATOM     81  C   UNL A   1      48.905  28.228  29.638  1.00  0.00     0.173 A 
ATOM     82  C   UNL A   1      48.320  27.140  31.701  1.00  0.00     0.173 A 
ATOM     83  F   UNL A   1      48.565  28.858  28.503  1.00  0.00    -0.203 F 
ATOM     84  C   UNL A   1      50.250  27.965  29.885  1.00  0.00     0.198 A 
ATOM     85  C   UNL A   1      49.667  26.903  31.958  1.00  0.00     0.198 A 
ATOM     86  F   UNL A   1      47.410  26.726  32.595  1.00  0.00    -0.203 F 
ATOM     87  F   UNL A   1      51.177  28.335  28.991  1.00  0.00    -0.200 F 
ATOM     88  C   UNL A   1      50.630  27.310  31.047  1.00  0.00     0.200 A 
ATOM     89  F   UNL A   1      50.034  26.280  33.086  1.00  0.00    -0.200 F 
ATOM     90  F   UNL A   1      51.926  27.066  31.286  1.00  0.00    -0.200 F 
ENDBRANCH  57  80
ENDBRANCH  31  32
ENDBRANCH  23  26
ENDBRANCH  21  22
ENDBRANCH   1  21
TORSDOF 12
ENDMDL
MODEL 2
REMARK VINA RESULT:     -11.0      3.595     10.876
REMARK SMILES O=C(Cc1ccc(-c2ccc(Cl)cc2)cc1)NCCCNC(=O)c1ccc(-c2c3nc(c(-c4c(F)c(F)c(F)c(F)c4F)c4ccc([nH]4)c(-c4c(F)c(F)c(F)c(F)c4F)c4nc(c(-c5c(F)c(F)c(F)c(F)c5F)c5ccc2[nH]5)C=C4)C=C3)cc1
REMARK SMILES IDX 19 1 18 2 17 3 1 4 2 5 3 7 4 8 5 9 16 10 6 11 15 12 7 13
REMARK SMILES IDX 8 14 9 15 14 16 10 17 13 18 11 19 12 20 20 21 21 22 22 23
REMARK SMILES IDX 23 25 24 26 25 27 86 28 26 29 85 30 27 31 28 32 29 33 79 34
REMARK SMILES IDX 30 35 84 36 78 37 80 38 31 39 83 40 77 41 76 42 32 44 64 45
REMARK SMILES IDX 44 46 63 47 45 48 48 49 62 50 81 51 46 52 47 53 61 55 82 56
REMARK SMILES IDX 49 57 33 58 34 59 42 60 35 61 36 62 40 63 43 64 37 65 38 66
REMARK SMILES IDX 41 67 39 68 65 69 66 70 74 71 67 72 68 73 72 74 75 75 69 76
REMARK SMILES IDX 70 77 73 78 71 79 50 80 51 81 59 82 52 83 53 84 57 85 60 86
REMARK SMILES IDX 54 87 55 88 58 89 56 90
REMARK H PARENT 17 6 21 24 80 43 48 54
REMARK Flexibility Score: inf
ROOT
ATOM      1  C   UNL A   1      40.426  20.200  26.491  1.00  0.00     0.042 C 
ENDROOT
BRANCH   1   2
ATOM      2  C   UNL A   1      41.632  19.668  27.251  1.00  0.00     0.117 C 
BRANCH   2   3
ATOM      3  N   UNL A   1      42.893  19.999  26.618  1.00  0.00    -0.356 N 
ATOM      4  O   UNL A   1      43.027  18.074  25.367  1.00  0.00    -0.275 OA
ATOM      5  C   UNL A   1      43.437  19.200  25.629  1.00  0.00     0.224 C 
ATOM      6  H   UNL A   1      43.374  20.812  26.898  1.00  0.00     0.163 HD
BRANCH   5   7
ATOM      7  C   UNL A   1      44.552  19.876  24.845  1.00  0.00     0.135 C 
BRANCH   7   8
ATOM      8  C   UNL A   1      44.634  21.367  25.098  1.00  0.00    -0.039 A 
ATOM      9  C   UNL A   1      45.731  21.942  25.752  1.00  0.00     0.005 A 
ATOM     10  C   UNL A   1      43.619  22.216  24.638  1.00  0.00     0.005 A 
ATOM     11  C   UNL A   1      45.792  23.316  25.980  1.00  0.00     0.009 A 
ATOM     12  C   UNL A   1      43.685  23.597  24.865  1.00  0.00     0.009 A 
ATOM     13  C   UNL A   1      44.769  24.168  25.546  1.00  0.00    -0.018 A 
BRANCH  13  14
ATOM     14  C   UNL A   1      44.845  25.609  25.828  1.00  0.00    -0.018 A 
ATOM     15  C   UNL A   1      45.915  26.141  26.570  1.00  0.00     0.010 A 
ATOM     16  C   UNL A   1      43.825  26.481  25.415  1.00  0.00     0.010 A 
ATOM     17  C   UNL A   1      45.955  27.497  26.904  1.00  0.00     0.021 A 
ATOM     18  C   UNL A   1      43.863  27.839  25.749  1.00  0.00     0.021 A 
ATOM     19  C   UNL A   1      44.926  28.339  26.496  1.00  0.00     0.041 A 
ATOM     20  Cl  UNL A   1      44.961  30.004  26.926  1.00  0.00    -0.084 Cl
ENDBRANCH  13  14
ENDBRANCH   7   8
ENDBRANCH   5   7
ENDBRANCH   2   3
ENDBRANCH   1   2
BRANCH   1  21
ATOM     21  C   UNL A   1      40.364  21.718  26.351  1.00  0.00     0.118 C 
BRANCH  21  22
ATOM     22  N   UNL A   1      39.112  22.210  25.792  1.00  0.00    -0.352 N 
ATOM     23  C   UNL A   1      38.505  23.434  25.962  1.00  0.00     0.251 C 
ATOM     24  H   UNL A   1      38.633  21.578  25.210  1.00  0.00     0.163 HD
ATOM     25  O   UNL A   1      37.396  23.646  25.479  1.00  0.00    -0.269 OA
BRANCH  23  26
ATOM     26  C   UNL A   1      39.167  24.484  26.767  1.00  0.00     0.039 A 
ATOM     27  C   UNL A   1      40.023  25.385  26.125  1.00  0.00     0.014 A 
ATOM     28  C   UNL A   1      38.922  24.605  28.137  1.00  0.00     0.014 A 
ATOM     29  C   UNL A   1      40.551  26.465  26.835  1.00  0.00     0.010 A 
ATOM     30  C   UNL A   1      39.394  25.721  28.827  1.00  0.00     0.010 A 
ATOM     31  C   UNL A   1      40.197  26.672  28.178  1.00  0.00    -0.014 A 
BRANCH  31  32
ATOM     32  C   UNL A   1      40.613  27.898  28.908  1.00  0.00     0.031 A 
ATOM     33  C   UNL A   1      41.991  28.004  29.494  1.00  0.00     0.074 A 
ATOM     34  C   UNL A   1      39.716  28.882  29.120  1.00  0.00     0.049 A 
ATOM     35  N   UNL A   1      42.499  28.942  30.255  1.00  0.00    -0.248 NA
ATOM     36  C   UNL A   1      42.916  26.896  29.209  1.00  0.00     0.031 C 
ATOM     37  C   UNL A   1      38.332  28.882  28.642  1.00  0.00     0.029 A 
ATOM     38  N   UNL A   1      39.828  30.065  29.809  1.00  0.00    -0.354 N 
ATOM     39  C   UNL A   1      43.791  28.533  30.549  1.00  0.00     0.074 A 
ATOM     40  C   UNL A   1      43.978  27.240  29.924  1.00  0.00     0.031 C 
ATOM     41  C   UNL A   1      37.729  30.013  29.040  1.00  0.00     0.029 A 
ATOM     42  C   UNL A   1      38.668  30.799  29.834  1.00  0.00     0.049 A 
ATOM     43  H   UNL A   1      40.661  30.358  30.243  1.00  0.00     0.167 HD
ATOM     44  C   UNL A   1      44.741  29.183  31.262  1.00  0.00     0.037 A 
ATOM     45  C   UNL A   1      38.386  31.966  30.443  1.00  0.00     0.037 A 
ATOM     46  C   UNL A   1      44.564  30.479  31.863  1.00  0.00     0.049 A 
ATOM     47  C   UNL A   1      39.454  32.661  31.242  1.00  0.00     0.074 A 
ATOM     48  C   UNL A   1      45.492  31.248  32.544  1.00  0.00     0.029 A 
ATOM     49  N   UNL A   1      43.377  31.197  31.858  1.00  0.00    -0.354 N 
ATOM     50  N   UNL A   1      40.693  32.293  31.461  1.00  0.00    -0.248 NA
ATOM     51  C   UNL A   1      39.085  33.932  31.880  1.00  0.00     0.031 C 
ATOM     52  C   UNL A   1      44.856  32.412  32.989  1.00  0.00     0.029 A 
ATOM     53  C   UNL A   1      43.543  32.388  32.547  1.00  0.00     0.049 A 
ATOM     54  H   UNL A   1      42.542  30.904  31.428  1.00  0.00     0.167 HD
ATOM     55  C   UNL A   1      41.256  33.294  32.239  1.00  0.00     0.074 A 
ATOM     56  C   UNL A   1      40.228  34.293  32.444  1.00  0.00     0.031 C 
ATOM     57  C   UNL A   1      42.512  33.375  32.742  1.00  0.00     0.037 A 
BRANCH  44  58
ATOM     58  C   UNL A   1      46.068  28.502  31.432  1.00  0.00     0.064 A 
ATOM     59  C   UNL A   1      47.115  28.695  30.518  1.00  0.00     0.173 A 
ATOM     60  C   UNL A   1      46.310  27.680  32.543  1.00  0.00     0.173 A 
ATOM     61  F   UNL A   1      46.930  29.463  29.434  1.00  0.00    -0.203 F 
ATOM     62  C   UNL A   1      48.346  28.070  30.696  1.00  0.00     0.198 A 
ATOM     63  C   UNL A   1      47.551  27.078  32.733  1.00  0.00     0.198 A 
ATOM     64  F   UNL A   1      45.344  27.467  33.450  1.00  0.00    -0.203 F 
ATOM     65  F   UNL A   1      49.316  28.233  29.786  1.00  0.00    -0.200 F 
ATOM     66  C   UNL A   1      48.565  27.268  31.806  1.00  0.00     0.200 A 
ATOM     67  F   UNL A   1      47.766  26.314  33.812  1.00  0.00    -0.200 F 
ATOM     68  F   UNL A   1      49.753  26.672  31.980  1.00  0.00    -0.200 F 
ENDBRANCH  44  58
BRANCH  45  69
ATOM     69  C   UNL A   1      37.030  32.563  30.312  1.00  0.00     0.064 A 
ATOM     70  C   UNL A   1      36.695  33.347  29.201  1.00  0.00     0.173 A 
ATOM     71  C   UNL A   1      36.049  32.366  31.294  1.00  0.00     0.173 A 
ATOM     72  F   UNL A   1      37.609  33.583  28.248  1.00  0.00    -0.203 F 
ATOM     73  C   UNL A   1      35.434  33.928  29.084  1.00  0.00     0.198 A 
ATOM     74  C   UNL A   1      34.779  32.925  31.163  1.00  0.00     0.198 A 
ATOM     75  F   UNL A   1      36.320  31.622  32.376  1.00  0.00    -0.203 F 
ATOM     76  F   UNL A   1      35.154  34.709  28.032  1.00  0.00    -0.200 F 
ATOM     77  C   UNL A   1      34.475  33.711  30.062  1.00  0.00     0.200 A 
ATOM     78  F   UNL A   1      33.852  32.704  32.105  1.00  0.00    -0.200 F 
ATOM     79  F   UNL A   1      33.261  34.267  29.947  1.00  0.00    -0.200 F 
ENDBRANCH  45  69
BRANCH  57  80
ATOM     80  C   UNL A   1      42.854  34.596  33.544  1.00  0.00     0.064 A 
ATOM     81  C   UNL A   1      43.255  35.790  32.927  1.00  0.00     0.173 A 
ATOM     82  C   UNL A   1      42.740  34.584  34.942  1.00  0.00     0.173 A 
ATOM     83  F   UNL A   1      43.396  35.846  31.594  1.00  0.00    -0.203 F 
ATOM     84  C   UNL A   1      43.549  36.921  33.683  1.00  0.00     0.198 A 
ATOM     85  C   UNL A   1      43.008  35.725  35.693  1.00  0.00     0.198 A 
ATOM     86  F   UNL A   1      42.355  33.468  35.580  1.00  0.00    -0.203 F 
ATOM     87  F   UNL A   1      43.971  38.039  33.075  1.00  0.00    -0.200 F 
ATOM     88  C   UNL A   1      43.419  36.891  35.063  1.00  0.00     0.200 A 
ATOM     89  F   UNL A   1      42.871  35.697  37.026  1.00  0.00    -0.200 F 
ATOM     90  F   UNL A   1      43.694  37.984  35.788  1.00  0.00    -0.200 F 
ENDBRANCH  57  80
ENDBRANCH  31  32
ENDBRANCH  23  26
ENDBRANCH  21  22
ENDBRANCH   1  21
TORSDOF 12
ENDMDL
MODEL 3
REMARK VINA RESULT:     -10.9      0.077      1.621
REMARK SMILES O=C(Cc1ccc(-c2ccc(Cl)cc2)cc1)NCCCNC(=O)c1ccc(-c2c3nc(c(-c4c(F)c(F)c(F)c(F)c4F)c4ccc([nH]4)c(-c4c(F)c(F)c(F)c(F)c4F)c4nc(c(-c5c(F)c(F)c(F)c(F)c5F)c5ccc2[nH]5)C=C4)C=C3)cc1
REMARK SMILES IDX 19 1 18 2 17 3 1 4 2 5 3 7 4 8 5 9 16 10 6 11 15 12 7 13
REMARK SMILES IDX 8 14 9 15 14 16 10 17 13 18 11 19 12 20 20 21 21 22 22 23
REMARK SMILES IDX 23 25 24 26 25 27 86 28 26 29 85 30 27 31 28 32 29 33 79 34
REMARK SMILES IDX 30 35 84 36 78 37 80 38 31 39 83 40 77 41 76 42 32 44 64 45
REMARK SMILES IDX 44 46 63 47 45 48 48 49 62 50 81 51 46 52 47 53 61 55 82 56
REMARK SMILES IDX 49 57 33 58 34 59 42 60 35 61 36 62 40 63 43 64 37 65 38 66
REMARK SMILES IDX 41 67 39 68 65 69 66 70 74 71 67 72 68 73 72 74 75 75 69 76
REMARK SMILES IDX 70 77 73 78 71 79 50 80 51 81 59 82 52 83 53 84 57 85 60 86
REMARK SMILES IDX 54 87 55 88 58 89 56 90
REMARK H PARENT 17 6 21 24 80 43 48 54
REMARK Flexibility Score: inf
ROOT
ATOM      1  C   UNL A   1      34.722  34.491  27.937  1.00  0.00     0.042 C 
ENDROOT
BRANCH   1   2
ATOM      2  C   UNL A   1      33.803  35.397  28.744  1.00  0.00     0.117 C 
BRANCH   2   3
ATOM      3  N   UNL A   1      33.952  35.227  30.175  1.00  0.00    -0.356 N 
ATOM      4  O   UNL A   1      32.523  36.933  30.753  1.00  0.00    -0.275 OA
ATOM      5  C   UNL A   1      33.197  35.960  31.072  1.00  0.00     0.224 C 
ATOM      6  H   UNL A   1      34.605  34.574  30.517  1.00  0.00     0.163 HD
BRANCH   5   7
ATOM      7  C   UNL A   1      33.226  35.405  32.489  1.00  0.00     0.135 C 
BRANCH   7   8
ATOM      8  C   UNL A   1      34.390  34.468  32.734  1.00  0.00    -0.039 A 
ATOM      9  C   UNL A   1      34.367  33.138  32.295  1.00  0.00     0.005 A 
ATOM     10  C   UNL A   1      35.545  34.932  33.376  1.00  0.00     0.005 A 
ATOM     11  C   UNL A   1      35.446  32.285  32.528  1.00  0.00     0.009 A 
ATOM     12  C   UNL A   1      36.629  34.075  33.607  1.00  0.00     0.009 A 
ATOM     13  C   UNL A   1      36.593  32.735  33.192  1.00  0.00    -0.018 A 
BRANCH  13  14
ATOM     14  C   UNL A   1      37.702  31.806  33.453  1.00  0.00    -0.018 A 
ATOM     15  C   UNL A   1      38.895  32.258  34.044  1.00  0.00     0.010 A 
ATOM     16  C   UNL A   1      37.622  30.458  33.067  1.00  0.00     0.010 A 
ATOM     17  C   UNL A   1      39.980  31.396  34.227  1.00  0.00     0.021 A 
ATOM     18  C   UNL A   1      38.706  29.594  33.249  1.00  0.00     0.021 A 
ATOM     19  C   UNL A   1      39.881  30.068  33.824  1.00  0.00     0.041 A 
ATOM     20  Cl  UNL A   1      41.224  29.011  34.027  1.00  0.00    -0.084 Cl
ENDBRANCH  13  14
ENDBRANCH   7   8
ENDBRANCH   5   7
ENDBRANCH   2   3
ENDBRANCH   1   2
BRANCH   1  21
ATOM     21  C   UNL A   1      35.008  33.129  28.566  1.00  0.00     0.118 C 
BRANCH  21  22
ATOM     22  N   UNL A   1      34.078  32.084  28.163  1.00  0.00    -0.352 N 
ATOM     23  C   UNL A   1      34.307  30.740  27.975  1.00  0.00     0.251 C 
ATOM     24  H   UNL A   1      33.153  32.381  28.003  1.00  0.00     0.163 HD
ATOM     25  O   UNL A   1      33.414  30.015  27.546  1.00  0.00    -0.269 OA
BRANCH  23  26
ATOM     26  C   UNL A   1      35.646  30.172  28.246  1.00  0.00     0.039 A 
ATOM     27  C   UNL A   1      36.591  30.159  27.216  1.00  0.00     0.014 A 
ATOM     28  C   UNL A   1      35.983  29.691  29.513  1.00  0.00     0.014 A 
ATOM     29  C   UNL A   1      37.902  29.757  27.484  1.00  0.00     0.010 A 
ATOM     30  C   UNL A   1      37.306  29.355  29.796  1.00  0.00     0.010 A 
ATOM     31  C   UNL A   1      38.283  29.404  28.788  1.00  0.00    -0.014 A 
BRANCH  31  32
ATOM     32  C   UNL A   1      39.702  29.129  29.132  1.00  0.00     0.031 A 
ATOM     33  C   UNL A   1      40.525  30.162  29.849  1.00  0.00     0.074 A 
ATOM     34  C   UNL A   1      40.277  27.983  28.719  1.00  0.00     0.049 A 
ATOM     35  N   UNL A   1      41.803  30.150  30.136  1.00  0.00    -0.248 NA
ATOM     36  C   UNL A   1      39.825  31.381  30.278  1.00  0.00     0.031 C 
ATOM     37  C   UNL A   1      39.599  26.918  27.977  1.00  0.00     0.029 A 
ATOM     38  N   UNL A   1      41.566  27.527  28.847  1.00  0.00    -0.354 N 
ATOM     39  C   UNL A   1      42.062  31.360  30.763  1.00  0.00     0.074 A 
ATOM     40  C   UNL A   1      40.819  32.102  30.777  1.00  0.00     0.031 C 
ATOM     41  C   UNL A   1      40.474  25.930  27.727  1.00  0.00     0.029 A 
ATOM     42  C   UNL A   1      41.781  26.308  28.255  1.00  0.00     0.049 A 
ATOM     43  H   UNL A   1      42.269  28.029  29.320  1.00  0.00     0.167 HD
ATOM     44  C   UNL A   1      43.225  31.804  31.295  1.00  0.00     0.037 A 
ATOM     45  C   UNL A   1      42.908  25.581  28.134  1.00  0.00     0.037 A 
ATOM     46  C   UNL A   1      44.455  31.055  31.304  1.00  0.00     0.049 A 
ATOM     47  C   UNL A   1      44.191  26.104  28.720  1.00  0.00     0.074 A 
ATOM     48  C   UNL A   1      45.667  31.393  31.882  1.00  0.00     0.029 A 
ATOM     49  N   UNL A   1      44.631  29.817  30.703  1.00  0.00    -0.354 N 
ATOM     50  N   UNL A   1      44.409  27.223  29.367  1.00  0.00    -0.248 NA
ATOM     51  C   UNL A   1      45.386  25.264  28.557  1.00  0.00     0.031 C 
ATOM     52  C   UNL A   1      46.588  30.381  31.593  1.00  0.00     0.029 A 
ATOM     53  C   UNL A   1      45.939  29.391  30.873  1.00  0.00     0.049 A 
ATOM     54  H   UNL A   1      43.930  29.316  30.226  1.00  0.00     0.167 HD
ATOM     55  C   UNL A   1      45.753  27.212  29.707  1.00  0.00     0.074 A 
ATOM     56  C   UNL A   1      46.301  25.967  29.208  1.00  0.00     0.031 C 
ATOM     57  C   UNL A   1      46.470  28.150  30.372  1.00  0.00     0.037 A 
BRANCH  44  58
ATOM     58  C   UNL A   1      43.226  33.169  31.919  1.00  0.00     0.064 A 
ATOM     59  C   UNL A   1      43.339  34.331  31.141  1.00  0.00     0.173 A 
ATOM     60  C   UNL A   1      43.071  33.319  33.305  1.00  0.00     0.173 A 
ATOM     61  F   UNL A   1      43.501  34.241  29.813  1.00  0.00    -0.203 F 
ATOM     62  C   UNL A   1      43.322  35.592  31.731  1.00  0.00     0.198 A 
ATOM     63  C   UNL A   1      43.026  34.582  33.889  1.00  0.00     0.198 A 
ATOM     64  F   UNL A   1      42.953  32.239  34.093  1.00  0.00    -0.203 F 
ATOM     65  F   UNL A   1      43.477  36.686  30.973  1.00  0.00    -0.200 F 
ATOM     66  C   UNL A   1      43.160  35.717  33.103  1.00  0.00     0.200 A 
ATOM     67  F   UNL A   1      42.857  34.702  35.212  1.00  0.00    -0.200 F 
ATOM     68  F   UNL A   1      43.137  36.932  33.668  1.00  0.00    -0.200 F 
ENDBRANCH  44  58
BRANCH  45  69
ATOM     69  C   UNL A   1      42.875  24.270  27.435  1.00  0.00     0.064 A 
ATOM     70  C   UNL A   1      43.193  24.172  26.074  1.00  0.00     0.173 A 
ATOM     71  C   UNL A   1      42.519  23.093  28.110  1.00  0.00     0.173 A 
ATOM     72  F   UNL A   1      43.516  25.274  25.382  1.00  0.00    -0.203 F 
ATOM     73  C   UNL A   1      43.141  22.949  25.409  1.00  0.00     0.198 A 
ATOM     74  C   UNL A   1      42.493  21.866  27.450  1.00  0.00     0.198 A 
ATOM     75  F   UNL A   1      42.207  23.133  29.413  1.00  0.00    -0.203 F 
ATOM     76  F   UNL A   1      43.409  22.891  24.097  1.00  0.00    -0.200 F 
ATOM     77  C   UNL A   1      42.797  21.796  26.099  1.00  0.00     0.200 A 
ATOM     78  F   UNL A   1      42.172  20.752  28.122  1.00  0.00    -0.200 F 
ATOM     79  F   UNL A   1      42.751  20.619  25.459  1.00  0.00    -0.200 F 
ENDBRANCH  45  69
BRANCH  57  80
ATOM     80  C   UNL A   1      47.922  27.859  30.619  1.00  0.00     0.064 A 
ATOM     81  C   UNL A   1      48.351  27.212  31.787  1.00  0.00     0.173 A 
ATOM     82  C   UNL A   1      48.888  28.196  29.659  1.00  0.00     0.173 A 
ATOM     83  F   UNL A   1      47.467  26.886  32.742  1.00  0.00    -0.203 F 
ATOM     84  C   UNL A   1      49.699  26.930  31.992  1.00  0.00     0.198 A 
ATOM     85  C   UNL A   1      50.231  27.888  29.856  1.00  0.00     0.198 A 
ATOM     86  F   UNL A   1      48.528  28.812  28.524  1.00  0.00    -0.203 F 
ATOM     87  F   UNL A   1      50.092  26.348  33.134  1.00  0.00    -0.200 F 
ATOM     88  C   UNL A   1      50.636  27.260  31.025  1.00  0.00     0.200 A 
ATOM     89  F   UNL A   1      51.134  28.198  28.916  1.00  0.00    -0.200 F 
ATOM     90  F   UNL A   1      51.932  26.981  31.222  1.00  0.00    -0.200 F 
ENDBRANCH  57  80
ENDBRANCH  31  32
ENDBRANCH  23  26
ENDBRANCH  21  22
ENDBRANCH   1  21
TORSDOF 12
ENDMDL
