MODEL 1
REMARK VINA RESULT:     -12.2      0.000      0.000
REMARK SMILES CCN(CC)S(=O)(=O)c1cccc(C(=O)N2C[C@H](O)C[C@H]2C(=O)NCCCNC(=O)c2ccc(-c3c4nc(c(-c5c(F)c(F)c(F)c(F)c5F)c5ccc([nH]5)c(-c5c(F)c(F)c(F)c(F)c5F)c5nc(c(-c6c(F)c(F)c(F)c(F)c6F)c6ccc3[nH]6)C=C5)C=C4)cc2)c1
REMARK SMILES IDX 22 1 23 2 24 3 21 5 16 6 17 7 18 8 20 9 14 10 15 11 13 12
REMARK SMILES IDX 9 13 10 14 94 15 11 16 12 17 6 18 7 19 8 20 3 21 2 22 1 23
REMARK SMILES IDX 4 24 5 25 19 26 25 28 26 29 27 30 28 31 29 32 30 34 31 35
REMARK SMILES IDX 32 36 93 37 33 38 92 39 34 40 35 41 36 42 86 43 37 44 91 45
REMARK SMILES IDX 85 46 87 47 38 48 90 49 84 50 83 51 39 53 71 54 51 55 70 56
REMARK SMILES IDX 52 57 55 58 69 59 88 60 53 61 54 62 68 64 89 65 56 66 40 67
REMARK SMILES IDX 41 68 49 69 42 70 43 71 47 72 50 73 44 74 45 75 48 76 46 77
REMARK SMILES IDX 72 78 73 79 81 80 74 81 75 82 79 83 82 84 76 85 77 86 80 87
REMARK SMILES IDX 78 88 57 89 58 90 66 91 59 92 60 93 64 94 67 95 61 96 62 97
REMARK SMILES IDX 65 98 63 99
REMARK H PARENT 24 4 19 27 28 33 87 52 55 63
REMARK Flexibility Score: inf
ROOT
ATOM      1  C   UNL A   1      33.588  29.149  26.182  1.00  0.00     0.242 C 
ATOM      2  O   UNL A   1      34.754  29.049  26.583  1.00  0.00    -0.273 OA
ATOM      3  N   UNL A   1      32.867  30.201  26.658  1.00  0.00    -0.354 N 
ATOM      4  H   UNL A   1      33.281  30.673  27.416  1.00  0.00     0.163 HD
ENDROOT
BRANCH   1   5
ATOM      5  C   UNL A   1      33.079  28.242  25.048  1.00  0.00     0.177 C 
ATOM      6  N   UNL A   1      31.705  27.727  25.115  1.00  0.00    -0.324 N 
ATOM      7  C   UNL A   1      30.929  28.120  23.941  1.00  0.00     0.152 C 
ATOM      8  C   UNL A   1      31.992  28.451  22.894  1.00  0.00     0.136 C 
ATOM      9  C   UNL A   1      33.195  28.949  23.689  1.00  0.00     0.069 C 
BRANCH   6  10
ATOM     10  C   UNL A   1      31.406  26.829  26.130  1.00  0.00     0.254 C 
ATOM     11  O   UNL A   1      31.041  27.237  27.234  1.00  0.00    -0.269 OA
BRANCH  10  12
ATOM     12  C   UNL A   1      31.625  25.359  25.992  1.00  0.00     0.041 A 
ATOM     13  C   UNL A   1      32.962  23.354  26.318  1.00  0.00     0.083 A 
ATOM     14  C   UNL A   1      31.844  22.548  26.099  1.00  0.00     0.022 A 
ATOM     15  C   UNL A   1      32.851  24.751  26.268  1.00  0.00     0.035 A 
ATOM     16  C   UNL A   1      30.612  23.144  25.833  1.00  0.00     0.002 A 
ATOM     17  C   UNL A   1      30.503  24.539  25.780  1.00  0.00     0.014 A 
BRANCH  13  18
ATOM     18  S   UNL A   1      34.584  22.623  26.461  1.00  0.00     0.243 S 
ATOM     19  O   UNL A   1      34.506  21.646  27.525  1.00  0.00    -0.207 OA
ATOM     20  O   UNL A   1      35.525  23.720  26.550  1.00  0.00    -0.207 OA
BRANCH  18  21
ATOM     21  N   UNL A   1      34.874  21.793  24.985  1.00  0.00    -0.198 NA
BRANCH  21  22
ATOM     22  C   UNL A   1      35.221  22.697  23.835  1.00  0.00     0.099 C 
ATOM     23  C   UNL A   1      34.051  22.951  22.907  1.00  0.00     0.022 C 
ENDBRANCH  21  22
BRANCH  21  24
ATOM     24  C   UNL A   1      35.779  20.604  25.002  1.00  0.00     0.099 C 
ATOM     25  C   UNL A   1      37.256  20.949  24.894  1.00  0.00     0.022 C 
ENDBRANCH  21  24
ENDBRANCH  18  21
ENDBRANCH  13  18
ENDBRANCH  10  12
ENDBRANCH   6  10
BRANCH   8  26
ATOM     26  O   UNL A   1      32.367  27.279  22.177  1.00  0.00    -0.391 OA
ATOM     27  H   UNL A   1      31.733  26.569  22.362  1.00  0.00     0.211 HD
ENDBRANCH   8  26
ENDBRANCH   1   5
BRANCH   3  28
ATOM     28  C   UNL A   1      31.594  30.737  26.235  1.00  0.00     0.117 C 
BRANCH  28  29
ATOM     29  C   UNL A   1      31.422  32.202  26.594  1.00  0.00     0.042 C 
BRANCH  29  30
ATOM     30  C   UNL A   1      32.673  32.818  27.206  1.00  0.00     0.118 C 
BRANCH  30  31
ATOM     31  N   UNL A   1      32.465  34.199  27.627  1.00  0.00    -0.352 N 
ATOM     32  C   UNL A   1      33.013  34.909  28.663  1.00  0.00     0.251 C 
ATOM     33  H   UNL A   1      31.824  34.705  27.076  1.00  0.00     0.163 HD
ATOM     34  O   UNL A   1      32.531  35.992  28.983  1.00  0.00    -0.269 OA
BRANCH  32  35
ATOM     35  C   UNL A   1      34.173  34.375  29.403  1.00  0.00     0.039 A 
ATOM     36  C   UNL A   1      33.962  33.746  30.633  1.00  0.00     0.014 A 
ATOM     37  C   UNL A   1      35.469  34.520  28.903  1.00  0.00     0.014 A 
ATOM     38  C   UNL A   1      35.043  33.200  31.327  1.00  0.00     0.010 A 
ATOM     39  C   UNL A   1      36.534  33.903  29.551  1.00  0.00     0.010 A 
ATOM     40  C   UNL A   1      36.331  33.242  30.770  1.00  0.00    -0.014 A 
BRANCH  40  41
ATOM     41  C   UNL A   1      37.486  32.602  31.445  1.00  0.00     0.031 A 
ATOM     42  C   UNL A   1      38.197  31.452  30.791  1.00  0.00     0.074 A 
ATOM     43  C   UNL A   1      37.838  33.005  32.680  1.00  0.00     0.049 A 
ATOM     44  N   UNL A   1      39.158  30.697  31.261  1.00  0.00    -0.248 NA
ATOM     45  C   UNL A   1      37.748  31.079  29.440  1.00  0.00     0.031 C 
ATOM     46  C   UNL A   1      37.185  34.073  33.440  1.00  0.00     0.029 A 
ATOM     47  N   UNL A   1      38.819  32.550  33.524  1.00  0.00    -0.354 N 
ATOM     48  C   UNL A   1      39.412  29.754  30.274  1.00  0.00     0.074 A 
ATOM     49  C   UNL A   1      38.472  29.996  29.201  1.00  0.00     0.031 C 
ATOM     50  C   UNL A   1      37.794  34.203  34.629  1.00  0.00     0.029 A 
ATOM     51  C   UNL A   1      38.854  33.204  34.730  1.00  0.00     0.049 A 
ATOM     52  H   UNL A   1      39.440  31.824  33.286  1.00  0.00     0.167 HD
ATOM     53  C   UNL A   1      40.360  28.787  30.256  1.00  0.00     0.037 A 
ATOM     54  C   UNL A   1      39.646  33.012  35.802  1.00  0.00     0.037 A 
ATOM     55  C   UNL A   1      41.312  28.570  31.312  1.00  0.00     0.049 A 
ATOM     56  C   UNL A   1      40.700  31.941  35.750  1.00  0.00     0.074 A 
ATOM     57  C   UNL A   1      42.353  27.659  31.363  1.00  0.00     0.029 A 
ATOM     58  N   UNL A   1      41.339  29.277  32.505  1.00  0.00    -0.354 N 
ATOM     59  N   UNL A   1      40.974  31.097  34.786  1.00  0.00    -0.248 NA
ATOM     60  C   UNL A   1      41.558  31.800  36.934  1.00  0.00     0.031 C 
ATOM     61  C   UNL A   1      42.988  27.790  32.603  1.00  0.00     0.029 A 
ATOM     62  C   UNL A   1      42.370  28.812  33.307  1.00  0.00     0.049 A 
ATOM     63  H   UNL A   1      40.719  30.002  32.747  1.00  0.00     0.167 HD
ATOM     64  C   UNL A   1      42.047  30.341  35.234  1.00  0.00     0.074 A 
ATOM     65  C   UNL A   1      42.386  30.838  36.552  1.00  0.00     0.031 C 
ATOM     66  C   UNL A   1      42.693  29.324  34.614  1.00  0.00     0.037 A 
BRANCH  53  67
ATOM     67  C   UNL A   1      40.419  27.896  29.049  1.00  0.00     0.064 A 
ATOM     68  C   UNL A   1      41.225  28.211  27.945  1.00  0.00     0.173 A 
ATOM     69  C   UNL A   1      39.688  26.700  29.009  1.00  0.00     0.173 A 
ATOM     70  F   UNL A   1      41.933  29.351  27.929  1.00  0.00    -0.203 F 
ATOM     71  C   UNL A   1      41.276  27.374  26.833  1.00  0.00     0.198 A 
ATOM     72  C   UNL A   1      39.764  25.851  27.907  1.00  0.00     0.198 A 
ATOM     73  F   UNL A   1      38.905  26.350  30.040  1.00  0.00    -0.203 F 
ATOM     74  F   UNL A   1      42.017  27.720  25.770  1.00  0.00    -0.200 F 
ATOM     75  C   UNL A   1      40.552  26.193  26.818  1.00  0.00     0.200 A 
ATOM     76  F   UNL A   1      39.072  24.704  27.898  1.00  0.00    -0.200 F 
ATOM     77  F   UNL A   1      40.607  25.385  25.750  1.00  0.00    -0.200 F 
ENDBRANCH  53  67
BRANCH  54  78
ATOM     78  C   UNL A   1      39.486  33.870  37.003  1.00  0.00     0.064 A 
ATOM     79  C   UNL A   1      38.728  33.437  38.099  1.00  0.00     0.173 A 
ATOM     80  C   UNL A   1      40.087  35.135  37.083  1.00  0.00     0.173 A 
ATOM     81  F   UNL A   1      38.117  32.243  38.060  1.00  0.00    -0.203 F 
ATOM     82  C   UNL A   1      38.562  34.243  39.223  1.00  0.00     0.198 A 
ATOM     83  C   UNL A   1      39.942  35.930  38.218  1.00  0.00     0.198 A 
ATOM     84  F   UNL A   1      40.828  35.592  36.063  1.00  0.00    -0.203 F 
ATOM     85  F   UNL A   1      37.797  33.822  40.240  1.00  0.00    -0.200 F 
ATOM     86  C   UNL A   1      39.173  35.486  39.284  1.00  0.00     0.200 A 
ATOM     87  F   UNL A   1      40.546  37.124  38.279  1.00  0.00    -0.200 F 
ATOM     88  F   UNL A   1      39.017  36.260  40.367  1.00  0.00    -0.200 F 
ENDBRANCH  54  78
BRANCH  66  89
ATOM     89  C   UNL A   1      43.847  28.701  35.340  1.00  0.00     0.064 A 
ATOM     90  C   UNL A   1      45.157  29.174  35.178  1.00  0.00     0.173 A 
ATOM     91  C   UNL A   1      43.633  27.645  36.238  1.00  0.00     0.173 A 
ATOM     92  F   UNL A   1      45.412  30.173  34.319  1.00  0.00    -0.203 F 
ATOM     93  C   UNL A   1      46.216  28.597  35.874  1.00  0.00     0.198 A 
ATOM     94  C   UNL A   1      44.690  27.088  36.951  1.00  0.00     0.198 A 
ATOM     95  F   UNL A   1      42.398  27.161  36.432  1.00  0.00    -0.203 F 
ATOM     96  F   UNL A   1      47.466  29.036  35.671  1.00  0.00    -0.200 F 
ATOM     97  C   UNL A   1      45.982  27.560  36.764  1.00  0.00     0.200 A 
ATOM     98  F   UNL A   1      44.461  26.093  37.819  1.00  0.00    -0.200 F 
ATOM     99  F   UNL A   1      47.001  27.009  37.436  1.00  0.00    -0.200 F 
ENDBRANCH  66  89
ENDBRANCH  40  41
ENDBRANCH  32  35
ENDBRANCH  30  31
ENDBRANCH  29  30
ENDBRANCH  28  29
ENDBRANCH   3  28
TORSDOF 17
ENDMDL
MODEL 2
REMARK VINA RESULT:     -12.2      0.943      1.873
REMARK SMILES CCN(CC)S(=O)(=O)c1cccc(C(=O)N2C[C@H](O)C[C@H]2C(=O)NCCCNC(=O)c2ccc(-c3c4nc(c(-c5c(F)c(F)c(F)c(F)c5F)c5ccc([nH]5)c(-c5c(F)c(F)c(F)c(F)c5F)c5nc(c(-c6c(F)c(F)c(F)c(F)c6F)c6ccc3[nH]6)C=C5)C=C4)cc2)c1
REMARK SMILES IDX 22 1 23 2 24 3 21 5 16 6 17 7 18 8 20 9 14 10 15 11 13 12
REMARK SMILES IDX 9 13 10 14 94 15 11 16 12 17 6 18 7 19 8 20 3 21 2 22 1 23
REMARK SMILES IDX 4 24 5 25 19 26 25 28 26 29 27 30 28 31 29 32 30 34 31 35
REMARK SMILES IDX 32 36 93 37 33 38 92 39 34 40 35 41 36 42 86 43 37 44 91 45
REMARK SMILES IDX 85 46 87 47 38 48 90 49 84 50 83 51 39 53 71 54 51 55 70 56
REMARK SMILES IDX 52 57 55 58 69 59 88 60 53 61 54 62 68 64 89 65 56 66 40 67
REMARK SMILES IDX 41 68 49 69 42 70 43 71 47 72 50 73 44 74 45 75 48 76 46 77
REMARK SMILES IDX 72 78 73 79 81 80 74 81 75 82 79 83 82 84 76 85 77 86 80 87
REMARK SMILES IDX 78 88 57 89 58 90 66 91 59 92 60 93 64 94 67 95 61 96 62 97
REMARK SMILES IDX 65 98 63 99
REMARK H PARENT 24 4 19 27 28 33 87 52 55 63
REMARK Flexibility Score: inf
ROOT
ATOM      1  C   UNL A   1      33.460  29.083  26.191  1.00  0.00     0.242 C 
ATOM      2  O   UNL A   1      34.579  28.901  26.685  1.00  0.00    -0.273 OA
ATOM      3  N   UNL A   1      32.762  30.162  26.639  1.00  0.00    -0.354 N 
ATOM      4  H   UNL A   1      33.136  30.587  27.444  1.00  0.00     0.163 HD
ENDROOT
BRANCH   1   5
ATOM      5  C   UNL A   1      32.998  28.242  24.987  1.00  0.00     0.177 C 
ATOM      6  N   UNL A   1      31.611  27.760  24.949  1.00  0.00    -0.324 N 
ATOM      7  C   UNL A   1      30.917  28.225  23.751  1.00  0.00     0.152 C 
ATOM      8  C   UNL A   1      32.049  28.576  22.785  1.00  0.00     0.136 C 
ATOM      9  C   UNL A   1      33.213  29.006  23.672  1.00  0.00     0.069 C 
BRANCH   6  10
ATOM     10  C   UNL A   1      31.231  26.825  25.901  1.00  0.00     0.254 C 
ATOM     11  O   UNL A   1      31.009  27.175  27.062  1.00  0.00    -0.269 OA
BRANCH  10  12
ATOM     12  C   UNL A   1      31.193  25.360  25.618  1.00  0.00     0.041 A 
ATOM     13  C   UNL A   1      32.107  23.354  24.591  1.00  0.00     0.083 A 
ATOM     14  C   UNL A   1      31.342  22.548  25.436  1.00  0.00     0.022 A 
ATOM     15  C   UNL A   1      32.035  24.751  24.685  1.00  0.00     0.035 A 
ATOM     16  C   UNL A   1      30.506  23.144  26.379  1.00  0.00     0.002 A 
ATOM     17  C   UNL A   1      30.432  24.540  26.469  1.00  0.00     0.014 A 
BRANCH  13  18
ATOM     18  S   UNL A   1      33.028  22.627  23.247  1.00  0.00     0.243 S 
ATOM     19  O   UNL A   1      33.094  23.625  22.201  1.00  0.00    -0.207 OA
ATOM     20  O   UNL A   1      32.424  21.337  22.982  1.00  0.00    -0.207 OA
BRANCH  18  21
ATOM     21  N   UNL A   1      34.619  22.357  23.838  1.00  0.00    -0.198 NA
BRANCH  21  22
ATOM     22  C   UNL A   1      35.467  23.596  23.891  1.00  0.00     0.099 C 
ATOM     23  C   UNL A   1      35.646  24.133  25.296  1.00  0.00     0.022 C 
ENDBRANCH  21  22
BRANCH  21  24
ATOM     24  C   UNL A   1      34.788  21.558  25.089  1.00  0.00     0.099 C 
ATOM     25  C   UNL A   1      35.813  20.440  24.976  1.00  0.00     0.022 C 
ENDBRANCH  21  24
ENDBRANCH  18  21
ENDBRANCH  13  18
ENDBRANCH  10  12
ENDBRANCH   6  10
BRANCH   8  26
ATOM     26  O   UNL A   1      32.439  27.429  22.037  1.00  0.00    -0.391 OA
ATOM     27  H   UNL A   1      33.199  27.006  22.465  1.00  0.00     0.211 HD
ENDBRANCH   8  26
ENDBRANCH   1   5
BRANCH   3  28
ATOM     28  C   UNL A   1      31.563  30.786  26.128  1.00  0.00     0.117 C 
BRANCH  28  29
ATOM     29  C   UNL A   1      31.351  32.188  26.671  1.00  0.00     0.042 C 
BRANCH  29  30
ATOM     30  C   UNL A   1      32.632  32.829  27.189  1.00  0.00     0.118 C 
BRANCH  30  31
ATOM     31  N   UNL A   1      32.436  34.216  27.593  1.00  0.00    -0.352 N 
ATOM     32  C   UNL A   1      33.007  34.940  28.609  1.00  0.00     0.251 C 
ATOM     33  H   UNL A   1      31.787  34.717  27.048  1.00  0.00     0.163 HD
ATOM     34  O   UNL A   1      32.534  36.029  28.922  1.00  0.00    -0.269 OA
BRANCH  32  35
ATOM     35  C   UNL A   1      34.179  34.412  29.334  1.00  0.00     0.039 A 
ATOM     36  C   UNL A   1      33.983  33.751  30.550  1.00  0.00     0.014 A 
ATOM     37  C   UNL A   1      35.471  34.594  28.836  1.00  0.00     0.014 A 
ATOM     38  C   UNL A   1      35.077  33.210  31.228  1.00  0.00     0.010 A 
ATOM     39  C   UNL A   1      36.549  33.984  29.467  1.00  0.00     0.010 A 
ATOM     40  C   UNL A   1      36.362  33.291  30.671  1.00  0.00    -0.014 A 
BRANCH  40  41
ATOM     41  C   UNL A   1      37.532  32.659  31.329  1.00  0.00     0.031 A 
ATOM     42  C   UNL A   1      38.239  31.512  30.666  1.00  0.00     0.074 A 
ATOM     43  C   UNL A   1      37.899  33.066  32.558  1.00  0.00     0.049 A 
ATOM     44  N   UNL A   1      39.212  30.764  31.122  1.00  0.00    -0.248 NA
ATOM     45  C   UNL A   1      37.771  31.135  29.323  1.00  0.00     0.031 C 
ATOM     46  C   UNL A   1      37.252  34.132  33.326  1.00  0.00     0.029 A 
ATOM     47  N   UNL A   1      38.896  32.618  33.387  1.00  0.00    -0.354 N 
ATOM     48  C   UNL A   1      39.455  29.821  30.133  1.00  0.00     0.074 A 
ATOM     49  C   UNL A   1      38.498  30.056  29.074  1.00  0.00     0.031 C 
ATOM     50  C   UNL A   1      37.879  34.267  34.505  1.00  0.00     0.029 A 
ATOM     51  C   UNL A   1      38.946  33.275  34.592  1.00  0.00     0.049 A 
ATOM     52  H   UNL A   1      39.518  31.895  33.141  1.00  0.00     0.167 HD
ATOM     53  C   UNL A   1      40.409  28.859  30.101  1.00  0.00     0.037 A 
ATOM     54  C   UNL A   1      39.755  33.089  35.652  1.00  0.00     0.037 A 
ATOM     55  C   UNL A   1      41.379  28.650  31.143  1.00  0.00     0.049 A 
ATOM     56  C   UNL A   1      40.815  32.024  35.585  1.00  0.00     0.074 A 
ATOM     57  C   UNL A   1      42.426  27.745  31.179  1.00  0.00     0.029 A 
ATOM     58  N   UNL A   1      41.420  29.358  32.335  1.00  0.00    -0.354 N 
ATOM     59  N   UNL A   1      41.079  31.180  34.619  1.00  0.00    -0.248 NA
ATOM     60  C   UNL A   1      41.692  31.890  36.756  1.00  0.00     0.031 C 
ATOM     61  C   UNL A   1      43.079  27.882  32.409  1.00  0.00     0.029 A 
ATOM     62  C   UNL A   1      42.466  28.901  33.121  1.00  0.00     0.049 A 
ATOM     63  H   UNL A   1      40.799  30.080  32.585  1.00  0.00     0.167 HD
ATOM     64  C   UNL A   1      42.164  30.431  35.051  1.00  0.00     0.074 A 
ATOM     65  C   UNL A   1      42.520  30.932  36.362  1.00  0.00     0.031 C 
ATOM     66  C   UNL A   1      42.806  29.417  34.422  1.00  0.00     0.037 A 
BRANCH  53  67
ATOM     67  C   UNL A   1      40.455  27.967  28.895  1.00  0.00     0.064 A 
ATOM     68  C   UNL A   1      41.228  28.294  27.771  1.00  0.00     0.173 A 
ATOM     69  C   UNL A   1      39.745  26.758  28.875  1.00  0.00     0.173 A 
ATOM     70  F   UNL A   1      41.916  29.446  27.736  1.00  0.00    -0.203 F 
ATOM     71  C   UNL A   1      41.267  27.456  26.660  1.00  0.00     0.198 A 
ATOM     72  C   UNL A   1      39.809  25.908  27.773  1.00  0.00     0.198 A 
ATOM     73  F   UNL A   1      38.993  26.396  29.925  1.00  0.00    -0.203 F 
ATOM     74  F   UNL A   1      41.976  27.812  25.579  1.00  0.00    -0.200 F 
ATOM     75  C   UNL A   1      40.564  26.261  26.665  1.00  0.00     0.200 A 
ATOM     76  F   UNL A   1      39.137  24.749  27.782  1.00  0.00    -0.200 F 
ATOM     77  F   UNL A   1      40.608  25.453  25.597  1.00  0.00    -0.200 F 
ENDBRANCH  53  67
BRANCH  54  78
ATOM     78  C   UNL A   1      39.608  33.948  36.854  1.00  0.00     0.064 A 
ATOM     79  C   UNL A   1      40.250  35.191  36.931  1.00  0.00     0.173 A 
ATOM     80  C   UNL A   1      38.823  33.549  37.946  1.00  0.00     0.173 A 
ATOM     81  F   UNL A   1      41.028  35.606  35.919  1.00  0.00    -0.203 F 
ATOM     82  C   UNL A   1      40.128  35.995  38.062  1.00  0.00     0.198 A 
ATOM     83  C   UNL A   1      38.681  34.365  39.066  1.00  0.00     0.198 A 
ATOM     84  F   UNL A   1      38.183  32.371  37.918  1.00  0.00    -0.203 F 
ATOM     85  F   UNL A   1      40.786  37.161  38.127  1.00  0.00    -0.200 F 
ATOM     86  C   UNL A   1      39.339  35.584  39.125  1.00  0.00     0.200 A 
ATOM     87  F   UNL A   1      37.906  33.971  40.085  1.00  0.00    -0.200 F 
ATOM     88  F   UNL A   1      39.219  36.360  40.211  1.00  0.00    -0.200 F 
ENDBRANCH  54  78
BRANCH  66  89
ATOM     89  C   UNL A   1      43.974  28.803  35.131  1.00  0.00     0.064 A 
ATOM     90  C   UNL A   1      43.810  27.733  36.024  1.00  0.00     0.173 A 
ATOM     91  C   UNL A   1      45.277  29.263  34.886  1.00  0.00     0.173 A 
ATOM     92  F   UNL A   1      42.583  27.268  36.301  1.00  0.00    -0.203 F 
ATOM     93  C   UNL A   1      44.907  27.161  36.662  1.00  0.00     0.198 A 
ATOM     94  C   UNL A   1      46.373  28.671  35.506  1.00  0.00     0.198 A 
ATOM     95  F   UNL A   1      45.486  30.280  34.037  1.00  0.00    -0.203 F 
ATOM     96  F   UNL A   1      44.723  26.168  37.544  1.00  0.00    -0.200 F 
ATOM     97  C   UNL A   1      46.187  27.625  36.398  1.00  0.00     0.200 A 
ATOM     98  F   UNL A   1      47.610  29.113  35.242  1.00  0.00    -0.200 F 
ATOM     99  F   UNL A   1      47.242  27.070  37.010  1.00  0.00    -0.200 F 
ENDBRANCH  66  89
ENDBRANCH  40  41
ENDBRANCH  32  35
ENDBRANCH  30  31
ENDBRANCH  29  30
ENDBRANCH  28  29
ENDBRANCH   3  28
TORSDOF 17
ENDMDL
MODEL 3
REMARK VINA RESULT:     -12.0      5.287     11.092
REMARK SMILES CCN(CC)S(=O)(=O)c1cccc(C(=O)N2C[C@H](O)C[C@H]2C(=O)NCCCNC(=O)c2ccc(-c3c4nc(c(-c5c(F)c(F)c(F)c(F)c5F)c5ccc([nH]5)c(-c5c(F)c(F)c(F)c(F)c5F)c5nc(c(-c6c(F)c(F)c(F)c(F)c6F)c6ccc3[nH]6)C=C5)C=C4)cc2)c1
REMARK SMILES IDX 22 1 23 2 24 3 21 5 16 6 17 7 18 8 20 9 14 10 15 11 13 12
REMARK SMILES IDX 9 13 10 14 94 15 11 16 12 17 6 18 7 19 8 20 3 21 2 22 1 23
REMARK SMILES IDX 4 24 5 25 19 26 25 28 26 29 27 30 28 31 29 32 30 34 31 35
REMARK SMILES IDX 32 36 93 37 33 38 92 39 34 40 35 41 36 42 86 43 37 44 91 45
REMARK SMILES IDX 85 46 87 47 38 48 90 49 84 50 83 51 39 53 71 54 51 55 70 56
REMARK SMILES IDX 52 57 55 58 69 59 88 60 53 61 54 62 68 64 89 65 56 66 40 67
REMARK SMILES IDX 41 68 49 69 42 70 43 71 47 72 50 73 44 74 45 75 48 76 46 77
REMARK SMILES IDX 72 78 73 79 81 80 74 81 75 82 79 83 82 84 76 85 77 86 80 87
REMARK SMILES IDX 78 88 57 89 58 90 66 91 59 92 60 93 64 94 67 95 61 96 62 97
REMARK SMILES IDX 65 98 63 99
REMARK H PARENT 24 4 19 27 28 33 87 52 55 63
REMARK Flexibility Score: inf
ROOT
ATOM      1  C   UNL A   1      35.646  22.684  25.632  1.00  0.00     0.242 C 
ATOM      2  O   UNL A   1      35.975  23.742  26.181  1.00  0.00    -0.273 OA
ATOM      3  N   UNL A   1      36.639  21.787  25.389  1.00  0.00    -0.354 N 
ATOM      4  H   UNL A   1      37.550  22.142  25.504  1.00  0.00     0.163 HD
ENDROOT
BRANCH   1   5
ATOM      5  C   UNL A   1      34.157  22.342  25.440  1.00  0.00     0.177 C 
ATOM      6  N   UNL A   1      33.651  22.118  24.078  1.00  0.00    -0.324 N 
ATOM      7  C   UNL A   1      33.053  20.793  23.942  1.00  0.00     0.152 C 
ATOM      8  C   UNL A   1      32.727  20.388  25.380  1.00  0.00     0.136 C 
ATOM      9  C   UNL A   1      33.777  21.086  26.239  1.00  0.00     0.069 C 
BRANCH   6  10
ATOM     10  C   UNL A   1      33.638  23.204  23.214  1.00  0.00     0.254 C 
ATOM     11  O   UNL A   1      34.516  23.328  22.358  1.00  0.00    -0.269 OA
BRANCH  10  12
ATOM     12  C   UNL A   1      32.660  24.324  23.346  1.00  0.00     0.041 A 
ATOM     13  C   UNL A   1      32.042  26.664  23.115  1.00  0.00     0.083 A 
ATOM     14  C   UNL A   1      30.688  26.338  23.211  1.00  0.00     0.022 A 
ATOM     15  C   UNL A   1      33.020  25.662  23.178  1.00  0.00     0.035 A 
ATOM     16  C   UNL A   1      30.315  25.004  23.369  1.00  0.00     0.002 A 
ATOM     17  C   UNL A   1      31.294  24.004  23.436  1.00  0.00     0.014 A 
BRANCH  13  18
ATOM     18  S   UNL A   1      32.557  28.373  23.115  1.00  0.00     0.243 S 
ATOM     19  O   UNL A   1      31.502  29.124  22.469  1.00  0.00    -0.207 OA
ATOM     20  O   UNL A   1      33.901  28.400  22.576  1.00  0.00    -0.207 OA
BRANCH  18  21
ATOM     21  N   UNL A   1      32.635  28.857  24.761  1.00  0.00    -0.198 NA
BRANCH  21  22
ATOM     22  C   UNL A   1      31.439  29.640  25.224  1.00  0.00     0.099 C 
ATOM     23  C   UNL A   1      31.801  30.791  26.140  1.00  0.00     0.022 C 
ENDBRANCH  21  22
BRANCH  21  24
ATOM     24  C   UNL A   1      33.017  27.839  25.786  1.00  0.00     0.099 C 
ATOM     25  C   UNL A   1      31.837  27.251  26.544  1.00  0.00     0.022 C 
ENDBRANCH  21  24
ENDBRANCH  18  21
ENDBRANCH  13  18
ENDBRANCH  10  12
ENDBRANCH   6  10
BRANCH   8  26
ATOM     26  O   UNL A   1      31.438  20.863  25.751  1.00  0.00    -0.391 OA
ATOM     27  H   UNL A   1      31.175  21.585  25.159  1.00  0.00     0.211 HD
ENDBRANCH   8  26
ENDBRANCH   1   5
BRANCH   3  28
ATOM     28  C   UNL A   1      36.578  20.400  24.988  1.00  0.00     0.117 C 
BRANCH  28  29
ATOM     29  C   UNL A   1      37.949  19.801  24.726  1.00  0.00     0.042 C 
BRANCH  29  30
ATOM     30  C   UNL A   1      38.992  20.222  25.753  1.00  0.00     0.118 C 
BRANCH  30  31
ATOM     31  N   UNL A   1      40.022  19.208  25.946  1.00  0.00    -0.352 N 
ATOM     32  C   UNL A   1      41.376  19.333  26.126  1.00  0.00     0.251 C 
ATOM     33  H   UNL A   1      39.693  18.280  25.947  1.00  0.00     0.163 HD
ATOM     34  O   UNL A   1      42.096  18.343  26.041  1.00  0.00    -0.269 OA
BRANCH  32  35
ATOM     35  C   UNL A   1      41.972  20.653  26.411  1.00  0.00     0.039 A 
ATOM     36  C   UNL A   1      42.222  21.528  25.350  1.00  0.00     0.014 A 
ATOM     37  C   UNL A   1      42.314  21.017  27.715  1.00  0.00     0.014 A 
ATOM     38  C   UNL A   1      42.748  22.795  25.607  1.00  0.00     0.010 A 
ATOM     39  C   UNL A   1      42.758  22.308  27.980  1.00  0.00     0.010 A 
ATOM     40  C   UNL A   1      42.983  23.206  26.928  1.00  0.00    -0.014 A 
BRANCH  40  41
ATOM     41  C   UNL A   1      43.467  24.574  27.238  1.00  0.00     0.031 A 
ATOM     42  C   UNL A   1      42.520  25.599  27.793  1.00  0.00     0.074 A 
ATOM     43  C   UNL A   1      44.736  24.910  26.940  1.00  0.00     0.049 A 
ATOM     44  N   UNL A   1      42.724  26.870  28.033  1.00  0.00    -0.248 NA
ATOM     45  C   UNL A   1      41.153  25.144  28.090  1.00  0.00     0.031 C 
ATOM     46  C   UNL A   1      45.731  24.015  26.345  1.00  0.00     0.029 A 
ATOM     47  N   UNL A   1      45.401  26.101  27.079  1.00  0.00    -0.354 N 
ATOM     48  C   UNL A   1      41.509  27.366  28.487  1.00  0.00     0.074 A 
ATOM     49  C   UNL A   1      40.560  26.275  28.444  1.00  0.00     0.031 C 
ATOM     50  C   UNL A   1      46.884  24.684  26.186  1.00  0.00     0.029 A 
ATOM     51  C   UNL A   1      46.699  26.061  26.633  1.00  0.00     0.049 A 
ATOM     52  H   UNL A   1      44.988  26.908  27.463  1.00  0.00     0.167 HD
ATOM     53  C   UNL A   1      41.219  28.614  28.925  1.00  0.00     0.037 A 
ATOM     54  C   UNL A   1      47.632  27.031  26.580  1.00  0.00     0.037 A 
ATOM     55  C   UNL A   1      42.175  29.687  28.996  1.00  0.00     0.049 A 
ATOM     56  C   UNL A   1      47.288  28.405  27.085  1.00  0.00     0.074 A 
ATOM     57  C   UNL A   1      41.998  30.970  29.484  1.00  0.00     0.029 A 
ATOM     58  N   UNL A   1      43.491  29.599  28.568  1.00  0.00    -0.354 N 
ATOM     59  N   UNL A   1      46.155  28.846  27.574  1.00  0.00    -0.248 NA
ATOM     60  C   UNL A   1      48.354  29.414  27.037  1.00  0.00     0.031 C 
ATOM     61  C   UNL A   1      43.198  31.671  29.317  1.00  0.00     0.029 A 
ATOM     62  C   UNL A   1      44.134  30.811  28.765  1.00  0.00     0.049 A 
ATOM     63  H   UNL A   1      43.907  28.795  28.182  1.00  0.00     0.167 HD
ATOM     64  C   UNL A   1      46.376  30.174  27.912  1.00  0.00     0.074 A 
ATOM     65  C   UNL A   1      47.757  30.462  27.588  1.00  0.00     0.031 C 
ATOM     66  C   UNL A   1      45.512  31.075  28.440  1.00  0.00     0.037 A 
BRANCH  53  67
ATOM     67  C   UNL A   1      39.811  28.883  29.371  1.00  0.00     0.064 A 
ATOM     68  C   UNL A   1      38.833  29.337  28.474  1.00  0.00     0.173 A 
ATOM     69  C   UNL A   1      39.427  28.652  30.699  1.00  0.00     0.173 A 
ATOM     70  F   UNL A   1      39.153  29.586  27.194  1.00  0.00    -0.203 F 
ATOM     71  C   UNL A   1      37.529  29.577  28.897  1.00  0.00     0.198 A 
ATOM     72  C   UNL A   1      38.114  28.865  31.113  1.00  0.00     0.198 A 
ATOM     73  F   UNL A   1      40.322  28.213  31.597  1.00  0.00    -0.203 F 
ATOM     74  F   UNL A   1      36.623  30.056  28.032  1.00  0.00    -0.200 F 
ATOM     75  C   UNL A   1      37.169  29.334  30.213  1.00  0.00     0.200 A 
ATOM     76  F   UNL A   1      37.765  28.621  32.383  1.00  0.00    -0.200 F 
ATOM     77  F   UNL A   1      35.911  29.559  30.618  1.00  0.00    -0.200 F 
ENDBRANCH  53  67
BRANCH  54  78
ATOM     78  C   UNL A   1      48.985  26.728  26.050  1.00  0.00     0.064 A 
ATOM     79  C   UNL A   1      49.311  27.000  24.715  1.00  0.00     0.173 A 
ATOM     80  C   UNL A   1      49.979  26.166  26.864  1.00  0.00     0.173 A 
ATOM     81  F   UNL A   1      48.387  27.519  23.893  1.00  0.00    -0.203 F 
ATOM     82  C   UNL A   1      50.574  26.704  24.208  1.00  0.00     0.198 A 
ATOM     83  C   UNL A   1      51.250  25.894  26.363  1.00  0.00     0.198 A 
ATOM     84  F   UNL A   1      49.719  25.893  28.151  1.00  0.00    -0.203 F 
ATOM     85  F   UNL A   1      50.847  26.936  22.916  1.00  0.00    -0.200 F 
ATOM     86  C   UNL A   1      51.544  26.157  25.034  1.00  0.00     0.200 A 
ATOM     87  F   UNL A   1      52.189  25.379  27.168  1.00  0.00    -0.200 F 
ATOM     88  F   UNL A   1      52.761  25.877  24.546  1.00  0.00    -0.200 F 
ENDBRANCH  54  78
BRANCH  66  89
ATOM     89  C   UNL A   1      46.045  32.447  28.725  1.00  0.00     0.064 A 
ATOM     90  C   UNL A   1      46.644  32.761  29.953  1.00  0.00     0.173 A 
ATOM     91  C   UNL A   1      45.990  33.448  27.743  1.00  0.00     0.173 A 
ATOM     92  F   UNL A   1      46.705  31.841  30.928  1.00  0.00    -0.203 F 
ATOM     93  C   UNL A   1      47.149  34.034  30.196  1.00  0.00     0.198 A 
ATOM     94  C   UNL A   1      46.521  34.712  27.980  1.00  0.00     0.198 A 
ATOM     95  F   UNL A   1      45.433  33.195  26.550  1.00  0.00    -0.203 F 
ATOM     96  F   UNL A   1      47.678  34.326  31.393  1.00  0.00    -0.200 F 
ATOM     97  C   UNL A   1      47.094  35.006  29.209  1.00  0.00     0.200 A 
ATOM     98  F   UNL A   1      46.477  35.647  27.021  1.00  0.00    -0.200 F 
ATOM     99  F   UNL A   1      47.586  36.230  29.443  1.00  0.00    -0.200 F 
ENDBRANCH  66  89
ENDBRANCH  40  41
ENDBRANCH  32  35
ENDBRANCH  30  31
ENDBRANCH  29  30
ENDBRANCH  28  29
ENDBRANCH   3  28
TORSDOF 17
ENDMDL
