MODEL 1
REMARK VINA RESULT:     -12.1      0.000      0.000
REMARK SMILES O=C(C[C@@H]([NH2+]Cc1ccccc1)C(=O)NCCCNC(=O)c1ccc(-c2c3nc(c(-c4c(F)c(F)c(F)c(F)c4F)c4ccc([nH]4)c(-c4c(F)c(F)c(F)c(F)c4F)c4nc(c(-c5c(F)c(F)c(F)c(F)c5F)c5ccc2[nH]5)C=C4)C=C3)cc1)Nc1cccc(Cl)c1Cl
REMARK SMILES IDX 16 1 15 2 13 3 14 4 4 6 3 7 2 8 1 9 85 10 86 12 87 13 92 14
REMARK SMILES IDX 88 15 90 16 93 17 89 18 91 19 5 20 6 23 7 24 8 25 12 26 9 27
REMARK SMILES IDX 11 28 10 29 17 30 18 31 19 32 20 33 21 35 22 36 23 37 84 38
REMARK SMILES IDX 24 39 83 40 25 41 26 42 27 43 77 44 28 45 82 46 76 47 78 48
REMARK SMILES IDX 29 49 81 50 75 51 74 52 30 54 62 55 42 56 61 57 43 58 46 59
REMARK SMILES IDX 60 60 79 61 44 62 45 63 59 65 80 66 47 67 31 68 32 69 40 70
REMARK SMILES IDX 33 71 34 72 38 73 41 74 35 75 36 76 39 77 37 78 63 79 64 80
REMARK SMILES IDX 72 81 65 82 66 83 70 84 73 85 67 86 68 87 71 88 69 89 48 90
REMARK SMILES IDX 49 91 57 92 50 93 51 94 55 95 58 96 52 97 53 98 56 99 54 100
REMARK H PARENT 15 5 85 11 5 21 5 22 19 34 78 53 46 64
REMARK Flexibility Score: inf
ROOT
ATOM      1  C   UNL A   1      31.242  30.691  25.547  1.00  0.00     0.118 C 
ENDROOT
BRANCH   1   2
ATOM      2  N   UNL A   1      31.804  29.530  26.210  1.00  0.00    -0.351 N 
ATOM      3  C   UNL A   1      32.321  28.379  25.694  1.00  0.00     0.278 C 
ATOM      4  O   UNL A   1      32.733  27.537  26.497  1.00  0.00    -0.268 OA
ATOM      5  H   UNL A   1      31.812  29.581  27.193  1.00  0.00     0.163 HD
BRANCH   3   6
ATOM      6  C   UNL A   1      32.411  28.136  24.175  1.00  0.00     0.282 C 
BRANCH   6   7
ATOM      7  C   UNL A   1      33.813  27.629  23.820  1.00  0.00     0.175 C 
BRANCH   7   8
ATOM      8  C   UNL A   1      33.828  26.151  23.517  1.00  0.00     0.230 C 
ATOM      9  O   UNL A   1      33.542  25.712  22.409  1.00  0.00    -0.274 OA
ATOM     10  N   UNL A   1      34.112  25.388  24.640  1.00  0.00    -0.325 N 
ATOM     11  H   UNL A   1      34.235  25.855  25.498  1.00  0.00     0.169 HD
BRANCH  10  12
ATOM     12  C   UNL A   1      34.236  23.983  24.627  1.00  0.00     0.061 A 
ATOM     13  C   UNL A   1      35.524  23.485  24.381  1.00  0.00     0.028 A 
ATOM     14  C   UNL A   1      33.161  23.090  24.809  1.00  0.00     0.083 A 
ATOM     15  C   UNL A   1      35.767  22.112  24.399  1.00  0.00     0.004 A 
ATOM     16  C   UNL A   1      33.415  21.709  24.809  1.00  0.00     0.061 A 
ATOM     17  Cl  UNL A   1      31.520  23.667  24.826  1.00  0.00    -0.080 Cl
ATOM     18  C   UNL A   1      34.715  21.226  24.622  1.00  0.00     0.022 A 
ATOM     19  Cl  UNL A   1      32.161  20.529  24.993  1.00  0.00    -0.083 Cl
ENDBRANCH  10  12
ENDBRANCH   7   8
ENDBRANCH   6   7
BRANCH   6  20
ATOM     20  N   UNL A   1      31.320  27.234  23.682  1.00  0.00    -0.332 N 
ATOM     21  H   UNL A   1      30.569  27.225  24.371  1.00  0.00     0.347 HD
ATOM     22  H   UNL A   1      31.726  26.307  23.552  1.00  0.00     0.347 HD
BRANCH  20  23
ATOM     23  C   UNL A   1      30.763  27.662  22.381  1.00  0.00     0.297 C 
BRANCH  23  24
ATOM     24  C   UNL A   1      29.706  28.726  22.544  1.00  0.00     0.006 A 
ATOM     25  C   UNL A   1      28.466  28.410  23.122  1.00  0.00     0.009 A 
ATOM     26  C   UNL A   1      29.913  30.016  22.038  1.00  0.00     0.009 A 
ATOM     27  C   UNL A   1      27.442  29.355  23.156  1.00  0.00     0.001 A 
ATOM     28  C   UNL A   1      28.889  30.961  22.079  1.00  0.00     0.001 A 
ATOM     29  C   UNL A   1      27.653  30.628  22.629  1.00  0.00     0.000 A 
ENDBRANCH  23  24
ENDBRANCH  20  23
ENDBRANCH   6  20
ENDBRANCH   3   6
ENDBRANCH   1   2
BRANCH   1  30
ATOM     30  C   UNL A   1      31.156  31.890  26.488  1.00  0.00     0.042 C 
BRANCH  30  31
ATOM     31  C   UNL A   1      32.512  32.453  26.899  1.00  0.00     0.118 C 
BRANCH  31  32
ATOM     32  N   UNL A   1      32.423  33.822  27.380  1.00  0.00    -0.352 N 
ATOM     33  C   UNL A   1      33.121  34.451  28.378  1.00  0.00     0.251 C 
ATOM     34  H   UNL A   1      31.759  34.384  26.918  1.00  0.00     0.163 HD
ATOM     35  O   UNL A   1      32.760  35.566  28.756  1.00  0.00    -0.269 OA
BRANCH  33  36
ATOM     36  C   UNL A   1      34.289  33.806  29.014  1.00  0.00     0.039 A 
ATOM     37  C   UNL A   1      34.069  32.731  29.882  1.00  0.00     0.014 A 
ATOM     38  C   UNL A   1      35.588  34.276  28.804  1.00  0.00     0.014 A 
ATOM     39  C   UNL A   1      35.152  32.105  30.502  1.00  0.00     0.010 A 
ATOM     40  C   UNL A   1      36.672  33.604  29.363  1.00  0.00     0.010 A 
ATOM     41  C   UNL A   1      36.464  32.522  30.230  1.00  0.00    -0.014 A 
BRANCH  41  42
ATOM     42  C   UNL A   1      37.626  31.853  30.867  1.00  0.00     0.031 A 
ATOM     43  C   UNL A   1      38.053  32.239  32.256  1.00  0.00     0.074 A 
ATOM     44  C   UNL A   1      38.326  30.931  30.177  1.00  0.00     0.049 A 
ATOM     45  N   UNL A   1      39.063  31.803  32.965  1.00  0.00    -0.248 NA
ATOM     46  C   UNL A   1      37.251  33.273  32.930  1.00  0.00     0.031 C 
ATOM     47  C   UNL A   1      38.044  30.510  28.805  1.00  0.00     0.029 A 
ATOM     48  N   UNL A   1      39.423  30.191  30.535  1.00  0.00    -0.354 N 
ATOM     49  C   UNL A   1      39.030  32.520  34.153  1.00  0.00     0.074 A 
ATOM     50  C   UNL A   1      37.930  33.455  34.053  1.00  0.00     0.031 C 
ATOM     51  C   UNL A   1      38.931  29.568  28.444  1.00  0.00     0.029 A 
ATOM     52  C   UNL A   1      39.859  29.341  29.548  1.00  0.00     0.049 A 
ATOM     53  H   UNL A   1      39.858  30.262  31.416  1.00  0.00     0.167 HD
ATOM     54  C   UNL A   1      39.831  32.396  35.238  1.00  0.00     0.037 A 
ATOM     55  C   UNL A   1      40.890  28.476  29.538  1.00  0.00     0.037 A 
ATOM     56  C   UNL A   1      40.904  31.443  35.350  1.00  0.00     0.049 A 
ATOM     57  C   UNL A   1      41.745  28.335  30.768  1.00  0.00     0.074 A 
ATOM     58  C   UNL A   1      41.735  31.200  36.429  1.00  0.00     0.029 A 
ATOM     59  N   UNL A   1      41.289  30.572  34.342  1.00  0.00    -0.354 N 
ATOM     60  N   UNL A   1      41.663  28.973  31.910  1.00  0.00    -0.248 NA
ATOM     61  C   UNL A   1      42.828  27.344  30.710  1.00  0.00     0.031 C 
ATOM     62  C   UNL A   1      42.646  30.202  36.064  1.00  0.00     0.029 A 
ATOM     63  C   UNL A   1      42.355  29.795  34.771  1.00  0.00     0.049 A 
ATOM     64  H   UNL A   1      40.870  30.512  33.454  1.00  0.00     0.167 HD
ATOM     65  C   UNL A   1      42.661  28.443  32.715  1.00  0.00     0.074 A 
ATOM     66  C   UNL A   1      43.327  27.420  31.935  1.00  0.00     0.031 C 
ATOM     67  C   UNL A   1      42.997  28.773  33.986  1.00  0.00     0.037 A 
BRANCH  54  68
ATOM     68  C   UNL A   1      39.569  33.311  36.399  1.00  0.00     0.064 A 
ATOM     69  C   UNL A   1      38.694  32.953  37.435  1.00  0.00     0.173 A 
ATOM     70  C   UNL A   1      40.222  34.550  36.492  1.00  0.00     0.173 A 
ATOM     71  F   UNL A   1      38.035  31.785  37.387  1.00  0.00    -0.203 F 
ATOM     72  C   UNL A   1      38.460  33.811  38.506  1.00  0.00     0.198 A 
ATOM     73  C   UNL A   1      40.007  35.394  37.579  1.00  0.00     0.198 A 
ATOM     74  F   UNL A   1      41.073  34.940  35.531  1.00  0.00    -0.203 F 
ATOM     75  F   UNL A   1      37.582  33.466  39.459  1.00  0.00    -0.200 F 
ATOM     76  C   UNL A   1      39.121  35.027  38.580  1.00  0.00     0.200 A 
ATOM     77  F   UNL A   1      40.656  36.564  37.656  1.00  0.00    -0.200 F 
ATOM     78  F   UNL A   1      38.898  35.850  39.615  1.00  0.00    -0.200 F 
ENDBRANCH  54  68
BRANCH  55  79
ATOM     79  C   UNL A   1      41.145  27.642  28.336  1.00  0.00     0.064 A 
ATOM     80  C   UNL A   1      40.526  26.394  28.185  1.00  0.00     0.173 A 
ATOM     81  C   UNL A   1      42.006  28.074  27.317  1.00  0.00     0.173 A 
ATOM     82  F   UNL A   1      39.709  25.932  29.142  1.00  0.00    -0.203 F 
ATOM     83  C   UNL A   1      40.776  25.597  27.068  1.00  0.00     0.198 A 
ATOM     84  C   UNL A   1      42.235  27.288  26.189  1.00  0.00     0.198 A 
ATOM     85  F   UNL A   1      42.616  29.264  27.412  1.00  0.00    -0.203 F 
ATOM     86  F   UNL A   1      40.205  24.390  26.969  1.00  0.00    -0.200 F 
ATOM     87  C   UNL A   1      41.626  26.047  26.070  1.00  0.00     0.200 A 
ATOM     88  F   UNL A   1      43.047  27.731  25.220  1.00  0.00    -0.200 F 
ATOM     89  F   UNL A   1      41.864  25.283  24.996  1.00  0.00    -0.200 F 
ENDBRANCH  55  79
BRANCH  67  90
ATOM     90  C   UNL A   1      44.109  27.995  34.624  1.00  0.00     0.064 A 
ATOM     91  C   UNL A   1      45.440  28.434  34.574  1.00  0.00     0.173 A 
ATOM     92  C   UNL A   1      43.832  26.807  35.319  1.00  0.00     0.173 A 
ATOM     93  F   UNL A   1      45.754  29.555  33.908  1.00  0.00    -0.203 F 
ATOM     94  C   UNL A   1      46.458  27.697  35.172  1.00  0.00     0.198 A 
ATOM     95  C   UNL A   1      44.850  26.088  35.939  1.00  0.00     0.198 A 
ATOM     96  F   UNL A   1      42.575  26.348  35.402  1.00  0.00    -0.203 F 
ATOM     97  F   UNL A   1      47.729  28.109  35.069  1.00  0.00    -0.200 F 
ATOM     98  C   UNL A   1      46.162  26.529  35.858  1.00  0.00     0.200 A 
ATOM     99  F   UNL A   1      44.561  24.964  36.611  1.00  0.00    -0.200 F 
ATOM    100  F   UNL A   1      47.144  25.822  36.435  1.00  0.00    -0.200 F 
ENDBRANCH  67  90
ENDBRANCH  41  42
ENDBRANCH  33  36
ENDBRANCH  31  32
ENDBRANCH  30  31
ENDBRANCH   1  30
TORSDOF 16
ENDMDL
MODEL 2
REMARK VINA RESULT:     -12.0      2.222      3.693
REMARK SMILES O=C(C[C@@H]([NH2+]Cc1ccccc1)C(=O)NCCCNC(=O)c1ccc(-c2c3nc(c(-c4c(F)c(F)c(F)c(F)c4F)c4ccc([nH]4)c(-c4c(F)c(F)c(F)c(F)c4F)c4nc(c(-c5c(F)c(F)c(F)c(F)c5F)c5ccc2[nH]5)C=C4)C=C3)cc1)Nc1cccc(Cl)c1Cl
REMARK SMILES IDX 16 1 15 2 13 3 14 4 4 6 3 7 2 8 1 9 85 10 86 12 87 13 92 14
REMARK SMILES IDX 88 15 90 16 93 17 89 18 91 19 5 20 6 23 7 24 8 25 12 26 9 27
REMARK SMILES IDX 11 28 10 29 17 30 18 31 19 32 20 33 21 35 22 36 23 37 84 38
REMARK SMILES IDX 24 39 83 40 25 41 26 42 27 43 77 44 28 45 82 46 76 47 78 48
REMARK SMILES IDX 29 49 81 50 75 51 74 52 30 54 62 55 42 56 61 57 43 58 46 59
REMARK SMILES IDX 60 60 79 61 44 62 45 63 59 65 80 66 47 67 31 68 32 69 40 70
REMARK SMILES IDX 33 71 34 72 38 73 41 74 35 75 36 76 39 77 37 78 63 79 64 80
REMARK SMILES IDX 72 81 65 82 66 83 70 84 73 85 67 86 68 87 71 88 69 89 48 90
REMARK SMILES IDX 49 91 57 92 50 93 51 94 55 95 58 96 52 97 53 98 56 99 54 100
REMARK H PARENT 15 5 85 11 5 21 5 22 19 34 78 53 46 64
REMARK Flexibility Score: inf
ROOT
ATOM      1  C   UNL A   1      31.686  28.213  24.085  1.00  0.00     0.118 C 
ENDROOT
BRANCH   1   2
ATOM      2  N   UNL A   1      31.324  27.545  25.320  1.00  0.00    -0.351 N 
ATOM      3  C   UNL A   1      31.620  26.293  25.771  1.00  0.00     0.278 C 
ATOM      4  O   UNL A   1      31.173  25.971  26.875  1.00  0.00    -0.268 OA
ATOM      5  H   UNL A   1      30.774  28.084  25.933  1.00  0.00     0.163 HD
BRANCH   3   6
ATOM      6  C   UNL A   1      32.491  25.319  24.953  1.00  0.00     0.282 C 
BRANCH   6   7
ATOM      7  C   UNL A   1      33.967  25.531  25.310  1.00  0.00     0.175 C 
BRANCH   7   8
ATOM      8  C   UNL A   1      34.638  24.254  25.754  1.00  0.00     0.230 C 
ATOM      9  O   UNL A   1      34.305  23.668  26.778  1.00  0.00    -0.274 OA
ATOM     10  N   UNL A   1      35.694  23.901  24.927  1.00  0.00    -0.325 N 
ATOM     11  H   UNL A   1      35.922  24.505  24.184  1.00  0.00     0.169 HD
BRANCH  10  12
ATOM     12  C   UNL A   1      36.460  22.727  25.086  1.00  0.00     0.061 A 
ATOM     13  C   UNL A   1      35.860  21.540  24.642  1.00  0.00     0.028 A 
ATOM     14  C   UNL A   1      37.738  22.690  25.678  1.00  0.00     0.083 A 
ATOM     15  C   UNL A   1      36.552  20.332  24.703  1.00  0.00     0.004 A 
ATOM     16  C   UNL A   1      38.420  21.463  25.750  1.00  0.00     0.061 A 
ATOM     17  Cl  UNL A   1      38.381  24.084  26.494  1.00  0.00    -0.080 Cl
ATOM     18  C   UNL A   1      37.834  20.296  25.249  1.00  0.00     0.022 A 
ATOM     19  Cl  UNL A   1      39.979  21.303  26.486  1.00  0.00    -0.083 Cl
ENDBRANCH  10  12
ENDBRANCH   7   8
ENDBRANCH   6   7
BRANCH   6  20
ATOM     20  N   UNL A   1      32.050  23.896  25.113  1.00  0.00    -0.332 N 
ATOM     21  H   UNL A   1      31.183  23.882  25.650  1.00  0.00     0.347 HD
ATOM     22  H   UNL A   1      32.799  23.395  25.591  1.00  0.00     0.347 HD
BRANCH  20  23
ATOM     23  C   UNL A   1      31.815  23.217  23.821  1.00  0.00     0.297 C 
BRANCH  23  24
ATOM     24  C   UNL A   1      32.150  21.748  23.888  1.00  0.00     0.006 A 
ATOM     25  C   UNL A   1      32.153  20.968  22.720  1.00  0.00     0.009 A 
ATOM     26  C   UNL A   1      32.369  21.125  25.124  1.00  0.00     0.009 A 
ATOM     27  C   UNL A   1      32.334  19.588  22.794  1.00  0.00     0.001 A 
ATOM     28  C   UNL A   1      32.555  19.745  25.194  1.00  0.00     0.001 A 
ATOM     29  C   UNL A   1      32.528  18.977  24.032  1.00  0.00     0.000 A 
ENDBRANCH  23  24
ENDBRANCH  20  23
ENDBRANCH   6  20
ENDBRANCH   3   6
ENDBRANCH   1   2
BRANCH   1  30
ATOM     30  C   UNL A   1      32.960  29.038  24.243  1.00  0.00     0.042 C 
BRANCH  30  31
ATOM     31  C   UNL A   1      33.345  29.311  25.692  1.00  0.00     0.118 C 
BRANCH  31  32
ATOM     32  N   UNL A   1      33.002  30.659  26.115  1.00  0.00    -0.352 N 
ATOM     33  C   UNL A   1      33.514  31.419  27.134  1.00  0.00     0.251 C 
ATOM     34  H   UNL A   1      32.293  31.094  25.587  1.00  0.00     0.163 HD
ATOM     35  O   UNL A   1      32.951  32.470  27.444  1.00  0.00    -0.269 OA
BRANCH  33  36
ATOM     36  C   UNL A   1      34.719  30.989  27.873  1.00  0.00     0.039 A 
ATOM     37  C   UNL A   1      35.782  31.889  28.001  1.00  0.00     0.014 A 
ATOM     38  C   UNL A   1      34.834  29.698  28.397  1.00  0.00     0.014 A 
ATOM     39  C   UNL A   1      36.936  31.510  28.689  1.00  0.00     0.010 A 
ATOM     40  C   UNL A   1      35.953  29.347  29.146  1.00  0.00     0.010 A 
ATOM     41  C   UNL A   1      37.022  30.243  29.287  1.00  0.00    -0.014 A 
BRANCH  41  42
ATOM     42  C   UNL A   1      38.235  29.834  30.038  1.00  0.00     0.031 A 
ATOM     43  C   UNL A   1      38.465  30.336  31.436  1.00  0.00     0.074 A 
ATOM     44  C   UNL A   1      39.154  29.048  29.444  1.00  0.00     0.049 A 
ATOM     45  N   UNL A   1      39.479  30.128  32.237  1.00  0.00    -0.248 NA
ATOM     46  C   UNL A   1      37.426  31.212  32.002  1.00  0.00     0.031 C 
ATOM     47  C   UNL A   1      39.072  28.539  28.074  1.00  0.00     0.029 A 
ATOM     48  N   UNL A   1      40.341  28.547  29.915  1.00  0.00    -0.354 N 
ATOM     49  C   UNL A   1      39.211  30.859  33.386  1.00  0.00     0.074 A 
ATOM     50  C   UNL A   1      37.964  31.556  33.163  1.00  0.00     0.031 C 
ATOM     51  C   UNL A   1      40.150  27.779  27.823  1.00  0.00     0.029 A 
ATOM     52  C   UNL A   1      41.011  27.771  29.002  1.00  0.00     0.049 A 
ATOM     53  H   UNL A   1      40.681  28.728  30.821  1.00  0.00     0.167 HD
ATOM     54  C   UNL A   1      39.930  30.926  34.532  1.00  0.00     0.037 A 
ATOM     55  C   UNL A   1      42.187  27.125  29.107  1.00  0.00     0.037 A 
ATOM     56  C   UNL A   1      41.154  30.205  34.766  1.00  0.00     0.049 A 
ATOM     57  C   UNL A   1      42.950  27.190  30.402  1.00  0.00     0.074 A 
ATOM     58  C   UNL A   1      41.925  30.161  35.913  1.00  0.00     0.029 A 
ATOM     59  N   UNL A   1      41.781  29.397  33.829  1.00  0.00    -0.354 N 
ATOM     60  N   UNL A   1      42.653  27.833  31.505  1.00  0.00    -0.248 NA
ATOM     61  C   UNL A   1      44.205  26.429  30.468  1.00  0.00     0.031 C 
ATOM     62  C   UNL A   1      43.038  29.351  35.662  1.00  0.00     0.029 A 
ATOM     63  C   UNL A   1      42.938  28.858  34.371  1.00  0.00     0.049 A 
ATOM     64  H   UNL A   1      41.455  29.231  32.916  1.00  0.00     0.167 HD
ATOM     65  C   UNL A   1      43.666  27.532  32.405  1.00  0.00     0.074 A 
ATOM     66  C   UNL A   1      44.578  26.638  31.723  1.00  0.00     0.031 C 
ATOM     67  C   UNL A   1      43.828  27.959  33.681  1.00  0.00     0.037 A 
BRANCH  54  68
ATOM     68  C   UNL A   1      39.402  31.805  35.629  1.00  0.00     0.064 A 
ATOM     69  C   UNL A   1      38.472  31.333  36.566  1.00  0.00     0.173 A 
ATOM     70  C   UNL A   1      39.853  33.127  35.761  1.00  0.00     0.173 A 
ATOM     71  F   UNL A   1      38.000  30.080  36.477  1.00  0.00    -0.203 F 
ATOM     72  C   UNL A   1      37.991  32.159  37.578  1.00  0.00     0.198 A 
ATOM     73  C   UNL A   1      39.390  33.943  36.791  1.00  0.00     0.198 A 
ATOM     74  F   UNL A   1      40.745  33.629  34.893  1.00  0.00    -0.203 F 
ATOM     75  F   UNL A   1      37.066  31.700  38.433  1.00  0.00    -0.200 F 
ATOM     76  C   UNL A   1      38.455  33.460  37.694  1.00  0.00     0.200 A 
ATOM     77  F   UNL A   1      39.849  35.197  36.908  1.00  0.00    -0.200 F 
ATOM     78  F   UNL A   1      37.994  34.253  38.672  1.00  0.00    -0.200 F 
ENDBRANCH  54  68
BRANCH  55  79
ATOM     79  C   UNL A   1      42.696  26.323  27.965  1.00  0.00     0.064 A 
ATOM     80  C   UNL A   1      42.345  24.973  27.824  1.00  0.00     0.173 A 
ATOM     81  C   UNL A   1      43.537  26.885  26.995  1.00  0.00     0.173 A 
ATOM     82  F   UNL A   1      41.557  24.388  28.738  1.00  0.00    -0.203 F 
ATOM     83  C   UNL A   1      42.834  24.209  26.766  1.00  0.00     0.198 A 
ATOM     84  C   UNL A   1      44.006  26.127  25.923  1.00  0.00     0.198 A 
ATOM     85  F   UNL A   1      43.896  28.174  27.082  1.00  0.00    -0.203 F 
ATOM     86  F   UNL A   1      42.517  22.911  26.679  1.00  0.00    -0.200 F 
ATOM     87  C   UNL A   1      43.659  24.787  25.814  1.00  0.00     0.200 A 
ATOM     88  F   UNL A   1      44.793  26.692  24.998  1.00  0.00    -0.200 F 
ATOM     89  F   UNL A   1      44.128  24.054  24.796  1.00  0.00    -0.200 F 
ENDBRANCH  55  79
BRANCH  67  90
ATOM     90  C   UNL A   1      45.012  27.432  34.434  1.00  0.00     0.064 A 
ATOM     91  C   UNL A   1      46.242  28.107  34.440  1.00  0.00     0.173 A 
ATOM     92  C   UNL A   1      44.906  26.250  35.183  1.00  0.00     0.173 A 
ATOM     93  F   UNL A   1      46.395  29.233  33.727  1.00  0.00    -0.203 F 
ATOM     94  C   UNL A   1      47.331  27.602  35.145  1.00  0.00     0.198 A 
ATOM     95  C   UNL A   1      45.990  25.763  35.908  1.00  0.00     0.198 A 
ATOM     96  F   UNL A   1      43.750  25.570  35.216  1.00  0.00    -0.203 F 
ATOM     97  F   UNL A   1      48.510  28.237  35.095  1.00  0.00    -0.200 F 
ATOM     98  C   UNL A   1      47.203  26.435  35.882  1.00  0.00     0.200 A 
ATOM     99  F   UNL A   1      45.862  24.640  36.630  1.00  0.00    -0.200 F 
ATOM    100  F   UNL A   1      48.252  25.952  36.562  1.00  0.00    -0.200 F 
ENDBRANCH  67  90
ENDBRANCH  41  42
ENDBRANCH  33  36
ENDBRANCH  31  32
ENDBRANCH  30  31
ENDBRANCH   1  30
TORSDOF 16
ENDMDL
MODEL 3
REMARK VINA RESULT:     -12.0      0.748      2.171
REMARK SMILES O=C(C[C@@H]([NH2+]Cc1ccccc1)C(=O)NCCCNC(=O)c1ccc(-c2c3nc(c(-c4c(F)c(F)c(F)c(F)c4F)c4ccc([nH]4)c(-c4c(F)c(F)c(F)c(F)c4F)c4nc(c(-c5c(F)c(F)c(F)c(F)c5F)c5ccc2[nH]5)C=C4)C=C3)cc1)Nc1cccc(Cl)c1Cl
REMARK SMILES IDX 16 1 15 2 13 3 14 4 4 6 3 7 2 8 1 9 85 10 86 12 87 13 92 14
REMARK SMILES IDX 88 15 90 16 93 17 89 18 91 19 5 20 6 23 7 24 8 25 12 26 9 27
REMARK SMILES IDX 11 28 10 29 17 30 18 31 19 32 20 33 21 35 22 36 23 37 84 38
REMARK SMILES IDX 24 39 83 40 25 41 26 42 27 43 77 44 28 45 82 46 76 47 78 48
REMARK SMILES IDX 29 49 81 50 75 51 74 52 30 54 62 55 42 56 61 57 43 58 46 59
REMARK SMILES IDX 60 60 79 61 44 62 45 63 59 65 80 66 47 67 31 68 32 69 40 70
REMARK SMILES IDX 33 71 34 72 38 73 41 74 35 75 36 76 39 77 37 78 63 79 64 80
REMARK SMILES IDX 72 81 65 82 66 83 70 84 73 85 67 86 68 87 71 88 69 89 48 90
REMARK SMILES IDX 49 91 57 92 50 93 51 94 55 95 58 96 52 97 53 98 56 99 54 100
REMARK H PARENT 15 5 85 11 5 21 5 22 19 34 78 53 46 64
REMARK Flexibility Score: inf
ROOT
ATOM      1  C   UNL A   1      31.283  30.693  25.576  1.00  0.00     0.118 C 
ENDROOT
BRANCH   1   2
ATOM      2  N   UNL A   1      31.586  29.484  26.317  1.00  0.00    -0.351 N 
ATOM      3  C   UNL A   1      32.051  28.275  25.889  1.00  0.00     0.278 C 
ATOM      4  O   UNL A   1      32.219  27.402  26.745  1.00  0.00    -0.268 OA
ATOM      5  H   UNL A   1      31.430  29.545  27.287  1.00  0.00     0.163 HD
BRANCH   3   6
ATOM      6  C   UNL A   1      32.373  28.006  24.406  1.00  0.00     0.282 C 
BRANCH   6   7
ATOM      7  C   UNL A   1      33.788  27.429  24.288  1.00  0.00     0.175 C 
BRANCH   7   8
ATOM      8  C   UNL A   1      33.780  25.951  23.984  1.00  0.00     0.230 C 
ATOM      9  O   UNL A   1      33.716  25.524  22.837  1.00  0.00    -0.274 OA
ATOM     10  N   UNL A   1      33.768  25.178  25.136  1.00  0.00    -0.325 N 
ATOM     11  H   UNL A   1      33.729  25.641  26.004  1.00  0.00     0.169 HD
BRANCH  10  12
ATOM     12  C   UNL A   1      33.808  23.768  25.139  1.00  0.00     0.061 A 
ATOM     13  C   UNL A   1      32.569  23.120  25.248  1.00  0.00     0.028 A 
ATOM     14  C   UNL A   1      34.994  23.009  25.073  1.00  0.00     0.083 A 
ATOM     15  C   UNL A   1      32.493  21.729  25.207  1.00  0.00     0.004 A 
ATOM     16  C   UNL A   1      34.906  21.608  25.049  1.00  0.00     0.061 A 
ATOM     17  Cl  UNL A   1      36.548  23.774  25.229  1.00  0.00    -0.080 Cl
ATOM     18  C   UNL A   1      33.659  20.974  25.099  1.00  0.00     0.022 A 
ATOM     19  Cl  UNL A   1      36.302  20.585  25.002  1.00  0.00    -0.083 Cl
ENDBRANCH  10  12
ENDBRANCH   7   8
ENDBRANCH   6   7
BRANCH   6  20
ATOM     20  N   UNL A   1      31.335  27.148  23.749  1.00  0.00    -0.332 N 
ATOM     21  H   UNL A   1      30.516  27.108  24.354  1.00  0.00     0.347 HD
ATOM     22  H   UNL A   1      31.746  26.226  23.606  1.00  0.00     0.347 HD
BRANCH  20  23
ATOM     23  C   UNL A   1      30.920  27.660  22.426  1.00  0.00     0.297 C 
BRANCH  23  24
ATOM     24  C   UNL A   1      29.799  28.663  22.537  1.00  0.00     0.006 A 
ATOM     25  C   UNL A   1      28.564  28.288  23.089  1.00  0.00     0.009 A 
ATOM     26  C   UNL A   1      29.944  29.952  22.006  1.00  0.00     0.009 A 
ATOM     27  C   UNL A   1      27.487  29.173  23.075  1.00  0.00     0.001 A 
ATOM     28  C   UNL A   1      28.867  30.837  21.998  1.00  0.00     0.001 A 
ATOM     29  C   UNL A   1      27.637  30.444  22.524  1.00  0.00     0.000 A 
ENDBRANCH  23  24
ENDBRANCH  20  23
ENDBRANCH   6  20
ENDBRANCH   3   6
ENDBRANCH   1   2
BRANCH   1  30
ATOM     30  C   UNL A   1      31.201  31.910  26.493  1.00  0.00     0.042 C 
BRANCH  30  31
ATOM     31  C   UNL A   1      32.558  32.477  26.894  1.00  0.00     0.118 C 
BRANCH  31  32
ATOM     32  N   UNL A   1      32.463  33.830  27.417  1.00  0.00    -0.352 N 
ATOM     33  C   UNL A   1      33.149  34.427  28.442  1.00  0.00     0.251 C 
ATOM     34  H   UNL A   1      31.803  34.406  26.966  1.00  0.00     0.163 HD
ATOM     35  O   UNL A   1      32.783  35.530  28.852  1.00  0.00    -0.269 OA
BRANCH  33  36
ATOM     36  C   UNL A   1      34.310  33.763  29.070  1.00  0.00     0.039 A 
ATOM     37  C   UNL A   1      35.595  34.203  28.735  1.00  0.00     0.014 A 
ATOM     38  C   UNL A   1      34.150  32.683  29.943  1.00  0.00     0.014 A 
ATOM     39  C   UNL A   1      36.712  33.591  29.308  1.00  0.00     0.010 A 
ATOM     40  C   UNL A   1      35.260  32.123  30.570  1.00  0.00     0.010 A 
ATOM     41  C   UNL A   1      36.553  32.561  30.248  1.00  0.00    -0.014 A 
BRANCH  41  42
ATOM     42  C   UNL A   1      37.730  31.914  30.879  1.00  0.00     0.031 A 
ATOM     43  C   UNL A   1      38.167  32.321  32.259  1.00  0.00     0.074 A 
ATOM     44  C   UNL A   1      38.435  30.995  30.191  1.00  0.00     0.049 A 
ATOM     45  N   UNL A   1      39.191  31.906  32.961  1.00  0.00    -0.248 NA
ATOM     46  C   UNL A   1      37.358  33.351  32.931  1.00  0.00     0.031 C 
ATOM     47  C   UNL A   1      38.144  30.555  28.826  1.00  0.00     0.029 A 
ATOM     48  N   UNL A   1      39.547  30.273  30.545  1.00  0.00    -0.354 N 
ATOM     49  C   UNL A   1      39.161  32.635  34.142  1.00  0.00     0.074 A 
ATOM     50  C   UNL A   1      38.047  33.554  34.044  1.00  0.00     0.031 C 
ATOM     51  C   UNL A   1      39.040  29.622  28.466  1.00  0.00     0.029 A 
ATOM     52  C   UNL A   1      39.983  29.419  29.562  1.00  0.00     0.049 A 
ATOM     53  H   UNL A   1      39.990  30.359  31.419  1.00  0.00     0.167 HD
ATOM     54  C   UNL A   1      39.975  32.534  35.219  1.00  0.00     0.037 A 
ATOM     55  C   UNL A   1      41.025  28.568  29.549  1.00  0.00     0.037 A 
ATOM     56  C   UNL A   1      41.062  31.597  35.329  1.00  0.00     0.049 A 
ATOM     57  C   UNL A   1      41.895  28.452  30.771  1.00  0.00     0.074 A 
ATOM     58  C   UNL A   1      41.908  31.376  36.401  1.00  0.00     0.029 A 
ATOM     59  N   UNL A   1      41.448  30.720  34.327  1.00  0.00    -0.354 N 
ATOM     60  N   UNL A   1      41.817  29.101  31.907  1.00  0.00    -0.248 NA
ATOM     61  C   UNL A   1      42.991  27.475  30.711  1.00  0.00     0.031 C 
ATOM     62  C   UNL A   1      42.828  30.387  36.037  1.00  0.00     0.029 A 
ATOM     63  C   UNL A   1      42.529  29.963  34.752  1.00  0.00     0.049 A 
ATOM     64  H   UNL A   1      41.020  30.646  33.444  1.00  0.00     0.167 HD
ATOM     65  C   UNL A   1      42.831  28.592  32.707  1.00  0.00     0.074 A 
ATOM     66  C   UNL A   1      43.503  27.571  31.931  1.00  0.00     0.031 C 
ATOM     67  C   UNL A   1      43.177  28.941  33.970  1.00  0.00     0.037 A 
BRANCH  54  68
ATOM     68  C   UNL A   1      39.713  33.458  36.374  1.00  0.00     0.064 A 
ATOM     69  C   UNL A   1      40.322  34.718  36.459  1.00  0.00     0.173 A 
ATOM     70  C   UNL A   1      38.822  33.090  37.393  1.00  0.00     0.173 A 
ATOM     71  F   UNL A   1      41.191  35.113  35.517  1.00  0.00    -0.203 F 
ATOM     72  C   UNL A   1      40.070  35.565  37.535  1.00  0.00     0.198 A 
ATOM     73  C   UNL A   1      38.551  33.951  38.454  1.00  0.00     0.198 A 
ATOM     74  F   UNL A   1      38.209  31.896  37.358  1.00  0.00    -0.203 F 
ATOM     75  F   UNL A   1      40.701  36.745  37.618  1.00  0.00    -0.200 F 
ATOM     76  C   UNL A   1      39.181  35.184  38.527  1.00  0.00     0.200 A 
ATOM     77  F   UNL A   1      37.682  33.585  39.407  1.00  0.00    -0.200 F 
ATOM     78  F   UNL A   1      38.936  36.003  39.561  1.00  0.00    -0.200 F 
ENDBRANCH  54  68
BRANCH  55  79
ATOM     79  C   UNL A   1      41.279  27.726  28.353  1.00  0.00     0.064 A 
ATOM     80  C   UNL A   1      42.167  28.147  27.355  1.00  0.00     0.173 A 
ATOM     81  C   UNL A   1      40.644  26.488  28.184  1.00  0.00     0.173 A 
ATOM     82  F   UNL A   1      42.784  29.333  27.465  1.00  0.00    -0.203 F 
ATOM     83  C   UNL A   1      42.395  27.371  26.219  1.00  0.00     0.198 A 
ATOM     84  C   UNL A   1      40.891  25.700  27.061  1.00  0.00     0.198 A 
ATOM     85  F   UNL A   1      39.790  26.038  29.114  1.00  0.00    -0.203 F 
ATOM     86  F   UNL A   1      43.217  27.817  25.260  1.00  0.00    -0.200 F 
ATOM     87  C   UNL A   1      41.761  26.147  26.076  1.00  0.00     0.200 A 
ATOM     88  F   UNL A   1      40.287  24.512  26.931  1.00  0.00    -0.200 F 
ATOM     89  F   UNL A   1      41.982  25.399  24.986  1.00  0.00    -0.200 F 
ENDBRANCH  55  79
BRANCH  67  90
ATOM     90  C   UNL A   1      44.305  28.185  34.605  1.00  0.00     0.064 A 
ATOM     91  C   UNL A   1      44.089  26.989  35.306  1.00  0.00     0.173 A 
ATOM     92  C   UNL A   1      45.624  28.649  34.485  1.00  0.00     0.173 A 
ATOM     93  F   UNL A   1      42.844  26.514  35.459  1.00  0.00    -0.203 F 
ATOM     94  C   UNL A   1      45.149  26.301  35.889  1.00  0.00     0.198 A 
ATOM     95  C   UNL A   1      46.684  27.943  35.047  1.00  0.00     0.198 A 
ATOM     96  F   UNL A   1      45.885  29.784  33.819  1.00  0.00    -0.203 F 
ATOM     97  F   UNL A   1      44.913  25.188  36.596  1.00  0.00    -0.200 F 
ATOM     98  C   UNL A   1      46.445  26.775  35.754  1.00  0.00     0.200 A 
ATOM     99  F   UNL A   1      47.939  28.397  34.907  1.00  0.00    -0.200 F 
ATOM    100  F   UNL A   1      47.465  26.110  36.315  1.00  0.00    -0.200 F 
ENDBRANCH  67  90
ENDBRANCH  41  42
ENDBRANCH  33  36
ENDBRANCH  31  32
ENDBRANCH  30  31
ENDBRANCH   1  30
TORSDOF 16
ENDMDL
