MODEL 1
REMARK VINA RESULT:     -13.3      0.000      0.000
REMARK SMILES O=C(NCCCNC(=O)c1[nH]ncc1C[N@H+]1CCC[C@H](C(=O)c2ccc3ccccc3c2)C1)c1ccc(-c2c3nc(c(-c4c(F)c(F)c(F)c(F)c4F)c4ccc([nH]4)c(-c4c(F)c(F)c(F)c(F)c4F)c4nc(c(-c5c(F)c(F)c(F)c(F)c5F)c5ccc2[nH]5)C=C4)C=C3)cc1
REMARK SMILES IDX 6 1 5 2 4 3 3 4 1 5 2 6 34 8 35 9 96 10 36 11 95 12 37 13
REMARK SMILES IDX 38 14 39 15 89 16 40 17 94 18 88 19 90 20 41 21 93 22 87 23
REMARK SMILES IDX 86 24 42 26 74 27 54 28 73 29 55 30 58 31 72 32 91 33 56 34
REMARK SMILES IDX 57 35 71 37 92 38 59 39 43 40 44 41 52 42 45 43 46 44 50 45
REMARK SMILES IDX 53 46 47 47 48 48 51 49 49 50 75 51 76 52 84 53 77 54 78 55
REMARK SMILES IDX 82 56 85 57 79 58 80 59 83 60 81 61 60 62 61 63 69 64 62 65
REMARK SMILES IDX 63 66 67 67 70 68 64 69 65 70 68 71 66 72 7 73 8 74 9 76
REMARK SMILES IDX 10 77 11 78 14 79 12 80 13 82 15 83 16 84 17 85 33 86 18 88
REMARK SMILES IDX 20 89 19 90 21 91 22 92 23 93 24 94 32 95 25 96 31 97 26 98
REMARK SMILES IDX 30 99 27 100 29 101 28 102
REMARK H PARENT 3 7 90 25 58 36 7 75 11 81 16 87
REMARK Flexibility Score: inf
ROOT
ATOM      1  C   UNL A   1      33.625  29.170  25.084  1.00  0.00     0.118 C 
ENDROOT
BRANCH   1   2
ATOM      2  C   UNL A   1      34.042  28.216  26.201  1.00  0.00     0.042 C 
BRANCH   2   3
ATOM      3  C   UNL A   1      33.494  28.593  27.574  1.00  0.00     0.118 C 
BRANCH   3   4
ATOM      4  N   UNL A   1      33.548  30.027  27.817  1.00  0.00    -0.352 N 
ATOM      5  O   UNL A   1      34.259  31.967  28.689  1.00  0.00    -0.269 OA
ATOM      6  C   UNL A   1      34.531  30.814  28.360  1.00  0.00     0.251 C 
ATOM      7  H   UNL A   1      32.738  30.517  27.546  1.00  0.00     0.163 HD
BRANCH   6   8
ATOM      8  C   UNL A   1      35.909  30.310  28.564  1.00  0.00     0.039 A 
ATOM      9  C   UNL A   1      36.909  30.498  27.608  1.00  0.00     0.014 A 
ATOM     10  C   UNL A   1      36.233  29.734  29.799  1.00  0.00     0.014 A 
ATOM     11  C   UNL A   1      38.199  30.022  27.842  1.00  0.00     0.010 A 
ATOM     12  C   UNL A   1      37.541  29.314  30.060  1.00  0.00     0.010 A 
ATOM     13  C   UNL A   1      38.530  29.438  29.075  1.00  0.00    -0.014 A 
BRANCH  13  14
ATOM     14  C   UNL A   1      39.932  29.030  29.342  1.00  0.00     0.031 A 
ATOM     15  C   UNL A   1      40.842  29.880  30.179  1.00  0.00     0.074 A 
ATOM     16  C   UNL A   1      40.383  27.872  28.826  1.00  0.00     0.049 A 
ATOM     17  N   UNL A   1      42.084  29.657  30.530  1.00  0.00    -0.248 NA
ATOM     18  C   UNL A   1      40.295  31.150  30.677  1.00  0.00     0.031 C 
ATOM     19  C   UNL A   1      39.610  26.974  27.965  1.00  0.00     0.029 A 
ATOM     20  N   UNL A   1      41.594  27.243  28.962  1.00  0.00    -0.354 N 
ATOM     21  C   UNL A   1      42.475  30.766  31.264  1.00  0.00     0.074 A 
ATOM     22  C   UNL A   1      41.341  31.666  31.307  1.00  0.00     0.031 C 
ATOM     23  C   UNL A   1      40.352  25.893  27.683  1.00  0.00     0.029 A 
ATOM     24  C   UNL A   1      41.658  26.033  28.318  1.00  0.00     0.049 A 
ATOM     25  H   UNL A   1      42.346  27.624  29.471  1.00  0.00     0.167 HD
ATOM     26  C   UNL A   1      43.671  31.010  31.851  1.00  0.00     0.037 A 
ATOM     27  C   UNL A   1      42.656  25.134  28.250  1.00  0.00     0.037 A 
ATOM     28  C   UNL A   1      44.787  30.104  31.851  1.00  0.00     0.049 A 
ATOM     29  C   UNL A   1      43.953  25.406  28.949  1.00  0.00     0.074 A 
ATOM     30  C   UNL A   1      46.011  30.239  32.486  1.00  0.00     0.029 A 
ATOM     31  N   UNL A   1      44.815  28.890  31.184  1.00  0.00    -0.354 N 
ATOM     32  N   UNL A   1      44.296  26.442  29.673  1.00  0.00    -0.248 NA
ATOM     33  C   UNL A   1      45.004  24.388  28.815  1.00  0.00     0.031 C 
ATOM     34  C   UNL A   1      46.787  29.112  32.186  1.00  0.00     0.029 A 
ATOM     35  C   UNL A   1      46.040  28.271  31.377  1.00  0.00     0.049 A 
ATOM     36  H   UNL A   1      44.074  28.520  30.651  1.00  0.00     0.167 HD
ATOM     37  C   UNL A   1      45.603  26.210  30.072  1.00  0.00     0.074 A 
ATOM     38  C   UNL A   1      45.988  24.924  29.529  1.00  0.00     0.031 C 
ATOM     39  C   UNL A   1      46.412  27.001  30.816  1.00  0.00     0.037 A 
BRANCH  26  40
ATOM     40  C   UNL A   1      43.837  32.324  32.546  1.00  0.00     0.064 A 
ATOM     41  C   UNL A   1      44.317  33.452  31.867  1.00  0.00     0.173 A 
ATOM     42  C   UNL A   1      43.477  32.463  33.894  1.00  0.00     0.173 A 
ATOM     43  F   UNL A   1      44.685  33.360  30.581  1.00  0.00    -0.203 F 
ATOM     44  C   UNL A   1      44.439  34.676  32.518  1.00  0.00     0.198 A 
ATOM     45  C   UNL A   1      43.590  33.691  34.539  1.00  0.00     0.198 A 
ATOM     46  F   UNL A   1      43.015  31.408  34.582  1.00  0.00    -0.203 F 
ATOM     47  F   UNL A   1      44.920  35.740  31.860  1.00  0.00    -0.200 F 
ATOM     48  C   UNL A   1      44.072  34.795  33.852  1.00  0.00     0.200 A 
ATOM     49  F   UNL A   1      43.237  33.806  35.827  1.00  0.00    -0.200 F 
ATOM     50  F   UNL A   1      44.191  35.975  34.477  1.00  0.00    -0.200 F 
ENDBRANCH  26  40
BRANCH  27  51
ATOM     51  C   UNL A   1      42.446  23.879  27.492  1.00  0.00     0.064 A 
ATOM     52  C   UNL A   1      42.864  23.771  26.161  1.00  0.00     0.173 A 
ATOM     53  C   UNL A   1      41.867  22.757  28.099  1.00  0.00     0.173 A 
ATOM     54  F   UNL A   1      43.409  24.828  25.542  1.00  0.00    -0.203 F 
ATOM     55  C   UNL A   1      42.713  22.577  25.460  1.00  0.00     0.198 A 
ATOM     56  C   UNL A   1      41.728  21.561  27.401  1.00  0.00     0.198 A 
ATOM     57  F   UNL A   1      41.456  22.821  29.373  1.00  0.00    -0.203 F 
ATOM     58  F   UNL A   1      43.112  22.497  24.183  1.00  0.00    -0.200 F 
ATOM     59  C   UNL A   1      42.150  21.471  26.082  1.00  0.00     0.200 A 
ATOM     60  F   UNL A   1      41.190  20.494  28.006  1.00  0.00    -0.200 F 
ATOM     61  F   UNL A   1      42.014  20.321  25.411  1.00  0.00    -0.200 F 
ENDBRANCH  27  51
BRANCH  39  62
ATOM     62  C   UNL A   1      47.800  26.504  31.065  1.00  0.00     0.064 A 
ATOM     63  C   UNL A   1      48.088  25.717  32.188  1.00  0.00     0.173 A 
ATOM     64  C   UNL A   1      48.837  26.786  30.166  1.00  0.00     0.173 A 
ATOM     65  F   UNL A   1      47.127  25.437  33.081  1.00  0.00    -0.203 F 
ATOM     66  C   UNL A   1      49.375  25.233  32.408  1.00  0.00     0.198 A 
ATOM     67  C   UNL A   1      50.120  26.293  30.384  1.00  0.00     0.198 A 
ATOM     68  F   UNL A   1      48.604  27.539  29.082  1.00  0.00    -0.203 F 
ATOM     69  F   UNL A   1      49.636  24.499  33.497  1.00  0.00    -0.200 F 
ATOM     70  C   UNL A   1      50.388  25.518  31.504  1.00  0.00     0.200 A 
ATOM     71  F   UNL A   1      51.099  26.570  29.513  1.00  0.00    -0.200 F 
ATOM     72  F   UNL A   1      51.626  25.054  31.717  1.00  0.00    -0.200 F 
ENDBRANCH  39  62
ENDBRANCH  13  14
ENDBRANCH   6   8
ENDBRANCH   3   4
ENDBRANCH   2   3
ENDBRANCH   1   2
BRANCH   1  73
ATOM     73  N   UNL A   1      34.029  28.690  23.771  1.00  0.00    -0.351 N 
ATOM     74  C   UNL A   1      33.261  28.226  22.737  1.00  0.00     0.269 C 
ATOM     75  H   UNL A   1      34.998  28.701  23.601  1.00  0.00     0.163 HD
ATOM     76  O   UNL A   1      33.814  27.562  21.857  1.00  0.00    -0.268 OA
BRANCH  74  77
ATOM     77  C   UNL A   1      31.849  28.473  22.730  1.00  0.00     0.131 A 
ATOM     78  N   UNL A   1      31.281  29.354  21.850  1.00  0.00    -0.272 N 
ATOM     79  C   UNL A   1      30.813  28.061  23.561  1.00  0.00     0.057 A 
ATOM     80  N   UNL A   1      29.943  29.407  21.924  1.00  0.00    -0.183 NA
ATOM     81  H   UNL A   1      31.806  29.898  21.219  1.00  0.00     0.190 HD
ATOM     82  C   UNL A   1      29.660  28.634  22.974  1.00  0.00     0.145 A 
BRANCH  79  83
ATOM     83  C   UNL A   1      30.898  27.198  24.779  1.00  0.00     0.303 C 
BRANCH  83  84
ATOM     84  N   UNL A   1      31.216  25.793  24.522  1.00  0.00    -0.330 N 
ATOM     85  C   UNL A   1      30.725  24.861  25.537  1.00  0.00     0.262 C 
ATOM     86  C   UNL A   1      30.919  25.343  23.165  1.00  0.00     0.274 C 
ATOM     87  H   UNL A   1      32.233  25.773  24.602  1.00  0.00     0.348 HD
ATOM     88  C   UNL A   1      31.425  23.514  25.390  1.00  0.00     0.062 C 
ATOM     89  C   UNL A   1      31.586  23.995  22.868  1.00  0.00     0.116 C 
ATOM     90  C   UNL A   1      31.352  22.956  23.968  1.00  0.00     0.023 C 
BRANCH  89  91
ATOM     91  C   UNL A   1      33.029  24.189  22.398  1.00  0.00     0.171 C 
ATOM     92  O   UNL A   1      33.285  24.526  21.241  1.00  0.00    -0.294 OA
BRANCH  91  93
ATOM     93  C   UNL A   1      34.163  24.107  23.344  1.00  0.00     0.019 A 
ATOM     94  C   UNL A   1      34.314  25.045  24.361  1.00  0.00     0.012 A 
ATOM     95  C   UNL A   1      35.015  22.998  23.271  1.00  0.00     0.020 A 
ATOM     96  C   UNL A   1      35.367  24.916  25.270  1.00  0.00     0.009 A 
ATOM     97  C   UNL A   1      36.064  22.846  24.193  1.00  0.00    -0.018 A 
ATOM     98  C   UNL A   1      36.250  23.825  25.197  1.00  0.00    -0.018 A 
ATOM     99  C   UNL A   1      36.926  21.739  24.148  1.00  0.00     0.009 A 
ATOM    100  C   UNL A   1      37.302  23.676  26.115  1.00  0.00     0.009 A 
ATOM    101  C   UNL A   1      37.961  21.601  25.074  1.00  0.00     0.001 A 
ATOM    102  C   UNL A   1      38.151  22.571  26.054  1.00  0.00     0.001 A 
ENDBRANCH  91  93
ENDBRANCH  89  91
ENDBRANCH  83  84
ENDBRANCH  79  83
ENDBRANCH  74  77
ENDBRANCH   1  73
TORSDOF 14
ENDMDL
MODEL 2
REMARK VINA RESULT:     -13.2      3.539      5.141
REMARK SMILES O=C(NCCCNC(=O)c1[nH]ncc1C[N@H+]1CCC[C@H](C(=O)c2ccc3ccccc3c2)C1)c1ccc(-c2c3nc(c(-c4c(F)c(F)c(F)c(F)c4F)c4ccc([nH]4)c(-c4c(F)c(F)c(F)c(F)c4F)c4nc(c(-c5c(F)c(F)c(F)c(F)c5F)c5ccc2[nH]5)C=C4)C=C3)cc1
REMARK SMILES IDX 6 1 5 2 4 3 3 4 1 5 2 6 34 8 35 9 96 10 36 11 95 12 37 13
REMARK SMILES IDX 38 14 39 15 89 16 40 17 94 18 88 19 90 20 41 21 93 22 87 23
REMARK SMILES IDX 86 24 42 26 74 27 54 28 73 29 55 30 58 31 72 32 91 33 56 34
REMARK SMILES IDX 57 35 71 37 92 38 59 39 43 40 44 41 52 42 45 43 46 44 50 45
REMARK SMILES IDX 53 46 47 47 48 48 51 49 49 50 75 51 76 52 84 53 77 54 78 55
REMARK SMILES IDX 82 56 85 57 79 58 80 59 83 60 81 61 60 62 61 63 69 64 62 65
REMARK SMILES IDX 63 66 67 67 70 68 64 69 65 70 68 71 66 72 7 73 8 74 9 76
REMARK SMILES IDX 10 77 11 78 14 79 12 80 13 82 15 83 16 84 17 85 33 86 18 88
REMARK SMILES IDX 20 89 19 90 21 91 22 92 23 93 24 94 32 95 25 96 31 97 26 98
REMARK SMILES IDX 30 99 27 100 29 101 28 102
REMARK H PARENT 3 7 90 25 58 36 7 75 11 81 16 87
REMARK Flexibility Score: inf
ROOT
ATOM      1  C   UNL A   1      31.424  30.528  26.109  1.00  0.00     0.118 C 
ENDROOT
BRANCH   1   2
ATOM      2  C   UNL A   1      31.392  32.005  26.491  1.00  0.00     0.042 C 
BRANCH   2   3
ATOM      3  C   UNL A   1      32.661  32.494  27.182  1.00  0.00     0.118 C 
BRANCH   3   4
ATOM      4  N   UNL A   1      32.561  33.883  27.606  1.00  0.00    -0.352 N 
ATOM      5  O   UNL A   1      32.761  35.673  28.941  1.00  0.00    -0.269 OA
ATOM      6  C   UNL A   1      33.183  34.564  28.621  1.00  0.00     0.251 C 
ATOM      7  H   UNL A   1      31.938  34.428  27.072  1.00  0.00     0.163 HD
BRANCH   6   8
ATOM      8  C   UNL A   1      34.346  33.997  29.342  1.00  0.00     0.039 A 
ATOM      9  C   UNL A   1      34.198  32.987  30.295  1.00  0.00     0.014 A 
ATOM     10  C   UNL A   1      35.631  34.411  28.967  1.00  0.00     0.014 A 
ATOM     11  C   UNL A   1      35.318  32.467  30.942  1.00  0.00     0.010 A 
ATOM     12  C   UNL A   1      36.758  33.845  29.571  1.00  0.00     0.010 A 
ATOM     13  C   UNL A   1      36.609  32.881  30.578  1.00  0.00    -0.014 A 
BRANCH  13  14
ATOM     14  C   UNL A   1      37.791  32.242  31.208  1.00  0.00     0.031 A 
ATOM     15  C   UNL A   1      38.221  32.607  32.598  1.00  0.00     0.074 A 
ATOM     16  C   UNL A   1      38.477  31.315  30.515  1.00  0.00     0.049 A 
ATOM     17  N   UNL A   1      39.214  32.126  33.305  1.00  0.00    -0.248 NA
ATOM     18  C   UNL A   1      37.448  33.655  33.281  1.00  0.00     0.031 C 
ATOM     19  C   UNL A   1      38.185  30.899  29.142  1.00  0.00     0.029 A 
ATOM     20  N   UNL A   1      39.554  30.545  30.874  1.00  0.00    -0.354 N 
ATOM     21  C   UNL A   1      39.202  32.828  34.501  1.00  0.00     0.074 A 
ATOM     22  C   UNL A   1      38.107  33.773  34.426  1.00  0.00     0.031 C 
ATOM     23  C   UNL A   1      39.033  29.922  28.789  1.00  0.00     0.029 A 
ATOM     24  C   UNL A   1      39.946  29.663  29.899  1.00  0.00     0.049 A 
ATOM     25  H   UNL A   1      40.003  30.618  31.747  1.00  0.00     0.167 HD
ATOM     26  C   UNL A   1      40.029  32.694  35.565  1.00  0.00     0.037 A 
ATOM     27  C   UNL A   1      40.928  28.744  29.898  1.00  0.00     0.037 A 
ATOM     28  C   UNL A   1      41.091  31.730  35.666  1.00  0.00     0.049 A 
ATOM     29  C   UNL A   1      41.799  28.583  31.107  1.00  0.00     0.074 A 
ATOM     30  C   UNL A   1      41.928  31.475  36.739  1.00  0.00     0.029 A 
ATOM     31  N   UNL A   1      41.460  30.858  34.654  1.00  0.00    -0.354 N 
ATOM     32  N   UNL A   1      41.751  29.228  32.246  1.00  0.00    -0.248 NA
ATOM     33  C   UNL A   1      42.863  27.573  31.028  1.00  0.00     0.031 C 
ATOM     34  C   UNL A   1      42.819  30.459  36.369  1.00  0.00     0.029 A 
ATOM     35  C   UNL A   1      42.524  30.074  35.071  1.00  0.00     0.049 A 
ATOM     36  H   UNL A   1      41.030  30.803  33.770  1.00  0.00     0.167 HD
ATOM     37  C   UNL A   1      42.783  28.713  33.016  1.00  0.00     0.074 A 
ATOM     38  C   UNL A   1      43.428  27.686  32.224  1.00  0.00     0.031 C 
ATOM     39  C   UNL A   1      43.164  29.069  34.266  1.00  0.00     0.037 A 
BRANCH  26  40
ATOM     40  C   UNL A   1      39.819  33.626  36.716  1.00  0.00     0.064 A 
ATOM     41  C   UNL A   1      40.460  34.871  36.772  1.00  0.00     0.173 A 
ATOM     42  C   UNL A   1      38.939  33.285  37.752  1.00  0.00     0.173 A 
ATOM     43  F   UNL A   1      41.319  35.232  35.808  1.00  0.00    -0.203 F 
ATOM     44  C   UNL A   1      40.232  35.741  37.835  1.00  0.00     0.198 A 
ATOM     45  C   UNL A   1      38.705  34.161  38.808  1.00  0.00     0.198 A 
ATOM     46  F   UNL A   1      38.306  32.101  37.739  1.00  0.00    -0.203 F 
ATOM     47  F   UNL A   1      40.869  36.919  37.884  1.00  0.00    -0.200 F 
ATOM     48  C   UNL A   1      39.353  35.387  38.850  1.00  0.00     0.200 A 
ATOM     49  F   UNL A   1      37.858  33.818  39.788  1.00  0.00    -0.200 F 
ATOM     50  F   UNL A   1      39.136  36.226  39.872  1.00  0.00    -0.200 F 
ENDBRANCH  26  40
BRANCH  27  51
ATOM     51  C   UNL A   1      41.121  27.896  28.700  1.00  0.00     0.064 A 
ATOM     52  C   UNL A   1      40.333  26.757  28.498  1.00  0.00     0.173 A 
ATOM     53  C   UNL A   1      42.061  28.235  27.719  1.00  0.00     0.173 A 
ATOM     54  F   UNL A   1      39.433  26.393  29.422  1.00  0.00    -0.203 F 
ATOM     55  C   UNL A   1      40.478  25.984  27.348  1.00  0.00     0.198 A 
ATOM     56  C   UNL A   1      42.196  27.468  26.565  1.00  0.00     0.198 A 
ATOM     57  F   UNL A   1      42.832  29.320  27.875  1.00  0.00    -0.203 F 
ATOM     58  F   UNL A   1      39.720  24.891  27.178  1.00  0.00    -0.200 F 
ATOM     59  C   UNL A   1      41.405  26.343  26.380  1.00  0.00     0.200 A 
ATOM     60  F   UNL A   1      43.087  27.820  25.629  1.00  0.00    -0.200 F 
ATOM     61  F   UNL A   1      41.536  25.605  25.271  1.00  0.00    -0.200 F 
ENDBRANCH  27  51
BRANCH  39  62
ATOM     62  C   UNL A   1      44.346  28.358  34.841  1.00  0.00     0.064 A 
ATOM     63  C   UNL A   1      45.636  28.890  34.712  1.00  0.00     0.173 A 
ATOM     64  C   UNL A   1      44.189  27.160  35.551  1.00  0.00     0.173 A 
ATOM     65  F   UNL A   1      45.832  30.026  34.026  1.00  0.00    -0.203 F 
ATOM     66  C   UNL A   1      46.734  28.241  35.269  1.00  0.00     0.198 A 
ATOM     67  C   UNL A   1      45.287  26.519  36.115  1.00  0.00     0.198 A 
ATOM     68  F   UNL A   1      42.972  26.615  35.694  1.00  0.00    -0.203 F 
ATOM     69  F   UNL A   1      47.961  28.754  35.119  1.00  0.00    -0.200 F 
ATOM     70  C   UNL A   1      46.558  27.059  35.974  1.00  0.00     0.200 A 
ATOM     71  F   UNL A   1      45.118  25.375  36.794  1.00  0.00    -0.200 F 
ATOM     72  F   UNL A   1      47.615  26.434  36.509  1.00  0.00    -0.200 F 
ENDBRANCH  39  62
ENDBRANCH  13  14
ENDBRANCH   6   8
ENDBRANCH   3   4
ENDBRANCH   2   3
ENDBRANCH   1   2
BRANCH   1  73
ATOM     73  N   UNL A   1      32.607  30.184  25.335  1.00  0.00    -0.351 N 
ATOM     74  C   UNL A   1      32.760  29.258  24.338  1.00  0.00     0.269 C 
ATOM     75  H   UNL A   1      33.418  30.694  25.561  1.00  0.00     0.163 HD
ATOM     76  O   UNL A   1      33.904  28.895  24.056  1.00  0.00    -0.268 OA
BRANCH  74  77
ATOM     77  C   UNL A   1      31.605  28.705  23.696  1.00  0.00     0.131 A 
ATOM     78  N   UNL A   1      31.124  29.218  22.522  1.00  0.00    -0.272 N 
ATOM     79  C   UNL A   1      30.694  27.722  24.070  1.00  0.00     0.057 A 
ATOM     80  N   UNL A   1      30.087  28.534  22.015  1.00  0.00    -0.183 NA
ATOM     81  H   UNL A   1      31.504  30.016  22.088  1.00  0.00     0.190 HD
ATOM     82  C   UNL A   1      29.816  27.636  22.964  1.00  0.00     0.145 A 
BRANCH  79  83
ATOM     83  C   UNL A   1      30.663  26.932  25.339  1.00  0.00     0.303 C 
BRANCH  83  84
ATOM     84  N   UNL A   1      31.624  25.831  25.406  1.00  0.00    -0.330 N 
ATOM     85  C   UNL A   1      32.896  26.171  26.044  1.00  0.00     0.262 C 
ATOM     86  C   UNL A   1      31.072  24.574  25.903  1.00  0.00     0.274 C 
ATOM     87  H   UNL A   1      31.847  25.665  24.425  1.00  0.00     0.348 HD
ATOM     88  C   UNL A   1      33.941  25.107  25.722  1.00  0.00     0.062 C 
ATOM     89  C   UNL A   1      32.018  23.401  25.623  1.00  0.00     0.116 C 
ATOM     90  C   UNL A   1      33.465  23.688  26.035  1.00  0.00     0.023 C 
BRANCH  89  91
ATOM     91  C   UNL A   1      31.799  22.844  24.215  1.00  0.00     0.171 C 
ATOM     92  O   UNL A   1      31.535  23.587  23.268  1.00  0.00    -0.294 OA
BRANCH  91  93
ATOM     93  C   UNL A   1      32.022  21.415  23.910  1.00  0.00     0.019 A 
ATOM     94  C   UNL A   1      32.093  20.968  22.594  1.00  0.00     0.012 A 
ATOM     95  C   UNL A   1      32.281  20.538  24.970  1.00  0.00     0.020 A 
ATOM     96  C   UNL A   1      32.352  19.620  22.334  1.00  0.00     0.009 A 
ATOM     97  C   UNL A   1      32.564  19.185  24.721  1.00  0.00    -0.018 A 
ATOM     98  C   UNL A   1      32.587  18.717  23.385  1.00  0.00    -0.018 A 
ATOM     99  C   UNL A   1      32.836  18.286  25.765  1.00  0.00     0.009 A 
ATOM    100  C   UNL A   1      32.865  17.364  23.135  1.00  0.00     0.009 A 
ATOM    101  C   UNL A   1      33.120  16.946  25.499  1.00  0.00     0.001 A 
ATOM    102  C   UNL A   1      33.130  16.484  24.185  1.00  0.00     0.001 A 
ENDBRANCH  91  93
ENDBRANCH  89  91
ENDBRANCH  83  84
ENDBRANCH  79  83
ENDBRANCH  74  77
ENDBRANCH   1  73
TORSDOF 14
ENDMDL
MODEL 3
REMARK VINA RESULT:     -13.1      3.671      8.408
REMARK SMILES O=C(NCCCNC(=O)c1[nH]ncc1C[N@H+]1CCC[C@H](C(=O)c2ccc3ccccc3c2)C1)c1ccc(-c2c3nc(c(-c4c(F)c(F)c(F)c(F)c4F)c4ccc([nH]4)c(-c4c(F)c(F)c(F)c(F)c4F)c4nc(c(-c5c(F)c(F)c(F)c(F)c5F)c5ccc2[nH]5)C=C4)C=C3)cc1
REMARK SMILES IDX 6 1 5 2 4 3 3 4 1 5 2 6 34 8 35 9 96 10 36 11 95 12 37 13
REMARK SMILES IDX 38 14 39 15 89 16 40 17 94 18 88 19 90 20 41 21 93 22 87 23
REMARK SMILES IDX 86 24 42 26 74 27 54 28 73 29 55 30 58 31 72 32 91 33 56 34
REMARK SMILES IDX 57 35 71 37 92 38 59 39 43 40 44 41 52 42 45 43 46 44 50 45
REMARK SMILES IDX 53 46 47 47 48 48 51 49 49 50 75 51 76 52 84 53 77 54 78 55
REMARK SMILES IDX 82 56 85 57 79 58 80 59 83 60 81 61 60 62 61 63 69 64 62 65
REMARK SMILES IDX 63 66 67 67 70 68 64 69 65 70 68 71 66 72 7 73 8 74 9 76
REMARK SMILES IDX 10 77 11 78 14 79 12 80 13 82 15 83 16 84 17 85 33 86 18 88
REMARK SMILES IDX 20 89 19 90 21 91 22 92 23 93 24 94 32 95 25 96 31 97 26 98
REMARK SMILES IDX 30 99 27 100 29 101 28 102
REMARK H PARENT 3 7 90 25 58 36 7 75 11 81 16 87
REMARK Flexibility Score: inf
ROOT
ATOM      1  C   UNL A   1      31.425  30.593  26.111  1.00  0.00     0.118 C 
ENDROOT
BRANCH   1   2
ATOM      2  C   UNL A   1      31.408  32.076  26.470  1.00  0.00     0.042 C 
BRANCH   2   3
ATOM      3  C   UNL A   1      32.666  32.554  27.188  1.00  0.00     0.118 C 
BRANCH   3   4
ATOM      4  N   UNL A   1      32.580  33.952  27.584  1.00  0.00    -0.352 N 
ATOM      5  O   UNL A   1      32.763  35.760  28.899  1.00  0.00    -0.269 OA
ATOM      6  C   UNL A   1      33.173  34.636  28.615  1.00  0.00     0.251 C 
ATOM      7  H   UNL A   1      31.995  34.502  27.015  1.00  0.00     0.163 HD
BRANCH   6   8
ATOM      8  C   UNL A   1      34.289  34.055  29.396  1.00  0.00     0.039 A 
ATOM      9  C   UNL A   1      34.064  33.158  30.443  1.00  0.00     0.014 A 
ATOM     10  C   UNL A   1      35.601  34.329  28.991  1.00  0.00     0.014 A 
ATOM     11  C   UNL A   1      35.141  32.620  31.147  1.00  0.00     0.010 A 
ATOM     12  C   UNL A   1      36.682  33.740  29.655  1.00  0.00     0.010 A 
ATOM     13  C   UNL A   1      36.460  32.895  30.751  1.00  0.00    -0.014 A 
BRANCH  13  14
ATOM     14  C   UNL A   1      37.589  32.233  31.449  1.00  0.00     0.031 A 
ATOM     15  C   UNL A   1      38.374  31.137  30.790  1.00  0.00     0.074 A 
ATOM     16  C   UNL A   1      37.913  32.634  32.692  1.00  0.00     0.049 A 
ATOM     17  N   UNL A   1      39.406  30.473  31.249  1.00  0.00    -0.248 NA
ATOM     18  C   UNL A   1      37.942  30.723  29.447  1.00  0.00     0.031 C 
ATOM     19  C   UNL A   1      37.204  33.661  33.458  1.00  0.00     0.029 A 
ATOM     20  N   UNL A   1      38.927  32.237  33.526  1.00  0.00    -0.354 N 
ATOM     21  C   UNL A   1      39.728  29.547  30.267  1.00  0.00     0.074 A 
ATOM     22  C   UNL A   1      38.781  29.730  29.187  1.00  0.00     0.031 C 
ATOM     23  C   UNL A   1      37.829  33.842  34.631  1.00  0.00     0.029 A 
ATOM     24  C   UNL A   1      38.963  32.926  34.711  1.00  0.00     0.049 A 
ATOM     25  H   UNL A   1      39.568  31.526  33.295  1.00  0.00     0.167 HD
ATOM     26  C   UNL A   1      40.724  28.630  30.268  1.00  0.00     0.037 A 
ATOM     27  C   UNL A   1      39.816  32.835  35.747  1.00  0.00     0.037 A 
ATOM     28  C   UNL A   1      41.695  28.471  31.316  1.00  0.00     0.049 A 
ATOM     29  C   UNL A   1      40.939  31.844  35.702  1.00  0.00     0.074 A 
ATOM     30  C   UNL A   1      42.784  27.617  31.364  1.00  0.00     0.029 A 
ATOM     31  N   UNL A   1      41.694  29.185  32.504  1.00  0.00    -0.354 N 
ATOM     32  N   UNL A   1      41.255  31.002  34.750  1.00  0.00    -0.248 NA
ATOM     33  C   UNL A   1      41.820  31.787  36.877  1.00  0.00     0.031 C 
ATOM     34  C   UNL A   1      43.434  27.802  32.591  1.00  0.00     0.029 A 
ATOM     35  C   UNL A   1      42.755  28.780  33.299  1.00  0.00     0.049 A 
ATOM     36  H   UNL A   1      41.038  29.877  32.747  1.00  0.00     0.167 HD
ATOM     37  C   UNL A   1      42.361  30.306  35.212  1.00  0.00     0.074 A 
ATOM     38  C   UNL A   1      42.678  30.838  36.522  1.00  0.00     0.031 C 
ATOM     39  C   UNL A   1      43.046  29.308  34.605  1.00  0.00     0.037 A 
BRANCH  26  40
ATOM     40  C   UNL A   1      40.812  27.715  29.088  1.00  0.00     0.064 A 
ATOM     41  C   UNL A   1      41.764  27.916  28.079  1.00  0.00     0.173 A 
ATOM     42  C   UNL A   1      39.961  26.606  28.986  1.00  0.00     0.173 A 
ATOM     43  F   UNL A   1      42.589  28.972  28.130  1.00  0.00    -0.203 F 
ATOM     44  C   UNL A   1      41.854  27.040  27.001  1.00  0.00     0.198 A 
ATOM     45  C   UNL A   1      40.060  25.726  27.913  1.00  0.00     0.198 A 
ATOM     46  F   UNL A   1      39.034  26.378  29.929  1.00  0.00    -0.203 F 
ATOM     47  F   UNL A   1      42.755  27.259  26.034  1.00  0.00    -0.200 F 
ATOM     48  C   UNL A   1      41.005  25.944  26.921  1.00  0.00     0.200 A 
ATOM     49  F   UNL A   1      39.240  24.669  27.835  1.00  0.00    -0.200 F 
ATOM     50  F   UNL A   1      41.093  25.102  25.882  1.00  0.00    -0.200 F 
ENDBRANCH  26  40
BRANCH  27  51
ATOM     51  C   UNL A   1      39.634  33.730  36.912  1.00  0.00     0.064 A 
ATOM     52  C   UNL A   1      40.203  35.008  36.926  1.00  0.00     0.173 A 
ATOM     53  C   UNL A   1      38.851  33.341  38.007  1.00  0.00     0.173 A 
ATOM     54  F   UNL A   1      40.969  35.411  35.902  1.00  0.00    -0.203 F 
ATOM     55  C   UNL A   1      39.993  35.872  37.999  1.00  0.00     0.198 A 
ATOM     56  C   UNL A   1      38.633  34.209  39.073  1.00  0.00     0.198 A 
ATOM     57  F   UNL A   1      38.288  32.125  38.030  1.00  0.00    -0.203 F 
ATOM     58  F   UNL A   1      40.555  37.089  37.996  1.00  0.00    -0.200 F 
ATOM     59  C   UNL A   1      39.204  35.474  39.068  1.00  0.00     0.200 A 
ATOM     60  F   UNL A   1      37.865  33.825  40.101  1.00  0.00    -0.200 F 
ATOM     61  F   UNL A   1      38.994  36.308  40.094  1.00  0.00    -0.200 F 
ENDBRANCH  27  51
BRANCH  39  62
ATOM     62  C   UNL A   1      44.190  28.713  35.362  1.00  0.00     0.064 A 
ATOM     63  C   UNL A   1      45.484  29.233  35.228  1.00  0.00     0.173 A 
ATOM     64  C   UNL A   1      43.989  27.646  36.248  1.00  0.00     0.173 A 
ATOM     65  F   UNL A   1      45.722  30.244  34.379  1.00  0.00    -0.203 F 
ATOM     66  C   UNL A   1      46.545  28.696  35.951  1.00  0.00     0.198 A 
ATOM     67  C   UNL A   1      45.050  27.118  36.976  1.00  0.00     0.198 A 
ATOM     68  F   UNL A   1      42.767  27.118  36.402  1.00  0.00    -0.203 F 
ATOM     69  F   UNL A   1      47.780  29.192  35.795  1.00  0.00    -0.200 F 
ATOM     70  C   UNL A   1      46.327  27.643  36.827  1.00  0.00     0.200 A 
ATOM     71  F   UNL A   1      44.840  26.099  37.821  1.00  0.00    -0.200 F 
ATOM     72  F   UNL A   1      47.349  27.126  37.522  1.00  0.00    -0.200 F 
ENDBRANCH  39  62
ENDBRANCH  13  14
ENDBRANCH   6   8
ENDBRANCH   3   4
ENDBRANCH   2   3
ENDBRANCH   1   2
BRANCH   1  73
ATOM     73  N   UNL A   1      32.615  30.221  25.360  1.00  0.00    -0.351 N 
ATOM     74  C   UNL A   1      32.767  29.286  24.372  1.00  0.00     0.269 C 
ATOM     75  H   UNL A   1      33.431  30.716  25.597  1.00  0.00     0.163 HD
ATOM     76  O   UNL A   1      33.909  28.899  24.112  1.00  0.00    -0.268 OA
BRANCH  74  77
ATOM     77  C   UNL A   1      31.613  28.751  23.712  1.00  0.00     0.131 A 
ATOM     78  N   UNL A   1      31.146  29.285  22.542  1.00  0.00    -0.272 N 
ATOM     79  C   UNL A   1      30.691  27.771  24.066  1.00  0.00     0.057 A 
ATOM     80  N   UNL A   1      30.107  28.616  22.017  1.00  0.00    -0.183 NA
ATOM     81  H   UNL A   1      31.536  30.085  22.122  1.00  0.00     0.190 HD
ATOM     82  C   UNL A   1      29.822  27.706  22.951  1.00  0.00     0.145 A 
BRANCH  79  83
ATOM     83  C   UNL A   1      30.644  26.963  25.322  1.00  0.00     0.303 C 
BRANCH  83  84
ATOM     84  N   UNL A   1      31.621  25.876  25.398  1.00  0.00    -0.330 N 
ATOM     85  C   UNL A   1      32.879  26.232  26.053  1.00  0.00     0.262 C 
ATOM     86  C   UNL A   1      31.081  24.609  25.883  1.00  0.00     0.274 C 
ATOM     87  H   UNL A   1      31.859  25.717  24.419  1.00  0.00     0.348 HD
ATOM     88  C   UNL A   1      33.944  25.186  25.740  1.00  0.00     0.062 C 
ATOM     89  C   UNL A   1      32.048  23.451  25.609  1.00  0.00     0.116 C 
ATOM     90  C   UNL A   1      33.485  23.759  26.041  1.00  0.00     0.023 C 
BRANCH  89  91
ATOM     91  C   UNL A   1      31.856  22.897  24.197  1.00  0.00     0.171 C 
ATOM     92  O   UNL A   1      31.635  23.644  23.242  1.00  0.00    -0.294 OA
BRANCH  91  93
ATOM     93  C   UNL A   1      32.054  21.463  23.899  1.00  0.00     0.019 A 
ATOM     94  C   UNL A   1      32.097  21.005  22.585  1.00  0.00     0.012 A 
ATOM     95  C   UNL A   1      32.319  20.590  24.962  1.00  0.00     0.020 A 
ATOM     96  C   UNL A   1      32.334  19.652  22.332  1.00  0.00     0.009 A 
ATOM     97  C   UNL A   1      32.579  19.232  24.718  1.00  0.00    -0.018 A 
ATOM     98  C   UNL A   1      32.574  18.754  23.386  1.00  0.00    -0.018 A 
ATOM     99  C   UNL A   1      32.857  18.338  25.765  1.00  0.00     0.009 A 
ATOM    100  C   UNL A   1      32.829  17.395  23.143  1.00  0.00     0.009 A 
ATOM    101  C   UNL A   1      33.118  16.992  25.505  1.00  0.00     0.001 A 
ATOM    102  C   UNL A   1      33.100  16.520  24.195  1.00  0.00     0.001 A 
ENDBRANCH  91  93
ENDBRANCH  89  91
ENDBRANCH  83  84
ENDBRANCH  79  83
ENDBRANCH  74  77
ENDBRANCH   1  73
TORSDOF 14
ENDMDL
