MODEL 1
REMARK VINA RESULT:     -12.4      0.000      0.000
REMARK SMILES O=C(CCC(=O)/[NH+]=C1\S[C@H]2CS(=O)(=O)C[C@@H]2N1c1ccc2c(c1)OCO2)NCCCNC(=O)c1ccc(-c2c3nc(c(-c4c(F)c(F)c(F)c(F)c4F)c4ccc([nH]4)c(-c4c(F)c(F)c(F)c(F)c4F)c4nc(c(-c5c(F)c(F)c(F)c(F)c5F)c5ccc2[nH]5)C=C4)C=C3)cc1
REMARK SMILES IDX 28 1 27 2 2 3 1 4 3 6 4 7 5 8 6 9 7 10 8 11 9 13 17 14 10 15
REMARK SMILES IDX 16 16 11 17 15 18 12 19 13 20 14 21 18 22 19 23 23 24 20 25
REMARK SMILES IDX 22 26 21 27 24 28 26 29 25 30 29 31 30 32 31 33 32 34 33 36
REMARK SMILES IDX 34 37 35 38 96 39 36 40 95 41 37 42 38 43 39 44 89 45 40 46
REMARK SMILES IDX 94 47 88 48 90 49 41 50 93 51 87 52 86 53 42 55 74 56 54 57
REMARK SMILES IDX 73 58 55 59 58 60 72 61 91 62 56 63 57 64 71 66 92 67 59 68
REMARK SMILES IDX 43 69 44 70 52 71 45 72 46 73 50 74 53 75 47 76 48 77 51 78
REMARK SMILES IDX 49 79 75 80 76 81 84 82 77 83 78 84 82 85 85 86 79 87 80 88
REMARK SMILES IDX 83 89 81 90 60 91 61 92 69 93 62 94 63 95 67 96 70 97 64 98
REMARK SMILES IDX 65 99 68 100 66 101
REMARK H PARENT 27 5 7 12 31 35 90 54 58 65
REMARK Flexibility Score: inf
ROOT
ATOM      1  C   UNL A   1      34.213  35.091  27.690  1.00  0.00     0.117 C 
ENDROOT
BRANCH   1   2
ATOM      2  N   UNL A   1      35.531  34.655  28.118  1.00  0.00    -0.356 N 
ATOM      3  C   UNL A   1      36.020  33.406  28.344  1.00  0.00     0.220 C 
ATOM      4  O   UNL A   1      37.228  33.277  28.562  1.00  0.00    -0.275 OA
ATOM      5  H   UNL A   1      36.177  35.383  28.268  1.00  0.00     0.163 HD
BRANCH   3   6
ATOM      6  C   UNL A   1      35.104  32.209  28.360  1.00  0.00     0.112 C 
BRANCH   6   7
ATOM      7  C   UNL A   1      35.418  31.050  27.417  1.00  0.00     0.138 C 
BRANCH   7   8
ATOM      8  C   UNL A   1      35.083  29.598  27.755  1.00  0.00     0.308 C 
ATOM      9  O   UNL A   1      35.172  29.224  28.922  1.00  0.00    -0.247 OA
ATOM     10  N   UNL A   1      34.750  28.723  26.758  1.00  0.00    -0.204 N 
ATOM     11  C   UNL A   1      33.665  28.848  26.072  1.00  0.00     0.319 C 
ATOM     12  H   UNL A   1      35.357  27.975  26.558  1.00  0.00     0.316 HD
ATOM     13  S   UNL A   1      32.428  30.115  26.331  1.00  0.00    -0.029 SA
ATOM     14  N   UNL A   1      33.320  28.068  24.970  1.00  0.00    -0.216 N 
ATOM     15  C   UNL A   1      31.352  29.364  25.093  1.00  0.00     0.120 C 
ATOM     16  C   UNL A   1      32.333  28.716  24.113  1.00  0.00     0.212 C 
ATOM     17  C   UNL A   1      30.456  30.207  24.224  1.00  0.00     0.156 C 
ATOM     18  C   UNL A   1      31.461  27.919  23.169  1.00  0.00     0.188 C 
ATOM     19  S   UNL A   1      30.083  29.045  22.897  1.00  0.00     0.155 S 
ATOM     20  O   UNL A   1      28.862  28.348  23.232  1.00  0.00    -0.229 OA
ATOM     21  O   UNL A   1      30.275  29.714  21.626  1.00  0.00    -0.229 OA
BRANCH  14  22
ATOM     22  C   UNL A   1      33.411  26.672  24.939  1.00  0.00     0.132 A 
ATOM     23  C   UNL A   1      34.044  26.014  23.859  1.00  0.00     0.056 A 
ATOM     24  C   UNL A   1      32.781  25.910  25.932  1.00  0.00     0.102 A 
ATOM     25  C   UNL A   1      34.062  24.615  23.771  1.00  0.00     0.055 A 
ATOM     26  C   UNL A   1      32.792  24.539  25.809  1.00  0.00     0.170 A 
ATOM     27  C   UNL A   1      33.421  23.906  24.764  1.00  0.00     0.166 A 
ATOM     28  O   UNL A   1      32.205  23.669  26.671  1.00  0.00    -0.453 OA
ATOM     29  O   UNL A   1      33.346  22.552  24.868  1.00  0.00    -0.454 OA
ATOM     30  C   UNL A   1      32.660  22.414  26.132  1.00  0.00     0.468 C 
ENDBRANCH  14  22
ENDBRANCH   7   8
ENDBRANCH   6   7
ENDBRANCH   3   6
ENDBRANCH   1   2
BRANCH   1  31
ATOM     31  C   UNL A   1      33.163  35.211  28.796  1.00  0.00     0.042 C 
BRANCH  31  32
ATOM     32  C   UNL A   1      33.194  36.486  29.635  1.00  0.00     0.118 C 
BRANCH  32  33
ATOM     33  N   UNL A   1      32.452  36.371  30.880  1.00  0.00    -0.352 N 
ATOM     34  C   UNL A   1      32.674  35.634  32.018  1.00  0.00     0.251 C 
ATOM     35  H   UNL A   1      31.638  36.924  30.914  1.00  0.00     0.163 HD
ATOM     36  O   UNL A   1      31.784  35.618  32.869  1.00  0.00    -0.269 OA
BRANCH  34  37
ATOM     37  C   UNL A   1      33.931  34.882  32.289  1.00  0.00     0.039 A 
ATOM     38  C   UNL A   1      33.832  33.614  32.888  1.00  0.00     0.014 A 
ATOM     39  C   UNL A   1      35.200  35.419  32.084  1.00  0.00     0.014 A 
ATOM     40  C   UNL A   1      34.981  32.915  33.295  1.00  0.00     0.010 A 
ATOM     41  C   UNL A   1      36.346  34.701  32.437  1.00  0.00     0.010 A 
ATOM     42  C   UNL A   1      36.252  33.467  33.087  1.00  0.00    -0.014 A 
BRANCH  42  43
ATOM     43  C   UNL A   1      37.496  32.748  33.459  1.00  0.00     0.031 A 
ATOM     44  C   UNL A   1      38.288  33.108  34.687  1.00  0.00     0.074 A 
ATOM     45  C   UNL A   1      37.998  31.856  32.587  1.00  0.00     0.049 A 
ATOM     46  N   UNL A   1      39.381  32.559  35.161  1.00  0.00    -0.248 NA
ATOM     47  C   UNL A   1      37.823  34.270  35.459  1.00  0.00     0.031 C 
ATOM     48  C   UNL A   1      37.407  31.538  31.288  1.00  0.00     0.029 A 
ATOM     49  N   UNL A   1      39.127  31.082  32.644  1.00  0.00    -0.354 N 
ATOM     50  C   UNL A   1      39.731  33.299  36.286  1.00  0.00     0.074 A 
ATOM     51  C   UNL A   1      38.772  34.381  36.381  1.00  0.00     0.031 C 
ATOM     52  C   UNL A   1      38.177  30.631  30.670  1.00  0.00     0.029 A 
ATOM     53  C   UNL A   1      39.303  30.294  31.536  1.00  0.00     0.049 A 
ATOM     54  H   UNL A   1      39.751  31.091  33.406  1.00  0.00     0.167 HD
ATOM     55  C   UNL A   1      40.741  33.076  37.166  1.00  0.00     0.037 A 
ATOM     56  C   UNL A   1      40.251  29.378  31.261  1.00  0.00     0.037 A 
ATOM     57  C   UNL A   1      41.687  31.989  37.051  1.00  0.00     0.049 A 
ATOM     58  C   UNL A   1      41.299  29.078  32.296  1.00  0.00     0.074 A 
ATOM     59  C   UNL A   1      42.667  31.591  37.946  1.00  0.00     0.029 A 
ATOM     60  N   UNL A   1      41.783  31.134  35.961  1.00  0.00    -0.354 N 
ATOM     61  N   UNL A   1      41.517  29.658  33.450  1.00  0.00    -0.248 NA
ATOM     62  C   UNL A   1      42.207  27.961  32.004  1.00  0.00     0.031 C 
ATOM     63  C   UNL A   1      43.391  30.540  37.373  1.00  0.00     0.029 A 
ATOM     64  C   UNL A   1      42.820  30.231  36.150  1.00  0.00     0.049 A 
ATOM     65  H   UNL A   1      41.200  31.165  35.168  1.00  0.00     0.167 HD
ATOM     66  C   UNL A   1      42.564  28.961  34.037  1.00  0.00     0.074 A 
ATOM     67  C   UNL A   1      42.916  27.895  33.121  1.00  0.00     0.031 C 
ATOM     68  C   UNL A   1      43.178  29.182  35.227  1.00  0.00     0.037 A 
BRANCH  55  69
ATOM     69  C   UNL A   1      40.872  33.996  38.354  1.00  0.00     0.064 A 
ATOM     70  C   UNL A   1      41.664  35.155  38.305  1.00  0.00     0.173 A 
ATOM     71  C   UNL A   1      40.126  33.774  39.525  1.00  0.00     0.173 A 
ATOM     72  F   UNL A   1      42.392  35.428  37.212  1.00  0.00    -0.203 F 
ATOM     73  C   UNL A   1      41.731  36.034  39.384  1.00  0.00     0.198 A 
ATOM     74  C   UNL A   1      40.166  34.675  40.589  1.00  0.00     0.198 A 
ATOM     75  F   UNL A   1      39.337  32.695  39.632  1.00  0.00    -0.203 F 
ATOM     76  F   UNL A   1      42.530  37.108  39.324  1.00  0.00    -0.200 F 
ATOM     77  C   UNL A   1      40.974  35.799  40.522  1.00  0.00     0.200 A 
ATOM     78  F   UNL A   1      39.415  34.458  41.679  1.00  0.00    -0.200 F 
ATOM     79  F   UNL A   1      41.024  36.656  41.552  1.00  0.00    -0.200 F 
ENDBRANCH  55  69
BRANCH  56  80
ATOM     80  C   UNL A   1      40.165  28.602  29.999  1.00  0.00     0.064 A 
ATOM     81  C   UNL A   1      40.799  29.063  28.838  1.00  0.00     0.173 A 
ATOM     82  C   UNL A   1      39.492  27.374  29.937  1.00  0.00     0.173 A 
ATOM     83  F   UNL A   1      41.449  30.236  28.850  1.00  0.00    -0.203 F 
ATOM     84  C   UNL A   1      40.740  28.338  27.651  1.00  0.00     0.198 A 
ATOM     85  C   UNL A   1      39.462  26.634  28.756  1.00  0.00     0.198 A 
ATOM     86  F   UNL A   1      38.889  26.882  31.028  1.00  0.00    -0.203 F 
ATOM     87  F   UNL A   1      41.319  28.823  26.544  1.00  0.00    -0.200 F 
ATOM     88  C   UNL A   1      40.078  27.120  27.613  1.00  0.00     0.200 A 
ATOM     89  F   UNL A   1      38.841  25.447  28.729  1.00  0.00    -0.200 F 
ATOM     90  F   UNL A   1      40.033  26.417  26.474  1.00  0.00    -0.200 F 
ENDBRANCH  56  80
BRANCH  68  91
ATOM     91  C   UNL A   1      44.278  28.231  35.612  1.00  0.00     0.064 A 
ATOM     92  C   UNL A   1      44.028  27.077  36.374  1.00  0.00     0.173 A 
ATOM     93  C   UNL A   1      45.604  28.484  35.230  1.00  0.00     0.173 A 
ATOM     94  F   UNL A   1      42.781  26.791  36.776  1.00  0.00    -0.203 F 
ATOM     95  C   UNL A   1      45.070  26.249  36.785  1.00  0.00     0.198 A 
ATOM     96  C   UNL A   1      46.638  27.631  35.609  1.00  0.00     0.198 A 
ATOM     97  F   UNL A   1      45.903  29.564  34.491  1.00  0.00    -0.203 F 
ATOM     98  F   UNL A   1      44.815  25.202  37.583  1.00  0.00    -0.200 F 
ATOM     99  C   UNL A   1      46.373  26.525  36.401  1.00  0.00     0.200 A 
ATOM    100  F   UNL A   1      47.894  27.890  35.222  1.00  0.00    -0.200 F 
ATOM    101  F   UNL A   1      47.375  25.732  36.806  1.00  0.00    -0.200 F 
ENDBRANCH  68  91
ENDBRANCH  42  43
ENDBRANCH  34  37
ENDBRANCH  32  33
ENDBRANCH  31  32
ENDBRANCH   1  31
TORSDOF 13
ENDMDL
MODEL 2
REMARK VINA RESULT:     -12.0      3.504      6.246
REMARK SMILES O=C(CCC(=O)/[NH+]=C1\S[C@H]2CS(=O)(=O)C[C@@H]2N1c1ccc2c(c1)OCO2)NCCCNC(=O)c1ccc(-c2c3nc(c(-c4c(F)c(F)c(F)c(F)c4F)c4ccc([nH]4)c(-c4c(F)c(F)c(F)c(F)c4F)c4nc(c(-c5c(F)c(F)c(F)c(F)c5F)c5ccc2[nH]5)C=C4)C=C3)cc1
REMARK SMILES IDX 28 1 27 2 2 3 1 4 3 6 4 7 5 8 6 9 7 10 8 11 9 13 17 14 10 15
REMARK SMILES IDX 16 16 11 17 15 18 12 19 13 20 14 21 18 22 19 23 23 24 20 25
REMARK SMILES IDX 22 26 21 27 24 28 26 29 25 30 29 31 30 32 31 33 32 34 33 36
REMARK SMILES IDX 34 37 35 38 96 39 36 40 95 41 37 42 38 43 39 44 89 45 40 46
REMARK SMILES IDX 94 47 88 48 90 49 41 50 93 51 87 52 86 53 42 55 74 56 54 57
REMARK SMILES IDX 73 58 55 59 58 60 72 61 91 62 56 63 57 64 71 66 92 67 59 68
REMARK SMILES IDX 43 69 44 70 52 71 45 72 46 73 50 74 53 75 47 76 48 77 51 78
REMARK SMILES IDX 49 79 75 80 76 81 84 82 77 83 78 84 82 85 85 86 79 87 80 88
REMARK SMILES IDX 83 89 81 90 60 91 61 92 69 93 62 94 63 95 67 96 70 97 64 98
REMARK SMILES IDX 65 99 68 100 66 101
REMARK H PARENT 27 5 7 12 31 35 90 54 58 65
REMARK Flexibility Score: inf
ROOT
ATOM      1  C   UNL A   1      30.980  27.668  24.650  1.00  0.00     0.117 C 
ENDROOT
BRANCH   1   2
ATOM      2  N   UNL A   1      31.576  27.164  23.425  1.00  0.00    -0.356 N 
ATOM      3  C   UNL A   1      31.396  25.983  22.773  1.00  0.00     0.220 C 
ATOM      4  O   UNL A   1      31.909  25.841  21.660  1.00  0.00    -0.275 OA
ATOM      5  H   UNL A   1      32.214  27.778  22.995  1.00  0.00     0.163 HD
BRANCH   3   6
ATOM      6  C   UNL A   1      30.616  24.861  23.409  1.00  0.00     0.112 C 
BRANCH   6   7
ATOM      7  C   UNL A   1      31.382  23.625  23.872  1.00  0.00     0.138 C 
BRANCH   7   8
ATOM      8  C   UNL A   1      32.538  23.697  24.870  1.00  0.00     0.308 C 
ATOM      9  O   UNL A   1      32.478  24.509  25.791  1.00  0.00    -0.247 OA
ATOM     10  N   UNL A   1      33.642  22.909  24.696  1.00  0.00    -0.204 N 
ATOM     11  C   UNL A   1      33.589  21.624  24.800  1.00  0.00     0.319 C 
ATOM     12  H   UNL A   1      34.504  23.336  24.485  1.00  0.00     0.316 HD
ATOM     13  S   UNL A   1      32.124  20.689  25.224  1.00  0.00    -0.029 SA
ATOM     14  N   UNL A   1      34.643  20.755  24.522  1.00  0.00    -0.216 N 
ATOM     15  C   UNL A   1      33.076  19.157  25.269  1.00  0.00     0.120 C 
ATOM     16  C   UNL A   1      34.187  19.397  24.245  1.00  0.00     0.212 C 
ATOM     17  C   UNL A   1      32.462  17.846  24.855  1.00  0.00     0.156 C 
ATOM     18  C   UNL A   1      35.110  18.208  24.396  1.00  0.00     0.188 C 
ATOM     19  S   UNL A   1      33.941  16.852  24.581  1.00  0.00     0.155 S 
ATOM     20  O   UNL A   1      34.254  16.154  25.806  1.00  0.00    -0.229 OA
ATOM     21  O   UNL A   1      33.815  16.172  23.307  1.00  0.00    -0.229 OA
BRANCH  14  22
ATOM     22  C   UNL A   1      35.950  20.935  24.985  1.00  0.00     0.132 A 
ATOM     23  C   UNL A   1      36.409  22.217  25.373  1.00  0.00     0.056 A 
ATOM     24  C   UNL A   1      36.849  19.860  24.972  1.00  0.00     0.102 A 
ATOM     25  C   UNL A   1      37.741  22.426  25.753  1.00  0.00     0.055 A 
ATOM     26  C   UNL A   1      38.158  20.099  25.325  1.00  0.00     0.170 A 
ATOM     27  C   UNL A   1      38.594  21.343  25.714  1.00  0.00     0.166 A 
ATOM     28  O   UNL A   1      39.150  19.171  25.336  1.00  0.00    -0.453 OA
ATOM     29  O   UNL A   1      39.908  21.338  26.062  1.00  0.00    -0.454 OA
ATOM     30  C   UNL A   1      40.223  19.936  25.914  1.00  0.00     0.468 C 
ENDBRANCH  14  22
ENDBRANCH   7   8
ENDBRANCH   6   7
ENDBRANCH   3   6
ENDBRANCH   1   2
BRANCH   1  31
ATOM     31  C   UNL A   1      31.962  28.196  25.698  1.00  0.00     0.042 C 
BRANCH  31  32
ATOM     32  C   UNL A   1      32.908  29.308  25.250  1.00  0.00     0.118 C 
BRANCH  32  33
ATOM     33  N   UNL A   1      32.568  30.607  25.808  1.00  0.00    -0.352 N 
ATOM     34  C   UNL A   1      33.109  31.334  26.840  1.00  0.00     0.251 C 
ATOM     35  H   UNL A   1      31.808  31.048  25.363  1.00  0.00     0.163 HD
ATOM     36  O   UNL A   1      32.512  32.352  27.195  1.00  0.00    -0.269 OA
BRANCH  34  37
ATOM     37  C   UNL A   1      34.380  30.978  27.532  1.00  0.00     0.039 A 
ATOM     38  C   UNL A   1      34.552  29.653  27.968  1.00  0.00     0.014 A 
ATOM     39  C   UNL A   1      35.353  31.916  27.868  1.00  0.00     0.014 A 
ATOM     40  C   UNL A   1      35.663  29.287  28.746  1.00  0.00     0.010 A 
ATOM     41  C   UNL A   1      36.486  31.542  28.595  1.00  0.00     0.010 A 
ATOM     42  C   UNL A   1      36.633  30.240  29.082  1.00  0.00    -0.014 A 
BRANCH  42  43
ATOM     43  C   UNL A   1      37.846  29.892  29.863  1.00  0.00     0.031 A 
ATOM     44  C   UNL A   1      38.092  30.444  31.242  1.00  0.00     0.074 A 
ATOM     45  C   UNL A   1      38.813  29.185  29.252  1.00  0.00     0.049 A 
ATOM     46  N   UNL A   1      39.089  30.215  32.062  1.00  0.00    -0.248 NA
ATOM     47  C   UNL A   1      37.116  31.420  31.748  1.00  0.00     0.031 C 
ATOM     48  C   UNL A   1      38.762  28.731  27.863  1.00  0.00     0.029 A 
ATOM     49  N   UNL A   1      40.034  28.756  29.704  1.00  0.00    -0.354 N 
ATOM     50  C   UNL A   1      38.861  31.010  33.181  1.00  0.00     0.074 A 
ATOM     51  C   UNL A   1      37.667  31.781  32.901  1.00  0.00     0.031 C 
ATOM     52  C   UNL A   1      39.900  28.081  27.576  1.00  0.00     0.029 A 
ATOM     53  C   UNL A   1      40.749  28.061  28.763  1.00  0.00     0.049 A 
ATOM     54  H   UNL A   1      40.364  28.929  30.615  1.00  0.00     0.167 HD
ATOM     55  C   UNL A   1      39.570  31.068  34.338  1.00  0.00     0.037 A 
ATOM     56  C   UNL A   1      41.944  27.450  28.856  1.00  0.00     0.037 A 
ATOM     57  C   UNL A   1      40.761  30.289  34.595  1.00  0.00     0.049 A 
ATOM     58  C   UNL A   1      42.661  27.441  30.177  1.00  0.00     0.074 A 
ATOM     59  C   UNL A   1      41.485  30.169  35.771  1.00  0.00     0.029 A 
ATOM     60  N   UNL A   1      41.415  29.508  33.652  1.00  0.00    -0.354 N 
ATOM     61  N   UNL A   1      42.346  28.046  31.296  1.00  0.00    -0.248 NA
ATOM     62  C   UNL A   1      43.879  26.625  30.256  1.00  0.00     0.031 C 
ATOM     63  C   UNL A   1      42.605  29.368  35.523  1.00  0.00     0.029 A 
ATOM     64  C   UNL A   1      42.545  28.927  34.212  1.00  0.00     0.049 A 
ATOM     65  H   UNL A   1      41.121  29.384  32.721  1.00  0.00     0.167 HD
ATOM     66  C   UNL A   1      43.307  27.661  32.221  1.00  0.00     0.074 A 
ATOM     67  C   UNL A   1      44.198  26.747  31.537  1.00  0.00     0.031 C 
ATOM     68  C   UNL A   1      43.439  28.030  33.520  1.00  0.00     0.037 A 
BRANCH  55  69
ATOM     69  C   UNL A   1      39.075  31.973  35.438  1.00  0.00     0.064 A 
ATOM     70  C   UNL A   1      38.316  31.480  36.512  1.00  0.00     0.173 A 
ATOM     71  C   UNL A   1      39.438  33.331  35.475  1.00  0.00     0.173 A 
ATOM     72  F   UNL A   1      37.945  30.191  36.539  1.00  0.00    -0.203 F 
ATOM     73  C   UNL A   1      37.915  32.309  37.557  1.00  0.00     0.198 A 
ATOM     74  C   UNL A   1      39.066  34.150  36.542  1.00  0.00     0.198 A 
ATOM     75  F   UNL A   1      40.176  33.862  34.489  1.00  0.00    -0.203 F 
ATOM     76  F   UNL A   1      37.154  31.819  38.545  1.00  0.00    -0.200 F 
ATOM     77  C   UNL A   1      38.298  33.641  37.576  1.00  0.00     0.200 A 
ATOM     78  F   UNL A   1      39.460  35.432  36.570  1.00  0.00    -0.200 F 
ATOM     79  F   UNL A   1      37.929  34.433  38.593  1.00  0.00    -0.200 F 
ENDBRANCH  55  69
BRANCH  56  80
ATOM     80  C   UNL A   1      42.465  26.696  27.689  1.00  0.00     0.064 A 
ATOM     81  C   UNL A   1      43.368  27.295  26.801  1.00  0.00     0.173 A 
ATOM     82  C   UNL A   1      42.110  25.359  27.460  1.00  0.00     0.173 A 
ATOM     83  F   UNL A   1      43.729  28.575  26.976  1.00  0.00    -0.203 F 
ATOM     84  C   UNL A   1      43.877  26.596  25.710  1.00  0.00     0.198 A 
ATOM     85  C   UNL A   1      42.646  24.649  26.387  1.00  0.00     0.198 A 
ATOM     86  F   UNL A   1      41.267  24.735  28.296  1.00  0.00    -0.203 F 
ATOM     87  F   UNL A   1      44.705  27.208  24.853  1.00  0.00    -0.200 F 
ATOM     88  C   UNL A   1      43.521  25.271  25.509  1.00  0.00     0.200 A 
ATOM     89  F   UNL A   1      42.319  23.362  26.208  1.00  0.00    -0.200 F 
ATOM     90  F   UNL A   1      44.022  24.593  24.467  1.00  0.00    -0.200 F 
ENDBRANCH  56  80
BRANCH  68  91
ATOM     91  C   UNL A   1      44.579  27.418  34.289  1.00  0.00     0.064 A 
ATOM     92  C   UNL A   1      45.841  28.030  34.356  1.00  0.00     0.173 A 
ATOM     93  C   UNL A   1      44.413  26.193  34.953  1.00  0.00     0.173 A 
ATOM     94  F   UNL A   1      46.060  29.197  33.730  1.00  0.00    -0.203 F 
ATOM     95  C   UNL A   1      46.906  27.412  35.007  1.00  0.00     0.198 A 
ATOM     96  C   UNL A   1      45.469  25.597  35.638  1.00  0.00     0.198 A 
ATOM     97  F   UNL A   1      43.227  25.567  34.935  1.00  0.00    -0.203 F 
ATOM     98  F   UNL A   1      48.121  27.976  34.983  1.00  0.00    -0.200 F 
ATOM     99  C   UNL A   1      46.719  26.198  35.649  1.00  0.00     0.200 A 
ATOM    100  F   UNL A   1      45.282  24.432  36.273  1.00  0.00    -0.200 F 
ATOM    101  F   UNL A   1      47.747  25.600  36.268  1.00  0.00    -0.200 F 
ENDBRANCH  68  91
ENDBRANCH  42  43
ENDBRANCH  34  37
ENDBRANCH  32  33
ENDBRANCH  31  32
ENDBRANCH   1  31
TORSDOF 13
ENDMDL
MODEL 3
REMARK VINA RESULT:     -11.9      3.499      6.288
REMARK SMILES O=C(CCC(=O)/[NH+]=C1\S[C@H]2CS(=O)(=O)C[C@@H]2N1c1ccc2c(c1)OCO2)NCCCNC(=O)c1ccc(-c2c3nc(c(-c4c(F)c(F)c(F)c(F)c4F)c4ccc([nH]4)c(-c4c(F)c(F)c(F)c(F)c4F)c4nc(c(-c5c(F)c(F)c(F)c(F)c5F)c5ccc2[nH]5)C=C4)C=C3)cc1
REMARK SMILES IDX 28 1 27 2 2 3 1 4 3 6 4 7 5 8 6 9 7 10 8 11 9 13 17 14 10 15
REMARK SMILES IDX 16 16 11 17 15 18 12 19 13 20 14 21 18 22 19 23 23 24 20 25
REMARK SMILES IDX 22 26 21 27 24 28 26 29 25 30 29 31 30 32 31 33 32 34 33 36
REMARK SMILES IDX 34 37 35 38 96 39 36 40 95 41 37 42 38 43 39 44 89 45 40 46
REMARK SMILES IDX 94 47 88 48 90 49 41 50 93 51 87 52 86 53 42 55 74 56 54 57
REMARK SMILES IDX 73 58 55 59 58 60 72 61 91 62 56 63 57 64 71 66 92 67 59 68
REMARK SMILES IDX 43 69 44 70 52 71 45 72 46 73 50 74 53 75 47 76 48 77 51 78
REMARK SMILES IDX 49 79 75 80 76 81 84 82 77 83 78 84 82 85 85 86 79 87 80 88
REMARK SMILES IDX 83 89 81 90 60 91 61 92 69 93 62 94 63 95 67 96 70 97 64 98
REMARK SMILES IDX 65 99 68 100 66 101
REMARK H PARENT 27 5 7 12 31 35 90 54 58 65
REMARK Flexibility Score: inf
ROOT
ATOM      1  C   UNL A   1      31.623  27.596  23.866  1.00  0.00     0.117 C 
ENDROOT
BRANCH   1   2
ATOM      2  N   UNL A   1      32.507  26.807  23.025  1.00  0.00    -0.356 N 
ATOM      3  C   UNL A   1      32.341  25.571  22.483  1.00  0.00     0.220 C 
ATOM      4  O   UNL A   1      33.180  25.166  21.673  1.00  0.00    -0.275 OA
ATOM      5  H   UNL A   1      33.365  27.239  22.811  1.00  0.00     0.163 HD
BRANCH   3   6
ATOM      6  C   UNL A   1      31.178  24.700  22.884  1.00  0.00     0.112 C 
BRANCH   6   7
ATOM      7  C   UNL A   1      31.415  23.625  23.941  1.00  0.00     0.138 C 
BRANCH   7   8
ATOM      8  C   UNL A   1      32.576  23.686  24.933  1.00  0.00     0.308 C 
ATOM      9  O   UNL A   1      32.524  24.490  25.861  1.00  0.00    -0.247 OA
ATOM     10  N   UNL A   1      33.679  22.898  24.744  1.00  0.00    -0.204 N 
ATOM     11  C   UNL A   1      33.625  21.613  24.837  1.00  0.00     0.319 C 
ATOM     12  H   UNL A   1      34.539  23.326  24.532  1.00  0.00     0.316 HD
ATOM     13  S   UNL A   1      32.161  20.676  25.260  1.00  0.00    -0.029 SA
ATOM     14  N   UNL A   1      34.675  20.745  24.544  1.00  0.00    -0.216 N 
ATOM     15  C   UNL A   1      33.110  19.142  25.285  1.00  0.00     0.120 C 
ATOM     16  C   UNL A   1      34.216  19.390  24.257  1.00  0.00     0.212 C 
ATOM     17  C   UNL A   1      32.491  17.836  24.863  1.00  0.00     0.156 C 
ATOM     18  C   UNL A   1      35.138  18.198  24.391  1.00  0.00     0.188 C 
ATOM     19  S   UNL A   1      33.968  16.842  24.570  1.00  0.00     0.155 S 
ATOM     20  O   UNL A   1      34.287  16.132  25.787  1.00  0.00    -0.229 OA
ATOM     21  O   UNL A   1      33.832  16.175  23.291  1.00  0.00    -0.229 OA
BRANCH  14  22
ATOM     22  C   UNL A   1      35.985  20.918  25.001  1.00  0.00     0.132 A 
ATOM     23  C   UNL A   1      36.452  22.197  25.387  1.00  0.00     0.056 A 
ATOM     24  C   UNL A   1      36.880  19.839  24.983  1.00  0.00     0.102 A 
ATOM     25  C   UNL A   1      37.787  22.400  25.760  1.00  0.00     0.055 A 
ATOM     26  C   UNL A   1      38.191  20.072  25.329  1.00  0.00     0.170 A 
ATOM     27  C   UNL A   1      38.634  21.314  25.716  1.00  0.00     0.166 A 
ATOM     28  O   UNL A   1      39.179  19.139  25.334  1.00  0.00    -0.453 OA
ATOM     29  O   UNL A   1      39.950  21.302  26.058  1.00  0.00    -0.454 OA
ATOM     30  C   UNL A   1      40.258  19.899  25.908  1.00  0.00     0.468 C 
ENDBRANCH  14  22
ENDBRANCH   7   8
ENDBRANCH   6   7
ENDBRANCH   3   6
ENDBRANCH   1   2
BRANCH   1  31
ATOM     31  C   UNL A   1      32.225  28.086  25.185  1.00  0.00     0.042 C 
BRANCH  31  32
ATOM     32  C   UNL A   1      33.284  29.182  25.089  1.00  0.00     0.118 C 
BRANCH  32  33
ATOM     33  N   UNL A   1      32.831  30.463  25.608  1.00  0.00    -0.352 N 
ATOM     34  C   UNL A   1      33.183  31.177  26.727  1.00  0.00     0.251 C 
ATOM     35  H   UNL A   1      32.144  30.898  25.054  1.00  0.00     0.163 HD
ATOM     36  O   UNL A   1      32.515  32.176  26.998  1.00  0.00    -0.269 OA
BRANCH  34  37
ATOM     37  C   UNL A   1      34.332  30.829  27.609  1.00  0.00     0.039 A 
ATOM     38  C   UNL A   1      35.224  31.852  27.975  1.00  0.00     0.014 A 
ATOM     39  C   UNL A   1      34.631  29.524  27.992  1.00  0.00     0.014 A 
ATOM     40  C   UNL A   1      36.400  31.564  28.688  1.00  0.00     0.010 A 
ATOM     41  C   UNL A   1      35.771  29.243  28.748  1.00  0.00     0.010 A 
ATOM     42  C   UNL A   1      36.692  30.247  29.064  1.00  0.00    -0.014 A 
BRANCH  42  43
ATOM     43  C   UNL A   1      37.898  29.900  29.856  1.00  0.00     0.031 A 
ATOM     44  C   UNL A   1      38.131  30.454  31.237  1.00  0.00     0.074 A 
ATOM     45  C   UNL A   1      38.871  29.193  29.255  1.00  0.00     0.049 A 
ATOM     46  N   UNL A   1      39.121  30.226  32.066  1.00  0.00    -0.248 NA
ATOM     47  C   UNL A   1      37.151  31.430  31.733  1.00  0.00     0.031 C 
ATOM     48  C   UNL A   1      38.832  28.738  27.866  1.00  0.00     0.029 A 
ATOM     49  N   UNL A   1      40.087  28.765  29.718  1.00  0.00    -0.354 N 
ATOM     50  C   UNL A   1      38.883  31.022  33.182  1.00  0.00     0.074 A 
ATOM     51  C   UNL A   1      37.691  31.792  32.891  1.00  0.00     0.031 C 
ATOM     52  C   UNL A   1      39.973  28.089  27.589  1.00  0.00     0.029 A 
ATOM     53  C   UNL A   1      40.812  28.070  28.783  1.00  0.00     0.049 A 
ATOM     54  H   UNL A   1      40.410  28.940  30.632  1.00  0.00     0.167 HD
ATOM     55  C   UNL A   1      39.582  31.082  34.345  1.00  0.00     0.037 A 
ATOM     56  C   UNL A   1      42.006  27.459  28.888  1.00  0.00     0.037 A 
ATOM     57  C   UNL A   1      40.771  30.303  34.614  1.00  0.00     0.049 A 
ATOM     58  C   UNL A   1      42.711  27.452  30.215  1.00  0.00     0.074 A 
ATOM     59  C   UNL A   1      41.484  30.185  35.796  1.00  0.00     0.029 A 
ATOM     60  N   UNL A   1      41.434  29.522  33.677  1.00  0.00    -0.354 N 
ATOM     61  N   UNL A   1      42.386  28.058  31.331  1.00  0.00    -0.248 NA
ATOM     62  C   UNL A   1      43.929  26.637  30.306  1.00  0.00     0.031 C 
ATOM     63  C   UNL A   1      42.607  29.384  35.558  1.00  0.00     0.029 A 
ATOM     64  C   UNL A   1      42.559  28.942  34.247  1.00  0.00     0.049 A 
ATOM     65  H   UNL A   1      41.148  29.397  32.743  1.00  0.00     0.167 HD
ATOM     66  C   UNL A   1      43.339  27.675  32.265  1.00  0.00     0.074 A 
ATOM     67  C   UNL A   1      44.236  26.760  31.589  1.00  0.00     0.031 C 
ATOM     68  C   UNL A   1      43.459  28.045  33.565  1.00  0.00     0.037 A 
BRANCH  55  69
ATOM     69  C   UNL A   1      39.076  31.988  35.440  1.00  0.00     0.064 A 
ATOM     70  C   UNL A   1      38.306  31.496  36.505  1.00  0.00     0.173 A 
ATOM     71  C   UNL A   1      39.441  33.345  35.480  1.00  0.00     0.173 A 
ATOM     72  F   UNL A   1      37.933  30.208  36.529  1.00  0.00    -0.203 F 
ATOM     73  C   UNL A   1      37.894  32.326  37.546  1.00  0.00     0.198 A 
ATOM     74  C   UNL A   1      39.060  34.164  36.543  1.00  0.00     0.198 A 
ATOM     75  F   UNL A   1      40.190  33.875  34.502  1.00  0.00    -0.203 F 
ATOM     76  F   UNL A   1      37.123  31.837  38.527  1.00  0.00    -0.200 F 
ATOM     77  C   UNL A   1      38.280  33.657  37.570  1.00  0.00     0.200 A 
ATOM     78  F   UNL A   1      39.455  35.446  36.575  1.00  0.00    -0.200 F 
ATOM     79  F   UNL A   1      37.901  34.450  38.583  1.00  0.00    -0.200 F 
ENDBRANCH  55  69
BRANCH  56  80
ATOM     80  C   UNL A   1      42.538  26.704  27.726  1.00  0.00     0.064 A 
ATOM     81  C   UNL A   1      42.151  25.376  27.504  1.00  0.00     0.173 A 
ATOM     82  C   UNL A   1      43.402  27.300  26.797  1.00  0.00     0.173 A 
ATOM     83  F   UNL A   1      41.331  24.764  28.371  1.00  0.00    -0.203 F 
ATOM     84  C   UNL A   1      42.629  24.661  26.410  1.00  0.00     0.198 A 
ATOM     85  C   UNL A   1      43.854  26.593  25.684  1.00  0.00     0.198 A 
ATOM     86  F   UNL A   1      43.783  28.576  26.955  1.00  0.00    -0.203 F 
ATOM     87  F   UNL A   1      42.277  23.378  26.246  1.00  0.00    -0.200 F 
ATOM     88  C   UNL A   1      43.475  25.272  25.497  1.00  0.00     0.200 A 
ATOM     89  F   UNL A   1      44.652  27.193  24.791  1.00  0.00    -0.200 F 
ATOM     90  F   UNL A   1      43.925  24.587  24.437  1.00  0.00    -0.200 F 
ENDBRANCH  56  80
BRANCH  68  91
ATOM     91  C   UNL A   1      44.593  27.435  34.344  1.00  0.00     0.064 A 
ATOM     92  C   UNL A   1      44.448  26.222  35.036  1.00  0.00     0.173 A 
ATOM     93  C   UNL A   1      45.837  28.081  34.414  1.00  0.00     0.173 A 
ATOM     94  F   UNL A   1      43.278  25.567  35.013  1.00  0.00    -0.203 F 
ATOM     95  C   UNL A   1      45.484  25.711  35.815  1.00  0.00     0.198 A 
ATOM     96  C   UNL A   1      46.884  27.546  35.161  1.00  0.00     0.198 A 
ATOM     97  F   UNL A   1      46.039  29.237  33.763  1.00  0.00    -0.203 F 
ATOM     98  F   UNL A   1      45.292  24.596  36.534  1.00  0.00    -0.200 F 
ATOM     99  C   UNL A   1      46.702  26.372  35.874  1.00  0.00     0.200 A 
ATOM    100  F   UNL A   1      48.065  28.177  35.203  1.00  0.00    -0.200 F 
ATOM    101  F   UNL A   1      47.694  25.884  36.631  1.00  0.00    -0.200 F 
ENDBRANCH  68  91
ENDBRANCH  42  43
ENDBRANCH  34  37
ENDBRANCH  32  33
ENDBRANCH  31  32
ENDBRANCH   1  31
TORSDOF 13
ENDMDL
