MODEL 1
REMARK VINA RESULT:     -10.9      0.000      0.000
REMARK SMILES CN1N=C(CC(=O)NCCCNC(=O)c2ccc(-c3c4nc(c(-c5c(F)c(F)c(F)c(F)c5F)c5ccc([nH]5)c(-c5c(F)c(F)c(F)c(F)c5F)c5nc(c(-c6c(F)c(F)c(F)c(F)c6F)c6ccc3[nH]6)C=C5)C=C4)cc2)CC1=O
REMARK SMILES IDX 10 1 9 2 8 3 6 4 7 5 5 7 4 8 1 9 2 10 3 11 79 12 78 13 80 14
REMARK SMILES IDX 11 15 12 16 13 17 14 19 15 20 16 21 77 22 17 23 76 24 18 25
REMARK SMILES IDX 19 26 20 27 70 28 21 29 75 30 69 31 71 32 22 33 74 34 68 35
REMARK SMILES IDX 67 36 23 38 55 39 35 40 54 41 36 42 39 43 53 44 72 45 37 46
REMARK SMILES IDX 38 47 52 49 73 50 40 51 24 52 25 53 33 54 26 55 27 56 31 57
REMARK SMILES IDX 34 58 28 59 29 60 32 61 30 62 56 63 57 64 65 65 58 66 59 67
REMARK SMILES IDX 63 68 66 69 60 70 61 71 64 72 62 73 41 74 42 75 50 76 43 77
REMARK SMILES IDX 44 78 48 79 51 80 45 81 46 82 49 83 47 84
REMARK H PARENT 8 6 12 18 71 37 39 48
REMARK Flexibility Score: inf
ROOT
ATOM      1  C   UNL A   1      42.474  19.603  26.922  1.00  0.00     0.042 C 
ENDROOT
BRANCH   1   2
ATOM      2  C   UNL A   1      42.991  18.738  25.777  1.00  0.00     0.117 C 
BRANCH   2   3
ATOM      3  N   UNL A   1      44.387  18.388  25.946  1.00  0.00    -0.356 N 
ATOM      4  C   UNL A   1      45.480  18.837  25.263  1.00  0.00     0.225 C 
ATOM      5  O   UNL A   1      46.586  18.395  25.570  1.00  0.00    -0.275 OA
ATOM      6  H   UNL A   1      44.574  17.731  26.655  1.00  0.00     0.163 HD
BRANCH   4   7
ATOM      7  C   UNL A   1      45.316  19.908  24.217  1.00  0.00     0.153 C 
BRANCH   7   8
ATOM      8  C   UNL A   1      45.376  21.304  24.737  1.00  0.00     0.057 C 
ATOM      9  C   UNL A   1      45.953  23.694  27.235  1.00  0.00     0.177 C 
ATOM     10  N   UNL A   1      45.617  22.995  26.020  1.00  0.00    -0.237 N 
ATOM     11  N   UNL A   1      45.739  21.628  25.940  1.00  0.00    -0.179 NA
ATOM     12  C   UNL A   1      45.173  23.605  24.852  1.00  0.00     0.248 C 
ATOM     13  C   UNL A   1      44.970  22.475  23.890  1.00  0.00     0.156 C 
ATOM     14  O   UNL A   1      44.995  24.789  24.620  1.00  0.00    -0.273 OA
ENDBRANCH   7   8
ENDBRANCH   4   7
ENDBRANCH   2   3
ENDBRANCH   1   2
BRANCH   1  15
ATOM     15  C   UNL A   1      42.052  21.006  26.493  1.00  0.00     0.118 C 
BRANCH  15  16
ATOM     16  N   UNL A   1      40.640  21.075  26.141  1.00  0.00    -0.352 N 
ATOM     17  C   UNL A   1      39.716  22.069  26.331  1.00  0.00     0.251 C 
ATOM     18  H   UNL A   1      40.292  20.273  25.690  1.00  0.00     0.163 HD
ATOM     19  O   UNL A   1      38.527  21.823  26.147  1.00  0.00    -0.269 OA
BRANCH  17  20
ATOM     20  C   UNL A   1      40.125  23.425  26.759  1.00  0.00     0.039 A 
ATOM     21  C   UNL A   1      40.690  23.578  28.030  1.00  0.00     0.014 A 
ATOM     22  C   UNL A   1      39.904  24.548  25.959  1.00  0.00     0.014 A 
ATOM     23  C   UNL A   1      41.069  24.846  28.474  1.00  0.00     0.010 A 
ATOM     24  C   UNL A   1      40.362  25.799  26.368  1.00  0.00     0.010 A 
ATOM     25  C   UNL A   1      40.936  25.964  27.636  1.00  0.00    -0.014 A 
BRANCH  25  26
ATOM     26  C   UNL A   1      41.396  27.304  28.085  1.00  0.00     0.031 A 
ATOM     27  C   UNL A   1      42.845  27.692  27.989  1.00  0.00     0.074 A 
ATOM     28  C   UNL A   1      40.506  28.160  28.621  1.00  0.00     0.049 A 
ATOM     29  N   UNL A   1      43.424  28.822  28.320  1.00  0.00    -0.248 NA
ATOM     30  C   UNL A   1      43.771  26.671  27.483  1.00  0.00     0.031 C 
ATOM     31  C   UNL A   1      39.088  27.875  28.835  1.00  0.00     0.029 A 
ATOM     32  N   UNL A   1      40.664  29.441  29.087  1.00  0.00    -0.354 N 
ATOM     33  C   UNL A   1      44.778  28.638  28.074  1.00  0.00     0.074 A 
ATOM     34  C   UNL A   1      44.943  27.272  27.628  1.00  0.00     0.031 C 
ATOM     35  C   UNL A   1      38.498  28.957  29.364  1.00  0.00     0.029 A 
ATOM     36  C   UNL A   1      39.503  29.998  29.560  1.00  0.00     0.049 A 
ATOM     37  H   UNL A   1      41.527  29.914  29.083  1.00  0.00     0.167 HD
ATOM     38  C   UNL A   1      45.789  29.534  28.188  1.00  0.00     0.037 A 
ATOM     39  C   UNL A   1      39.270  31.211  30.096  1.00  0.00     0.037 A 
ATOM     40  C   UNL A   1      45.617  30.896  28.629  1.00  0.00     0.049 A 
ATOM     41  C   UNL A   1      40.400  32.196  30.197  1.00  0.00     0.074 A 
ATOM     42  C   UNL A   1      46.561  31.905  28.710  1.00  0.00     0.029 A 
ATOM     43  N   UNL A   1      44.420  31.435  29.082  1.00  0.00    -0.354 N 
ATOM     44  N   UNL A   1      41.661  32.046  29.872  1.00  0.00    -0.248 NA
ATOM     45  C   UNL A   1      40.068  33.526  30.721  1.00  0.00     0.031 C 
ATOM     46  C   UNL A   1      45.952  33.031  29.276  1.00  0.00     0.029 A 
ATOM     47  C   UNL A   1      44.609  32.751  29.477  1.00  0.00     0.049 A 
ATOM     48  H   UNL A   1      43.562  30.953  29.116  1.00  0.00     0.167 HD
ATOM     49  C   UNL A   1      42.272  33.266  30.133  1.00  0.00     0.074 A 
ATOM     50  C   UNL A   1      41.233  34.152  30.621  1.00  0.00     0.031 C 
ATOM     51  C   UNL A   1      43.573  33.620  29.983  1.00  0.00     0.037 A 
BRANCH  38  52
ATOM     52  C   UNL A   1      47.176  29.054  27.853  1.00  0.00     0.064 A 
ATOM     53  C   UNL A   1      47.613  28.909  26.525  1.00  0.00     0.173 A 
ATOM     54  C   UNL A   1      48.082  28.727  28.874  1.00  0.00     0.173 A 
ATOM     55  F   UNL A   1      46.789  29.200  25.506  1.00  0.00    -0.203 F 
ATOM     56  C   UNL A   1      48.879  28.405  26.235  1.00  0.00     0.198 A 
ATOM     57  C   UNL A   1      49.361  28.262  28.580  1.00  0.00     0.198 A 
ATOM     58  F   UNL A   1      47.726  28.854  30.161  1.00  0.00    -0.203 F 
ATOM     59  F   UNL A   1      49.242  28.203  24.960  1.00  0.00    -0.200 F 
ATOM     60  C   UNL A   1      49.754  28.086  27.262  1.00  0.00     0.200 A 
ATOM     61  F   UNL A   1      50.212  27.970  29.574  1.00  0.00    -0.200 F 
ATOM     62  F   UNL A   1      50.970  27.597  26.982  1.00  0.00    -0.200 F 
ENDBRANCH  38  52
BRANCH  39  63
ATOM     63  C   UNL A   1      37.898  31.556  30.548  1.00  0.00     0.064 A 
ATOM     64  C   UNL A   1      37.532  31.461  31.898  1.00  0.00     0.173 A 
ATOM     65  C   UNL A   1      36.936  32.029  29.643  1.00  0.00     0.173 A 
ATOM     66  F   UNL A   1      38.411  30.997  32.799  1.00  0.00    -0.203 F 
ATOM     67  C   UNL A   1      36.253  31.817  32.323  1.00  0.00     0.198 A 
ATOM     68  C   UNL A   1      35.668  32.413  30.073  1.00  0.00     0.198 A 
ATOM     69  F   UNL A   1      37.241  32.148  28.342  1.00  0.00    -0.203 F 
ATOM     70  F   UNL A   1      35.918  31.683  33.613  1.00  0.00    -0.200 F 
ATOM     71  C   UNL A   1      35.326  32.301  31.412  1.00  0.00     0.200 A 
ATOM     72  F   UNL A   1      34.784  32.899  29.194  1.00  0.00    -0.200 F 
ATOM     73  F   UNL A   1      34.102  32.659  31.825  1.00  0.00    -0.200 F 
ENDBRANCH  39  63
BRANCH  51  74
ATOM     74  C   UNL A   1      43.940  35.037  30.331  1.00  0.00     0.064 A 
ATOM     75  C   UNL A   1      44.351  35.401  31.623  1.00  0.00     0.173 A 
ATOM     76  C   UNL A   1      43.880  36.046  29.357  1.00  0.00     0.173 A 
ATOM     77  F   UNL A   1      44.416  34.480  32.596  1.00  0.00    -0.203 F 
ATOM     78  C   UNL A   1      44.638  36.727  31.938  1.00  0.00     0.198 A 
ATOM     79  C   UNL A   1      44.206  37.364  29.665  1.00  0.00     0.198 A 
ATOM     80  F   UNL A   1      43.503  35.755  28.103  1.00  0.00    -0.203 F 
ATOM     81  F   UNL A   1      44.955  37.062  33.196  1.00  0.00    -0.200 F 
ATOM     82  C   UNL A   1      44.570  37.706  30.958  1.00  0.00     0.200 A 
ATOM     83  F   UNL A   1      44.158  38.305  28.712  1.00  0.00    -0.200 F 
ATOM     84  F   UNL A   1      44.844  38.982  31.262  1.00  0.00    -0.200 F 
ENDBRANCH  51  74
ENDBRANCH  25  26
ENDBRANCH  17  20
ENDBRANCH  15  16
ENDBRANCH   1  15
TORSDOF 11
ENDMDL
MODEL 2
REMARK VINA RESULT:     -10.9      6.389     11.903
REMARK SMILES CN1N=C(CC(=O)NCCCNC(=O)c2ccc(-c3c4nc(c(-c5c(F)c(F)c(F)c(F)c5F)c5ccc([nH]5)c(-c5c(F)c(F)c(F)c(F)c5F)c5nc(c(-c6c(F)c(F)c(F)c(F)c6F)c6ccc3[nH]6)C=C5)C=C4)cc2)CC1=O
REMARK SMILES IDX 10 1 9 2 8 3 6 4 7 5 5 7 4 8 1 9 2 10 3 11 79 12 78 13 80 14
REMARK SMILES IDX 11 15 12 16 13 17 14 19 15 20 16 21 77 22 17 23 76 24 18 25
REMARK SMILES IDX 19 26 20 27 70 28 21 29 75 30 69 31 71 32 22 33 74 34 68 35
REMARK SMILES IDX 67 36 23 38 55 39 35 40 54 41 36 42 39 43 53 44 72 45 37 46
REMARK SMILES IDX 38 47 52 49 73 50 40 51 24 52 25 53 33 54 26 55 27 56 31 57
REMARK SMILES IDX 34 58 28 59 29 60 32 61 30 62 56 63 57 64 65 65 58 66 59 67
REMARK SMILES IDX 63 68 66 69 60 70 61 71 64 72 62 73 41 74 42 75 50 76 43 77
REMARK SMILES IDX 44 78 48 79 51 80 45 81 46 82 49 83 47 84
REMARK H PARENT 8 6 12 18 71 37 39 48
REMARK Flexibility Score: inf
ROOT
ATOM      1  C   UNL A   1      32.395  28.054  25.947  1.00  0.00     0.042 C 
ENDROOT
BRANCH   1   2
ATOM      2  C   UNL A   1      31.072  28.176  25.197  1.00  0.00     0.117 C 
BRANCH   2   3
ATOM      3  N   UNL A   1      31.224  27.921  23.779  1.00  0.00    -0.356 N 
ATOM      4  C   UNL A   1      30.308  28.046  22.775  1.00  0.00     0.225 C 
ATOM      5  O   UNL A   1      30.653  27.765  21.628  1.00  0.00    -0.275 OA
ATOM      6  H   UNL A   1      32.116  27.612  23.500  1.00  0.00     0.163 HD
BRANCH   4   7
ATOM      7  C   UNL A   1      28.939  28.593  23.080  1.00  0.00     0.153 C 
BRANCH   7   8
ATOM      8  C   UNL A   1      28.693  29.976  22.581  1.00  0.00     0.057 C 
ATOM      9  C   UNL A   1      28.027  32.327  20.068  1.00  0.00     0.177 C 
ATOM     10  N   UNL A   1      28.319  31.649  21.305  1.00  0.00    -0.237 N 
ATOM     11  N   UNL A   1      28.442  30.280  21.344  1.00  0.00    -0.179 NA
ATOM     12  C   UNL A   1      28.481  32.278  22.535  1.00  0.00     0.248 C 
ATOM     13  C   UNL A   1      28.757  31.164  23.496  1.00  0.00     0.156 C 
ATOM     14  O   UNL A   1      28.403  33.464  22.810  1.00  0.00    -0.273 OA
ENDBRANCH   7   8
ENDBRANCH   4   7
ENDBRANCH   2   3
ENDBRANCH   1   2
BRANCH   1  15
ATOM     15  C   UNL A   1      33.425  29.111  25.556  1.00  0.00     0.118 C 
BRANCH  15  16
ATOM     16  N   UNL A   1      33.019  30.452  25.951  1.00  0.00    -0.352 N 
ATOM     17  C   UNL A   1      33.456  31.257  26.971  1.00  0.00     0.251 C 
ATOM     18  H   UNL A   1      32.313  30.848  25.392  1.00  0.00     0.163 HD
ATOM     19  O   UNL A   1      32.818  32.268  27.250  1.00  0.00    -0.269 OA
BRANCH  17  20
ATOM     20  C   UNL A   1      34.674  30.924  27.743  1.00  0.00     0.039 A 
ATOM     21  C   UNL A   1      34.750  29.669  28.356  1.00  0.00     0.014 A 
ATOM     22  C   UNL A   1      35.706  31.847  27.923  1.00  0.00     0.014 A 
ATOM     23  C   UNL A   1      35.876  29.329  29.109  1.00  0.00     0.010 A 
ATOM     24  C   UNL A   1      36.866  31.475  28.600  1.00  0.00     0.010 A 
ATOM     25  C   UNL A   1      36.957  30.218  29.213  1.00  0.00    -0.014 A 
BRANCH  25  26
ATOM     26  C   UNL A   1      38.181  29.833  29.962  1.00  0.00     0.031 A 
ATOM     27  C   UNL A   1      38.434  30.358  31.347  1.00  0.00     0.074 A 
ATOM     28  C   UNL A   1      39.091  29.036  29.371  1.00  0.00     0.049 A 
ATOM     29  N   UNL A   1      39.440  30.119  32.154  1.00  0.00    -0.248 NA
ATOM     30  C   UNL A   1      37.443  31.299  31.888  1.00  0.00     0.031 C 
ATOM     31  C   UNL A   1      38.997  28.518  28.006  1.00  0.00     0.029 A 
ATOM     32  N   UNL A   1      40.275  28.525  29.841  1.00  0.00    -0.354 N 
ATOM     33  C   UNL A   1      39.207  30.888  33.287  1.00  0.00     0.074 A 
ATOM     34  C   UNL A   1      38.002  31.649  33.037  1.00  0.00     0.031 C 
ATOM     35  C   UNL A   1      40.062  27.743  27.757  1.00  0.00     0.029 A 
ATOM     36  C   UNL A   1      40.931  27.737  28.930  1.00  0.00     0.049 A 
ATOM     37  H   UNL A   1      40.621  28.708  30.744  1.00  0.00     0.167 HD
ATOM     38  C   UNL A   1      39.921  30.940  34.438  1.00  0.00     0.037 A 
ATOM     39  C   UNL A   1      42.104  27.083  29.024  1.00  0.00     0.037 A 
ATOM     40  C   UNL A   1      41.119  30.176  34.681  1.00  0.00     0.049 A 
ATOM     41  C   UNL A   1      42.871  27.137  30.315  1.00  0.00     0.074 A 
ATOM     42  C   UNL A   1      41.876  30.098  35.837  1.00  0.00     0.029 A 
ATOM     43  N   UNL A   1      41.746  29.368  33.741  1.00  0.00    -0.354 N 
ATOM     44  N   UNL A   1      42.594  27.791  31.417  1.00  0.00    -0.248 NA
ATOM     45  C   UNL A   1      44.104  26.344  30.381  1.00  0.00     0.031 C 
ATOM     46  C   UNL A   1      42.997  29.301  35.575  1.00  0.00     0.029 A 
ATOM     47  C   UNL A   1      42.900  28.817  34.280  1.00  0.00     0.049 A 
ATOM     48  H   UNL A   1      41.419  29.209  32.826  1.00  0.00     0.167 HD
ATOM     49  C   UNL A   1      43.606  27.477  32.314  1.00  0.00     0.074 A 
ATOM     50  C   UNL A   1      44.489  26.551  31.633  1.00  0.00     0.031 C 
ATOM     51  C   UNL A   1      43.786  27.914  33.586  1.00  0.00     0.037 A 
BRANCH  38  52
ATOM     52  C   UNL A   1      39.432  31.876  35.511  1.00  0.00     0.064 A 
ATOM     53  C   UNL A   1      39.841  33.219  35.571  1.00  0.00     0.173 A 
ATOM     54  C   UNL A   1      38.545  31.422  36.499  1.00  0.00     0.173 A 
ATOM     55  F   UNL A   1      40.694  33.708  34.657  1.00  0.00    -0.203 F 
ATOM     56  C   UNL A   1      39.425  34.052  36.608  1.00  0.00     0.198 A 
ATOM     57  C   UNL A   1      38.100  32.269  37.512  1.00  0.00     0.198 A 
ATOM     58  F   UNL A   1      38.111  30.152  36.489  1.00  0.00    -0.203 F 
ATOM     59  F   UNL A   1      39.893  35.306  36.685  1.00  0.00    -0.200 F 
ATOM     60  C   UNL A   1      38.552  33.578  37.574  1.00  0.00     0.200 A 
ATOM     61  F   UNL A   1      37.241  31.814  38.435  1.00  0.00    -0.200 F 
ATOM     62  F   UNL A   1      38.157  34.379  38.574  1.00  0.00    -0.200 F 
ENDBRANCH  38  52
BRANCH  39  63
ATOM     63  C   UNL A   1      42.597  26.301  27.861  1.00  0.00     0.064 A 
ATOM     64  C   UNL A   1      43.490  26.860  26.936  1.00  0.00     0.173 A 
ATOM     65  C   UNL A   1      42.218  24.963  27.676  1.00  0.00     0.173 A 
ATOM     66  F   UNL A   1      43.869  28.140  27.060  1.00  0.00    -0.203 F 
ATOM     67  C   UNL A   1      43.976  26.113  25.865  1.00  0.00     0.198 A 
ATOM     68  C   UNL A   1      42.727  24.209  26.622  1.00  0.00     0.198 A 
ATOM     69  F   UNL A   1      41.374  24.380  28.540  1.00  0.00    -0.203 F 
ATOM     70  F   UNL A   1      44.800  26.681  24.975  1.00  0.00    -0.200 F 
ATOM     71  C   UNL A   1      43.602  24.786  25.714  1.00  0.00     0.200 A 
ATOM     72  F   UNL A   1      42.379  22.922  26.493  1.00  0.00    -0.200 F 
ATOM     73  F   UNL A   1      44.083  24.064  24.693  1.00  0.00    -0.200 F 
ENDBRANCH  39  63
BRANCH  51  74
ATOM     74  C   UNL A   1      44.977  27.374  34.331  1.00  0.00     0.064 A 
ATOM     75  C   UNL A   1      44.910  26.189  35.080  1.00  0.00     0.173 A 
ATOM     76  C   UNL A   1      46.206  28.053  34.294  1.00  0.00     0.173 A 
ATOM     77  F   UNL A   1      43.759  25.505  35.160  1.00  0.00    -0.203 F 
ATOM     78  C   UNL A   1      46.010  25.733  35.803  1.00  0.00     0.198 A 
ATOM     79  C   UNL A   1      47.315  27.573  34.985  1.00  0.00     0.198 A 
ATOM     80  F   UNL A   1      46.332  29.186  33.586  1.00  0.00    -0.203 F 
ATOM     81  F   UNL A   1      45.898  24.640  36.572  1.00  0.00    -0.200 F 
ATOM     82  C   UNL A   1      47.212  26.422  35.751  1.00  0.00     0.200 A 
ATOM     83  F   UNL A   1      48.480  28.230  34.917  1.00  0.00    -0.200 F 
ATOM     84  F   UNL A   1      48.269  25.984  36.448  1.00  0.00    -0.200 F 
ENDBRANCH  51  74
ENDBRANCH  25  26
ENDBRANCH  17  20
ENDBRANCH  15  16
ENDBRANCH   1  15
TORSDOF 11
ENDMDL
MODEL 3
REMARK VINA RESULT:     -10.9      6.435     12.161
REMARK SMILES CN1N=C(CC(=O)NCCCNC(=O)c2ccc(-c3c4nc(c(-c5c(F)c(F)c(F)c(F)c5F)c5ccc([nH]5)c(-c5c(F)c(F)c(F)c(F)c5F)c5nc(c(-c6c(F)c(F)c(F)c(F)c6F)c6ccc3[nH]6)C=C5)C=C4)cc2)CC1=O
REMARK SMILES IDX 10 1 9 2 8 3 6 4 7 5 5 7 4 8 1 9 2 10 3 11 79 12 78 13 80 14
REMARK SMILES IDX 11 15 12 16 13 17 14 19 15 20 16 21 77 22 17 23 76 24 18 25
REMARK SMILES IDX 19 26 20 27 70 28 21 29 75 30 69 31 71 32 22 33 74 34 68 35
REMARK SMILES IDX 67 36 23 38 55 39 35 40 54 41 36 42 39 43 53 44 72 45 37 46
REMARK SMILES IDX 38 47 52 49 73 50 40 51 24 52 25 53 33 54 26 55 27 56 31 57
REMARK SMILES IDX 34 58 28 59 29 60 32 61 30 62 56 63 57 64 65 65 58 66 59 67
REMARK SMILES IDX 63 68 66 69 60 70 61 71 64 72 62 73 41 74 42 75 50 76 43 77
REMARK SMILES IDX 44 78 48 79 51 80 45 81 46 82 49 83 47 84
REMARK H PARENT 8 6 12 18 71 37 39 48
REMARK Flexibility Score: inf
ROOT
ATOM      1  C   UNL A   1      31.399  31.828  26.505  1.00  0.00     0.042 C 
ENDROOT
BRANCH   1   2
ATOM      2  C   UNL A   1      31.467  30.308  26.401  1.00  0.00     0.117 C 
BRANCH   2   3
ATOM      3  N   UNL A   1      32.073  29.873  25.158  1.00  0.00    -0.356 N 
ATOM      4  C   UNL A   1      31.478  29.406  24.023  1.00  0.00     0.225 C 
ATOM      5  O   UNL A   1      32.194  29.083  23.076  1.00  0.00    -0.275 OA
ATOM      6  H   UNL A   1      33.056  29.922  25.130  1.00  0.00     0.163 HD
BRANCH   4   7
ATOM      7  C   UNL A   1      29.975  29.375  23.929  1.00  0.00     0.153 C 
BRANCH   7   8
ATOM      8  C   UNL A   1      29.371  30.516  23.184  1.00  0.00     0.057 C 
ATOM      9  C   UNL A   1      28.034  32.029  20.319  1.00  0.00     0.177 C 
ATOM     10  N   UNL A   1      28.537  31.730  21.636  1.00  0.00    -0.237 N 
ATOM     11  N   UNL A   1      29.000  30.471  21.941  1.00  0.00    -0.179 NA
ATOM     12  C   UNL A   1      28.588  32.635  22.690  1.00  0.00     0.248 C 
ATOM     13  C   UNL A   1      29.174  31.858  23.827  1.00  0.00     0.156 C 
ATOM     14  O   UNL A   1      28.228  33.800  22.723  1.00  0.00    -0.273 OA
ENDBRANCH   7   8
ENDBRANCH   4   7
ENDBRANCH   2   3
ENDBRANCH   1   2
BRANCH   1  15
ATOM     15  C   UNL A   1      32.727  32.480  26.885  1.00  0.00     0.118 C 
BRANCH  15  16
ATOM     16  N   UNL A   1      32.546  33.797  27.480  1.00  0.00    -0.352 N 
ATOM     17  C   UNL A   1      33.160  34.387  28.554  1.00  0.00     0.251 C 
ATOM     18  H   UNL A   1      31.870  34.357  27.036  1.00  0.00     0.163 HD
ATOM     19  O   UNL A   1      32.694  35.427  29.011  1.00  0.00    -0.269 OA
BRANCH  17  20
ATOM     20  C   UNL A   1      34.364  33.790  29.173  1.00  0.00     0.039 A 
ATOM     21  C   UNL A   1      34.189  32.792  30.137  1.00  0.00     0.014 A 
ATOM     22  C   UNL A   1      35.649  34.241  28.867  1.00  0.00     0.014 A 
ATOM     23  C   UNL A   1      35.303  32.220  30.756  1.00  0.00     0.010 A 
ATOM     24  C   UNL A   1      36.762  33.610  29.420  1.00  0.00     0.010 A 
ATOM     25  C   UNL A   1      36.600  32.603  30.382  1.00  0.00    -0.014 A 
BRANCH  25  26
ATOM     26  C   UNL A   1      37.786  31.952  30.996  1.00  0.00     0.031 A 
ATOM     27  C   UNL A   1      38.252  32.339  32.371  1.00  0.00     0.074 A 
ATOM     28  C   UNL A   1      38.472  31.034  30.290  1.00  0.00     0.049 A 
ATOM     29  N   UNL A   1      39.257  31.869  33.070  1.00  0.00    -0.248 NA
ATOM     30  C   UNL A   1      37.510  33.416  33.042  1.00  0.00     0.031 C 
ATOM     31  C   UNL A   1      38.165  30.624  28.920  1.00  0.00     0.029 A 
ATOM     32  N   UNL A   1      39.571  30.283  30.624  1.00  0.00    -0.354 N 
ATOM     33  C   UNL A   1      39.274  32.601  34.249  1.00  0.00     0.074 A 
ATOM     34  C   UNL A   1      38.221  33.587  34.146  1.00  0.00     0.031 C 
ATOM     35  C   UNL A   1      39.036  29.678  28.539  1.00  0.00     0.029 A 
ATOM     36  C   UNL A   1      39.984  29.440  29.624  1.00  0.00     0.049 A 
ATOM     37  H   UNL A   1      40.021  30.345  31.498  1.00  0.00     0.167 HD
ATOM     38  C   UNL A   1      40.080  32.450  35.329  1.00  0.00     0.037 A 
ATOM     39  C   UNL A   1      41.012  28.573  29.580  1.00  0.00     0.037 A 
ATOM     40  C   UNL A   1      41.124  31.461  35.427  1.00  0.00     0.049 A 
ATOM     41  C   UNL A   1      41.882  28.407  30.794  1.00  0.00     0.074 A 
ATOM     42  C   UNL A   1      41.947  31.175  36.502  1.00  0.00     0.029 A 
ATOM     43  N   UNL A   1      41.502  30.606  34.400  1.00  0.00    -0.354 N 
ATOM     44  N   UNL A   1      41.830  29.036  31.943  1.00  0.00    -0.248 NA
ATOM     45  C   UNL A   1      42.941  27.393  30.711  1.00  0.00     0.031 C 
ATOM     46  C   UNL A   1      42.867  30.198  36.103  1.00  0.00     0.029 A 
ATOM     47  C   UNL A   1      42.569  29.817  34.804  1.00  0.00     0.049 A 
ATOM     48  H   UNL A   1      41.074  30.565  33.514  1.00  0.00     0.167 HD
ATOM     49  C   UNL A   1      42.835  28.485  32.727  1.00  0.00     0.074 A 
ATOM     50  C   UNL A   1      43.463  27.451  31.928  1.00  0.00     0.031 C 
ATOM     51  C   UNL A   1      43.204  28.806  33.994  1.00  0.00     0.037 A 
BRANCH  38  52
ATOM     52  C   UNL A   1      39.873  33.396  36.481  1.00  0.00     0.064 A 
ATOM     53  C   UNL A   1      38.971  33.118  37.522  1.00  0.00     0.173 A 
ATOM     54  C   UNL A   1      40.582  34.606  36.543  1.00  0.00     0.173 A 
ATOM     55  F   UNL A   1      38.259  31.980  37.513  1.00  0.00    -0.203 F 
ATOM     56  C   UNL A   1      38.748  34.035  38.547  1.00  0.00     0.198 A 
ATOM     57  C   UNL A   1      40.386  35.503  37.591  1.00  0.00     0.198 A 
ATOM     58  F   UNL A   1      41.465  34.924  35.584  1.00  0.00    -0.203 F 
ATOM     59  F   UNL A   1      37.825  33.778  39.484  1.00  0.00    -0.200 F 
ATOM     60  C   UNL A   1      39.459  35.224  38.583  1.00  0.00     0.200 A 
ATOM     61  F   UNL A   1      41.087  36.645  37.634  1.00  0.00    -0.200 F 
ATOM     62  F   UNL A   1      39.240  36.108  39.567  1.00  0.00    -0.200 F 
ENDBRANCH  38  52
BRANCH  39  63
ATOM     63  C   UNL A   1      41.246  27.782  28.345  1.00  0.00     0.064 A 
ATOM     64  C   UNL A   1      42.117  28.235  27.345  1.00  0.00     0.173 A 
ATOM     65  C   UNL A   1      40.633  26.533  28.159  1.00  0.00     0.173 A 
ATOM     66  F   UNL A   1      42.714  29.430  27.468  1.00  0.00    -0.203 F 
ATOM     67  C   UNL A   1      42.358  27.475  26.202  1.00  0.00     0.198 A 
ATOM     68  C   UNL A   1      40.897  25.761  27.031  1.00  0.00     0.198 A 
ATOM     69  F   UNL A   1      39.798  26.051  29.092  1.00  0.00    -0.203 F 
ATOM     70  F   UNL A   1      43.168  27.947  25.246  1.00  0.00    -0.200 F 
ATOM     71  C   UNL A   1      41.756  26.235  26.051  1.00  0.00     0.200 A 
ATOM     72  F   UNL A   1      40.329  24.555  26.900  1.00  0.00    -0.200 F 
ATOM     73  F   UNL A   1      42.002  25.497  24.960  1.00  0.00    -0.200 F 
ENDBRANCH  39  63
BRANCH  51  74
ATOM     74  C   UNL A   1      44.327  28.010  34.600  1.00  0.00     0.064 A 
ATOM     75  C   UNL A   1      44.099  26.805  35.284  1.00  0.00     0.173 A 
ATOM     76  C   UNL A   1      45.654  28.458  34.494  1.00  0.00     0.173 A 
ATOM     77  F   UNL A   1      42.851  26.335  35.425  1.00  0.00    -0.203 F 
ATOM     78  C   UNL A   1      45.147  26.108  35.881  1.00  0.00     0.198 A 
ATOM     79  C   UNL A   1      46.704  27.738  35.057  1.00  0.00     0.198 A 
ATOM     80  F   UNL A   1      45.933  29.597  33.844  1.00  0.00    -0.203 F 
ATOM     81  F   UNL A   1      44.894  25.001  36.593  1.00  0.00    -0.200 F 
ATOM     82  C   UNL A   1      46.448  26.573  35.763  1.00  0.00     0.200 A 
ATOM     83  F   UNL A   1      47.962  28.179  34.926  1.00  0.00    -0.200 F 
ATOM     84  F   UNL A   1      47.456  25.903  36.340  1.00  0.00    -0.200 F 
ENDBRANCH  51  74
ENDBRANCH  25  26
ENDBRANCH  17  20
ENDBRANCH  15  16
ENDBRANCH   1  15
TORSDOF 11
ENDMDL
