MODEL 1
REMARK VINA RESULT:     -12.3      0.000      0.000
REMARK SMILES Cc1[nH]ncc1S(=O)(=O)NC[C@@H]1CC[C@@H](C(=O)NCCCNC(=O)c2ccc(-c3c4nc(c(-c5c(F)c(F)c(F)c(F)c5F)c5ccc([nH]5)c(-c5c(F)c(F)c(F)c(F)c5F)c5nc(c(-c6c(F)c(F)c(F)c(F)c6F)c6ccc3[nH]6)C=C5)C=C4)cc2)O1
REMARK SMILES IDX 19 1 18 2 16 3 17 4 15 6 12 7 13 8 88 9 14 10 11 11 10 12
REMARK SMILES IDX 7 14 8 15 9 16 6 17 1 18 2 19 3 20 4 21 5 23 20 24 21 25
REMARK SMILES IDX 22 26 23 27 24 29 25 30 26 31 87 32 27 33 86 34 28 35 29 36
REMARK SMILES IDX 30 37 80 38 31 39 85 40 79 41 81 42 32 43 84 44 78 45 77 46
REMARK SMILES IDX 33 48 65 49 45 50 64 51 46 52 49 53 63 54 82 55 47 56 48 57
REMARK SMILES IDX 62 59 83 60 50 61 34 62 35 63 43 64 36 65 37 66 41 67 44 68
REMARK SMILES IDX 38 69 39 70 42 71 40 72 66 73 67 74 75 75 68 76 69 77 73 78
REMARK SMILES IDX 76 79 70 80 71 81 74 82 72 83 51 84 52 85 60 86 53 87 54 88
REMARK SMILES IDX 58 89 61 90 55 91 56 92 59 93 57 94
REMARK H PARENT 18 5 10 13 3 22 22 28 81 47 49 58
REMARK Flexibility Score: inf
ROOT
ATOM      1  C   UNL A   1      31.591  30.887  26.327  1.00  0.00     0.117 C 
ENDROOT
BRANCH   1   2
ATOM      2  N   UNL A   1      32.806  30.369  26.932  1.00  0.00    -0.354 N 
ATOM      3  C   UNL A   1      33.282  29.086  26.923  1.00  0.00     0.249 C 
ATOM      4  O   UNL A   1      34.283  28.829  27.594  1.00  0.00    -0.272 OA
ATOM      5  H   UNL A   1      33.359  31.027  27.412  1.00  0.00     0.163 HD
BRANCH   3   6
ATOM      6  C   UNL A   1      32.580  28.039  26.052  1.00  0.00     0.207 C 
ATOM      7  C   UNL A   1      32.989  25.753  25.909  1.00  0.00     0.134 C 
ATOM      8  C   UNL A   1      31.493  25.956  26.048  1.00  0.00     0.037 C 
ATOM      9  O   UNL A   1      33.547  27.046  25.652  1.00  0.00    -0.364 OA
ATOM     10  C   UNL A   1      31.462  27.288  26.762  1.00  0.00     0.045 C 
BRANCH   7  11
ATOM     11  C   UNL A   1      33.447  24.724  24.880  1.00  0.00     0.131 C 
BRANCH  11  12
ATOM     12  N   UNL A   1      33.828  25.248  23.553  1.00  0.00    -0.208 NA
ATOM     13  H   UNL A   1      34.311  26.130  23.721  1.00  0.00     0.141 HD
BRANCH  12  14
ATOM     14  S   UNL A   1      32.680  25.554  22.362  1.00  0.00     0.244 S 
ATOM     15  O   UNL A   1      31.540  24.691  22.578  1.00  0.00    -0.207 OA
ATOM     16  O   UNL A   1      33.392  25.512  21.104  1.00  0.00    -0.207 OA
BRANCH  14  17
ATOM     17  C   UNL A   1      32.083  27.155  22.448  1.00  0.00     0.122 A 
ATOM     18  C   UNL A   1      34.211  28.693  22.575  1.00  0.00     0.067 C 
ATOM     19  C   UNL A   1      32.772  28.353  22.518  1.00  0.00     0.052 A 
ATOM     20  N   UNL A   1      31.801  29.319  22.522  1.00  0.00    -0.281 N 
ATOM     21  N   UNL A   1      30.549  28.833  22.457  1.00  0.00    -0.183 NA
ATOM     22  H   UNL A   1      32.001  30.282  22.569  1.00  0.00     0.190 HD
ATOM     23  C   UNL A   1      30.726  27.508  22.401  1.00  0.00     0.157 A 
ENDBRANCH  14  17
ENDBRANCH  12  14
ENDBRANCH  11  12
ENDBRANCH   7  11
ENDBRANCH   3   6
ENDBRANCH   1   2
BRANCH   1  24
ATOM     24  C   UNL A   1      31.416  32.379  26.615  1.00  0.00     0.042 C 
BRANCH  24  25
ATOM     25  C   UNL A   1      32.663  33.049  27.191  1.00  0.00     0.118 C 
BRANCH  25  26
ATOM     26  N   UNL A   1      32.398  34.383  27.709  1.00  0.00    -0.352 N 
ATOM     27  C   UNL A   1      32.986  35.071  28.740  1.00  0.00     0.251 C 
ATOM     28  H   UNL A   1      31.681  34.872  27.242  1.00  0.00     0.163 HD
ATOM     29  O   UNL A   1      32.507  36.140  29.107  1.00  0.00    -0.269 OA
BRANCH  27  30
ATOM     30  C   UNL A   1      34.178  34.531  29.433  1.00  0.00     0.039 A 
ATOM     31  C   UNL A   1      34.018  34.011  30.722  1.00  0.00     0.014 A 
ATOM     32  C   UNL A   1      35.446  34.570  28.850  1.00  0.00     0.014 A 
ATOM     33  C   UNL A   1      35.115  33.472  31.398  1.00  0.00     0.010 A 
ATOM     34  C   UNL A   1      36.530  33.981  29.501  1.00  0.00     0.010 A 
ATOM     35  C   UNL A   1      36.373  33.421  30.779  1.00  0.00    -0.014 A 
BRANCH  35  36
ATOM     36  C   UNL A   1      37.528  32.766  31.444  1.00  0.00     0.031 A 
ATOM     37  C   UNL A   1      38.239  31.620  30.783  1.00  0.00     0.074 A 
ATOM     38  C   UNL A   1      37.891  33.163  32.678  1.00  0.00     0.049 A 
ATOM     39  N   UNL A   1      39.212  30.873  31.244  1.00  0.00    -0.248 NA
ATOM     40  C   UNL A   1      37.786  31.249  29.434  1.00  0.00     0.031 C 
ATOM     41  C   UNL A   1      37.251  34.234  33.443  1.00  0.00     0.029 A 
ATOM     42  N   UNL A   1      38.877  32.700  33.515  1.00  0.00    -0.354 N 
ATOM     43  C   UNL A   1      39.471  29.935  30.254  1.00  0.00     0.074 A 
ATOM     44  C   UNL A   1      38.531  30.183  29.181  1.00  0.00     0.031 C 
ATOM     45  C   UNL A   1      37.866  34.355  34.630  1.00  0.00     0.029 A 
ATOM     46  C   UNL A   1      38.921  33.350  34.724  1.00  0.00     0.049 A 
ATOM     47  H   UNL A   1      39.493  31.973  33.270  1.00  0.00     0.167 HD
ATOM     48  C   UNL A   1      40.419  28.968  30.234  1.00  0.00     0.037 A 
ATOM     49  C   UNL A   1      39.715  33.151  35.792  1.00  0.00     0.037 A 
ATOM     50  C   UNL A   1      41.374  28.743  31.289  1.00  0.00     0.049 A 
ATOM     51  C   UNL A   1      40.764  32.075  35.741  1.00  0.00     0.074 A 
ATOM     52  C   UNL A   1      42.415  27.831  31.331  1.00  0.00     0.029 A 
ATOM     53  N   UNL A   1      41.404  29.438  32.488  1.00  0.00    -0.354 N 
ATOM     54  N   UNL A   1      41.041  31.235  34.773  1.00  0.00    -0.248 NA
ATOM     55  C   UNL A   1      41.615  31.922  36.929  1.00  0.00     0.031 C 
ATOM     56  C   UNL A   1      43.053  27.950  32.571  1.00  0.00     0.029 A 
ATOM     57  C   UNL A   1      42.434  28.963  33.285  1.00  0.00     0.049 A 
ATOM     58  H   UNL A   1      40.786  30.163  32.737  1.00  0.00     0.167 HD
ATOM     59  C   UNL A   1      42.109  30.473  35.224  1.00  0.00     0.074 A 
ATOM     60  C   UNL A   1      42.441  30.958  36.547  1.00  0.00     0.031 C 
ATOM     61  C   UNL A   1      42.756  29.461  34.597  1.00  0.00     0.037 A 
BRANCH  48  62
ATOM     62  C   UNL A   1      40.478  28.075  29.031  1.00  0.00     0.064 A 
ATOM     63  C   UNL A   1      39.735  26.887  28.963  1.00  0.00     0.173 A 
ATOM     64  C   UNL A   1      41.246  28.434  27.914  1.00  0.00     0.173 A 
ATOM     65  F   UNL A   1      38.993  26.494  30.009  1.00  0.00    -0.203 F 
ATOM     66  C   UNL A   1      39.776  26.080  27.829  1.00  0.00     0.198 A 
ATOM     67  C   UNL A   1      41.265  27.639  26.771  1.00  0.00     0.198 A 
ATOM     68  F   UNL A   1      41.969  29.564  27.925  1.00  0.00    -0.203 F 
ATOM     69  F   UNL A   1      39.089  24.931  27.801  1.00  0.00    -0.200 F 
ATOM     70  C   UNL A   1      40.535  26.461  26.731  1.00  0.00     0.200 A 
ATOM     71  F   UNL A   1      41.989  28.014  25.707  1.00  0.00    -0.200 F 
ATOM     72  F   UNL A   1      40.567  25.688  25.637  1.00  0.00    -0.200 F 
ENDBRANCH  48  62
BRANCH  49  73
ATOM     73  C   UNL A   1      39.560  34.003  36.998  1.00  0.00     0.064 A 
ATOM     74  C   UNL A   1      38.794  33.570  38.089  1.00  0.00     0.173 A 
ATOM     75  C   UNL A   1      40.168  35.264  37.084  1.00  0.00     0.173 A 
ATOM     76  F   UNL A   1      38.176  32.381  38.042  1.00  0.00    -0.203 F 
ATOM     77  C   UNL A   1      38.628  34.374  39.215  1.00  0.00     0.198 A 
ATOM     78  C   UNL A   1      40.022  36.056  38.220  1.00  0.00     0.198 A 
ATOM     79  F   UNL A   1      40.913  35.721  36.067  1.00  0.00    -0.203 F 
ATOM     80  F   UNL A   1      37.857  33.954  40.226  1.00  0.00    -0.200 F 
ATOM     81  C   UNL A   1      39.246  35.613  39.282  1.00  0.00     0.200 A 
ATOM     82  F   UNL A   1      40.629  37.249  38.287  1.00  0.00    -0.200 F 
ATOM     83  F   UNL A   1      39.088  36.385  40.366  1.00  0.00    -0.200 F 
ENDBRANCH  49  73
BRANCH  61  84
ATOM     84  C   UNL A   1      43.905  28.829  35.323  1.00  0.00     0.064 A 
ATOM     85  C   UNL A   1      43.715  27.748  36.197  1.00  0.00     0.173 A 
ATOM     86  C   UNL A   1      45.215  29.286  35.115  1.00  0.00     0.173 A 
ATOM     87  F   UNL A   1      42.480  27.286  36.440  1.00  0.00    -0.203 F 
ATOM     88  C   UNL A   1      44.794  27.161  36.852  1.00  0.00     0.198 A 
ATOM     89  C   UNL A   1      46.294  28.681  35.753  1.00  0.00     0.198 A 
ATOM     90  F   UNL A   1      45.448  30.314  34.286  1.00  0.00    -0.203 F 
ATOM     91  F   UNL A   1      44.587  26.157  37.716  1.00  0.00    -0.200 F 
ATOM     92  C   UNL A   1      46.082  27.624  36.626  1.00  0.00     0.200 A 
ATOM     93  F   UNL A   1      47.539  29.122  35.526  1.00  0.00    -0.200 F 
ATOM     94  F   UNL A   1      47.120  27.055  37.255  1.00  0.00    -0.200 F 
ENDBRANCH  61  84
ENDBRANCH  35  36
ENDBRANCH  27  30
ENDBRANCH  25  26
ENDBRANCH  24  25
ENDBRANCH   1  24
TORSDOF 14
ENDMDL
MODEL 2
REMARK VINA RESULT:     -12.1      1.190      2.336
REMARK SMILES Cc1[nH]ncc1S(=O)(=O)NC[C@@H]1CC[C@@H](C(=O)NCCCNC(=O)c2ccc(-c3c4nc(c(-c5c(F)c(F)c(F)c(F)c5F)c5ccc([nH]5)c(-c5c(F)c(F)c(F)c(F)c5F)c5nc(c(-c6c(F)c(F)c(F)c(F)c6F)c6ccc3[nH]6)C=C5)C=C4)cc2)O1
REMARK SMILES IDX 19 1 18 2 16 3 17 4 15 6 12 7 13 8 88 9 14 10 11 11 10 12
REMARK SMILES IDX 7 14 8 15 9 16 6 17 1 18 2 19 3 20 4 21 5 23 20 24 21 25
REMARK SMILES IDX 22 26 23 27 24 29 25 30 26 31 87 32 27 33 86 34 28 35 29 36
REMARK SMILES IDX 30 37 80 38 31 39 85 40 79 41 81 42 32 43 84 44 78 45 77 46
REMARK SMILES IDX 33 48 65 49 45 50 64 51 46 52 49 53 63 54 82 55 47 56 48 57
REMARK SMILES IDX 62 59 83 60 50 61 34 62 35 63 43 64 36 65 37 66 41 67 44 68
REMARK SMILES IDX 38 69 39 70 42 71 40 72 66 73 67 74 75 75 68 76 69 77 73 78
REMARK SMILES IDX 76 79 70 80 71 81 74 82 72 83 51 84 52 85 60 86 53 87 54 88
REMARK SMILES IDX 58 89 61 90 55 91 56 92 59 93 57 94
REMARK H PARENT 18 5 10 13 3 22 22 28 81 47 49 58
REMARK Flexibility Score: inf
ROOT
ATOM      1  C   UNL A   1      31.689  30.720  27.123  1.00  0.00     0.117 C 
ENDROOT
BRANCH   1   2
ATOM      2  N   UNL A   1      33.065  30.423  27.478  1.00  0.00    -0.354 N 
ATOM      3  C   UNL A   1      33.835  29.361  27.086  1.00  0.00     0.249 C 
ATOM      4  O   UNL A   1      34.952  29.231  27.590  1.00  0.00    -0.272 OA
ATOM      5  H   UNL A   1      33.502  31.068  28.079  1.00  0.00     0.163 HD
BRANCH   3   6
ATOM      6  C   UNL A   1      33.297  28.409  26.014  1.00  0.00     0.207 C 
ATOM      7  C   UNL A   1      33.941  28.211  23.786  1.00  0.00     0.134 C 
ATOM      8  C   UNL A   1      33.881  26.818  24.385  1.00  0.00     0.037 C 
ATOM      9  O   UNL A   1      33.324  29.083  24.739  1.00  0.00    -0.364 OA
ATOM     10  C   UNL A   1      34.117  27.136  25.844  1.00  0.00     0.045 C 
BRANCH   7  11
ATOM     11  C   UNL A   1      33.345  28.383  22.393  1.00  0.00     0.131 C 
BRANCH  11  12
ATOM     12  N   UNL A   1      32.101  29.173  22.304  1.00  0.00    -0.208 NA
ATOM     13  H   UNL A   1      32.221  29.967  22.932  1.00  0.00     0.141 HD
BRANCH  12  14
ATOM     14  S   UNL A   1      30.602  28.503  22.667  1.00  0.00     0.244 S 
ATOM     15  O   UNL A   1      30.481  28.373  24.101  1.00  0.00    -0.207 OA
ATOM     16  O   UNL A   1      30.473  27.336  21.821  1.00  0.00    -0.207 OA
BRANCH  14  17
ATOM     17  C   UNL A   1      29.313  29.516  22.174  1.00  0.00     0.122 A 
ATOM     18  C   UNL A   1      27.153  28.481  23.256  1.00  0.00     0.067 C 
ATOM     19  C   UNL A   1      27.964  29.437  22.470  1.00  0.00     0.052 A 
ATOM     20  N   UNL A   1      27.403  30.523  21.851  1.00  0.00    -0.281 N 
ATOM     21  N   UNL A   1      28.287  31.289  21.189  1.00  0.00    -0.183 NA
ATOM     22  H   UNL A   1      26.440  30.724  21.888  1.00  0.00     0.190 HD
ATOM     23  C   UNL A   1      29.457  30.675  21.397  1.00  0.00     0.157 A 
ENDBRANCH  14  17
ENDBRANCH  12  14
ENDBRANCH  11  12
ENDBRANCH   7  11
ENDBRANCH   3   6
ENDBRANCH   1   2
BRANCH   1  24
ATOM     24  C   UNL A   1      31.469  32.224  26.951  1.00  0.00     0.042 C 
BRANCH  24  25
ATOM     25  C   UNL A   1      32.733  33.061  27.146  1.00  0.00     0.118 C 
BRANCH  25  26
ATOM     26  N   UNL A   1      32.456  34.383  27.688  1.00  0.00    -0.352 N 
ATOM     27  C   UNL A   1      33.026  35.050  28.744  1.00  0.00     0.251 C 
ATOM     28  H   UNL A   1      31.746  34.880  27.220  1.00  0.00     0.163 HD
ATOM     29  O   UNL A   1      32.538  36.110  29.125  1.00  0.00    -0.269 OA
BRANCH  27  30
ATOM     30  C   UNL A   1      34.207  34.499  29.444  1.00  0.00     0.039 A 
ATOM     31  C   UNL A   1      34.005  33.810  30.645  1.00  0.00     0.014 A 
ATOM     32  C   UNL A   1      35.502  34.687  28.958  1.00  0.00     0.014 A 
ATOM     33  C   UNL A   1      35.094  33.255  31.323  1.00  0.00     0.010 A 
ATOM     34  C   UNL A   1      36.583  34.086  29.604  1.00  0.00     0.010 A 
ATOM     35  C   UNL A   1      36.387  33.359  30.789  1.00  0.00    -0.014 A 
BRANCH  35  36
ATOM     36  C   UNL A   1      37.542  32.694  31.445  1.00  0.00     0.031 A 
ATOM     37  C   UNL A   1      38.234  31.538  30.782  1.00  0.00     0.074 A 
ATOM     38  C   UNL A   1      37.921  33.092  32.674  1.00  0.00     0.049 A 
ATOM     39  N   UNL A   1      39.203  30.782  31.237  1.00  0.00    -0.248 NA
ATOM     40  C   UNL A   1      37.763  31.166  29.440  1.00  0.00     0.031 C 
ATOM     41  C   UNL A   1      37.300  34.173  33.442  1.00  0.00     0.029 A 
ATOM     42  N   UNL A   1      38.910  32.623  33.503  1.00  0.00    -0.354 N 
ATOM     43  C   UNL A   1      39.443  29.838  30.248  1.00  0.00     0.074 A 
ATOM     44  C   UNL A   1      38.495  30.091  29.184  1.00  0.00     0.031 C 
ATOM     45  C   UNL A   1      37.928  34.292  34.621  1.00  0.00     0.029 A 
ATOM     46  C   UNL A   1      38.973  33.277  34.709  1.00  0.00     0.049 A 
ATOM     47  H   UNL A   1      39.516  31.887  33.255  1.00  0.00     0.167 HD
ATOM     48  C   UNL A   1      40.380  28.861  30.223  1.00  0.00     0.037 A 
ATOM     49  C   UNL A   1      39.776  33.074  35.771  1.00  0.00     0.037 A 
ATOM     50  C   UNL A   1      41.343  28.630  31.269  1.00  0.00     0.049 A 
ATOM     51  C   UNL A   1      40.813  31.987  35.713  1.00  0.00     0.074 A 
ATOM     52  C   UNL A   1      42.375  27.707  31.305  1.00  0.00     0.029 A 
ATOM     53  N   UNL A   1      41.393  29.330  32.465  1.00  0.00    -0.354 N 
ATOM     54  N   UNL A   1      41.071  31.140  34.746  1.00  0.00    -0.248 NA
ATOM     55  C   UNL A   1      41.674  31.830  36.893  1.00  0.00     0.031 C 
ATOM     56  C   UNL A   1      43.026  27.825  32.538  1.00  0.00     0.029 A 
ATOM     57  C   UNL A   1      42.426  28.847  33.253  1.00  0.00     0.049 A 
ATOM     58  H   UNL A   1      40.785  30.063  32.717  1.00  0.00     0.167 HD
ATOM     59  C   UNL A   1      42.136  30.368  35.189  1.00  0.00     0.074 A 
ATOM     60  C   UNL A   1      42.486  30.855  36.507  1.00  0.00     0.031 C 
ATOM     61  C   UNL A   1      42.765  29.347  34.560  1.00  0.00     0.037 A 
BRANCH  48  62
ATOM     62  C   UNL A   1      40.417  27.962  29.023  1.00  0.00     0.064 A 
ATOM     63  C   UNL A   1      41.197  28.273  27.899  1.00  0.00     0.173 A 
ATOM     64  C   UNL A   1      39.705  26.754  29.016  1.00  0.00     0.173 A 
ATOM     65  F   UNL A   1      41.888  29.421  27.854  1.00  0.00    -0.203 F 
ATOM     66  C   UNL A   1      41.245  27.417  26.802  1.00  0.00     0.198 A 
ATOM     67  C   UNL A   1      39.775  25.888  27.928  1.00  0.00     0.198 A 
ATOM     68  F   UNL A   1      38.950  26.407  30.069  1.00  0.00    -0.203 F 
ATOM     69  F   UNL A   1      41.965  27.752  25.723  1.00  0.00    -0.200 F 
ATOM     70  C   UNL A   1      40.540  26.222  26.820  1.00  0.00     0.200 A 
ATOM     71  F   UNL A   1      39.103  24.728  27.952  1.00  0.00    -0.200 F 
ATOM     72  F   UNL A   1      40.594  25.394  25.767  1.00  0.00    -0.200 F 
ENDBRANCH  48  62
BRANCH  49  73
ATOM     73  C   UNL A   1      39.642  33.932  36.974  1.00  0.00     0.064 A 
ATOM     74  C   UNL A   1      38.880  33.513  38.073  1.00  0.00     0.173 A 
ATOM     75  C   UNL A   1      40.267  35.185  37.050  1.00  0.00     0.173 A 
ATOM     76  F   UNL A   1      38.246  32.332  38.036  1.00  0.00    -0.203 F 
ATOM     77  C   UNL A   1      38.734  34.323  39.197  1.00  0.00     0.198 A 
ATOM     78  C   UNL A   1      40.140  35.984  38.184  1.00  0.00     0.198 A 
ATOM     79  F   UNL A   1      41.008  35.630  36.025  1.00  0.00    -0.203 F 
ATOM     80  F   UNL A   1      37.966  33.917  40.217  1.00  0.00    -0.200 F 
ATOM     81  C   UNL A   1      39.367  35.555  39.254  1.00  0.00     0.200 A 
ATOM     82  F   UNL A   1      40.763  37.169  38.241  1.00  0.00    -0.200 F 
ATOM     83  F   UNL A   1      39.228  36.333  40.337  1.00  0.00    -0.200 F 
ENDBRANCH  49  73
BRANCH  61  84
ATOM     84  C   UNL A   1      43.916  28.706  35.278  1.00  0.00     0.064 A 
ATOM     85  C   UNL A   1      45.228  29.179  35.129  1.00  0.00     0.173 A 
ATOM     86  C   UNL A   1      43.697  27.630  36.151  1.00  0.00     0.173 A 
ATOM     87  F   UNL A   1      45.488  30.195  34.293  1.00  0.00    -0.203 F 
ATOM     88  C   UNL A   1      46.283  28.584  35.814  1.00  0.00     0.198 A 
ATOM     89  C   UNL A   1      44.752  27.054  36.854  1.00  0.00     0.198 A 
ATOM     90  F   UNL A   1      42.460  27.145  36.330  1.00  0.00    -0.203 F 
ATOM     91  F   UNL A   1      47.535  29.024  35.626  1.00  0.00    -0.200 F 
ATOM     92  C   UNL A   1      46.044  27.527  36.679  1.00  0.00     0.200 A 
ATOM     93  F   UNL A   1      44.519  26.039  37.697  1.00  0.00    -0.200 F 
ATOM     94  F   UNL A   1      47.062  26.958  37.342  1.00  0.00    -0.200 F 
ENDBRANCH  61  84
ENDBRANCH  35  36
ENDBRANCH  27  30
ENDBRANCH  25  26
ENDBRANCH  24  25
ENDBRANCH   1  24
TORSDOF 14
ENDMDL
MODEL 3
REMARK VINA RESULT:     -12.0      1.619      3.061
REMARK SMILES Cc1[nH]ncc1S(=O)(=O)NC[C@@H]1CC[C@@H](C(=O)NCCCNC(=O)c2ccc(-c3c4nc(c(-c5c(F)c(F)c(F)c(F)c5F)c5ccc([nH]5)c(-c5c(F)c(F)c(F)c(F)c5F)c5nc(c(-c6c(F)c(F)c(F)c(F)c6F)c6ccc3[nH]6)C=C5)C=C4)cc2)O1
REMARK SMILES IDX 19 1 18 2 16 3 17 4 15 6 12 7 13 8 88 9 14 10 11 11 10 12
REMARK SMILES IDX 7 14 8 15 9 16 6 17 1 18 2 19 3 20 4 21 5 23 20 24 21 25
REMARK SMILES IDX 22 26 23 27 24 29 25 30 26 31 87 32 27 33 86 34 28 35 29 36
REMARK SMILES IDX 30 37 80 38 31 39 85 40 79 41 81 42 32 43 84 44 78 45 77 46
REMARK SMILES IDX 33 48 65 49 45 50 64 51 46 52 49 53 63 54 82 55 47 56 48 57
REMARK SMILES IDX 62 59 83 60 50 61 34 62 35 63 43 64 36 65 37 66 41 67 44 68
REMARK SMILES IDX 38 69 39 70 42 71 40 72 66 73 67 74 75 75 68 76 69 77 73 78
REMARK SMILES IDX 76 79 70 80 71 81 74 82 72 83 51 84 52 85 60 86 53 87 54 88
REMARK SMILES IDX 58 89 61 90 55 91 56 92 59 93 57 94
REMARK H PARENT 18 5 10 13 3 22 22 28 81 47 49 58
REMARK Flexibility Score: inf
ROOT
ATOM      1  C   UNL A   1      31.609  30.592  26.326  1.00  0.00     0.117 C 
ENDROOT
BRANCH   1   2
ATOM      2  N   UNL A   1      31.256  30.294  24.949  1.00  0.00    -0.354 N 
ATOM      3  C   UNL A   1      31.436  29.128  24.256  1.00  0.00     0.249 C 
ATOM      4  O   UNL A   1      31.168  29.115  23.053  1.00  0.00    -0.272 OA
ATOM      5  H   UNL A   1      30.832  31.028  24.447  1.00  0.00     0.163 HD
BRANCH   3   6
ATOM      6  C   UNL A   1      31.922  27.885  25.008  1.00  0.00     0.207 C 
ATOM      7  C   UNL A   1      32.751  25.890  24.141  1.00  0.00     0.134 C 
ATOM      8  C   UNL A   1      33.683  26.348  25.247  1.00  0.00     0.037 C 
ATOM      9  O   UNL A   1      31.584  26.714  24.235  1.00  0.00    -0.364 OA
ATOM     10  C   UNL A   1      33.429  27.837  25.223  1.00  0.00     0.045 C 
BRANCH   7  11
ATOM     11  C   UNL A   1      32.396  24.407  24.115  1.00  0.00     0.131 C 
BRANCH  11  12
ATOM     12  N   UNL A   1      31.131  24.024  24.772  1.00  0.00    -0.208 NA
ATOM     13  H   UNL A   1      30.587  24.880  24.870  1.00  0.00     0.141 HD
BRANCH  12  14
ATOM     14  S   UNL A   1      31.111  23.274  26.278  1.00  0.00     0.244 S 
ATOM     15  O   UNL A   1      29.969  22.390  26.346  1.00  0.00    -0.207 OA
ATOM     16  O   UNL A   1      31.265  24.333  27.250  1.00  0.00    -0.207 OA
BRANCH  14  17
ATOM     17  C   UNL A   1      32.488  22.287  26.518  1.00  0.00     0.122 A 
ATOM     18  C   UNL A   1      32.382  20.462  24.629  1.00  0.00     0.067 C 
ATOM     19  C   UNL A   1      32.924  21.188  25.799  1.00  0.00     0.052 A 
ATOM     20  N   UNL A   1      34.096  20.815  26.402  1.00  0.00    -0.281 N 
ATOM     21  N   UNL A   1      34.443  21.590  27.444  1.00  0.00    -0.183 NA
ATOM     22  H   UNL A   1      34.636  20.048  26.100  1.00  0.00     0.190 HD
ATOM     23  C   UNL A   1      33.462  22.496  27.507  1.00  0.00     0.157 A 
ENDBRANCH  14  17
ENDBRANCH  12  14
ENDBRANCH  11  12
ENDBRANCH   7  11
ENDBRANCH   3   6
ENDBRANCH   1   2
BRANCH   1  24
ATOM     24  C   UNL A   1      31.390  32.070  26.651  1.00  0.00     0.042 C 
BRANCH  24  25
ATOM     25  C   UNL A   1      32.664  32.807  27.068  1.00  0.00     0.118 C 
BRANCH  25  26
ATOM     26  N   UNL A   1      32.402  34.152  27.558  1.00  0.00    -0.352 N 
ATOM     27  C   UNL A   1      32.992  34.859  28.575  1.00  0.00     0.251 C 
ATOM     28  H   UNL A   1      31.686  34.633  27.082  1.00  0.00     0.163 HD
ATOM     29  O   UNL A   1      32.515  35.937  28.921  1.00  0.00    -0.269 OA
BRANCH  27  30
ATOM     30  C   UNL A   1      34.182  34.331  29.278  1.00  0.00     0.039 A 
ATOM     31  C   UNL A   1      33.985  33.493  30.381  1.00  0.00     0.014 A 
ATOM     32  C   UNL A   1      35.478  34.683  28.893  1.00  0.00     0.014 A 
ATOM     33  C   UNL A   1      35.085  32.957  31.056  1.00  0.00     0.010 A 
ATOM     34  C   UNL A   1      36.575  34.103  29.531  1.00  0.00     0.010 A 
ATOM     35  C   UNL A   1      36.388  33.230  30.614  1.00  0.00    -0.014 A 
BRANCH  35  36
ATOM     36  C   UNL A   1      37.564  32.592  31.259  1.00  0.00     0.031 A 
ATOM     37  C   UNL A   1      38.282  31.458  30.586  1.00  0.00     0.074 A 
ATOM     38  C   UNL A   1      37.941  32.994  32.488  1.00  0.00     0.049 A 
ATOM     39  N   UNL A   1      39.274  30.726  31.030  1.00  0.00    -0.248 NA
ATOM     40  C   UNL A   1      37.812  31.080  29.244  1.00  0.00     0.031 C 
ATOM     41  C   UNL A   1      37.298  34.055  33.264  1.00  0.00     0.029 A 
ATOM     42  N   UNL A   1      38.948  32.547  33.307  1.00  0.00    -0.354 N 
ATOM     43  C   UNL A   1      39.531  29.793  30.035  1.00  0.00     0.074 A 
ATOM     44  C   UNL A   1      38.570  30.026  28.979  1.00  0.00     0.031 C 
ATOM     45  C   UNL A   1      37.931  34.185  34.441  1.00  0.00     0.029 A 
ATOM     46  C   UNL A   1      39.003  33.196  34.516  1.00  0.00     0.049 A 
ATOM     47  H   UNL A   1      39.572  31.829  33.052  1.00  0.00     0.167 HD
ATOM     48  C   UNL A   1      40.494  28.841  29.999  1.00  0.00     0.037 A 
ATOM     49  C   UNL A   1      39.818  33.010  35.571  1.00  0.00     0.037 A 
ATOM     50  C   UNL A   1      41.470  28.630  31.037  1.00  0.00     0.049 A 
ATOM     51  C   UNL A   1      40.883  31.951  35.501  1.00  0.00     0.074 A 
ATOM     52  C   UNL A   1      42.525  27.735  31.061  1.00  0.00     0.029 A 
ATOM     53  N   UNL A   1      41.509  29.326  32.236  1.00  0.00    -0.354 N 
ATOM     54  N   UNL A   1      41.156  31.116  34.528  1.00  0.00    -0.248 NA
ATOM     55  C   UNL A   1      41.756  31.811  36.674  1.00  0.00     0.031 C 
ATOM     56  C   UNL A   1      43.182  27.864  32.289  1.00  0.00     0.029 A 
ATOM     57  C   UNL A   1      42.560  28.866  33.014  1.00  0.00     0.049 A 
ATOM     58  H   UNL A   1      40.884  30.041  32.496  1.00  0.00     0.167 HD
ATOM     59  C   UNL A   1      42.244  30.370  34.960  1.00  0.00     0.074 A 
ATOM     60  C   UNL A   1      42.590  30.860  36.278  1.00  0.00     0.031 C 
ATOM     61  C   UNL A   1      42.895  29.368  34.321  1.00  0.00     0.037 A 
BRANCH  48  62
ATOM     62  C   UNL A   1      40.546  27.949  28.794  1.00  0.00     0.064 A 
ATOM     63  C   UNL A   1      41.331  28.272  27.677  1.00  0.00     0.173 A 
ATOM     64  C   UNL A   1      39.842  26.736  28.774  1.00  0.00     0.173 A 
ATOM     65  F   UNL A   1      42.015  29.426  27.643  1.00  0.00    -0.203 F 
ATOM     66  C   UNL A   1      41.393  27.422  26.575  1.00  0.00     0.198 A 
ATOM     67  C   UNL A   1      39.927  25.876  27.682  1.00  0.00     0.198 A 
ATOM     68  F   UNL A   1      39.082  26.378  29.820  1.00  0.00    -0.203 F 
ATOM     69  F   UNL A   1      42.119  27.769  25.504  1.00  0.00    -0.200 F 
ATOM     70  C   UNL A   1      40.697  26.222  26.582  1.00  0.00     0.200 A 
ATOM     71  F   UNL A   1      39.263  24.712  27.695  1.00  0.00    -0.200 F 
ATOM     72  F   UNL A   1      40.764  25.401  25.525  1.00  0.00    -0.200 F 
ENDBRANCH  48  62
BRANCH  49  73
ATOM     73  C   UNL A   1      39.670  33.859  36.779  1.00  0.00     0.064 A 
ATOM     74  C   UNL A   1      38.889  33.434  37.863  1.00  0.00     0.173 A 
ATOM     75  C   UNL A   1      40.300  35.108  36.876  1.00  0.00     0.173 A 
ATOM     76  F   UNL A   1      38.249  32.257  37.806  1.00  0.00    -0.203 F 
ATOM     77  C   UNL A   1      38.729  34.236  38.991  1.00  0.00     0.198 A 
ATOM     78  C   UNL A   1      40.160  35.897  38.015  1.00  0.00     0.198 A 
ATOM     79  F   UNL A   1      41.060  35.556  35.867  1.00  0.00    -0.203 F 
ATOM     80  F   UNL A   1      37.943  33.825  39.996  1.00  0.00    -0.200 F 
ATOM     81  C   UNL A   1      39.369  35.463  39.069  1.00  0.00     0.200 A 
ATOM     82  F   UNL A   1      40.789  37.078  38.092  1.00  0.00    -0.200 F 
ATOM     83  F   UNL A   1      39.217  36.233  40.156  1.00  0.00    -0.200 F 
ENDBRANCH  49  73
BRANCH  61  84
ATOM     84  C   UNL A   1      44.067  28.754  35.028  1.00  0.00     0.064 A 
ATOM     85  C   UNL A   1      45.361  29.281  34.896  1.00  0.00     0.173 A 
ATOM     86  C   UNL A   1      43.887  27.650  35.874  1.00  0.00     0.173 A 
ATOM     87  F   UNL A   1      45.584  30.326  34.086  1.00  0.00    -0.203 F 
ATOM     88  C   UNL A   1      46.436  28.710  35.570  1.00  0.00     0.198 A 
ATOM     89  C   UNL A   1      44.962  27.098  36.567  1.00  0.00     0.198 A 
ATOM     90  F   UNL A   1      42.669  27.114  36.037  1.00  0.00    -0.203 F 
ATOM     91  F   UNL A   1      47.671  29.201  35.398  1.00  0.00    -0.200 F 
ATOM     92  C   UNL A   1      46.235  27.623  36.409  1.00  0.00     0.200 A 
ATOM     93  F   UNL A   1      44.764  26.054  37.384  1.00  0.00    -0.200 F 
ATOM     94  F   UNL A   1      47.271  27.078  37.061  1.00  0.00    -0.200 F 
ENDBRANCH  61  84
ENDBRANCH  35  36
ENDBRANCH  27  30
ENDBRANCH  25  26
ENDBRANCH  24  25
ENDBRANCH   1  24
TORSDOF 14
ENDMDL
