MODEL 1
REMARK VINA RESULT:     -12.9      0.000      0.000
REMARK SMILES C[C@H]1[NH2+]CC[C@H]1C(=O)N1CCC(C(=O)NCCCNC(=O)c2ccc(-c3c4nc(c(-c5c(F)c(F)c(F)c(F)c5F)c5ccc([nH]5)c(-c5c(F)c(F)c(F)c(F)c5F)c5nc(c(-c6c(F)c(F)c(F)c(F)c6F)c6ccc3[nH]6)C=C5)C=C4)cc2)CC1
REMARK SMILES IDX 17 1 16 2 15 3 13 4 14 5 12 7 7 8 8 9 9 10 10 11 86 12 11 13
REMARK SMILES IDX 85 14 6 15 1 16 2 17 3 18 4 19 5 22 18 23 19 24 20 25 21 27
REMARK SMILES IDX 22 28 23 29 84 30 24 31 83 32 25 33 26 34 27 35 77 36 28 37
REMARK SMILES IDX 82 38 76 39 78 40 29 41 81 42 75 43 74 44 30 46 62 47 42 48
REMARK SMILES IDX 61 49 43 50 46 51 60 52 79 53 44 54 45 55 59 57 80 58 47 59
REMARK SMILES IDX 31 60 32 61 40 62 33 63 34 64 38 65 41 66 35 67 36 68 39 69
REMARK SMILES IDX 37 70 63 71 64 72 72 73 65 74 66 75 70 76 73 77 67 78 68 79
REMARK SMILES IDX 71 80 69 81 48 82 49 83 57 84 50 85 51 86 55 87 58 88 52 89
REMARK SMILES IDX 53 90 56 91 54 92
REMARK H PARENT 15 6 3 20 3 21 19 26 78 45 46 56
REMARK Flexibility Score: inf
ROOT
ATOM      1  C   UNL A   1      31.469  32.228  26.499  1.00  0.00     0.042 C 
ENDROOT
BRANCH   1   2
ATOM      2  C   UNL A   1      31.520  30.710  26.403  1.00  0.00     0.117 C 
BRANCH   2   3
ATOM      3  N   UNL A   1      31.463  30.255  25.020  1.00  0.00    -0.356 N 
ATOM      4  C   UNL A   1      31.473  29.005  24.487  1.00  0.00     0.223 C 
ATOM      5  O   UNL A   1      31.488  28.907  23.257  1.00  0.00    -0.275 OA
ATOM      6  H   UNL A   1      31.408  30.981  24.356  1.00  0.00     0.163 HD
BRANCH   4   7
ATOM      7  C   UNL A   1      31.416  27.761  25.358  1.00  0.00     0.082 C 
ATOM      8  C   UNL A   1      33.001  24.195  24.899  1.00  0.00     0.231 C 
ATOM      9  O   UNL A   1      33.049  24.398  23.684  1.00  0.00    -0.274 OA
ATOM     10  N   UNL A   1      32.255  25.018  25.731  1.00  0.00    -0.342 N 
ATOM     11  C   UNL A   1      30.859  25.272  25.409  1.00  0.00     0.120 C 
ATOM     12  C   UNL A   1      32.883  26.054  26.526  1.00  0.00     0.120 C 
ATOM     13  C   UNL A   1      30.649  26.605  24.701  1.00  0.00     0.035 C 
ATOM     14  C   UNL A   1      32.824  27.410  25.847  1.00  0.00     0.035 C 
BRANCH   8  15
ATOM     15  C   UNL A   1      33.585  22.912  25.509  1.00  0.00     0.142 C 
ATOM     16  C   UNL A   1      36.060  23.747  25.871  1.00  0.00     0.076 C 
ATOM     17  C   UNL A   1      35.088  22.625  25.545  1.00  0.00     0.192 C 
ATOM     18  N   UNL A   1      35.240  21.566  26.566  1.00  0.00    -0.343 N 
ATOM     19  C   UNL A   1      34.057  21.551  27.424  1.00  0.00     0.261 C 
ATOM     20  H   UNL A   1      36.069  21.753  27.131  1.00  0.00     0.346 HD
ATOM     21  H   UNL A   1      35.341  20.660  26.108  1.00  0.00     0.346 HD
ATOM     22  C   UNL A   1      33.117  22.631  26.928  1.00  0.00     0.081 C 
ENDBRANCH   8  15
ENDBRANCH   4   7
ENDBRANCH   2   3
ENDBRANCH   1   2
BRANCH   1  23
ATOM     23  C   UNL A   1      32.589  32.817  27.343  1.00  0.00     0.118 C 
BRANCH  23  24
ATOM     24  N   UNL A   1      32.374  34.223  27.657  1.00  0.00    -0.352 N 
ATOM     25  C   UNL A   1      32.969  35.014  28.608  1.00  0.00     0.251 C 
ATOM     26  H   UNL A   1      31.697  34.674  27.103  1.00  0.00     0.163 HD
ATOM     27  O   UNL A   1      32.516  36.124  28.853  1.00  0.00    -0.269 OA
BRANCH  25  28
ATOM     28  C   UNL A   1      34.145  34.515  29.354  1.00  0.00     0.039 A 
ATOM     29  C   UNL A   1      33.951  33.940  30.611  1.00  0.00     0.014 A 
ATOM     30  C   UNL A   1      35.431  34.612  28.817  1.00  0.00     0.014 A 
ATOM     31  C   UNL A   1      35.039  33.394  31.295  1.00  0.00     0.010 A 
ATOM     32  C   UNL A   1      36.494  33.983  29.453  1.00  0.00     0.010 A 
ATOM     33  C   UNL A   1      36.311  33.369  30.700  1.00  0.00    -0.014 A 
BRANCH  33  34
ATOM     34  C   UNL A   1      37.457  32.699  31.364  1.00  0.00     0.031 A 
ATOM     35  C   UNL A   1      38.139  31.533  30.706  1.00  0.00     0.074 A 
ATOM     36  C   UNL A   1      37.839  33.102  32.592  1.00  0.00     0.049 A 
ATOM     37  N   UNL A   1      39.113  30.781  31.156  1.00  0.00    -0.248 NA
ATOM     38  C   UNL A   1      37.644  31.138  29.378  1.00  0.00     0.031 C 
ATOM     39  C   UNL A   1      37.220  34.187  33.357  1.00  0.00     0.029 A 
ATOM     40  N   UNL A   1      38.833  32.640  33.418  1.00  0.00    -0.354 N 
ATOM     41  C   UNL A   1      39.336  29.824  30.175  1.00  0.00     0.074 A 
ATOM     42  C   UNL A   1      38.358  30.049  29.134  1.00  0.00     0.031 C 
ATOM     43  C   UNL A   1      37.865  34.325  34.525  1.00  0.00     0.029 A 
ATOM     44  C   UNL A   1      38.910  33.312  34.615  1.00  0.00     0.049 A 
ATOM     45  H   UNL A   1      39.433  31.898  33.177  1.00  0.00     0.167 HD
ATOM     46  C   UNL A   1      40.286  28.860  30.136  1.00  0.00     0.037 A 
ATOM     47  C   UNL A   1      39.726  33.122  35.670  1.00  0.00     0.037 A 
ATOM     48  C   UNL A   1      41.269  28.652  31.168  1.00  0.00     0.049 A 
ATOM     49  C   UNL A   1      40.762  32.033  35.608  1.00  0.00     0.074 A 
ATOM     50  C   UNL A   1      42.313  27.746  31.195  1.00  0.00     0.029 A 
ATOM     51  N   UNL A   1      41.321  29.358  32.362  1.00  0.00    -0.354 N 
ATOM     52  N   UNL A   1      41.015  31.184  34.641  1.00  0.00    -0.248 NA
ATOM     53  C   UNL A   1      41.631  31.879  36.782  1.00  0.00     0.031 C 
ATOM     54  C   UNL A   1      42.960  27.860  32.429  1.00  0.00     0.029 A 
ATOM     55  C   UNL A   1      42.361  28.883  33.146  1.00  0.00     0.049 A 
ATOM     56  H   UNL A   1      40.711  30.087  32.615  1.00  0.00     0.167 HD
ATOM     57  C   UNL A   1      42.086  30.416  35.077  1.00  0.00     0.074 A 
ATOM     58  C   UNL A   1      42.447  30.913  36.388  1.00  0.00     0.031 C 
ATOM     59  C   UNL A   1      42.711  29.389  34.450  1.00  0.00     0.037 A 
BRANCH  46  60
ATOM     60  C   UNL A   1      40.311  27.953  28.938  1.00  0.00     0.064 A 
ATOM     61  C   UNL A   1      41.056  28.266  27.790  1.00  0.00     0.173 A 
ATOM     62  C   UNL A   1      39.611  26.737  28.951  1.00  0.00     0.173 A 
ATOM     63  F   UNL A   1      41.735  29.420  27.719  1.00  0.00    -0.203 F 
ATOM     64  C   UNL A   1      41.073  27.411  26.691  1.00  0.00     0.198 A 
ATOM     65  C   UNL A   1      39.660  25.868  27.864  1.00  0.00     0.198 A 
ATOM     66  F   UNL A   1      38.887  26.384  30.025  1.00  0.00    -0.203 F 
ATOM     67  F   UNL A   1      41.749  27.758  25.586  1.00  0.00    -0.200 F 
ATOM     68  C   UNL A   1      40.383  26.210  26.732  1.00  0.00     0.200 A 
ATOM     69  F   UNL A   1      39.005  24.700  27.912  1.00  0.00    -0.200 F 
ATOM     70  F   UNL A   1      40.409  25.384  25.677  1.00  0.00    -0.200 F 
ENDBRANCH  46  60
BRANCH  47  71
ATOM     71  C   UNL A   1      39.605  33.995  36.868  1.00  0.00     0.064 A 
ATOM     72  C   UNL A   1      38.844  33.599  37.976  1.00  0.00     0.173 A 
ATOM     73  C   UNL A   1      40.240  35.245  36.928  1.00  0.00     0.173 A 
ATOM     74  F   UNL A   1      38.200  32.421  37.959  1.00  0.00    -0.203 F 
ATOM     75  C   UNL A   1      38.701  34.426  39.087  1.00  0.00     0.198 A 
ATOM     76  C   UNL A   1      40.124  36.059  38.053  1.00  0.00     0.198 A 
ATOM     77  F   UNL A   1      40.984  35.671  35.897  1.00  0.00    -0.203 F 
ATOM     78  F   UNL A   1      37.925  34.044  40.110  1.00  0.00    -0.200 F 
ATOM     79  C   UNL A   1      39.348  35.653  39.128  1.00  0.00     0.200 A 
ATOM     80  F   UNL A   1      40.763  37.235  38.094  1.00  0.00    -0.200 F 
ATOM     81  F   UNL A   1      39.214  36.448  40.199  1.00  0.00    -0.200 F 
ENDBRANCH  47  71
BRANCH  59  82
ATOM     82  C   UNL A   1      43.874  28.755  35.159  1.00  0.00     0.064 A 
ATOM     83  C   UNL A   1      43.709  27.650  36.006  1.00  0.00     0.173 A 
ATOM     84  C   UNL A   1      45.176  29.239  34.958  1.00  0.00     0.173 A 
ATOM     85  F   UNL A   1      42.483  27.157  36.243  1.00  0.00    -0.203 F 
ATOM     86  C   UNL A   1      44.800  27.071  36.649  1.00  0.00     0.198 A 
ATOM     87  C   UNL A   1      46.268  28.636  35.575  1.00  0.00     0.198 A 
ATOM     88  F   UNL A   1      45.392  30.290  34.152  1.00  0.00    -0.203 F 
ATOM     89  F   UNL A   1      44.611  26.050  37.497  1.00  0.00    -0.200 F 
ATOM     90  C   UNL A   1      46.079  27.559  36.427  1.00  0.00     0.200 A 
ATOM     91  F   UNL A   1      47.505  29.098  35.345  1.00  0.00    -0.200 F 
ATOM     92  F   UNL A   1      47.128  26.996  37.041  1.00  0.00    -0.200 F 
ENDBRANCH  59  82
ENDBRANCH  33  34
ENDBRANCH  25  28
ENDBRANCH  23  24
ENDBRANCH   1  23
TORSDOF 11
ENDMDL
MODEL 2
REMARK VINA RESULT:     -12.9      0.120      1.624
REMARK SMILES C[C@H]1[NH2+]CC[C@H]1C(=O)N1CCC(C(=O)NCCCNC(=O)c2ccc(-c3c4nc(c(-c5c(F)c(F)c(F)c(F)c5F)c5ccc([nH]5)c(-c5c(F)c(F)c(F)c(F)c5F)c5nc(c(-c6c(F)c(F)c(F)c(F)c6F)c6ccc3[nH]6)C=C5)C=C4)cc2)CC1
REMARK SMILES IDX 17 1 16 2 15 3 13 4 14 5 12 7 7 8 8 9 9 10 10 11 86 12 11 13
REMARK SMILES IDX 85 14 6 15 1 16 2 17 3 18 4 19 5 22 18 23 19 24 20 25 21 27
REMARK SMILES IDX 22 28 23 29 84 30 24 31 83 32 25 33 26 34 27 35 77 36 28 37
REMARK SMILES IDX 82 38 76 39 78 40 29 41 81 42 75 43 74 44 30 46 62 47 42 48
REMARK SMILES IDX 61 49 43 50 46 51 60 52 79 53 44 54 45 55 59 57 80 58 47 59
REMARK SMILES IDX 31 60 32 61 40 62 33 63 34 64 38 65 41 66 35 67 36 68 39 69
REMARK SMILES IDX 37 70 63 71 64 72 72 73 65 74 66 75 70 76 73 77 67 78 68 79
REMARK SMILES IDX 71 80 69 81 48 82 49 83 57 84 50 85 51 86 55 87 58 88 52 89
REMARK SMILES IDX 53 90 56 91 54 92
REMARK H PARENT 15 6 3 20 3 21 19 26 78 45 46 56
REMARK Flexibility Score: inf
ROOT
ATOM      1  C   UNL A   1      31.510  32.232  26.537  1.00  0.00     0.042 C 
ENDROOT
BRANCH   1   2
ATOM      2  C   UNL A   1      31.589  30.715  26.448  1.00  0.00     0.117 C 
BRANCH   2   3
ATOM      3  N   UNL A   1      31.442  30.249  25.075  1.00  0.00    -0.356 N 
ATOM      4  C   UNL A   1      31.411  28.993  24.555  1.00  0.00     0.223 C 
ATOM      5  O   UNL A   1      31.348  28.883  23.328  1.00  0.00    -0.275 OA
ATOM      6  H   UNL A   1      31.351  30.968  24.409  1.00  0.00     0.163 HD
BRANCH   4   7
ATOM      7  C   UNL A   1      31.399  27.757  25.440  1.00  0.00     0.082 C 
ATOM      8  C   UNL A   1      32.932  24.177  24.921  1.00  0.00     0.231 C 
ATOM      9  O   UNL A   1      32.908  24.369  23.703  1.00  0.00    -0.274 OA
ATOM     10  N   UNL A   1      32.243  25.013  25.788  1.00  0.00    -0.342 N 
ATOM     11  C   UNL A   1      30.831  25.273  25.549  1.00  0.00     0.120 C 
ATOM     12  C   UNL A   1      32.924  26.053  26.533  1.00  0.00     0.120 C 
ATOM     13  C   UNL A   1      30.586  26.601  24.842  1.00  0.00     0.035 C 
ATOM     14  C   UNL A   1      32.832  27.402  25.846  1.00  0.00     0.035 C 
BRANCH   8  15
ATOM     15  C   UNL A   1      33.544  22.896  25.507  1.00  0.00     0.142 C 
ATOM     16  C   UNL A   1      36.005  23.773  25.869  1.00  0.00     0.076 C 
ATOM     17  C   UNL A   1      35.052  22.638  25.530  1.00  0.00     0.192 C 
ATOM     18  N   UNL A   1      35.230  21.566  26.534  1.00  0.00    -0.343 N 
ATOM     19  C   UNL A   1      34.053  21.515  27.398  1.00  0.00     0.261 C 
ATOM     20  H   UNL A   1      36.059  21.760  27.096  1.00  0.00     0.346 HD
ATOM     21  H   UNL A   1      35.347  20.670  26.060  1.00  0.00     0.346 HD
ATOM     22  C   UNL A   1      33.090  22.584  26.924  1.00  0.00     0.081 C 
ENDBRANCH   8  15
ENDBRANCH   4   7
ENDBRANCH   2   3
ENDBRANCH   1   2
BRANCH   1  23
ATOM     23  C   UNL A   1      32.659  32.852  27.317  1.00  0.00     0.118 C 
BRANCH  23  24
ATOM     24  N   UNL A   1      32.423  34.250  27.648  1.00  0.00    -0.352 N 
ATOM     25  C   UNL A   1      32.993  35.034  28.621  1.00  0.00     0.251 C 
ATOM     26  H   UNL A   1      31.752  34.703  27.089  1.00  0.00     0.163 HD
ATOM     27  O   UNL A   1      32.523  36.136  28.874  1.00  0.00    -0.269 OA
BRANCH  25  28
ATOM     28  C   UNL A   1      34.160  34.537  29.380  1.00  0.00     0.039 A 
ATOM     29  C   UNL A   1      33.953  33.967  30.638  1.00  0.00     0.014 A 
ATOM     30  C   UNL A   1      35.451  34.629  28.855  1.00  0.00     0.014 A 
ATOM     31  C   UNL A   1      35.033  33.424  31.335  1.00  0.00     0.010 A 
ATOM     32  C   UNL A   1      36.508  34.001  29.505  1.00  0.00     0.010 A 
ATOM     33  C   UNL A   1      36.311  33.394  30.752  1.00  0.00    -0.014 A 
BRANCH  33  34
ATOM     34  C   UNL A   1      37.450  32.725  31.431  1.00  0.00     0.031 A 
ATOM     35  C   UNL A   1      38.140  31.557  30.782  1.00  0.00     0.074 A 
ATOM     36  C   UNL A   1      37.818  33.130  32.662  1.00  0.00     0.049 A 
ATOM     37  N   UNL A   1      39.108  30.807  31.244  1.00  0.00    -0.248 NA
ATOM     38  C   UNL A   1      37.659  31.160  29.450  1.00  0.00     0.031 C 
ATOM     39  C   UNL A   1      37.190  34.216  33.418  1.00  0.00     0.029 A 
ATOM     40  N   UNL A   1      38.803  32.670  33.501  1.00  0.00    -0.354 N 
ATOM     41  C   UNL A   1      39.342  29.848  30.268  1.00  0.00     0.074 A 
ATOM     42  C   UNL A   1      38.376  30.071  29.215  1.00  0.00     0.031 C 
ATOM     43  C   UNL A   1      37.821  34.357  34.593  1.00  0.00     0.029 A 
ATOM     44  C   UNL A   1      38.866  33.344  34.696  1.00  0.00     0.049 A 
ATOM     45  H   UNL A   1      39.405  31.928  33.267  1.00  0.00     0.167 HD
ATOM     46  C   UNL A   1      40.293  28.884  30.241  1.00  0.00     0.037 A 
ATOM     47  C   UNL A   1      39.670  33.157  35.761  1.00  0.00     0.037 A 
ATOM     48  C   UNL A   1      41.264  28.678  31.285  1.00  0.00     0.049 A 
ATOM     49  C   UNL A   1      40.707  32.068  35.713  1.00  0.00     0.074 A 
ATOM     50  C   UNL A   1      42.308  27.772  31.326  1.00  0.00     0.029 A 
ATOM     51  N   UNL A   1      41.303  29.387  32.478  1.00  0.00    -0.354 N 
ATOM     52  N   UNL A   1      40.970  31.217  34.750  1.00  0.00    -0.248 NA
ATOM     53  C   UNL A   1      41.563  31.916  36.897  1.00  0.00     0.031 C 
ATOM     54  C   UNL A   1      42.941  27.888  32.566  1.00  0.00     0.029 A 
ATOM     55  C   UNL A   1      42.334  28.913  33.275  1.00  0.00     0.049 A 
ATOM     56  H   UNL A   1      40.690  30.116  32.723  1.00  0.00     0.167 HD
ATOM     57  C   UNL A   1      42.037  30.449  35.200  1.00  0.00     0.074 A 
ATOM     58  C   UNL A   1      42.383  30.949  36.514  1.00  0.00     0.031 C 
ATOM     59  C   UNL A   1      42.669  29.422  34.582  1.00  0.00     0.037 A 
BRANCH  46  60
ATOM     60  C   UNL A   1      40.332  27.975  29.046  1.00  0.00     0.064 A 
ATOM     61  C   UNL A   1      39.610  26.772  29.009  1.00  0.00     0.173 A 
ATOM     62  C   UNL A   1      41.069  28.329  27.906  1.00  0.00     0.173 A 
ATOM     63  F   UNL A   1      38.897  26.379  30.075  1.00  0.00    -0.203 F 
ATOM     64  C   UNL A   1      39.651  25.944  27.890  1.00  0.00     0.198 A 
ATOM     65  C   UNL A   1      41.079  27.517  26.775  1.00  0.00     0.198 A 
ATOM     66  F   UNL A   1      41.773  29.472  27.883  1.00  0.00    -0.203 F 
ATOM     67  F   UNL A   1      38.996  24.774  27.900  1.00  0.00    -0.200 F 
ATOM     68  C   UNL A   1      40.378  26.321  26.771  1.00  0.00     0.200 A 
ATOM     69  F   UNL A   1      41.770  27.891  25.689  1.00  0.00    -0.200 F 
ATOM     70  F   UNL A   1      40.408  25.528  25.691  1.00  0.00    -0.200 F 
ENDBRANCH  46  60
BRANCH  47  71
ATOM     71  C   UNL A   1      39.535  34.032  36.956  1.00  0.00     0.064 A 
ATOM     72  C   UNL A   1      40.178  35.276  37.016  1.00  0.00     0.173 A 
ATOM     73  C   UNL A   1      38.769  33.641  38.065  1.00  0.00     0.173 A 
ATOM     74  F   UNL A   1      40.939  35.686  35.990  1.00  0.00    -0.203 F 
ATOM     75  C   UNL A   1      40.080  36.084  38.146  1.00  0.00     0.198 A 
ATOM     76  C   UNL A   1      38.645  34.464  39.182  1.00  0.00     0.198 A 
ATOM     77  F   UNL A   1      38.129  32.461  38.057  1.00  0.00    -0.203 F 
ATOM     78  F   UNL A   1      40.748  37.245  38.197  1.00  0.00    -0.200 F 
ATOM     79  C   UNL A   1      39.308  35.681  39.226  1.00  0.00     0.200 A 
ATOM     80  F   UNL A   1      37.885  34.077  40.215  1.00  0.00    -0.200 F 
ATOM     81  F   UNL A   1      39.211  36.461  40.311  1.00  0.00    -0.200 F 
ENDBRANCH  47  71
BRANCH  59  82
ATOM     82  C   UNL A   1      43.824  28.789  35.305  1.00  0.00     0.064 A 
ATOM     83  C   UNL A   1      43.639  27.738  36.215  1.00  0.00     0.173 A 
ATOM     84  C   UNL A   1      45.137  29.217  35.055  1.00  0.00     0.173 A 
ATOM     85  F   UNL A   1      42.403  27.301  36.500  1.00  0.00    -0.203 F 
ATOM     86  C   UNL A   1      44.723  27.160  36.871  1.00  0.00     0.198 A 
ATOM     87  C   UNL A   1      46.220  28.613  35.687  1.00  0.00     0.198 A 
ATOM     88  F   UNL A   1      45.372  30.215  34.189  1.00  0.00    -0.203 F 
ATOM     89  F   UNL A   1      44.517  26.193  37.777  1.00  0.00    -0.200 F 
ATOM     90  C   UNL A   1      46.013  27.591  36.600  1.00  0.00     0.200 A 
ATOM     91  F   UNL A   1      47.467  29.021  35.410  1.00  0.00    -0.200 F 
ATOM     92  F   UNL A   1      47.054  27.028  37.226  1.00  0.00    -0.200 F 
ENDBRANCH  59  82
ENDBRANCH  33  34
ENDBRANCH  25  28
ENDBRANCH  23  24
ENDBRANCH   1  23
TORSDOF 11
ENDMDL
MODEL 3
REMARK VINA RESULT:     -12.8      0.904      1.608
REMARK SMILES C[C@H]1[NH2+]CC[C@H]1C(=O)N1CCC(C(=O)NCCCNC(=O)c2ccc(-c3c4nc(c(-c5c(F)c(F)c(F)c(F)c5F)c5ccc([nH]5)c(-c5c(F)c(F)c(F)c(F)c5F)c5nc(c(-c6c(F)c(F)c(F)c(F)c6F)c6ccc3[nH]6)C=C5)C=C4)cc2)CC1
REMARK SMILES IDX 17 1 16 2 15 3 13 4 14 5 12 7 7 8 8 9 9 10 10 11 86 12 11 13
REMARK SMILES IDX 85 14 6 15 1 16 2 17 3 18 4 19 5 22 18 23 19 24 20 25 21 27
REMARK SMILES IDX 22 28 23 29 84 30 24 31 83 32 25 33 26 34 27 35 77 36 28 37
REMARK SMILES IDX 82 38 76 39 78 40 29 41 81 42 75 43 74 44 30 46 62 47 42 48
REMARK SMILES IDX 61 49 43 50 46 51 60 52 79 53 44 54 45 55 59 57 80 58 47 59
REMARK SMILES IDX 31 60 32 61 40 62 33 63 34 64 38 65 41 66 35 67 36 68 39 69
REMARK SMILES IDX 37 70 63 71 64 72 72 73 65 74 66 75 70 76 73 77 67 78 68 79
REMARK SMILES IDX 71 80 69 81 48 82 49 83 57 84 50 85 51 86 55 87 58 88 52 89
REMARK SMILES IDX 53 90 56 91 54 92
REMARK H PARENT 15 6 3 20 3 21 19 26 78 45 46 56
REMARK Flexibility Score: inf
ROOT
ATOM      1  C   UNL A   1      31.403  32.077  26.518  1.00  0.00     0.042 C 
ENDROOT
BRANCH   1   2
ATOM      2  C   UNL A   1      31.702  30.683  25.987  1.00  0.00     0.117 C 
BRANCH   2   3
ATOM      3  N   UNL A   1      33.067  30.273  26.290  1.00  0.00    -0.356 N 
ATOM      4  C   UNL A   1      33.676  29.061  26.208  1.00  0.00     0.223 C 
ATOM      5  O   UNL A   1      34.842  28.978  26.602  1.00  0.00    -0.275 OA
ATOM      6  H   UNL A   1      33.648  31.000  26.610  1.00  0.00     0.163 HD
BRANCH   4   7
ATOM      7  C   UNL A   1      32.980  27.851  25.607  1.00  0.00     0.082 C 
ATOM      8  C   UNL A   1      34.119  24.107  25.255  1.00  0.00     0.231 C 
ATOM      9  O   UNL A   1      35.291  24.481  25.330  1.00  0.00    -0.274 OA
ATOM     10  N   UNL A   1      33.093  25.016  25.043  1.00  0.00    -0.342 N 
ATOM     11  C   UNL A   1      33.188  25.944  23.925  1.00  0.00     0.120 C 
ATOM     12  C   UNL A   1      32.258  25.478  26.133  1.00  0.00     0.120 C 
ATOM     13  C   UNL A   1      33.677  27.325  24.344  1.00  0.00     0.035 C 
ATOM     14  C   UNL A   1      32.735  26.804  26.697  1.00  0.00     0.035 C 
BRANCH   8  15
ATOM     15  C   UNL A   1      33.770  22.613  25.182  1.00  0.00     0.142 C 
ATOM     16  C   UNL A   1      33.277  22.205  27.741  1.00  0.00     0.076 C 
ATOM     17  C   UNL A   1      33.802  21.697  26.408  1.00  0.00     0.192 C 
ATOM     18  N   UNL A   1      33.003  20.517  26.011  1.00  0.00    -0.343 N 
ATOM     19  C   UNL A   1      32.153  20.871  24.876  1.00  0.00     0.261 C 
ATOM     20  H   UNL A   1      32.421  20.222  26.795  1.00  0.00     0.346 HD
ATOM     21  H   UNL A   1      33.626  19.754  25.748  1.00  0.00     0.346 HD
ATOM     22  C   UNL A   1      32.426  22.322  24.533  1.00  0.00     0.081 C 
ENDBRANCH   8  15
ENDBRANCH   4   7
ENDBRANCH   2   3
ENDBRANCH   1   2
BRANCH   1  23
ATOM     23  C   UNL A   1      32.570  32.700  27.269  1.00  0.00     0.118 C 
BRANCH  23  24
ATOM     24  N   UNL A   1      32.356  34.109  27.569  1.00  0.00    -0.352 N 
ATOM     25  C   UNL A   1      32.944  34.906  28.520  1.00  0.00     0.251 C 
ATOM     26  H   UNL A   1      31.686  34.558  27.005  1.00  0.00     0.163 HD
ATOM     27  O   UNL A   1      32.492  36.020  28.751  1.00  0.00    -0.269 OA
BRANCH  25  28
ATOM     28  C   UNL A   1      34.111  34.411  29.281  1.00  0.00     0.039 A 
ATOM     29  C   UNL A   1      33.899  33.810  30.524  1.00  0.00     0.014 A 
ATOM     30  C   UNL A   1      35.406  34.535  28.773  1.00  0.00     0.014 A 
ATOM     31  C   UNL A   1      34.979  33.268  31.221  1.00  0.00     0.010 A 
ATOM     32  C   UNL A   1      36.465  33.909  29.421  1.00  0.00     0.010 A 
ATOM     33  C   UNL A   1      36.264  33.271  30.653  1.00  0.00    -0.014 A 
BRANCH  33  34
ATOM     34  C   UNL A   1      37.406  32.605  31.329  1.00  0.00     0.031 A 
ATOM     35  C   UNL A   1      38.109  31.451  30.671  1.00  0.00     0.074 A 
ATOM     36  C   UNL A   1      37.763  32.999  32.567  1.00  0.00     0.049 A 
ATOM     37  N   UNL A   1      39.083  30.705  31.129  1.00  0.00    -0.248 NA
ATOM     38  C   UNL A   1      37.639  31.065  29.331  1.00  0.00     0.031 C 
ATOM     39  C   UNL A   1      37.121  34.070  33.332  1.00  0.00     0.029 A 
ATOM     40  N   UNL A   1      38.748  32.537  33.405  1.00  0.00    -0.354 N 
ATOM     41  C   UNL A   1      39.330  29.759  30.143  1.00  0.00     0.074 A 
ATOM     42  C   UNL A   1      38.368  29.985  29.088  1.00  0.00     0.031 C 
ATOM     43  C   UNL A   1      37.745  34.202  34.513  1.00  0.00     0.029 A 
ATOM     44  C   UNL A   1      38.799  33.198  34.609  1.00  0.00     0.049 A 
ATOM     45  H   UNL A   1      39.358  31.804  33.166  1.00  0.00     0.167 HD
ATOM     46  C   UNL A   1      40.291  28.804  30.110  1.00  0.00     0.037 A 
ATOM     47  C   UNL A   1      39.598  33.005  35.676  1.00  0.00     0.037 A 
ATOM     48  C   UNL A   1      41.258  28.595  31.156  1.00  0.00     0.049 A 
ATOM     49  C   UNL A   1      40.646  31.927  35.620  1.00  0.00     0.074 A 
ATOM     50  C   UNL A   1      42.310  27.699  31.191  1.00  0.00     0.029 A 
ATOM     51  N   UNL A   1      41.284  29.290  32.358  1.00  0.00    -0.354 N 
ATOM     52  N   UNL A   1      40.922  31.090  34.649  1.00  0.00    -0.248 NA
ATOM     53  C   UNL A   1      41.497  31.769  36.807  1.00  0.00     0.031 C 
ATOM     54  C   UNL A   1      42.935  27.806  32.437  1.00  0.00     0.029 A 
ATOM     55  C   UNL A   1      42.315  28.816  33.155  1.00  0.00     0.049 A 
ATOM     56  H   UNL A   1      40.663  30.011  32.607  1.00  0.00     0.167 HD
ATOM     57  C   UNL A   1      41.993  30.327  35.095  1.00  0.00     0.074 A 
ATOM     58  C   UNL A   1      42.328  30.814  36.417  1.00  0.00     0.031 C 
ATOM     59  C   UNL A   1      42.639  29.313  34.469  1.00  0.00     0.037 A 
BRANCH  46  60
ATOM     60  C   UNL A   1      40.344  27.910  28.904  1.00  0.00     0.064 A 
ATOM     61  C   UNL A   1      41.111  28.237  27.775  1.00  0.00     0.173 A 
ATOM     62  C   UNL A   1      39.648  26.692  28.890  1.00  0.00     0.173 A 
ATOM     63  F   UNL A   1      41.788  29.395  27.730  1.00  0.00    -0.203 F 
ATOM     64  C   UNL A   1      41.155  27.394  26.668  1.00  0.00     0.198 A 
ATOM     65  C   UNL A   1      39.723  25.834  27.795  1.00  0.00     0.198 A 
ATOM     66  F   UNL A   1      38.903  26.325  29.944  1.00  0.00    -0.203 F 
ATOM     67  F   UNL A   1      41.852  27.754  25.581  1.00  0.00    -0.200 F 
ATOM     68  C   UNL A   1      40.468  26.189  26.682  1.00  0.00     0.200 A 
ATOM     69  F   UNL A   1      39.071  24.663  27.818  1.00  0.00    -0.200 F 
ATOM     70  F   UNL A   1      40.520  25.375  25.619  1.00  0.00    -0.200 F 
ENDBRANCH  46  60
BRANCH  47  71
ATOM     71  C   UNL A   1      39.449  33.865  36.881  1.00  0.00     0.064 A 
ATOM     72  C   UNL A   1      38.706  33.433  37.988  1.00  0.00     0.173 A 
ATOM     73  C   UNL A   1      40.039  35.136  36.948  1.00  0.00     0.173 A 
ATOM     74  F   UNL A   1      38.105  32.233  37.964  1.00  0.00    -0.203 F 
ATOM     75  C   UNL A   1      38.537  34.248  39.105  1.00  0.00     0.198 A 
ATOM     76  C   UNL A   1      39.897  35.938  38.079  1.00  0.00     0.198 A 
ATOM     77  F   UNL A   1      40.764  35.596  35.917  1.00  0.00    -0.203 F 
ATOM     78  F   UNL A   1      37.778  33.831  40.128  1.00  0.00    -0.200 F 
ATOM     79  C   UNL A   1      39.139  35.497  39.153  1.00  0.00     0.200 A 
ATOM     80  F   UNL A   1      40.493  37.136  38.126  1.00  0.00    -0.200 F 
ATOM     81  F   UNL A   1      38.980  36.279  40.229  1.00  0.00    -0.200 F 
ENDBRANCH  47  71
BRANCH  59  82
ATOM     82  C   UNL A   1      43.796  28.682  35.190  1.00  0.00     0.064 A 
ATOM     83  C   UNL A   1      45.104  29.172  35.058  1.00  0.00     0.173 A 
ATOM     84  C   UNL A   1      43.586  27.597  36.054  1.00  0.00     0.173 A 
ATOM     85  F   UNL A   1      45.361  30.199  34.233  1.00  0.00    -0.203 F 
ATOM     86  C   UNL A   1      46.163  28.578  35.740  1.00  0.00     0.198 A 
ATOM     87  C   UNL A   1      44.642  27.028  36.761  1.00  0.00     0.198 A 
ATOM     88  F   UNL A   1      42.354  27.093  36.223  1.00  0.00    -0.203 F 
ATOM     89  F   UNL A   1      47.412  29.028  35.556  1.00  0.00    -0.200 F 
ATOM     90  C   UNL A   1      45.930  27.513  36.597  1.00  0.00     0.200 A 
ATOM     91  F   UNL A   1      44.411  26.010  37.602  1.00  0.00    -0.200 F 
ATOM     92  F   UNL A   1      46.949  26.948  37.258  1.00  0.00    -0.200 F 
ENDBRANCH  59  82
ENDBRANCH  33  34
ENDBRANCH  25  28
ENDBRANCH  23  24
ENDBRANCH   1  23
TORSDOF 11
ENDMDL
