MODEL 1
REMARK VINA RESULT:     -13.4      0.000      0.000
REMARK SMILES O=C(COc1nc(-c2cccnc2)nc2c1CCCC2)NCCCNC(=O)c1ccc(-c2c3nc(c(-c4c(F)c(F)c(F)c(F)c4F)c4ccc([nH]4)c(-c4c(F)c(F)c(F)c(F)c4F)c4nc(c(-c5c(F)c(F)c(F)c(F)c5F)c5ccc2[nH]5)C=C4)C=C3)cc1
REMARK SMILES IDX 22 1 21 2 1 3 2 4 3 6 4 7 5 8 6 9 16 10 7 11 15 12 17 13
REMARK SMILES IDX 14 14 20 15 18 16 19 17 8 18 9 19 13 20 10 21 12 22 11 23
REMARK SMILES IDX 23 24 24 25 25 26 26 27 27 29 28 30 29 31 90 32 30 33 89 34
REMARK SMILES IDX 31 35 32 36 33 37 83 38 34 39 88 40 82 41 84 42 35 43 87 44
REMARK SMILES IDX 81 45 80 46 36 48 68 49 48 50 67 51 49 52 52 53 66 54 85 55
REMARK SMILES IDX 50 56 51 57 65 59 86 60 53 61 37 62 38 63 46 64 39 65 40 66
REMARK SMILES IDX 44 67 47 68 41 69 42 70 45 71 43 72 69 73 70 74 78 75 71 76
REMARK SMILES IDX 72 77 76 78 79 79 73 80 74 81 77 82 75 83 54 84 55 85 63 86
REMARK SMILES IDX 56 87 57 88 61 89 64 90 58 91 59 92 62 93 60 94
REMARK H PARENT 21 5 25 28 84 47 52 58
REMARK Flexibility Score: inf
ROOT
ATOM      1  C   UNL A   1      31.505  30.609  26.449  1.00  0.00     0.117 C 
ENDROOT
BRANCH   1   2
ATOM      2  N   UNL A   1      32.024  30.174  25.173  1.00  0.00    -0.353 N 
ATOM      3  O   UNL A   1      33.813  29.009  26.019  1.00  0.00    -0.271 OA
ATOM      4  C   UNL A   1      33.100  29.319  25.068  1.00  0.00     0.258 C 
ATOM      5  H   UNL A   1      31.594  30.499  24.350  1.00  0.00     0.163 HD
BRANCH   4   6
ATOM      6  C   UNL A   1      33.392  28.834  23.638  1.00  0.00     0.331 C 
BRANCH   6   7
ATOM      7  O   UNL A   1      32.364  28.974  22.660  1.00  0.00    -0.467 OA
BRANCH   7   8
ATOM      8  C   UNL A   1      31.239  28.263  23.021  1.00  0.00     0.220 A 
ATOM      9  N   UNL A   1      31.443  27.137  23.718  1.00  0.00    -0.193 NA
ATOM     10  C   UNL A   1      29.996  28.799  22.752  1.00  0.00     0.036 A 
ATOM     11  C   UNL A   1      30.344  26.472  24.100  1.00  0.00     0.164 A 
ATOM     12  C   UNL A   1      28.927  28.058  23.230  1.00  0.00     0.051 A 
ATOM     13  C   UNL A   1      29.820  30.112  22.049  1.00  0.00     0.043 C 
ATOM     14  N   UNL A   1      29.085  26.880  23.870  1.00  0.00    -0.232 NA
ATOM     15  C   UNL A   1      27.504  28.511  23.027  1.00  0.00     0.057 C 
ATOM     16  C   UNL A   1      28.384  30.354  21.582  1.00  0.00     0.005 C 
ATOM     17  C   UNL A   1      27.395  29.996  22.684  1.00  0.00     0.007 C 
BRANCH  11  18
ATOM     18  C   UNL A   1      30.532  25.236  24.849  1.00  0.00     0.038 A 
ATOM     19  C   UNL A   1      31.118  24.098  24.276  1.00  0.00     0.015 A 
ATOM     20  C   UNL A   1      30.137  25.126  26.178  1.00  0.00     0.123 A 
ATOM     21  C   UNL A   1      31.284  22.937  25.030  1.00  0.00     0.021 A 
ATOM     22  N   UNL A   1      30.272  24.007  26.937  1.00  0.00    -0.264 NA
ATOM     23  C   UNL A   1      30.844  22.940  26.342  1.00  0.00     0.111 A 
ENDBRANCH  11  18
ENDBRANCH   7   8
ENDBRANCH   6   7
ENDBRANCH   4   6
ENDBRANCH   1   2
BRANCH   1  24
ATOM     24  C   UNL A   1      31.415  32.123  26.574  1.00  0.00     0.042 C 
BRANCH  24  25
ATOM     25  C   UNL A   1      32.616  32.765  27.261  1.00  0.00     0.118 C 
BRANCH  25  26
ATOM     26  N   UNL A   1      32.390  34.157  27.636  1.00  0.00    -0.352 N 
ATOM     27  C   UNL A   1      33.006  34.937  28.585  1.00  0.00     0.251 C 
ATOM     28  H   UNL A   1      31.682  34.611  27.126  1.00  0.00     0.163 HD
ATOM     29  O   UNL A   1      32.566  36.057  28.829  1.00  0.00    -0.269 OA
BRANCH  27  30
ATOM     30  C   UNL A   1      34.171  34.429  29.339  1.00  0.00     0.039 A 
ATOM     31  C   UNL A   1      33.956  33.836  30.585  1.00  0.00     0.014 A 
ATOM     32  C   UNL A   1      35.470  34.544  28.837  1.00  0.00     0.014 A 
ATOM     33  C   UNL A   1      35.029  33.283  31.287  1.00  0.00     0.010 A 
ATOM     34  C   UNL A   1      36.529  33.927  29.501  1.00  0.00     0.010 A 
ATOM     35  C   UNL A   1      36.318  33.285  30.730  1.00  0.00    -0.014 A 
BRANCH  35  36
ATOM     36  C   UNL A   1      37.445  32.600  31.412  1.00  0.00     0.031 A 
ATOM     37  C   UNL A   1      38.170  31.469  30.739  1.00  0.00     0.074 A 
ATOM     38  C   UNL A   1      37.787  32.971  32.662  1.00  0.00     0.049 A 
ATOM     39  N   UNL A   1      39.161  30.740  31.190  1.00  0.00    -0.248 NA
ATOM     40  C   UNL A   1      37.713  31.094  29.393  1.00  0.00     0.031 C 
ATOM     41  C   UNL A   1      37.129  34.022  33.438  1.00  0.00     0.029 A 
ATOM     42  N   UNL A   1      38.771  32.506  33.499  1.00  0.00    -0.354 N 
ATOM     43  C   UNL A   1      39.441  29.824  30.186  1.00  0.00     0.074 A 
ATOM     44  C   UNL A   1      38.482  30.047  29.126  1.00  0.00     0.031 C 
ATOM     45  C   UNL A   1      37.751  34.150  34.621  1.00  0.00     0.029 A 
ATOM     46  C   UNL A   1      38.827  33.166  34.703  1.00  0.00     0.049 A 
ATOM     47  H   UNL A   1      39.380  31.769  33.260  1.00  0.00     0.167 HD
ATOM     48  C   UNL A   1      40.430  28.900  30.139  1.00  0.00     0.037 A 
ATOM     49  C   UNL A   1      39.655  33.000  35.753  1.00  0.00     0.037 A 
ATOM     50  C   UNL A   1      41.399  28.694  31.183  1.00  0.00     0.049 A 
ATOM     51  C   UNL A   1      40.729  31.951  35.686  1.00  0.00     0.074 A 
ATOM     52  C   UNL A   1      42.469  27.817  31.204  1.00  0.00     0.029 A 
ATOM     53  N   UNL A   1      41.415  29.375  32.391  1.00  0.00    -0.354 N 
ATOM     54  N   UNL A   1      41.023  31.133  34.705  1.00  0.00    -0.248 NA
ATOM     55  C   UNL A   1      41.587  31.799  36.870  1.00  0.00     0.031 C 
ATOM     56  C   UNL A   1      43.108  27.937  32.441  1.00  0.00     0.029 A 
ATOM     57  C   UNL A   1      42.464  28.921  33.174  1.00  0.00     0.049 A 
ATOM     58  H   UNL A   1      40.776  30.077  32.654  1.00  0.00     0.167 HD
ATOM     59  C   UNL A   1      42.111  30.389  35.141  1.00  0.00     0.074 A 
ATOM     60  C   UNL A   1      42.434  30.858  36.472  1.00  0.00     0.031 C 
ATOM     61  C   UNL A   1      42.779  29.404  34.494  1.00  0.00     0.037 A 
BRANCH  48  62
ATOM     62  C   UNL A   1      40.535  28.051  28.907  1.00  0.00     0.064 A 
ATOM     63  C   UNL A   1      39.826  26.847  28.789  1.00  0.00     0.173 A 
ATOM     64  C   UNL A   1      41.296  28.477  27.808  1.00  0.00     0.173 A 
ATOM     65  F   UNL A   1      39.093  26.392  29.816  1.00  0.00    -0.203 F 
ATOM     66  C   UNL A   1      39.889  26.090  27.623  1.00  0.00     0.198 A 
ATOM     67  C   UNL A   1      41.335  27.731  26.633  1.00  0.00     0.198 A 
ATOM     68  F   UNL A   1      41.987  29.625  27.867  1.00  0.00    -0.203 F 
ATOM     69  F   UNL A   1      39.232  24.925  27.546  1.00  0.00    -0.200 F 
ATOM     70  C   UNL A   1      40.636  26.537  26.543  1.00  0.00     0.200 A 
ATOM     71  F   UNL A   1      42.046  28.170  25.585  1.00  0.00    -0.200 F 
ATOM     72  F   UNL A   1      40.683  25.814  25.415  1.00  0.00    -0.200 F 
ENDBRANCH  48  62
BRANCH  49  73
ATOM     73  C   UNL A   1      39.524  33.885  36.939  1.00  0.00     0.064 A 
ATOM     74  C   UNL A   1      40.098  35.164  36.943  1.00  0.00     0.173 A 
ATOM     75  C   UNL A   1      38.806  33.488  38.077  1.00  0.00     0.173 A 
ATOM     76  F   UNL A   1      40.811  35.579  35.886  1.00  0.00    -0.203 F 
ATOM     77  C   UNL A   1      39.967  36.008  38.043  1.00  0.00     0.198 A 
ATOM     78  C   UNL A   1      38.655  34.343  39.166  1.00  0.00     0.198 A 
ATOM     79  F   UNL A   1      38.235  32.275  38.121  1.00  0.00    -0.203 F 
ATOM     80  F   UNL A   1      40.552  37.214  38.032  1.00  0.00    -0.200 F 
ATOM     81  C   UNL A   1      39.239  35.600  39.150  1.00  0.00     0.200 A 
ATOM     82  F   UNL A   1      37.940  33.951  40.229  1.00  0.00    -0.200 F 
ATOM     83  F   UNL A   1      39.103  36.418  40.203  1.00  0.00    -0.200 F 
ENDBRANCH  49  73
BRANCH  61  84
ATOM     84  C   UNL A   1      43.941  28.769  35.197  1.00  0.00     0.064 A 
ATOM     85  C   UNL A   1      43.773  27.638  36.008  1.00  0.00     0.173 A 
ATOM     86  C   UNL A   1      45.246  29.236  34.978  1.00  0.00     0.173 A 
ATOM     87  F   UNL A   1      42.544  27.161  36.256  1.00  0.00    -0.203 F 
ATOM     88  C   UNL A   1      44.871  26.999  36.577  1.00  0.00     0.198 A 
ATOM     89  C   UNL A   1      46.343  28.580  35.528  1.00  0.00     0.198 A 
ATOM     90  F   UNL A   1      45.458  30.311  34.203  1.00  0.00    -0.203 F 
ATOM     91  F   UNL A   1      44.687  25.930  37.366  1.00  0.00    -0.200 F 
ATOM     92  C   UNL A   1      46.154  27.462  36.328  1.00  0.00     0.200 A 
ATOM     93  F   UNL A   1      47.582  29.020  35.274  1.00  0.00    -0.200 F 
ATOM     94  F   UNL A   1      47.211  26.830  36.857  1.00  0.00    -0.200 F 
ENDBRANCH  61  84
ENDBRANCH  35  36
ENDBRANCH  27  30
ENDBRANCH  25  26
ENDBRANCH  24  25
ENDBRANCH   1  24
TORSDOF 13
ENDMDL
MODEL 2
REMARK VINA RESULT:     -13.3      0.616      7.282
REMARK SMILES O=C(COc1nc(-c2cccnc2)nc2c1CCCC2)NCCCNC(=O)c1ccc(-c2c3nc(c(-c4c(F)c(F)c(F)c(F)c4F)c4ccc([nH]4)c(-c4c(F)c(F)c(F)c(F)c4F)c4nc(c(-c5c(F)c(F)c(F)c(F)c5F)c5ccc2[nH]5)C=C4)C=C3)cc1
REMARK SMILES IDX 22 1 21 2 1 3 2 4 3 6 4 7 5 8 6 9 16 10 7 11 15 12 17 13
REMARK SMILES IDX 14 14 20 15 18 16 19 17 8 18 9 19 13 20 10 21 12 22 11 23
REMARK SMILES IDX 23 24 24 25 25 26 26 27 27 29 28 30 29 31 90 32 30 33 89 34
REMARK SMILES IDX 31 35 32 36 33 37 83 38 34 39 88 40 82 41 84 42 35 43 87 44
REMARK SMILES IDX 81 45 80 46 36 48 68 49 48 50 67 51 49 52 52 53 66 54 85 55
REMARK SMILES IDX 50 56 51 57 65 59 86 60 53 61 37 62 38 63 46 64 39 65 40 66
REMARK SMILES IDX 44 67 47 68 41 69 42 70 45 71 43 72 69 73 70 74 78 75 71 76
REMARK SMILES IDX 72 77 76 78 79 79 73 80 74 81 77 82 75 83 54 84 55 85 63 86
REMARK SMILES IDX 56 87 57 88 61 89 64 90 58 91 59 92 62 93 60 94
REMARK H PARENT 21 5 25 28 84 47 52 58
REMARK Flexibility Score: inf
ROOT
ATOM      1  C   UNL A   1      31.539  30.526  26.278  1.00  0.00     0.117 C 
ENDROOT
BRANCH   1   2
ATOM      2  N   UNL A   1      32.168  30.193  25.020  1.00  0.00    -0.353 N 
ATOM      3  O   UNL A   1      33.407  28.434  25.823  1.00  0.00    -0.271 OA
ATOM      4  C   UNL A   1      32.993  29.099  24.876  1.00  0.00     0.258 C 
ATOM      5  H   UNL A   1      32.002  30.768  24.239  1.00  0.00     0.163 HD
BRANCH   4   6
ATOM      6  C   UNL A   1      33.424  28.810  23.429  1.00  0.00     0.331 C 
BRANCH   6   7
ATOM      7  O   UNL A   1      32.416  28.794  22.420  1.00  0.00    -0.467 OA
BRANCH   7   8
ATOM      8  C   UNL A   1      31.286  28.140  22.862  1.00  0.00     0.220 A 
ATOM      9  N   UNL A   1      31.483  27.007  23.551  1.00  0.00    -0.193 NA
ATOM     10  C   UNL A   1      30.054  28.735  22.676  1.00  0.00     0.036 A 
ATOM     11  C   UNL A   1      30.382  26.398  24.012  1.00  0.00     0.164 A 
ATOM     12  C   UNL A   1      28.986  28.048  23.231  1.00  0.00     0.051 A 
ATOM     13  C   UNL A   1      29.893  30.052  21.978  1.00  0.00     0.043 C 
ATOM     14  N   UNL A   1      29.132  26.866  23.866  1.00  0.00    -0.232 NA
ATOM     15  C   UNL A   1      27.576  28.569  23.123  1.00  0.00     0.057 C 
ATOM     16  C   UNL A   1      28.441  30.362  21.609  1.00  0.00     0.005 C 
ATOM     17  C   UNL A   1      27.515  30.055  22.779  1.00  0.00     0.007 C 
BRANCH  11  18
ATOM     18  C   UNL A   1      30.562  25.157  24.753  1.00  0.00     0.038 A 
ATOM     19  C   UNL A   1      30.983  23.971  24.134  1.00  0.00     0.015 A 
ATOM     20  C   UNL A   1      30.323  25.088  26.122  1.00  0.00     0.123 A 
ATOM     21  C   UNL A   1      31.147  22.806  24.882  1.00  0.00     0.021 A 
ATOM     22  N   UNL A   1      30.460  23.968  26.878  1.00  0.00    -0.264 NA
ATOM     23  C   UNL A   1      30.871  22.854  26.238  1.00  0.00     0.111 A 
ENDBRANCH  11  18
ENDBRANCH   7   8
ENDBRANCH   6   7
ENDBRANCH   4   6
ENDBRANCH   1   2
BRANCH   1  24
ATOM     24  C   UNL A   1      31.404  32.026  26.500  1.00  0.00     0.042 C 
BRANCH  24  25
ATOM     25  C   UNL A   1      32.663  32.691  27.048  1.00  0.00     0.118 C 
BRANCH  25  26
ATOM     26  N   UNL A   1      32.432  34.045  27.540  1.00  0.00    -0.352 N 
ATOM     27  C   UNL A   1      33.049  34.746  28.548  1.00  0.00     0.251 C 
ATOM     28  H   UNL A   1      31.719  34.537  27.074  1.00  0.00     0.163 HD
ATOM     29  O   UNL A   1      32.606  35.839  28.888  1.00  0.00    -0.269 OA
BRANCH  27  30
ATOM     30  C   UNL A   1      34.222  34.183  29.250  1.00  0.00     0.039 A 
ATOM     31  C   UNL A   1      34.008  33.395  30.384  1.00  0.00     0.014 A 
ATOM     32  C   UNL A   1      35.524  34.435  28.811  1.00  0.00     0.014 A 
ATOM     33  C   UNL A   1      35.092  32.791  31.025  1.00  0.00     0.010 A 
ATOM     34  C   UNL A   1      36.598  33.773  29.405  1.00  0.00     0.010 A 
ATOM     35  C   UNL A   1      36.392  32.940  30.514  1.00  0.00    -0.014 A 
BRANCH  35  36
ATOM     36  C   UNL A   1      37.536  32.210  31.117  1.00  0.00     0.031 A 
ATOM     37  C   UNL A   1      37.995  32.529  32.511  1.00  0.00     0.074 A 
ATOM     38  C   UNL A   1      38.191  31.286  30.387  1.00  0.00     0.049 A 
ATOM     39  N   UNL A   1      38.987  32.012  33.192  1.00  0.00    -0.248 NA
ATOM     40  C   UNL A   1      37.258  33.579  33.229  1.00  0.00     0.031 C 
ATOM     41  C   UNL A   1      37.870  30.920  29.007  1.00  0.00     0.029 A 
ATOM     42  N   UNL A   1      39.262  30.486  30.702  1.00  0.00    -0.354 N 
ATOM     43  C   UNL A   1      38.992  32.674  34.412  1.00  0.00     0.074 A 
ATOM     44  C   UNL A   1      37.944  33.669  34.361  1.00  0.00     0.031 C 
ATOM     45  C   UNL A   1      38.699  29.942  28.607  1.00  0.00     0.029 A 
ATOM     46  C   UNL A   1      39.632  29.637  29.688  1.00  0.00     0.049 A 
ATOM     47  H   UNL A   1      39.720  30.517  31.573  1.00  0.00     0.167 HD
ATOM     48  C   UNL A   1      39.781  32.449  35.490  1.00  0.00     0.037 A 
ATOM     49  C   UNL A   1      40.611  28.712  29.636  1.00  0.00     0.037 A 
ATOM     50  C   UNL A   1      40.807  31.443  35.549  1.00  0.00     0.049 A 
ATOM     51  C   UNL A   1      41.488  28.499  30.838  1.00  0.00     0.074 A 
ATOM     52  C   UNL A   1      41.623  31.107  36.615  1.00  0.00     0.029 A 
ATOM     53  N   UNL A   1      41.160  30.611  34.497  1.00  0.00    -0.354 N 
ATOM     54  N   UNL A   1      41.442  29.088  32.008  1.00  0.00    -0.248 NA
ATOM     55  C   UNL A   1      42.555  27.495  30.714  1.00  0.00     0.031 C 
ATOM     56  C   UNL A   1      42.496  30.099  36.197  1.00  0.00     0.029 A 
ATOM     57  C   UNL A   1      42.197  29.777  34.883  1.00  0.00     0.049 A 
ATOM     58  H   UNL A   1      40.737  30.612  33.608  1.00  0.00     0.167 HD
ATOM     59  C   UNL A   1      42.452  28.511  32.766  1.00  0.00     0.074 A 
ATOM     60  C   UNL A   1      43.090  27.517  31.929  1.00  0.00     0.031 C 
ATOM     61  C   UNL A   1      42.816  28.785  34.042  1.00  0.00     0.037 A 
BRANCH  48  62
ATOM     62  C   UNL A   1      39.551  33.290  36.710  1.00  0.00     0.064 A 
ATOM     63  C   UNL A   1      38.643  32.899  37.705  1.00  0.00     0.173 A 
ATOM     64  C   UNL A   1      40.292  34.463  36.921  1.00  0.00     0.173 A 
ATOM     65  F   UNL A   1      37.904  31.791  37.545  1.00  0.00    -0.203 F 
ATOM     66  C   UNL A   1      38.471  33.659  38.858  1.00  0.00     0.198 A 
ATOM     67  C   UNL A   1      40.138  35.206  38.088  1.00  0.00     0.198 A 
ATOM     68  F   UNL A   1      41.179  34.877  36.004  1.00  0.00    -0.203 F 
ATOM     69  F   UNL A   1      37.572  33.284  39.778  1.00  0.00    -0.200 F 
ATOM     70  C   UNL A   1      39.225  34.807  39.053  1.00  0.00     0.200 A 
ATOM     71  F   UNL A   1      40.876  36.308  38.282  1.00  0.00    -0.200 F 
ATOM     72  F   UNL A   1      39.069  35.530  40.170  1.00  0.00    -0.200 F 
ENDBRANCH  48  62
BRANCH  49  73
ATOM     73  C   UNL A   1      40.779  27.888  28.411  1.00  0.00     0.064 A 
ATOM     74  C   UNL A   1      41.598  28.326  27.361  1.00  0.00     0.173 A 
ATOM     75  C   UNL A   1      40.152  26.641  28.273  1.00  0.00     0.173 A 
ATOM     76  F   UNL A   1      42.202  29.521  27.439  1.00  0.00    -0.203 F 
ATOM     77  C   UNL A   1      41.776  27.553  26.217  1.00  0.00     0.198 A 
ATOM     78  C   UNL A   1      40.350  25.858  27.138  1.00  0.00     0.198 A 
ATOM     79  F   UNL A   1      39.360  26.175  29.251  1.00  0.00    -0.203 F 
ATOM     80  F   UNL A   1      42.540  28.010  25.215  1.00  0.00    -0.200 F 
ATOM     81  C   UNL A   1      41.158  26.316  26.110  1.00  0.00     0.200 A 
ATOM     82  F   UNL A   1      39.763  24.657  27.044  1.00  0.00    -0.200 F 
ATOM     83  F   UNL A   1      41.340  25.567  25.013  1.00  0.00    -0.200 F 
ENDBRANCH  49  73
BRANCH  61  84
ATOM     84  C   UNL A   1      43.944  27.994  34.631  1.00  0.00     0.064 A 
ATOM     85  C   UNL A   1      45.246  28.509  34.685  1.00  0.00     0.173 A 
ATOM     86  C   UNL A   1      43.702  26.751  35.236  1.00  0.00     0.173 A 
ATOM     87  F   UNL A   1      45.530  29.688  34.110  1.00  0.00    -0.203 F 
ATOM     88  C   UNL A   1      46.266  27.808  35.321  1.00  0.00     0.198 A 
ATOM     89  C   UNL A   1      44.717  26.064  35.893  1.00  0.00     0.198 A 
ATOM     90  F   UNL A   1      42.470  26.219  35.218  1.00  0.00    -0.203 F 
ATOM     91  F   UNL A   1      47.509  28.309  35.344  1.00  0.00    -0.200 F 
ATOM     92  C   UNL A   1      45.999  26.593  35.935  1.00  0.00     0.200 A 
ATOM     93  F   UNL A   1      44.454  24.898  36.499  1.00  0.00    -0.200 F 
ATOM     94  F   UNL A   1      46.978  25.931  36.568  1.00  0.00    -0.200 F 
ENDBRANCH  61  84
ENDBRANCH  35  36
ENDBRANCH  27  30
ENDBRANCH  25  26
ENDBRANCH  24  25
ENDBRANCH   1  24
TORSDOF 13
ENDMDL
MODEL 3
REMARK VINA RESULT:     -13.2      3.828      8.094
REMARK SMILES O=C(COc1nc(-c2cccnc2)nc2c1CCCC2)NCCCNC(=O)c1ccc(-c2c3nc(c(-c4c(F)c(F)c(F)c(F)c4F)c4ccc([nH]4)c(-c4c(F)c(F)c(F)c(F)c4F)c4nc(c(-c5c(F)c(F)c(F)c(F)c5F)c5ccc2[nH]5)C=C4)C=C3)cc1
REMARK SMILES IDX 22 1 21 2 1 3 2 4 3 6 4 7 5 8 6 9 16 10 7 11 15 12 17 13
REMARK SMILES IDX 14 14 20 15 18 16 19 17 8 18 9 19 13 20 10 21 12 22 11 23
REMARK SMILES IDX 23 24 24 25 25 26 26 27 27 29 28 30 29 31 90 32 30 33 89 34
REMARK SMILES IDX 31 35 32 36 33 37 83 38 34 39 88 40 82 41 84 42 35 43 87 44
REMARK SMILES IDX 81 45 80 46 36 48 68 49 48 50 67 51 49 52 52 53 66 54 85 55
REMARK SMILES IDX 50 56 51 57 65 59 86 60 53 61 37 62 38 63 46 64 39 65 40 66
REMARK SMILES IDX 44 67 47 68 41 69 42 70 45 71 43 72 69 73 70 74 78 75 71 76
REMARK SMILES IDX 72 77 76 78 79 79 73 80 74 81 77 82 75 83 54 84 55 85 63 86
REMARK SMILES IDX 56 87 57 88 61 89 64 90 58 91 59 92 62 93 60 94
REMARK H PARENT 21 5 25 28 84 47 52 58
REMARK Flexibility Score: inf
ROOT
ATOM      1  C   UNL A   1      34.990  23.155  23.616  1.00  0.00     0.117 C 
ENDROOT
BRANCH   1   2
ATOM      2  N   UNL A   1      34.262  24.377  23.874  1.00  0.00    -0.353 N 
ATOM      3  O   UNL A   1      33.638  24.755  21.696  1.00  0.00    -0.271 OA
ATOM      4  C   UNL A   1      33.557  25.036  22.890  1.00  0.00     0.258 C 
ATOM      5  H   UNL A   1      34.270  24.751  24.784  1.00  0.00     0.163 HD
BRANCH   4   6
ATOM      6  C   UNL A   1      32.708  26.214  23.394  1.00  0.00     0.331 C 
BRANCH   6   7
ATOM      7  O   UNL A   1      32.934  26.683  24.721  1.00  0.00    -0.467 OA
BRANCH   7   8
ATOM      8  C   UNL A   1      32.491  27.980  24.869  1.00  0.00     0.220 A 
ATOM      9  N   UNL A   1      31.413  28.328  24.153  1.00  0.00    -0.193 NA
ATOM     10  C   UNL A   1      33.096  28.789  25.810  1.00  0.00     0.036 A 
ATOM     11  C   UNL A   1      30.963  29.577  24.333  1.00  0.00     0.164 A 
ATOM     12  C   UNL A   1      32.527  30.044  25.951  1.00  0.00     0.051 A 
ATOM     13  C   UNL A   1      34.243  28.322  26.655  1.00  0.00     0.043 C 
ATOM     14  N   UNL A   1      31.488  30.462  25.196  1.00  0.00    -0.232 NA
ATOM     15  C   UNL A   1      33.064  31.044  26.942  1.00  0.00     0.057 C 
ATOM     16  C   UNL A   1      34.950  29.463  27.389  1.00  0.00     0.005 C 
ATOM     17  C   UNL A   1      33.933  30.403  28.023  1.00  0.00     0.007 C 
BRANCH  11  18
ATOM     18  C   UNL A   1      29.800  29.991  23.558  1.00  0.00     0.038 A 
ATOM     19  C   UNL A   1      29.039  31.117  23.899  1.00  0.00     0.015 A 
ATOM     20  C   UNL A   1      29.388  29.283  22.434  1.00  0.00     0.123 A 
ATOM     21  C   UNL A   1      27.936  31.482  23.128  1.00  0.00     0.021 A 
ATOM     22  N   UNL A   1      28.312  29.602  21.668  1.00  0.00    -0.264 NA
ATOM     23  C   UNL A   1      27.613  30.696  22.035  1.00  0.00     0.111 A 
ENDBRANCH  11  18
ENDBRANCH   7   8
ENDBRANCH   6   7
ENDBRANCH   4   6
ENDBRANCH   1   2
BRANCH   1  24
ATOM     24  C   UNL A   1      36.500  23.346  23.625  1.00  0.00     0.042 C 
BRANCH  24  25
ATOM     25  C   UNL A   1      37.088  23.610  25.008  1.00  0.00     0.118 C 
BRANCH  25  26
ATOM     26  N   UNL A   1      38.162  22.690  25.364  1.00  0.00    -0.352 N 
ATOM     27  C   UNL A   1      39.320  22.900  26.073  1.00  0.00     0.251 C 
ATOM     28  H   UNL A   1      38.037  21.768  25.045  1.00  0.00     0.163 HD
ATOM     29  O   UNL A   1      40.160  22.007  26.145  1.00  0.00    -0.269 OA
BRANCH  27  30
ATOM     30  C   UNL A   1      39.581  24.202  26.722  1.00  0.00     0.039 A 
ATOM     31  C   UNL A   1      39.150  24.392  28.038  1.00  0.00     0.014 A 
ATOM     32  C   UNL A   1      40.234  25.236  26.046  1.00  0.00     0.014 A 
ATOM     33  C   UNL A   1      39.447  25.585  28.701  1.00  0.00     0.010 A 
ATOM     34  C   UNL A   1      40.594  26.396  26.730  1.00  0.00     0.010 A 
ATOM     35  C   UNL A   1      40.210  26.579  28.067  1.00  0.00    -0.014 A 
BRANCH  35  36
ATOM     36  C   UNL A   1      40.631  27.800  28.799  1.00  0.00     0.031 A 
ATOM     37  C   UNL A   1      42.044  27.951  29.285  1.00  0.00     0.074 A 
ATOM     38  C   UNL A   1      39.721  28.760  29.064  1.00  0.00     0.049 A 
ATOM     39  N   UNL A   1      42.585  28.935  29.958  1.00  0.00    -0.248 NA
ATOM     40  C   UNL A   1      42.968  26.844  28.995  1.00  0.00     0.031 C 
ATOM     41  C   UNL A   1      38.309  28.709  28.685  1.00  0.00     0.029 A 
ATOM     42  N   UNL A   1      39.849  29.963  29.713  1.00  0.00    -0.354 N 
ATOM     43  C   UNL A   1      43.905  28.565  30.172  1.00  0.00     0.074 A 
ATOM     44  C   UNL A   1      44.073  27.243  29.609  1.00  0.00     0.031 C 
ATOM     45  C   UNL A   1      37.709  29.846  29.073  1.00  0.00     0.029 A 
ATOM     46  C   UNL A   1      38.683  30.689  29.759  1.00  0.00     0.049 A 
ATOM     47  H   UNL A   1      40.695  30.276  30.107  1.00  0.00     0.167 HD
ATOM     48  C   UNL A   1      44.897  29.278  30.758  1.00  0.00     0.037 A 
ATOM     49  C   UNL A   1      38.429  31.901  30.292  1.00  0.00     0.037 A 
ATOM     50  C   UNL A   1      44.736  30.602  31.296  1.00  0.00     0.049 A 
ATOM     51  C   UNL A   1      39.542  32.661  30.958  1.00  0.00     0.074 A 
ATOM     52  C   UNL A   1      45.694  31.423  31.863  1.00  0.00     0.029 A 
ATOM     53  N   UNL A   1      43.537  31.299  31.335  1.00  0.00    -0.354 N 
ATOM     54  N   UNL A   1      40.802  32.327  31.098  1.00  0.00    -0.248 NA
ATOM     55  C   UNL A   1      39.201  33.967  31.542  1.00  0.00     0.031 C 
ATOM     56  C   UNL A   1      45.069  32.601  32.282  1.00  0.00     0.029 A 
ATOM     57  C   UNL A   1      43.729  32.532  31.936  1.00  0.00     0.049 A 
ATOM     58  H   UNL A   1      42.678  30.967  30.987  1.00  0.00     0.167 HD
ATOM     59  C   UNL A   1      41.407  33.385  31.761  1.00  0.00     0.074 A 
ATOM     60  C   UNL A   1      40.380  34.381  31.987  1.00  0.00     0.031 C 
ATOM     61  C   UNL A   1      42.699  33.517  32.147  1.00  0.00     0.037 A 
BRANCH  48  62
ATOM     62  C   UNL A   1      46.258  28.652  30.828  1.00  0.00     0.064 A 
ATOM     63  C   UNL A   1      47.207  28.856  29.815  1.00  0.00     0.173 A 
ATOM     64  C   UNL A   1      46.643  27.898  31.947  1.00  0.00     0.173 A 
ATOM     65  F   UNL A   1      46.883  29.560  28.720  1.00  0.00    -0.203 F 
ATOM     66  C   UNL A   1      48.485  28.313  29.910  1.00  0.00     0.198 A 
ATOM     67  C   UNL A   1      47.931  27.380  32.052  1.00  0.00     0.198 A 
ATOM     68  F   UNL A   1      45.776  27.681  32.947  1.00  0.00    -0.203 F 
ATOM     69  F   UNL A   1      49.362  28.491  28.914  1.00  0.00    -0.200 F 
ATOM     70  C   UNL A   1      48.849  27.584  31.032  1.00  0.00     0.200 A 
ATOM     71  F   UNL A   1      48.287  26.687  33.142  1.00  0.00    -0.200 F 
ATOM     72  F   UNL A   1      50.084  27.074  31.129  1.00  0.00    -0.200 F 
ENDBRANCH  48  62
BRANCH  49  73
ATOM     73  C   UNL A   1      37.069  32.486  30.172  1.00  0.00     0.064 A 
ATOM     74  C   UNL A   1      36.117  32.295  31.184  1.00  0.00     0.173 A 
ATOM     75  C   UNL A   1      36.699  33.264  29.065  1.00  0.00     0.173 A 
ATOM     76  F   UNL A   1      36.419  31.541  32.251  1.00  0.00    -0.203 F 
ATOM     77  C   UNL A   1      34.845  32.853  31.089  1.00  0.00     0.198 A 
ATOM     78  C   UNL A   1      35.434  33.842  28.984  1.00  0.00     0.198 A 
ATOM     79  F   UNL A   1      37.574  33.479  28.072  1.00  0.00    -0.203 F 
ATOM     80  F   UNL A   1      33.945  32.630  32.057  1.00  0.00    -0.200 F 
ATOM     81  C   UNL A   1      34.507  33.633  29.994  1.00  0.00     0.200 A 
ATOM     82  F   UNL A   1      35.115  34.606  27.931  1.00  0.00    -0.200 F 
ATOM     83  F   UNL A   1      33.287  34.180  29.909  1.00  0.00    -0.200 F 
ENDBRANCH  49  73
BRANCH  61  84
ATOM     84  C   UNL A   1      43.094  34.785  32.841  1.00  0.00     0.064 A 
ATOM     85  C   UNL A   1      43.453  35.931  32.118  1.00  0.00     0.173 A 
ATOM     86  C   UNL A   1      43.019  34.884  34.239  1.00  0.00     0.173 A 
ATOM     87  F   UNL A   1      43.550  35.883  30.781  1.00  0.00    -0.203 F 
ATOM     88  C   UNL A   1      43.724  37.131  32.771  1.00  0.00     0.198 A 
ATOM     89  C   UNL A   1      43.266  36.090  34.886  1.00  0.00     0.198 A 
ATOM     90  F   UNL A   1      42.673  33.816  34.974  1.00  0.00    -0.203 F 
ATOM     91  F   UNL A   1      44.084  38.210  32.063  1.00  0.00    -0.200 F 
ATOM     92  C   UNL A   1      43.619  37.213  34.151  1.00  0.00     0.200 A 
ATOM     93  F   UNL A   1      43.149  36.171  36.218  1.00  0.00    -0.200 F 
ATOM     94  F   UNL A   1      43.857  38.375  34.775  1.00  0.00    -0.200 F 
ENDBRANCH  61  84
ENDBRANCH  35  36
ENDBRANCH  27  30
ENDBRANCH  25  26
ENDBRANCH  24  25
ENDBRANCH   1  24
TORSDOF 13
ENDMDL
