MODEL 1
REMARK VINA RESULT:     -12.9      0.000      0.000
REMARK SMILES O=C(NCCCNC(=O)c1ccc(-c2c3nc(c(-c4c(F)c(F)c(F)c(F)c4F)c4ccc([nH]4)c(-c4c(F)c(F)c(F)c(F)c4F)c4nc(c(-c5c(F)c(F)c(F)c(F)c5F)c5ccc2[nH]5)C=C4)C=C3)cc1)C1=Cc2cc(C(F)(F)F)ccc2O[C@@H]1C(F)(F)F
REMARK SMILES IDX 5 1 4 2 3 3 1 4 2 5 73 7 74 8 86 9 75 10 85 11 76 12 84 13
REMARK SMILES IDX 77 14 83 15 82 16 87 17 88 18 89 19 90 20 78 21 79 22 80 23
REMARK SMILES IDX 81 24 6 25 7 26 8 27 9 29 10 30 11 31 72 32 12 33 71 34
REMARK SMILES IDX 13 35 14 36 15 37 65 38 16 39 70 40 64 41 66 42 17 43 69 44
REMARK SMILES IDX 63 45 62 46 18 48 50 49 30 50 49 51 31 52 34 53 48 54 67 55
REMARK SMILES IDX 32 56 33 57 47 59 68 60 35 61 19 62 20 63 28 64 21 65 22 66
REMARK SMILES IDX 26 67 29 68 23 69 24 70 27 71 25 72 51 73 52 74 60 75 53 76
REMARK SMILES IDX 54 77 58 78 61 79 55 80 56 81 59 82 57 83 36 84 37 85 45 86
REMARK SMILES IDX 38 87 39 88 43 89 46 90 40 91 41 92 44 93 42 94
REMARK H PARENT 3 6 7 28 66 47 34 58
REMARK Flexibility Score: inf
ROOT
ATOM      1  C   UNL A   1      31.772  28.264  26.912  1.00  0.00     0.042 C 
ENDROOT
BRANCH   1   2
ATOM      2  C   UNL A   1      31.413  27.048  26.065  1.00  0.00     0.118 C 
BRANCH   2   3
ATOM      3  N   UNL A   1      31.210  25.835  26.859  1.00  0.00    -0.352 N 
ATOM      4  O   UNL A   1      31.671  23.752  27.626  1.00  0.00    -0.270 OA
ATOM      5  C   UNL A   1      31.805  24.601  26.757  1.00  0.00     0.251 C 
ATOM      6  H   UNL A   1      30.543  25.916  27.577  1.00  0.00     0.163 HD
BRANCH   5   7
ATOM      7  C   UNL A   1      32.652  24.368  25.576  1.00  0.00     0.067 C 
ATOM      8  C   UNL A   1      33.848  24.970  25.577  1.00  0.00     0.025 C 
ATOM      9  C   UNL A   1      32.321  23.194  24.706  1.00  0.00     0.314 C 
ATOM     10  C   UNL A   1      34.945  24.071  25.212  1.00  0.00     0.018 A 
ATOM     11  O   UNL A   1      33.416  22.250  24.608  1.00  0.00    -0.475 OA
ATOM     12  C   UNL A   1      36.229  24.435  25.633  1.00  0.00     0.025 A 
ATOM     13  C   UNL A   1      34.673  22.731  24.885  1.00  0.00     0.128 A 
ATOM     14  C   UNL A   1      37.200  23.450  25.866  1.00  0.00     0.056 A 
ATOM     15  C   UNL A   1      35.660  21.759  25.040  1.00  0.00     0.048 A 
ATOM     16  C   UNL A   1      36.906  22.112  25.560  1.00  0.00     0.017 A 
BRANCH   9  17
ATOM     17  C   UNL A   1      31.859  23.639  23.310  1.00  0.00     0.429 C 
ATOM     18  F   UNL A   1      30.552  23.338  23.114  1.00  0.00    -0.167 F 
ATOM     19  F   UNL A   1      31.983  24.975  23.138  1.00  0.00    -0.167 F 
ATOM     20  F   UNL A   1      32.562  23.037  22.322  1.00  0.00    -0.167 F 
ENDBRANCH   9  17
BRANCH  14  21
ATOM     21  C   UNL A   1      38.506  23.837  26.517  1.00  0.00     0.416 C 
ATOM     22  F   UNL A   1      38.332  24.449  27.716  1.00  0.00    -0.166 F 
ATOM     23  F   UNL A   1      39.302  22.755  26.756  1.00  0.00    -0.166 F 
ATOM     24  F   UNL A   1      39.258  24.681  25.759  1.00  0.00    -0.166 F 
ENDBRANCH  14  21
ENDBRANCH   5   7
ENDBRANCH   2   3
ENDBRANCH   1   2
BRANCH   1  25
ATOM     25  C   UNL A   1      32.732  29.207  26.197  1.00  0.00     0.118 C 
BRANCH  25  26
ATOM     26  N   UNL A   1      32.542  30.617  26.517  1.00  0.00    -0.352 N 
ATOM     27  C   UNL A   1      33.338  31.472  27.246  1.00  0.00     0.251 C 
ATOM     28  H   UNL A   1      31.718  31.019  26.158  1.00  0.00     0.163 HD
ATOM     29  O   UNL A   1      32.963  32.627  27.444  1.00  0.00    -0.269 OA
BRANCH  27  30
ATOM     30  C   UNL A   1      34.619  31.005  27.829  1.00  0.00     0.039 A 
ATOM     31  C   UNL A   1      35.671  31.915  27.981  1.00  0.00     0.014 A 
ATOM     32  C   UNL A   1      34.788  29.687  28.248  1.00  0.00     0.014 A 
ATOM     33  C   UNL A   1      36.851  31.518  28.617  1.00  0.00     0.010 A 
ATOM     34  C   UNL A   1      35.901  29.333  29.000  1.00  0.00     0.010 A 
ATOM     35  C   UNL A   1      36.960  30.234  29.173  1.00  0.00    -0.014 A 
BRANCH  35  36
ATOM     36  C   UNL A   1      38.181  29.788  29.893  1.00  0.00     0.031 A 
ATOM     37  C   UNL A   1      38.445  30.279  31.295  1.00  0.00     0.074 A 
ATOM     38  C   UNL A   1      39.091  29.017  29.266  1.00  0.00     0.049 A 
ATOM     39  N   UNL A   1      39.491  30.090  32.060  1.00  0.00    -0.248 NA
ATOM     40  C   UNL A   1      37.419  31.146  31.897  1.00  0.00     0.031 C 
ATOM     41  C   UNL A   1      38.999  28.549  27.882  1.00  0.00     0.029 A 
ATOM     42  N   UNL A   1      40.281  28.497  29.710  1.00  0.00    -0.354 N 
ATOM     43  C   UNL A   1      39.264  30.846  33.202  1.00  0.00     0.074 A 
ATOM     44  C   UNL A   1      38.022  31.556  33.001  1.00  0.00     0.031 C 
ATOM     45  C   UNL A   1      40.062  27.779  27.604  1.00  0.00     0.029 A 
ATOM     46  C   UNL A   1      40.928  27.724  28.777  1.00  0.00     0.049 A 
ATOM     47  H   UNL A   1      40.638  28.663  30.613  1.00  0.00     0.167 HD
ATOM     48  C   UNL A   1      40.001  30.913  34.337  1.00  0.00     0.037 A 
ATOM     49  C   UNL A   1      42.085  27.041  28.865  1.00  0.00     0.037 A 
ATOM     50  C   UNL A   1      41.197  30.147  34.558  1.00  0.00     0.049 A 
ATOM     51  C   UNL A   1      42.845  27.064  30.163  1.00  0.00     0.074 A 
ATOM     52  C   UNL A   1      41.974  30.065  35.700  1.00  0.00     0.029 A 
ATOM     53  N   UNL A   1      41.782  29.316  33.614  1.00  0.00    -0.354 N 
ATOM     54  N   UNL A   1      42.579  27.717  31.268  1.00  0.00    -0.248 NA
ATOM     55  C   UNL A   1      44.058  26.238  30.233  1.00  0.00     0.031 C 
ATOM     56  C   UNL A   1      43.050  29.211  35.434  1.00  0.00     0.029 A 
ATOM     57  C   UNL A   1      42.915  28.722  34.144  1.00  0.00     0.049 A 
ATOM     58  H   UNL A   1      41.442  29.169  32.702  1.00  0.00     0.167 HD
ATOM     59  C   UNL A   1      43.572  27.362  32.172  1.00  0.00     0.074 A 
ATOM     60  C   UNL A   1      44.434  26.420  31.491  1.00  0.00     0.031 C 
ATOM     61  C   UNL A   1      43.754  27.780  33.449  1.00  0.00     0.037 A 
BRANCH  48  62
ATOM     62  C   UNL A   1      39.517  31.829  35.426  1.00  0.00     0.064 A 
ATOM     63  C   UNL A   1      38.613  31.396  36.408  1.00  0.00     0.173 A 
ATOM     64  C   UNL A   1      39.968  33.156  35.494  1.00  0.00     0.173 A 
ATOM     65  F   UNL A   1      38.138  30.141  36.383  1.00  0.00    -0.203 F 
ATOM     66  C   UNL A   1      38.143  32.267  37.389  1.00  0.00     0.198 A 
ATOM     67  C   UNL A   1      39.524  34.015  36.498  1.00  0.00     0.198 A 
ATOM     68  F   UNL A   1      40.837  33.623  34.585  1.00  0.00    -0.203 F 
ATOM     69  F   UNL A   1      37.226  31.848  38.271  1.00  0.00    -0.200 F 
ATOM     70  C   UNL A   1      38.605  33.574  37.436  1.00  0.00     0.200 A 
ATOM     71  F   UNL A   1      39.980  35.274  36.549  1.00  0.00    -0.200 F 
ATOM     72  F   UNL A   1      38.152  34.411  38.379  1.00  0.00    -0.200 F 
ENDBRANCH  48  62
BRANCH  49  73
ATOM     73  C   UNL A   1      42.559  26.231  27.712  1.00  0.00     0.064 A 
ATOM     74  C   UNL A   1      42.083  24.928  27.508  1.00  0.00     0.173 A 
ATOM     75  C   UNL A   1      43.483  26.739  26.789  1.00  0.00     0.173 A 
ATOM     76  F   UNL A   1      41.212  24.390  28.373  1.00  0.00    -0.203 F 
ATOM     77  C   UNL A   1      42.532  24.156  26.438  1.00  0.00     0.198 A 
ATOM     78  C   UNL A   1      43.909  25.977  25.703  1.00  0.00     0.198 A 
ATOM     79  F   UNL A   1      43.962  27.984  26.934  1.00  0.00    -0.203 F 
ATOM     80  F   UNL A   1      42.094  22.898  26.292  1.00  0.00    -0.200 F 
ATOM     81  C   UNL A   1      43.440  24.683  25.533  1.00  0.00     0.200 A 
ATOM     82  F   UNL A   1      44.776  26.495  24.822  1.00  0.00    -0.200 F 
ATOM     83  F   UNL A   1      43.867  23.943  24.501  1.00  0.00    -0.200 F 
ENDBRANCH  49  73
BRANCH  61  84
ATOM     84  C   UNL A   1      44.909  27.190  34.202  1.00  0.00     0.064 A 
ATOM     85  C   UNL A   1      46.163  27.816  34.236  1.00  0.00     0.173 A 
ATOM     86  C   UNL A   1      44.749  25.996  34.921  1.00  0.00     0.173 A 
ATOM     87  F   UNL A   1      46.369  28.953  33.552  1.00  0.00    -0.203 F 
ATOM     88  C   UNL A   1      47.225  27.252  34.936  1.00  0.00     0.198 A 
ATOM     89  C   UNL A   1      45.805  25.451  35.647  1.00  0.00     0.198 A 
ATOM     90  F   UNL A   1      43.567  25.362  34.928  1.00  0.00    -0.203 F 
ATOM     91  F   UNL A   1      48.430  27.839  34.910  1.00  0.00    -0.200 F 
ATOM     92  C   UNL A   1      47.044  26.073  35.645  1.00  0.00     0.200 A 
ATOM     93  F   UNL A   1      45.624  24.321  36.343  1.00  0.00    -0.200 F 
ATOM     94  F   UNL A   1      48.067  25.534  36.322  1.00  0.00    -0.200 F 
ENDBRANCH  61  84
ENDBRANCH  35  36
ENDBRANCH  27  30
ENDBRANCH  25  26
ENDBRANCH   1  25
TORSDOF 12
ENDMDL
MODEL 2
REMARK VINA RESULT:     -12.9      2.001      3.777
REMARK SMILES O=C(NCCCNC(=O)c1ccc(-c2c3nc(c(-c4c(F)c(F)c(F)c(F)c4F)c4ccc([nH]4)c(-c4c(F)c(F)c(F)c(F)c4F)c4nc(c(-c5c(F)c(F)c(F)c(F)c5F)c5ccc2[nH]5)C=C4)C=C3)cc1)C1=Cc2cc(C(F)(F)F)ccc2O[C@@H]1C(F)(F)F
REMARK SMILES IDX 5 1 4 2 3 3 1 4 2 5 73 7 74 8 86 9 75 10 85 11 76 12 84 13
REMARK SMILES IDX 77 14 83 15 82 16 87 17 88 18 89 19 90 20 78 21 79 22 80 23
REMARK SMILES IDX 81 24 6 25 7 26 8 27 9 29 10 30 11 31 72 32 12 33 71 34
REMARK SMILES IDX 13 35 14 36 15 37 65 38 16 39 70 40 64 41 66 42 17 43 69 44
REMARK SMILES IDX 63 45 62 46 18 48 50 49 30 50 49 51 31 52 34 53 48 54 67 55
REMARK SMILES IDX 32 56 33 57 47 59 68 60 35 61 19 62 20 63 28 64 21 65 22 66
REMARK SMILES IDX 26 67 29 68 23 69 24 70 27 71 25 72 51 73 52 74 60 75 53 76
REMARK SMILES IDX 54 77 58 78 61 79 55 80 56 81 59 82 57 83 36 84 37 85 45 86
REMARK SMILES IDX 38 87 39 88 43 89 46 90 40 91 41 92 44 93 42 94
REMARK H PARENT 3 6 7 28 66 47 34 58
REMARK Flexibility Score: inf
ROOT
ATOM      1  C   UNL A   1      31.776  28.830  26.390  1.00  0.00     0.042 C 
ENDROOT
BRANCH   1   2
ATOM      2  C   UNL A   1      32.320  27.406  26.372  1.00  0.00     0.118 C 
BRANCH   2   3
ATOM      3  N   UNL A   1      31.376  26.425  26.911  1.00  0.00    -0.352 N 
ATOM      4  O   UNL A   1      29.982  24.636  26.862  1.00  0.00    -0.270 OA
ATOM      5  C   UNL A   1      30.565  25.527  26.260  1.00  0.00     0.251 C 
ATOM      6  H   UNL A   1      31.312  26.406  27.893  1.00  0.00     0.163 HD
BRANCH   5   7
ATOM      7  C   UNL A   1      30.470  25.657  24.797  1.00  0.00     0.067 C 
ATOM      8  C   UNL A   1      29.396  26.305  24.329  1.00  0.00     0.025 C 
ATOM      9  C   UNL A   1      31.721  25.453  24.001  1.00  0.00     0.314 C 
ATOM     10  C   UNL A   1      29.727  27.319  23.325  1.00  0.00     0.018 A 
ATOM     11  O   UNL A   1      32.076  26.621  23.218  1.00  0.00    -0.475 OA
ATOM     12  C   UNL A   1      28.798  28.347  23.132  1.00  0.00     0.025 A 
ATOM     13  C   UNL A   1      31.065  27.506  22.935  1.00  0.00     0.128 A 
ATOM     14  C   UNL A   1      29.223  29.607  22.686  1.00  0.00     0.056 A 
ATOM     15  C   UNL A   1      31.476  28.733  22.417  1.00  0.00     0.048 A 
ATOM     16  C   UNL A   1      30.567  29.788  22.325  1.00  0.00     0.017 A 
BRANCH   9  17
ATOM     17  C   UNL A   1      31.625  24.208  23.106  1.00  0.00     0.429 C 
ATOM     18  F   UNL A   1      32.457  23.232  23.546  1.00  0.00    -0.167 F 
ATOM     19  F   UNL A   1      30.377  23.685  23.101  1.00  0.00    -0.167 F 
ATOM     20  F   UNL A   1      31.959  24.472  21.821  1.00  0.00    -0.167 F 
ENDBRANCH   9  17
BRANCH  14  21
ATOM     21  C   UNL A   1      28.249  30.759  22.683  1.00  0.00     0.416 C 
ATOM     22  F   UNL A   1      27.262  30.613  23.605  1.00  0.00    -0.166 F 
ATOM     23  F   UNL A   1      28.856  31.948  22.966  1.00  0.00    -0.166 F 
ATOM     24  F   UNL A   1      27.631  30.942  21.484  1.00  0.00    -0.166 F 
ENDBRANCH  14  21
ENDBRANCH   5   7
ENDBRANCH   2   3
ENDBRANCH   1   2
BRANCH   1  25
ATOM     25  C   UNL A   1      32.805  29.850  25.919  1.00  0.00     0.118 C 
BRANCH  25  26
ATOM     26  N   UNL A   1      32.569  31.208  26.396  1.00  0.00    -0.352 N 
ATOM     27  C   UNL A   1      33.312  31.983  27.259  1.00  0.00     0.251 C 
ATOM     28  H   UNL A   1      31.754  31.637  26.047  1.00  0.00     0.163 HD
ATOM     29  O   UNL A   1      32.902  33.099  27.575  1.00  0.00    -0.269 OA
BRANCH  27  30
ATOM     30  C   UNL A   1      34.574  31.470  27.844  1.00  0.00     0.039 A 
ATOM     31  C   UNL A   1      35.645  32.350  28.033  1.00  0.00     0.014 A 
ATOM     32  C   UNL A   1      34.708  30.137  28.228  1.00  0.00     0.014 A 
ATOM     33  C   UNL A   1      36.808  31.909  28.672  1.00  0.00     0.010 A 
ATOM     34  C   UNL A   1      35.803  29.736  28.983  1.00  0.00     0.010 A 
ATOM     35  C   UNL A   1      36.880  30.607  29.193  1.00  0.00    -0.014 A 
BRANCH  35  36
ATOM     36  C   UNL A   1      38.082  30.114  29.914  1.00  0.00     0.031 A 
ATOM     37  C   UNL A   1      38.336  30.553  31.335  1.00  0.00     0.074 A 
ATOM     38  C   UNL A   1      38.985  29.345  29.275  1.00  0.00     0.049 A 
ATOM     39  N   UNL A   1      39.367  30.318  32.107  1.00  0.00    -0.248 NA
ATOM     40  C   UNL A   1      37.319  31.422  31.951  1.00  0.00     0.031 C 
ATOM     41  C   UNL A   1      38.902  28.924  27.875  1.00  0.00     0.029 A 
ATOM     42  N   UNL A   1      40.158  28.786  29.718  1.00  0.00    -0.354 N 
ATOM     43  C   UNL A   1      39.139  31.042  33.271  1.00  0.00     0.074 A 
ATOM     44  C   UNL A   1      37.915  31.784  33.076  1.00  0.00     0.031 C 
ATOM     45  C   UNL A   1      39.954  28.140  27.586  1.00  0.00     0.029 A 
ATOM     46  C   UNL A   1      40.802  28.031  28.769  1.00  0.00     0.049 A 
ATOM     47  H   UNL A   1      40.505  28.915  30.631  1.00  0.00     0.167 HD
ATOM     48  C   UNL A   1      39.861  31.057  34.417  1.00  0.00     0.037 A 
ATOM     49  C   UNL A   1      41.944  27.321  28.850  1.00  0.00     0.037 A 
ATOM     50  C   UNL A   1      41.039  30.260  34.629  1.00  0.00     0.049 A 
ATOM     51  C   UNL A   1      42.686  27.286  30.158  1.00  0.00     0.074 A 
ATOM     52  C   UNL A   1      41.798  30.125  35.778  1.00  0.00     0.029 A 
ATOM     53  N   UNL A   1      41.620  29.448  33.666  1.00  0.00    -0.354 N 
ATOM     54  N   UNL A   1      42.417  27.909  31.280  1.00  0.00    -0.248 NA
ATOM     55  C   UNL A   1      43.881  26.433  30.218  1.00  0.00     0.031 C 
ATOM     56  C   UNL A   1      42.859  29.258  35.499  1.00  0.00     0.029 A 
ATOM     57  C   UNL A   1      42.733  28.814  34.191  1.00  0.00     0.049 A 
ATOM     58  H   UNL A   1      41.290  29.337  32.745  1.00  0.00     0.167 HD
ATOM     59  C   UNL A   1      43.390  27.505  32.185  1.00  0.00     0.074 A 
ATOM     60  C   UNL A   1      44.243  26.568  31.485  1.00  0.00     0.031 C 
ATOM     61  C   UNL A   1      43.563  27.877  33.478  1.00  0.00     0.037 A 
BRANCH  48  62
ATOM     62  C   UNL A   1      39.381  31.947  35.528  1.00  0.00     0.064 A 
ATOM     63  C   UNL A   1      38.507  31.481  36.523  1.00  0.00     0.173 A 
ATOM     64  C   UNL A   1      39.803  33.282  35.605  1.00  0.00     0.173 A 
ATOM     65  F   UNL A   1      38.059  30.216  36.491  1.00  0.00    -0.203 F 
ATOM     66  C   UNL A   1      38.039  32.328  37.525  1.00  0.00     0.198 A 
ATOM     67  C   UNL A   1      39.362  34.118  36.630  1.00  0.00     0.198 A 
ATOM     68  F   UNL A   1      40.643  33.781  34.685  1.00  0.00    -0.203 F 
ATOM     69  F   UNL A   1      37.151  31.876  38.421  1.00  0.00    -0.200 F 
ATOM     70  C   UNL A   1      38.473  33.644  37.581  1.00  0.00     0.200 A 
ATOM     71  F   UNL A   1      39.792  35.386  36.689  1.00  0.00    -0.200 F 
ATOM     72  F   UNL A   1      38.023  34.458  38.545  1.00  0.00    -0.200 F 
ENDBRANCH  48  62
BRANCH  49  73
ATOM     73  C   UNL A   1      42.417  26.539  27.678  1.00  0.00     0.064 A 
ATOM     74  C   UNL A   1      41.910  25.258  27.419  1.00  0.00     0.173 A 
ATOM     75  C   UNL A   1      43.372  27.054  26.790  1.00  0.00     0.173 A 
ATOM     76  F   UNL A   1      41.008  24.714  28.249  1.00  0.00    -0.203 F 
ATOM     77  C   UNL A   1      42.358  24.511  26.330  1.00  0.00     0.198 A 
ATOM     78  C   UNL A   1      43.798  26.318  25.685  1.00  0.00     0.198 A 
ATOM     79  F   UNL A   1      43.881  28.279  26.987  1.00  0.00    -0.203 F 
ATOM     80  F   UNL A   1      41.889  23.272  26.133  1.00  0.00    -0.200 F 
ATOM     81  C   UNL A   1      43.297  25.045  25.461  1.00  0.00     0.200 A 
ATOM     82  F   UNL A   1      44.695  26.842  24.840  1.00  0.00    -0.200 F 
ATOM     83  F   UNL A   1      43.723  24.329  24.411  1.00  0.00    -0.200 F 
ENDBRANCH  49  73
BRANCH  61  84
ATOM     84  C   UNL A   1      44.695  27.239  34.226  1.00  0.00     0.064 A 
ATOM     85  C   UNL A   1      45.965  27.831  34.284  1.00  0.00     0.173 A 
ATOM     86  C   UNL A   1      44.497  26.035  34.918  1.00  0.00     0.173 A 
ATOM     87  F   UNL A   1      46.208  28.976  33.627  1.00  0.00    -0.203 F 
ATOM     88  C   UNL A   1      47.005  27.222  34.980  1.00  0.00     0.198 A 
ATOM     89  C   UNL A   1      45.531  25.446  35.640  1.00  0.00     0.198 A 
ATOM     90  F   UNL A   1      43.298  25.434  34.902  1.00  0.00    -0.203 F 
ATOM     91  F   UNL A   1      48.226  27.777  34.976  1.00  0.00    -0.200 F 
ATOM     92  C   UNL A   1      46.786  26.034  35.662  1.00  0.00     0.200 A 
ATOM     93  F   UNL A   1      45.313  24.306  36.309  1.00  0.00    -0.200 F 
ATOM     94  F   UNL A   1      47.788  25.452  36.334  1.00  0.00    -0.200 F 
ENDBRANCH  61  84
ENDBRANCH  35  36
ENDBRANCH  27  30
ENDBRANCH  25  26
ENDBRANCH   1  25
TORSDOF 12
ENDMDL
MODEL 3
REMARK VINA RESULT:     -12.8      1.966      4.221
REMARK SMILES O=C(NCCCNC(=O)c1ccc(-c2c3nc(c(-c4c(F)c(F)c(F)c(F)c4F)c4ccc([nH]4)c(-c4c(F)c(F)c(F)c(F)c4F)c4nc(c(-c5c(F)c(F)c(F)c(F)c5F)c5ccc2[nH]5)C=C4)C=C3)cc1)C1=Cc2cc(C(F)(F)F)ccc2O[C@@H]1C(F)(F)F
REMARK SMILES IDX 5 1 4 2 3 3 1 4 2 5 73 7 74 8 86 9 75 10 85 11 76 12 84 13
REMARK SMILES IDX 77 14 83 15 82 16 87 17 88 18 89 19 90 20 78 21 79 22 80 23
REMARK SMILES IDX 81 24 6 25 7 26 8 27 9 29 10 30 11 31 72 32 12 33 71 34
REMARK SMILES IDX 13 35 14 36 15 37 65 38 16 39 70 40 64 41 66 42 17 43 69 44
REMARK SMILES IDX 63 45 62 46 18 48 50 49 30 50 49 51 31 52 34 53 48 54 67 55
REMARK SMILES IDX 32 56 33 57 47 59 68 60 35 61 19 62 20 63 28 64 21 65 22 66
REMARK SMILES IDX 26 67 29 68 23 69 24 70 27 71 25 72 51 73 52 74 60 75 53 76
REMARK SMILES IDX 54 77 58 78 61 79 55 80 56 81 59 82 57 83 36 84 37 85 45 86
REMARK SMILES IDX 38 87 39 88 43 89 46 90 40 91 41 92 44 93 42 94
REMARK H PARENT 3 6 7 28 66 47 34 58
REMARK Flexibility Score: inf
ROOT
ATOM      1  C   UNL A   1      31.764  28.644  26.469  1.00  0.00     0.042 C 
ENDROOT
BRANCH   1   2
ATOM      2  C   UNL A   1      32.298  27.217  26.452  1.00  0.00     0.118 C 
BRANCH   2   3
ATOM      3  N   UNL A   1      31.341  26.239  26.973  1.00  0.00    -0.352 N 
ATOM      4  O   UNL A   1      29.919  24.474  26.892  1.00  0.00    -0.270 OA
ATOM      5  C   UNL A   1      30.514  25.368  26.307  1.00  0.00     0.251 C 
ATOM      6  H   UNL A   1      31.279  26.202  27.955  1.00  0.00     0.163 HD
BRANCH   5   7
ATOM      7  C   UNL A   1      30.417  25.530  24.846  1.00  0.00     0.067 C 
ATOM      8  C   UNL A   1      29.358  26.212  24.396  1.00  0.00     0.025 C 
ATOM      9  C   UNL A   1      31.661  25.311  24.042  1.00  0.00     0.314 C 
ATOM     10  C   UNL A   1      29.711  27.237  23.411  1.00  0.00     0.018 A 
ATOM     11  O   UNL A   1      32.042  26.485  23.281  1.00  0.00    -0.475 OA
ATOM     12  C   UNL A   1      28.806  28.291  23.241  1.00  0.00     0.025 A 
ATOM     13  C   UNL A   1      31.051  27.400  23.019  1.00  0.00     0.128 A 
ATOM     14  C   UNL A   1      29.259  29.549  22.819  1.00  0.00     0.056 A 
ATOM     15  C   UNL A   1      31.490  28.627  22.524  1.00  0.00     0.048 A 
ATOM     16  C   UNL A   1      30.606  29.705  22.456  1.00  0.00     0.017 A 
BRANCH   9  17
ATOM     17  C   UNL A   1      31.531  24.087  23.123  1.00  0.00     0.429 C 
ATOM     18  F   UNL A   1      32.044  24.347  21.895  1.00  0.00    -0.167 F 
ATOM     19  F   UNL A   1      32.203  23.017  23.609  1.00  0.00    -0.167 F 
ATOM     20  F   UNL A   1      30.243  23.710  22.948  1.00  0.00    -0.167 F 
ENDBRANCH   9  17
BRANCH  14  21
ATOM     21  C   UNL A   1      28.314  30.725  22.843  1.00  0.00     0.416 C 
ATOM     22  F   UNL A   1      27.667  30.900  21.662  1.00  0.00    -0.166 F 
ATOM     23  F   UNL A   1      27.341  30.584  23.790  1.00  0.00    -0.166 F 
ATOM     24  F   UNL A   1      28.928  31.906  23.125  1.00  0.00    -0.166 F 
ENDBRANCH  14  21
ENDBRANCH   5   7
ENDBRANCH   2   3
ENDBRANCH   1   2
BRANCH   1  25
ATOM     25  C   UNL A   1      32.789  29.654  25.969  1.00  0.00     0.118 C 
BRANCH  25  26
ATOM     26  N   UNL A   1      32.538  31.027  26.390  1.00  0.00    -0.352 N 
ATOM     27  C   UNL A   1      33.278  31.849  27.211  1.00  0.00     0.251 C 
ATOM     28  H   UNL A   1      31.713  31.429  26.033  1.00  0.00     0.163 HD
ATOM     29  O   UNL A   1      32.855  32.971  27.485  1.00  0.00    -0.269 OA
BRANCH  27  30
ATOM     30  C   UNL A   1      34.554  31.380  27.804  1.00  0.00     0.039 A 
ATOM     31  C   UNL A   1      35.539  32.318  28.129  1.00  0.00     0.014 A 
ATOM     32  C   UNL A   1      34.782  30.029  28.061  1.00  0.00     0.014 A 
ATOM     33  C   UNL A   1      36.708  31.907  28.777  1.00  0.00     0.010 A 
ATOM     34  C   UNL A   1      35.876  29.642  28.826  1.00  0.00     0.010 A 
ATOM     35  C   UNL A   1      36.867  30.569  29.171  1.00  0.00    -0.014 A 
BRANCH  35  36
ATOM     36  C   UNL A   1      38.076  30.100  29.898  1.00  0.00     0.031 A 
ATOM     37  C   UNL A   1      38.321  30.555  31.315  1.00  0.00     0.074 A 
ATOM     38  C   UNL A   1      38.992  29.341  29.265  1.00  0.00     0.049 A 
ATOM     39  N   UNL A   1      39.355  30.342  32.090  1.00  0.00    -0.248 NA
ATOM     40  C   UNL A   1      37.290  31.412  31.924  1.00  0.00     0.031 C 
ATOM     41  C   UNL A   1      38.918  28.908  27.869  1.00  0.00     0.029 A 
ATOM     42  N   UNL A   1      40.173  28.805  29.714  1.00  0.00    -0.354 N 
ATOM     43  C   UNL A   1      39.113  31.072  33.248  1.00  0.00     0.074 A 
ATOM     44  C   UNL A   1      37.878  31.792  33.046  1.00  0.00     0.031 C 
ATOM     45  C   UNL A   1      39.983  28.139  27.588  1.00  0.00     0.029 A 
ATOM     46  C   UNL A   1      40.831  28.052  28.772  1.00  0.00     0.049 A 
ATOM     47  H   UNL A   1      40.517  28.947  30.626  1.00  0.00     0.167 HD
ATOM     48  C   UNL A   1      39.834  31.107  34.395  1.00  0.00     0.037 A 
ATOM     49  C   UNL A   1      41.984  27.362  28.860  1.00  0.00     0.037 A 
ATOM     50  C   UNL A   1      41.024  30.331  34.614  1.00  0.00     0.049 A 
ATOM     51  C   UNL A   1      42.725  27.350  30.170  1.00  0.00     0.074 A 
ATOM     52  C   UNL A   1      41.783  30.217  35.765  1.00  0.00     0.029 A 
ATOM     53  N   UNL A   1      41.619  29.521  33.659  1.00  0.00    -0.354 N 
ATOM     54  N   UNL A   1      42.445  27.977  31.286  1.00  0.00    -0.248 NA
ATOM     55  C   UNL A   1      43.933  26.517  30.237  1.00  0.00     0.031 C 
ATOM     56  C   UNL A   1      42.859  29.365  35.495  1.00  0.00     0.029 A 
ATOM     57  C   UNL A   1      42.742  28.909  34.191  1.00  0.00     0.049 A 
ATOM     58  H   UNL A   1      41.293  29.398  32.738  1.00  0.00     0.167 HD
ATOM     59  C   UNL A   1      43.422  27.595  32.195  1.00  0.00     0.074 A 
ATOM     60  C   UNL A   1      44.291  26.666  31.504  1.00  0.00     0.031 C 
ATOM     61  C   UNL A   1      43.587  27.981  33.485  1.00  0.00     0.037 A 
BRANCH  48  62
ATOM     62  C   UNL A   1      39.338  31.998  35.499  1.00  0.00     0.064 A 
ATOM     63  C   UNL A   1      39.733  33.341  35.599  1.00  0.00     0.173 A 
ATOM     64  C   UNL A   1      38.451  31.505  36.468  1.00  0.00     0.173 A 
ATOM     65  F   UNL A   1      40.591  33.861  34.708  1.00  0.00    -0.203 F 
ATOM     66  C   UNL A   1      39.295  34.144  36.650  1.00  0.00     0.198 A 
ATOM     67  C   UNL A   1      37.986  32.321  37.498  1.00  0.00     0.198 A 
ATOM     68  F   UNL A   1      38.035  30.230  36.420  1.00  0.00    -0.203 F 
ATOM     69  F   UNL A   1      39.744  35.402  36.761  1.00  0.00    -0.200 F 
ATOM     70  C   UNL A   1      38.417  33.635  37.594  1.00  0.00     0.200 A 
ATOM     71  F   UNL A   1      37.128  31.831  38.403  1.00  0.00    -0.200 F 
ATOM     72  F   UNL A   1      37.997  34.408  38.605  1.00  0.00    -0.200 F 
ENDBRANCH  48  62
BRANCH  49  73
ATOM     73  C   UNL A   1      42.471  26.579  27.695  1.00  0.00     0.064 A 
ATOM     74  C   UNL A   1      43.421  27.118  26.815  1.00  0.00     0.173 A 
ATOM     75  C   UNL A   1      42.011  25.280  27.440  1.00  0.00     0.173 A 
ATOM     76  F   UNL A   1      43.879  28.363  27.006  1.00  0.00    -0.203 F 
ATOM     77  C   UNL A   1      43.874  26.396  25.712  1.00  0.00     0.198 A 
ATOM     78  C   UNL A   1      42.486  24.548  26.353  1.00  0.00     0.198 A 
ATOM     79  F   UNL A   1      41.110  24.714  28.257  1.00  0.00    -0.203 F 
ATOM     80  F   UNL A   1      44.748  26.953  24.863  1.00  0.00    -0.200 F 
ATOM     81  C   UNL A   1      43.410  25.109  25.485  1.00  0.00     0.200 A 
ATOM     82  F   UNL A   1      42.046  23.299  26.145  1.00  0.00    -0.200 F 
ATOM     83  F   UNL A   1      43.850  24.414  24.428  1.00  0.00    -0.200 F 
ENDBRANCH  49  73
BRANCH  61  84
ATOM     84  C   UNL A   1      44.729  27.367  34.240  1.00  0.00     0.064 A 
ATOM     85  C   UNL A   1      44.594  26.143  34.912  1.00  0.00     0.173 A 
ATOM     86  C   UNL A   1      45.981  27.999  34.266  1.00  0.00     0.173 A 
ATOM     87  F   UNL A   1      43.412  25.508  34.927  1.00  0.00    -0.203 F 
ATOM     88  C   UNL A   1      45.663  25.591  35.611  1.00  0.00     0.198 A 
ATOM     89  C   UNL A   1      47.057  27.427  34.940  1.00  0.00     0.198 A 
ATOM     90  F   UNL A   1      46.165  29.166  33.631  1.00  0.00    -0.203 F 
ATOM     91  F   UNL A   1      45.496  24.448  36.292  1.00  0.00    -0.200 F 
ATOM     92  C   UNL A   1      46.895  26.230  35.620  1.00  0.00     0.200 A 
ATOM     93  F   UNL A   1      48.249  28.038  34.934  1.00  0.00    -0.200 F 
ATOM     94  F   UNL A   1      47.923  25.694  36.291  1.00  0.00    -0.200 F 
ENDBRANCH  61  84
ENDBRANCH  35  36
ENDBRANCH  27  30
ENDBRANCH  25  26
ENDBRANCH   1  25
TORSDOF 12
ENDMDL
