MODEL 1
REMARK VINA RESULT:     -12.4      0.000      0.000
REMARK SMILES C[C@H]1CC[C@@](Cc2nc(C(C)(C)C)cs2)(C(=O)NCCCNC(=O)c2ccc(-c3c4nc(c(-c5c(F)c(F)c(F)c(F)c5F)c5ccc([nH]5)c(-c5c(F)c(F)c(F)c(F)c5F)c5nc(c(-c6c(F)c(F)c(F)c(F)c6F)c6ccc3[nH]6)C=C5)C=C4)cc2)C1
REMARK SMILES IDX 19 1 18 2 16 3 17 4 5 6 1 7 2 8 3 9 88 10 4 11 6 12 7 13
REMARK SMILES IDX 8 14 15 15 9 16 14 17 10 18 11 19 12 20 13 21 20 22 21 23
REMARK SMILES IDX 22 24 23 25 24 27 25 28 26 29 87 30 27 31 86 32 28 33 29 34
REMARK SMILES IDX 30 35 80 36 31 37 85 38 79 39 81 40 32 41 84 42 78 43 77 44
REMARK SMILES IDX 33 46 65 47 45 48 64 49 46 50 49 51 63 52 82 53 47 54 48 55
REMARK SMILES IDX 62 57 83 58 50 59 34 60 35 61 43 62 36 63 37 64 41 65 44 66
REMARK SMILES IDX 38 67 39 68 42 69 40 70 66 71 67 72 75 73 68 74 69 75 73 76
REMARK SMILES IDX 76 77 70 78 71 79 74 80 72 81 51 82 52 83 60 84 53 85 54 86
REMARK SMILES IDX 58 87 61 88 55 89 56 90 59 91 57 92
REMARK H PARENT 18 5 22 26 81 45 49 56
REMARK Flexibility Score: inf
ROOT
ATOM      1  C   UNL A   1      38.121  22.468  25.843  1.00  0.00     0.117 C 
ENDROOT
BRANCH   1   2
ATOM      2  N   UNL A   1      37.477  22.769  24.582  1.00  0.00    -0.356 N 
ATOM      3  C   UNL A   1      36.163  22.758  24.239  1.00  0.00     0.226 C 
ATOM      4  O   UNL A   1      35.866  23.408  23.230  1.00  0.00    -0.274 OA
ATOM      5  H   UNL A   1      38.091  23.024  23.856  1.00  0.00     0.163 HD
BRANCH   3   6
ATOM      6  C   UNL A   1      35.091  21.996  25.038  1.00  0.00     0.056 C 
ATOM      7  C   UNL A   1      32.176  20.099  23.381  1.00  0.00     0.007 C 
ATOM      8  C   UNL A   1      33.186  20.552  24.429  1.00  0.00    -0.013 C 
ATOM      9  C   UNL A   1      34.411  19.662  24.507  1.00  0.00     0.004 C 
ATOM     10  C   UNL A   1      33.820  21.904  24.120  1.00  0.00     0.020 C 
ATOM     11  C   UNL A   1      35.429  20.498  25.282  1.00  0.00     0.017 C 
BRANCH   6  12
ATOM     12  C   UNL A   1      34.671  22.794  26.308  1.00  0.00     0.084 C 
BRANCH  12  13
ATOM     13  C   UNL A   1      33.699  23.929  26.139  1.00  0.00     0.094 A 
ATOM     14  N   UNL A   1      34.012  25.118  25.664  1.00  0.00    -0.246 NA
ATOM     15  S   UNL A   1      32.026  23.716  26.480  1.00  0.00    -0.127 S 
ATOM     16  C   UNL A   1      32.908  25.970  25.665  1.00  0.00     0.057 A 
ATOM     17  C   UNL A   1      31.732  25.348  26.048  1.00  0.00     0.091 A 
BRANCH  16  18
ATOM     18  C   UNL A   1      33.101  27.462  25.390  1.00  0.00     0.005 C 
ATOM     19  C   UNL A   1      31.795  28.256  25.554  1.00  0.00     0.017 C 
ATOM     20  C   UNL A   1      34.116  28.030  26.410  1.00  0.00     0.017 C 
ATOM     21  C   UNL A   1      33.594  27.712  23.946  1.00  0.00     0.017 C 
ENDBRANCH  16  18
ENDBRANCH  12  13
ENDBRANCH   6  12
ENDBRANCH   3   6
ENDBRANCH   1   2
BRANCH   1  22
ATOM     22  C   UNL A   1      39.293  21.515  25.734  1.00  0.00     0.042 C 
BRANCH  22  23
ATOM     23  C   UNL A   1      40.535  21.982  26.484  1.00  0.00     0.118 C 
BRANCH  23  24
ATOM     24  N   UNL A   1      41.686  22.287  25.633  1.00  0.00    -0.352 N 
ATOM     25  C   UNL A   1      42.439  23.428  25.487  1.00  0.00     0.251 C 
ATOM     26  H   UNL A   1      41.973  21.539  25.060  1.00  0.00     0.163 HD
ATOM     27  O   UNL A   1      43.326  23.501  24.646  1.00  0.00    -0.269 OA
BRANCH  25  28
ATOM     28  C   UNL A   1      42.185  24.580  26.360  1.00  0.00     0.039 A 
ATOM     29  C   UNL A   1      42.727  25.838  26.063  1.00  0.00     0.014 A 
ATOM     30  C   UNL A   1      41.440  24.379  27.517  1.00  0.00     0.014 A 
ATOM     31  C   UNL A   1      42.471  26.911  26.918  1.00  0.00     0.010 A 
ATOM     32  C   UNL A   1      41.084  25.461  28.291  1.00  0.00     0.010 A 
ATOM     33  C   UNL A   1      41.635  26.724  28.027  1.00  0.00    -0.014 A 
BRANCH  33  34
ATOM     34  C   UNL A   1      41.399  27.754  29.058  1.00  0.00     0.031 A 
ATOM     35  C   UNL A   1      42.221  27.675  30.314  1.00  0.00     0.074 A 
ATOM     36  C   UNL A   1      40.360  28.597  28.945  1.00  0.00     0.049 A 
ATOM     37  N   UNL A   1      42.005  28.205  31.488  1.00  0.00    -0.248 NA
ATOM     38  C   UNL A   1      43.408  26.801  30.255  1.00  0.00     0.031 C 
ATOM     39  C   UNL A   1      39.488  28.721  27.778  1.00  0.00     0.029 A 
ATOM     40  N   UNL A   1      39.838  29.479  29.852  1.00  0.00    -0.354 N 
ATOM     41  C   UNL A   1      42.992  27.683  32.313  1.00  0.00     0.074 A 
ATOM     42  C   UNL A   1      43.760  26.745  31.528  1.00  0.00     0.031 C 
ATOM     43  C   UNL A   1      38.537  29.634  28.039  1.00  0.00     0.029 A 
ATOM     44  C   UNL A   1      38.707  30.115  29.406  1.00  0.00     0.049 A 
ATOM     45  H   UNL A   1      40.235  29.641  30.739  1.00  0.00     0.167 HD
ATOM     46  C   UNL A   1      43.246  27.984  33.609  1.00  0.00     0.037 A 
ATOM     47  C   UNL A   1      37.898  30.975  30.050  1.00  0.00     0.037 A 
ATOM     48  C   UNL A   1      42.490  28.960  34.347  1.00  0.00     0.049 A 
ATOM     49  C   UNL A   1      38.217  31.325  31.481  1.00  0.00     0.074 A 
ATOM     50  C   UNL A   1      42.678  29.409  35.639  1.00  0.00     0.029 A 
ATOM     51  N   UNL A   1      41.399  29.651  33.834  1.00  0.00    -0.354 N 
ATOM     52  N   UNL A   1      39.173  30.863  32.253  1.00  0.00    -0.248 NA
ATOM     53  C   UNL A   1      37.351  32.319  32.125  1.00  0.00     0.031 C 
ATOM     54  C   UNL A   1      41.679  30.347  35.921  1.00  0.00     0.029 A 
ATOM     55  C   UNL A   1      40.901  30.521  34.786  1.00  0.00     0.049 A 
ATOM     56  H   UNL A   1      41.033  29.537  32.927  1.00  0.00     0.167 HD
ATOM     57  C   UNL A   1      39.050  31.538  33.460  1.00  0.00     0.074 A 
ATOM     58  C   UNL A   1      37.928  32.445  33.311  1.00  0.00     0.031 C 
ATOM     59  C   UNL A   1      39.792  31.424  34.589  1.00  0.00     0.037 A 
BRANCH  46  60
ATOM     60  C   UNL A   1      44.378  27.259  34.282  1.00  0.00     0.064 A 
ATOM     61  C   UNL A   1      44.185  26.034  34.942  1.00  0.00     0.173 A 
ATOM     62  C   UNL A   1      45.673  27.800  34.284  1.00  0.00     0.173 A 
ATOM     63  F   UNL A   1      42.965  25.476  34.985  1.00  0.00    -0.203 F 
ATOM     64  C   UNL A   1      45.228  25.407  35.619  1.00  0.00     0.198 A 
ATOM     65  C   UNL A   1      46.724  27.149  34.927  1.00  0.00     0.198 A 
ATOM     66  F   UNL A   1      45.922  28.965  33.667  1.00  0.00    -0.203 F 
ATOM     67  F   UNL A   1      44.994  24.280  36.307  1.00  0.00    -0.200 F 
ATOM     68  C   UNL A   1      46.497  25.961  35.606  1.00  0.00     0.200 A 
ATOM     69  F   UNL A   1      47.954  27.679  34.903  1.00  0.00    -0.200 F 
ATOM     70  F   UNL A   1      47.500  25.358  36.259  1.00  0.00    -0.200 F 
ENDBRANCH  46  60
BRANCH  47  71
ATOM     71  C   UNL A   1      36.759  31.601  29.333  1.00  0.00     0.064 A 
ATOM     72  C   UNL A   1      35.623  30.843  29.010  1.00  0.00     0.173 A 
ATOM     73  C   UNL A   1      36.756  32.958  28.981  1.00  0.00     0.173 A 
ATOM     74  F   UNL A   1      35.584  29.538  29.315  1.00  0.00    -0.203 F 
ATOM     75  C   UNL A   1      34.539  31.413  28.346  1.00  0.00     0.198 A 
ATOM     76  C   UNL A   1      35.659  33.534  28.341  1.00  0.00     0.198 A 
ATOM     77  F   UNL A   1      37.810  33.733  29.277  1.00  0.00    -0.203 F 
ATOM     78  F   UNL A   1      33.485  30.654  28.019  1.00  0.00    -0.200 F 
ATOM     79  C   UNL A   1      34.554  32.759  28.019  1.00  0.00     0.200 A 
ATOM     80  F   UNL A   1      35.668  34.840  28.042  1.00  0.00    -0.200 F 
ATOM     81  F   UNL A   1      33.507  33.309  27.389  1.00  0.00    -0.200 F 
ENDBRANCH  47  71
BRANCH  59  82
ATOM     82  C   UNL A   1      39.452  32.344  35.724  1.00  0.00     0.064 A 
ATOM     83  C   UNL A   1      40.009  33.626  35.829  1.00  0.00     0.173 A 
ATOM     84  C   UNL A   1      38.520  31.947  36.694  1.00  0.00     0.173 A 
ATOM     85  F   UNL A   1      40.916  34.044  34.932  1.00  0.00    -0.203 F 
ATOM     86  C   UNL A   1      39.666  34.467  36.883  1.00  0.00     0.198 A 
ATOM     87  C   UNL A   1      38.154  32.803  37.726  1.00  0.00     0.198 A 
ATOM     88  F   UNL A   1      37.953  30.732  36.632  1.00  0.00    -0.203 F 
ATOM     89  F   UNL A   1      40.248  35.669  36.994  1.00  0.00    -0.200 F 
ATOM     90  C   UNL A   1      38.733  34.059  37.825  1.00  0.00     0.200 A 
ATOM     91  F   UNL A   1      37.240  32.413  38.626  1.00  0.00    -0.200 F 
ATOM     92  F   UNL A   1      38.396  34.875  38.834  1.00  0.00    -0.200 F 
ENDBRANCH  59  82
ENDBRANCH  33  34
ENDBRANCH  25  28
ENDBRANCH  23  24
ENDBRANCH  22  23
ENDBRANCH   1  22
TORSDOF 13
ENDMDL
MODEL 2
REMARK VINA RESULT:     -12.4      3.102      8.700
REMARK SMILES C[C@H]1CC[C@@](Cc2nc(C(C)(C)C)cs2)(C(=O)NCCCNC(=O)c2ccc(-c3c4nc(c(-c5c(F)c(F)c(F)c(F)c5F)c5ccc([nH]5)c(-c5c(F)c(F)c(F)c(F)c5F)c5nc(c(-c6c(F)c(F)c(F)c(F)c6F)c6ccc3[nH]6)C=C5)C=C4)cc2)C1
REMARK SMILES IDX 19 1 18 2 16 3 17 4 5 6 1 7 2 8 3 9 88 10 4 11 6 12 7 13
REMARK SMILES IDX 8 14 15 15 9 16 14 17 10 18 11 19 12 20 13 21 20 22 21 23
REMARK SMILES IDX 22 24 23 25 24 27 25 28 26 29 87 30 27 31 86 32 28 33 29 34
REMARK SMILES IDX 30 35 80 36 31 37 85 38 79 39 81 40 32 41 84 42 78 43 77 44
REMARK SMILES IDX 33 46 65 47 45 48 64 49 46 50 49 51 63 52 82 53 47 54 48 55
REMARK SMILES IDX 62 57 83 58 50 59 34 60 35 61 43 62 36 63 37 64 41 65 44 66
REMARK SMILES IDX 38 67 39 68 42 69 40 70 66 71 67 72 75 73 68 74 69 75 73 76
REMARK SMILES IDX 76 77 70 78 71 79 74 80 72 81 51 82 52 83 60 84 53 85 54 86
REMARK SMILES IDX 58 87 61 88 55 89 56 90 59 91 57 92
REMARK H PARENT 18 5 22 26 81 45 49 56
REMARK Flexibility Score: inf
ROOT
ATOM      1  C   UNL A   1      31.355  30.821  26.261  1.00  0.00     0.117 C 
ENDROOT
BRANCH   1   2
ATOM      2  N   UNL A   1      31.114  30.392  24.900  1.00  0.00    -0.356 N 
ATOM      3  C   UNL A   1      31.463  29.245  24.262  1.00  0.00     0.226 C 
ATOM      4  O   UNL A   1      30.818  28.980  23.241  1.00  0.00    -0.274 OA
ATOM      5  H   UNL A   1      30.616  31.036  24.347  1.00  0.00     0.163 HD
BRANCH   3   6
ATOM      6  C   UNL A   1      32.584  28.314  24.759  1.00  0.00     0.056 C 
ATOM      7  C   UNL A   1      35.065  29.298  27.537  1.00  0.00     0.007 C 
ATOM      8  C   UNL A   1      34.262  28.445  26.563  1.00  0.00    -0.013 C 
ATOM      9  C   UNL A   1      33.000  27.865  27.170  1.00  0.00     0.004 C 
ATOM     10  C   UNL A   1      33.691  29.234  25.388  1.00  0.00     0.020 C 
ATOM     11  C   UNL A   1      32.177  27.420  25.963  1.00  0.00     0.017 C 
BRANCH   6  12
ATOM     12  C   UNL A   1      33.250  27.560  23.570  1.00  0.00     0.084 C 
BRANCH  12  13
ATOM     13  C   UNL A   1      33.389  26.066  23.670  1.00  0.00     0.094 A 
ATOM     14  N   UNL A   1      34.408  25.444  24.227  1.00  0.00    -0.246 NA
ATOM     15  S   UNL A   1      32.131  25.025  23.125  1.00  0.00    -0.127 S 
ATOM     16  C   UNL A   1      34.271  24.060  24.131  1.00  0.00     0.057 A 
ATOM     17  C   UNL A   1      33.061  23.663  23.586  1.00  0.00     0.091 A 
BRANCH  16  18
ATOM     18  C   UNL A   1      35.451  23.154  24.487  1.00  0.00     0.005 C 
ATOM     19  C   UNL A   1      36.272  23.706  25.663  1.00  0.00     0.017 C 
ATOM     20  C   UNL A   1      34.906  21.771  24.914  1.00  0.00     0.017 C 
ATOM     21  C   UNL A   1      36.426  23.004  23.297  1.00  0.00     0.017 C 
ENDBRANCH  16  18
ENDBRANCH  12  13
ENDBRANCH   6  12
ENDBRANCH   3   6
ENDBRANCH   1   2
BRANCH   1  22
ATOM     22  C   UNL A   1      31.318  32.322  26.460  1.00  0.00     0.042 C 
BRANCH  22  23
ATOM     23  C   UNL A   1      32.534  32.874  27.196  1.00  0.00     0.118 C 
BRANCH  23  24
ATOM     24  N   UNL A   1      32.376  34.238  27.701  1.00  0.00    -0.352 N 
ATOM     25  C   UNL A   1      33.036  34.929  28.690  1.00  0.00     0.251 C 
ATOM     26  H   UNL A   1      31.668  34.755  27.252  1.00  0.00     0.163 HD
ATOM     27  O   UNL A   1      32.690  36.057  29.016  1.00  0.00    -0.269 OA
BRANCH  25  28
ATOM     28  C   UNL A   1      34.185  34.311  29.362  1.00  0.00     0.039 A 
ATOM     29  C   UNL A   1      34.001  33.466  30.465  1.00  0.00     0.014 A 
ATOM     30  C   UNL A   1      35.461  34.630  28.913  1.00  0.00     0.014 A 
ATOM     31  C   UNL A   1      35.116  32.899  31.085  1.00  0.00     0.010 A 
ATOM     32  C   UNL A   1      36.551  33.975  29.443  1.00  0.00     0.010 A 
ATOM     33  C   UNL A   1      36.393  33.145  30.563  1.00  0.00    -0.014 A 
BRANCH  33  34
ATOM     34  C   UNL A   1      37.642  32.699  31.210  1.00  0.00     0.031 A 
ATOM     35  C   UNL A   1      38.407  31.590  30.542  1.00  0.00     0.074 A 
ATOM     36  C   UNL A   1      37.962  33.138  32.438  1.00  0.00     0.049 A 
ATOM     37  N   UNL A   1      39.312  30.787  31.034  1.00  0.00    -0.248 NA
ATOM     38  C   UNL A   1      38.032  31.296  29.147  1.00  0.00     0.031 C 
ATOM     39  C   UNL A   1      37.259  34.187  33.176  1.00  0.00     0.029 A 
ATOM     40  N   UNL A   1      38.941  32.719  33.297  1.00  0.00    -0.354 N 
ATOM     41  C   UNL A   1      39.566  29.863  30.028  1.00  0.00     0.074 A 
ATOM     42  C   UNL A   1      38.674  30.160  28.933  1.00  0.00     0.031 C 
ATOM     43  C   UNL A   1      37.834  34.332  34.382  1.00  0.00     0.029 A 
ATOM     44  C   UNL A   1      38.908  33.353  34.513  1.00  0.00     0.049 A 
ATOM     45  H   UNL A   1      39.605  32.028  33.065  1.00  0.00     0.167 HD
ATOM     46  C   UNL A   1      40.485  28.868  30.019  1.00  0.00     0.037 A 
ATOM     47  C   UNL A   1      39.659  33.142  35.610  1.00  0.00     0.037 A 
ATOM     48  C   UNL A   1      41.391  28.630  31.110  1.00  0.00     0.049 A 
ATOM     49  C   UNL A   1      40.700  32.053  35.567  1.00  0.00     0.074 A 
ATOM     50  C   UNL A   1      42.410  27.703  31.206  1.00  0.00     0.029 A 
ATOM     51  N   UNL A   1      41.386  29.350  32.298  1.00  0.00    -0.354 N 
ATOM     52  N   UNL A   1      40.970  31.203  34.604  1.00  0.00    -0.248 NA
ATOM     53  C   UNL A   1      41.543  31.901  36.758  1.00  0.00     0.031 C 
ATOM     54  C   UNL A   1      43.001  27.839  32.467  1.00  0.00     0.029 A 
ATOM     55  C   UNL A   1      42.383  28.887  33.136  1.00  0.00     0.049 A 
ATOM     56  H   UNL A   1      40.764  30.082  32.512  1.00  0.00     0.167 HD
ATOM     57  C   UNL A   1      42.039  30.440  35.055  1.00  0.00     0.074 A 
ATOM     58  C   UNL A   1      42.369  30.938  36.377  1.00  0.00     0.031 C 
ATOM     59  C   UNL A   1      42.692  29.425  34.438  1.00  0.00     0.037 A 
BRANCH  46  60
ATOM     60  C   UNL A   1      40.547  27.992  28.798  1.00  0.00     0.064 A 
ATOM     61  C   UNL A   1      41.328  28.333  27.681  1.00  0.00     0.173 A 
ATOM     62  C   UNL A   1      39.806  26.803  28.733  1.00  0.00     0.173 A 
ATOM     63  F   UNL A   1      42.047  29.466  27.681  1.00  0.00    -0.203 F 
ATOM     64  C   UNL A   1      41.324  27.547  26.531  1.00  0.00     0.198 A 
ATOM     65  C   UNL A   1      39.837  25.997  27.596  1.00  0.00     0.198 A 
ATOM     66  F   UNL A   1      39.044  26.421  29.769  1.00  0.00    -0.203 F 
ATOM     67  F   UNL A   1      42.017  27.940  25.452  1.00  0.00    -0.200 F 
ATOM     68  C   UNL A   1      40.583  26.377  26.492  1.00  0.00     0.200 A 
ATOM     69  F   UNL A   1      39.130  24.858  27.564  1.00  0.00    -0.200 F 
ATOM     70  F   UNL A   1      40.580  25.622  25.384  1.00  0.00    -0.200 F 
ENDBRANCH  46  60
BRANCH  47  71
ATOM     71  C   UNL A   1      39.492  34.011  36.802  1.00  0.00     0.064 A 
ATOM     72  C   UNL A   1      38.724  33.576  37.893  1.00  0.00     0.173 A 
ATOM     73  C   UNL A   1      40.107  35.267  36.899  1.00  0.00     0.173 A 
ATOM     74  F   UNL A   1      38.106  32.387  37.842  1.00  0.00    -0.203 F 
ATOM     75  C   UNL A   1      38.563  34.371  39.025  1.00  0.00     0.198 A 
ATOM     76  C   UNL A   1      39.967  36.051  38.045  1.00  0.00     0.198 A 
ATOM     77  F   UNL A   1      40.863  35.726  35.891  1.00  0.00    -0.203 F 
ATOM     78  F   UNL A   1      37.793  33.944  40.035  1.00  0.00    -0.200 F 
ATOM     79  C   UNL A   1      39.190  35.605  39.104  1.00  0.00     0.200 A 
ATOM     80  F   UNL A   1      40.590  37.234  38.125  1.00  0.00    -0.200 F 
ATOM     81  F   UNL A   1      39.043  36.365  40.197  1.00  0.00    -0.200 F 
ENDBRANCH  47  71
BRANCH  59  82
ATOM     82  C   UNL A   1      43.864  28.830  35.162  1.00  0.00     0.064 A 
ATOM     83  C   UNL A   1      45.167  29.315  34.983  1.00  0.00     0.173 A 
ATOM     84  C   UNL A   1      43.667  27.787  36.079  1.00  0.00     0.173 A 
ATOM     85  F   UNL A   1      45.406  30.301  34.106  1.00  0.00    -0.203 F 
ATOM     86  C   UNL A   1      46.236  28.757  35.677  1.00  0.00     0.198 A 
ATOM     87  C   UNL A   1      44.733  27.255  36.796  1.00  0.00     0.198 A 
ATOM     88  F   UNL A   1      42.437  27.295  36.291  1.00  0.00    -0.203 F 
ATOM     89  F   UNL A   1      47.481  29.200  35.454  1.00  0.00    -0.200 F 
ATOM     90  C   UNL A   1      46.017  27.734  36.589  1.00  0.00     0.200 A 
ATOM     91  F   UNL A   1      44.517  26.278  37.688  1.00  0.00    -0.200 F 
ATOM     92  F   UNL A   1      47.047  27.204  37.264  1.00  0.00    -0.200 F 
ENDBRANCH  59  82
ENDBRANCH  33  34
ENDBRANCH  25  28
ENDBRANCH  23  24
ENDBRANCH  22  23
ENDBRANCH   1  22
TORSDOF 13
ENDMDL
MODEL 3
REMARK VINA RESULT:     -12.4      4.987      9.641
REMARK SMILES C[C@H]1CC[C@@](Cc2nc(C(C)(C)C)cs2)(C(=O)NCCCNC(=O)c2ccc(-c3c4nc(c(-c5c(F)c(F)c(F)c(F)c5F)c5ccc([nH]5)c(-c5c(F)c(F)c(F)c(F)c5F)c5nc(c(-c6c(F)c(F)c(F)c(F)c6F)c6ccc3[nH]6)C=C5)C=C4)cc2)C1
REMARK SMILES IDX 19 1 18 2 16 3 17 4 5 6 1 7 2 8 3 9 88 10 4 11 6 12 7 13
REMARK SMILES IDX 8 14 15 15 9 16 14 17 10 18 11 19 12 20 13 21 20 22 21 23
REMARK SMILES IDX 22 24 23 25 24 27 25 28 26 29 87 30 27 31 86 32 28 33 29 34
REMARK SMILES IDX 30 35 80 36 31 37 85 38 79 39 81 40 32 41 84 42 78 43 77 44
REMARK SMILES IDX 33 46 65 47 45 48 64 49 46 50 49 51 63 52 82 53 47 54 48 55
REMARK SMILES IDX 62 57 83 58 50 59 34 60 35 61 43 62 36 63 37 64 41 65 44 66
REMARK SMILES IDX 38 67 39 68 42 69 40 70 66 71 67 72 75 73 68 74 69 75 73 76
REMARK SMILES IDX 76 77 70 78 71 79 74 80 72 81 51 82 52 83 60 84 53 85 54 86
REMARK SMILES IDX 58 87 61 88 55 89 56 90 59 91 57 92
REMARK H PARENT 18 5 22 26 81 45 49 56
REMARK Flexibility Score: inf
ROOT
ATOM      1  C   UNL A   1      37.361  21.372  24.232  1.00  0.00     0.117 C 
ENDROOT
BRANCH   1   2
ATOM      2  N   UNL A   1      37.673  22.657  24.821  1.00  0.00    -0.356 N 
ATOM      3  C   UNL A   1      36.866  23.573  25.416  1.00  0.00     0.226 C 
ATOM      4  O   UNL A   1      37.431  24.389  26.152  1.00  0.00    -0.274 OA
ATOM      5  H   UNL A   1      38.625  22.908  24.784  1.00  0.00     0.163 HD
BRANCH   3   6
ATOM      6  C   UNL A   1      35.342  23.613  25.207  1.00  0.00     0.056 C 
ATOM      7  C   UNL A   1      33.372  26.878  24.655  1.00  0.00     0.007 C 
ATOM      8  C   UNL A   1      33.718  25.394  24.679  1.00  0.00    -0.013 C 
ATOM      9  C   UNL A   1      34.261  24.881  23.359  1.00  0.00     0.004 C 
ATOM     10  C   UNL A   1      34.863  25.049  25.626  1.00  0.00     0.020 C 
ATOM     11  C   UNL A   1      34.905  23.542  23.717  1.00  0.00     0.017 C 
BRANCH   6  12
ATOM     12  C   UNL A   1      34.623  22.607  26.155  1.00  0.00     0.084 C 
BRANCH  12  13
ATOM     13  C   UNL A   1      33.800  21.514  25.533  1.00  0.00     0.094 A 
ATOM     14  N   UNL A   1      34.154  20.246  25.484  1.00  0.00    -0.246 NA
ATOM     15  S   UNL A   1      32.233  21.841  24.900  1.00  0.00    -0.127 S 
ATOM     16  C   UNL A   1      33.203  19.480  24.810  1.00  0.00     0.057 A 
ATOM     17  C   UNL A   1      32.071  20.194  24.456  1.00  0.00     0.091 A 
BRANCH  16  18
ATOM     18  C   UNL A   1      33.528  18.037  24.422  1.00  0.00     0.005 C 
ATOM     19  C   UNL A   1      35.041  17.764  24.413  1.00  0.00     0.017 C 
ATOM     20  C   UNL A   1      32.894  17.085  25.463  1.00  0.00     0.017 C 
ATOM     21  C   UNL A   1      33.010  17.704  23.003  1.00  0.00     0.017 C 
ENDBRANCH  16  18
ENDBRANCH  12  13
ENDBRANCH   6  12
ENDBRANCH   3   6
ENDBRANCH   1   2
BRANCH   1  22
ATOM     22  C   UNL A   1      37.851  20.183  25.031  1.00  0.00     0.042 C 
BRANCH  22  23
ATOM     23  C   UNL A   1      39.104  20.469  25.851  1.00  0.00     0.118 C 
BRANCH  23  24
ATOM     24  N   UNL A   1      40.133  19.430  25.780  1.00  0.00    -0.352 N 
ATOM     25  C   UNL A   1      41.489  19.470  26.000  1.00  0.00     0.251 C 
ATOM     26  H   UNL A   1      39.792  18.541  25.528  1.00  0.00     0.163 HD
ATOM     27  O   UNL A   1      42.194  18.488  25.805  1.00  0.00    -0.269 OA
BRANCH  25  28
ATOM     28  C   UNL A   1      42.108  20.708  26.487  1.00  0.00     0.039 A 
ATOM     29  C   UNL A   1      42.255  20.944  27.861  1.00  0.00     0.014 A 
ATOM     30  C   UNL A   1      42.493  21.665  25.554  1.00  0.00     0.014 A 
ATOM     31  C   UNL A   1      42.843  22.135  28.290  1.00  0.00     0.010 A 
ATOM     32  C   UNL A   1      43.185  22.780  25.971  1.00  0.00     0.010 A 
ATOM     33  C   UNL A   1      43.321  23.049  27.341  1.00  0.00    -0.014 A 
BRANCH  33  34
ATOM     34  C   UNL A   1      43.845  24.386  27.683  1.00  0.00     0.031 A 
ATOM     35  C   UNL A   1      42.858  25.410  28.169  1.00  0.00     0.074 A 
ATOM     36  C   UNL A   1      45.112  24.713  27.383  1.00  0.00     0.049 A 
ATOM     37  N   UNL A   1      42.958  26.712  28.211  1.00  0.00    -0.248 NA
ATOM     38  C   UNL A   1      41.541  24.892  28.584  1.00  0.00     0.031 C 
ATOM     39  C   UNL A   1      46.130  23.793  26.877  1.00  0.00     0.029 A 
ATOM     40  N   UNL A   1      45.742  25.926  27.421  1.00  0.00    -0.354 N 
ATOM     41  C   UNL A   1      41.703  27.164  28.600  1.00  0.00     0.074 A 
ATOM     42  C   UNL A   1      40.844  26.009  28.711  1.00  0.00     0.031 C 
ATOM     43  C   UNL A   1      47.265  24.478  26.654  1.00  0.00     0.029 A 
ATOM     44  C   UNL A   1      47.031  25.887  26.954  1.00  0.00     0.049 A 
ATOM     45  H   UNL A   1      45.312  26.749  27.752  1.00  0.00     0.167 HD
ATOM     46  C   UNL A   1      41.316  28.434  28.863  1.00  0.00     0.037 A 
ATOM     47  C   UNL A   1      47.909  26.891  26.776  1.00  0.00     0.037 A 
ATOM     48  C   UNL A   1      42.212  29.556  28.788  1.00  0.00     0.049 A 
ATOM     49  C   UNL A   1      47.470  28.294  27.108  1.00  0.00     0.074 A 
ATOM     50  C   UNL A   1      41.971  30.882  29.089  1.00  0.00     0.029 A 
ATOM     51  N   UNL A   1      43.541  29.467  28.391  1.00  0.00    -0.354 N 
ATOM     52  N   UNL A   1      46.296  28.720  27.513  1.00  0.00    -0.248 NA
ATOM     53  C   UNL A   1      48.478  29.350  26.966  1.00  0.00     0.031 C 
ATOM     54  C   UNL A   1      43.145  31.602  28.842  1.00  0.00     0.029 A 
ATOM     55  C   UNL A   1      44.132  30.716  28.437  1.00  0.00     0.049 A 
ATOM     56  H   UNL A   1      43.994  28.638  28.118  1.00  0.00     0.167 HD
ATOM     57  C   UNL A   1      46.434  30.088  27.712  1.00  0.00     0.074 A 
ATOM     58  C   UNL A   1      47.810  30.414  27.388  1.00  0.00     0.031 C 
ATOM     59  C   UNL A   1      45.513  30.994  28.126  1.00  0.00     0.037 A 
BRANCH  46  60
ATOM     60  C   UNL A   1      39.881  28.655  29.257  1.00  0.00     0.064 A 
ATOM     61  C   UNL A   1      38.919  29.096  28.332  1.00  0.00     0.173 A 
ATOM     62  C   UNL A   1      39.462  28.442  30.578  1.00  0.00     0.173 A 
ATOM     63  F   UNL A   1      39.266  29.331  27.057  1.00  0.00    -0.203 F 
ATOM     64  C   UNL A   1      37.610  29.362  28.725  1.00  0.00     0.198 A 
ATOM     65  C   UNL A   1      38.140  28.669  30.959  1.00  0.00     0.198 A 
ATOM     66  F   UNL A   1      40.332  28.017  31.506  1.00  0.00    -0.203 F 
ATOM     67  F   UNL A   1      36.735  29.857  27.839  1.00  0.00    -0.200 F 
ATOM     68  C   UNL A   1      37.220  29.142  30.036  1.00  0.00     0.200 A 
ATOM     69  F   UNL A   1      37.761  28.443  32.224  1.00  0.00    -0.200 F 
ATOM     70  F   UNL A   1      35.960  29.400  30.414  1.00  0.00    -0.200 F 
ENDBRANCH  46  60
BRANCH  47  71
ATOM     71  C   UNL A   1      49.291  26.597  26.321  1.00  0.00     0.064 A 
ATOM     72  C   UNL A   1      49.647  26.779  24.976  1.00  0.00     0.173 A 
ATOM     73  C   UNL A   1      50.289  26.161  27.204  1.00  0.00     0.173 A 
ATOM     74  F   UNL A   1      48.725  27.183  24.090  1.00  0.00    -0.203 F 
ATOM     75  C   UNL A   1      50.941  26.519  24.529  1.00  0.00     0.198 A 
ATOM     76  C   UNL A   1      51.591  25.927  26.762  1.00  0.00     0.198 A 
ATOM     77  F   UNL A   1      50.007  25.983  28.503  1.00  0.00    -0.203 F 
ATOM     78  F   UNL A   1      51.241  26.667  23.232  1.00  0.00    -0.200 F 
ATOM     79  C   UNL A   1      51.914  26.100  25.424  1.00  0.00     0.200 A 
ATOM     80  F   UNL A   1      52.533  25.540  27.631  1.00  0.00    -0.200 F 
ATOM     81  F   UNL A   1      53.160  25.859  24.995  1.00  0.00    -0.200 F 
ENDBRANCH  47  71
BRANCH  59  82
ATOM     82  C   UNL A   1      45.983  32.407  28.309  1.00  0.00     0.064 A 
ATOM     83  C   UNL A   1      46.536  32.851  29.518  1.00  0.00     0.173 A 
ATOM     84  C   UNL A   1      45.916  33.313  27.241  1.00  0.00     0.173 A 
ATOM     85  F   UNL A   1      46.607  32.024  30.573  1.00  0.00    -0.203 F 
ATOM     86  C   UNL A   1      46.979  34.162  29.659  1.00  0.00     0.198 A 
ATOM     87  C   UNL A   1      46.392  34.612  27.375  1.00  0.00     0.198 A 
ATOM     88  F   UNL A   1      45.404  32.932  26.060  1.00  0.00    -0.203 F 
ATOM     89  F   UNL A   1      47.456  34.582  30.839  1.00  0.00    -0.200 F 
ATOM     90  C   UNL A   1      46.914  35.039  28.586  1.00  0.00     0.200 A 
ATOM     91  F   UNL A   1      46.343  35.453  26.332  1.00  0.00    -0.200 F 
ATOM     92  F   UNL A   1      47.351  36.299  28.721  1.00  0.00    -0.200 F 
ENDBRANCH  59  82
ENDBRANCH  33  34
ENDBRANCH  25  28
ENDBRANCH  23  24
ENDBRANCH  22  23
ENDBRANCH   1  22
TORSDOF 13
ENDMDL
