MODEL 1
REMARK VINA RESULT:     -13.2      0.000      0.000
REMARK SMILES O=C(NCCCNC(=O)[C@@H]1CN(c2nc(-c3ccccc3)no2)CC[NH2+]1)c1ccc(-c2c3nc(c(-c4c(F)c(F)c(F)c(F)c4F)c4ccc([nH]4)c(-c4c(F)c(F)c(F)c(F)c4F)c4nc(c(-c5c(F)c(F)c(F)c(F)c5F)c5ccc2[nH]5)C=C4)C=C3)cc1
REMARK SMILES IDX 5 1 4 2 3 3 1 4 2 5 27 7 28 8 89 9 29 10 88 11 30 12 31 13
REMARK SMILES IDX 32 14 82 15 33 16 87 17 81 18 83 19 34 20 86 21 80 22 79 23
REMARK SMILES IDX 35 25 67 26 47 27 66 28 48 29 51 30 65 31 84 32 49 33 50 34
REMARK SMILES IDX 64 36 85 37 52 38 36 39 37 40 45 41 38 42 39 43 43 44 46 45
REMARK SMILES IDX 40 46 41 47 44 48 42 49 68 50 69 51 77 52 70 53 71 54 75 55
REMARK SMILES IDX 78 56 72 57 73 58 76 59 74 60 53 61 54 62 62 63 55 64 56 65
REMARK SMILES IDX 60 66 63 67 57 68 58 69 61 70 59 71 6 72 7 73 8 74 9 76
REMARK SMILES IDX 10 77 11 78 26 79 12 80 25 81 24 84 13 85 14 86 23 87 15 88
REMARK SMILES IDX 22 89 16 90 17 91 21 92 18 93 20 94 19 95
REMARK H PARENT 3 6 83 24 51 35 7 75 26 82 26 83
REMARK Flexibility Score: inf
ROOT
ATOM      1  C   UNL A   1      38.162  19.592  25.001  1.00  0.00     0.042 C 
ENDROOT
BRANCH   1   2
ATOM      2  C   UNL A   1      39.261  20.150  25.900  1.00  0.00     0.118 C 
BRANCH   2   3
ATOM      3  N   UNL A   1      40.348  19.192  26.064  1.00  0.00    -0.352 N 
ATOM      4  O   UNL A   1      42.463  18.448  25.940  1.00  0.00    -0.269 OA
ATOM      5  C   UNL A   1      41.703  19.393  26.119  1.00  0.00     0.251 C 
ATOM      6  H   UNL A   1      40.064  18.254  26.148  1.00  0.00     0.163 HD
BRANCH   5   7
ATOM      7  C   UNL A   1      42.252  20.733  26.410  1.00  0.00     0.039 A 
ATOM      8  C   UNL A   1      42.533  21.629  25.375  1.00  0.00     0.014 A 
ATOM      9  C   UNL A   1      42.396  21.132  27.743  1.00  0.00     0.014 A 
ATOM     10  C   UNL A   1      43.059  22.882  25.665  1.00  0.00     0.010 A 
ATOM     11  C   UNL A   1      42.846  22.420  28.035  1.00  0.00     0.010 A 
ATOM     12  C   UNL A   1      43.190  23.299  26.997  1.00  0.00    -0.014 A 
BRANCH  12  13
ATOM     13  C   UNL A   1      43.608  24.689  27.292  1.00  0.00     0.031 A 
ATOM     14  C   UNL A   1      42.628  25.688  27.824  1.00  0.00     0.074 A 
ATOM     15  C   UNL A   1      44.883  25.046  27.044  1.00  0.00     0.049 A 
ATOM     16  N   UNL A   1      42.799  26.962  28.071  1.00  0.00    -0.248 NA
ATOM     17  C   UNL A   1      41.271  25.196  28.104  1.00  0.00     0.031 C 
ATOM     18  C   UNL A   1      45.915  24.154  26.510  1.00  0.00     0.029 A 
ATOM     19  N   UNL A   1      45.526  26.246  27.197  1.00  0.00    -0.354 N 
ATOM     20  C   UNL A   1      41.569  27.430  28.511  1.00  0.00     0.074 A 
ATOM     21  C   UNL A   1      40.653  26.309  28.477  1.00  0.00     0.031 C 
ATOM     22  C   UNL A   1      47.063  24.833  26.391  1.00  0.00     0.029 A 
ATOM     23  C   UNL A   1      46.833  26.220  26.780  1.00  0.00     0.049 A 
ATOM     24  H   UNL A   1      45.093  27.048  27.569  1.00  0.00     0.167 HD
ATOM     25  C   UNL A   1      41.241  28.683  28.907  1.00  0.00     0.037 A 
ATOM     26  C   UNL A   1      47.738  27.211  26.684  1.00  0.00     0.037 A 
ATOM     27  C   UNL A   1      42.169  29.784  28.946  1.00  0.00     0.049 A 
ATOM     28  C   UNL A   1      47.348  28.594  27.111  1.00  0.00     0.074 A 
ATOM     29  C   UNL A   1      41.954  31.079  29.385  1.00  0.00     0.029 A 
ATOM     30  N   UNL A   1      43.489  29.720  28.519  1.00  0.00    -0.354 N 
ATOM     31  N   UNL A   1      46.195  29.019  27.569  1.00  0.00    -0.248 NA
ATOM     32  C   UNL A   1      48.376  29.637  27.008  1.00  0.00     0.031 C 
ATOM     33  C   UNL A   1      43.128  31.811  29.175  1.00  0.00     0.029 A 
ATOM     34  C   UNL A   1      44.092  30.961  28.654  1.00  0.00     0.049 A 
ATOM     35  H   UNL A   1      43.931  28.912  28.171  1.00  0.00     0.167 HD
ATOM     36  C   UNL A   1      46.360  30.372  27.824  1.00  0.00     0.074 A 
ATOM     37  C   UNL A   1      47.730  30.696  27.479  1.00  0.00     0.031 C 
ATOM     38  C   UNL A   1      45.458  31.262  28.305  1.00  0.00     0.037 A 
BRANCH  25  39
ATOM     39  C   UNL A   1      39.814  28.935  29.298  1.00  0.00     0.064 A 
ATOM     40  C   UNL A   1      39.368  28.781  30.620  1.00  0.00     0.173 A 
ATOM     41  C   UNL A   1      38.879  29.349  28.336  1.00  0.00     0.173 A 
ATOM     42  F   UNL A   1      40.217  28.377  31.576  1.00  0.00    -0.203 F 
ATOM     43  C   UNL A   1      38.034  28.999  30.955  1.00  0.00     0.198 A 
ATOM     44  C   UNL A   1      37.553  29.594  28.680  1.00  0.00     0.198 A 
ATOM     45  F   UNL A   1      39.254  29.516  27.059  1.00  0.00    -0.203 F 
ATOM     46  F   UNL A   1      37.619  28.792  32.213  1.00  0.00    -0.200 F 
ATOM     47  C   UNL A   1      37.128  29.409  29.988  1.00  0.00     0.200 A 
ATOM     48  F   UNL A   1      36.682  29.999  27.746  1.00  0.00    -0.200 F 
ATOM     49  F   UNL A   1      35.845  29.615  30.312  1.00  0.00    -0.200 F 
ENDBRANCH  25  39
BRANCH  26  50
ATOM     50  C   UNL A   1      49.087  26.906  26.144  1.00  0.00     0.064 A 
ATOM     51  C   UNL A   1      50.088  26.366  26.960  1.00  0.00     0.173 A 
ATOM     52  C   UNL A   1      49.375  27.082  24.782  1.00  0.00     0.173 A 
ATOM     53  F   UNL A   1      49.862  26.192  28.271  1.00  0.00    -0.203 F 
ATOM     54  C   UNL A   1      51.328  26.009  26.434  1.00  0.00     0.198 A 
ATOM     55  C   UNL A   1      50.605  26.701  24.252  1.00  0.00     0.198 A 
ATOM     56  F   UNL A   1      48.444  27.586  23.958  1.00  0.00    -0.203 F 
ATOM     57  F   UNL A   1      52.275  25.509  27.238  1.00  0.00    -0.200 F 
ATOM     58  C   UNL A   1      51.581  26.167  25.079  1.00  0.00     0.200 A 
ATOM     59  F   UNL A   1      50.837  26.836  22.940  1.00  0.00    -0.200 F 
ATOM     60  F   UNL A   1      52.765  25.802  24.569  1.00  0.00    -0.200 F 
ENDBRANCH  26  50
BRANCH  38  61
ATOM     61  C   UNL A   1      45.927  32.671  28.509  1.00  0.00     0.064 A 
ATOM     62  C   UNL A   1      46.556  33.069  29.696  1.00  0.00     0.173 A 
ATOM     63  C   UNL A   1      45.802  33.614  27.478  1.00  0.00     0.173 A 
ATOM     64  F   UNL A   1      46.682  32.207  30.717  1.00  0.00    -0.203 F 
ATOM     65  C   UNL A   1      47.039  34.366  29.848  1.00  0.00     0.198 A 
ATOM     66  C   UNL A   1      46.309  34.902  27.624  1.00  0.00     0.198 A 
ATOM     67  F   UNL A   1      45.210  33.278  26.323  1.00  0.00    -0.203 F 
ATOM     68  F   UNL A   1      47.612  34.736  31.000  1.00  0.00    -0.200 F 
ATOM     69  C   UNL A   1      46.924  35.277  28.808  1.00  0.00     0.200 A 
ATOM     70  F   UNL A   1      46.207  35.778  26.614  1.00  0.00    -0.200 F 
ATOM     71  F   UNL A   1      47.403  36.521  28.949  1.00  0.00    -0.200 F 
ENDBRANCH  38  61
ENDBRANCH  12  13
ENDBRANCH   5   7
ENDBRANCH   2   3
ENDBRANCH   1   2
BRANCH   1  72
ATOM     72  C   UNL A   1      37.401  20.696  24.276  1.00  0.00     0.118 C 
BRANCH  72  73
ATOM     73  N   UNL A   1      37.541  21.978  24.953  1.00  0.00    -0.351 N 
ATOM     74  C   UNL A   1      36.725  22.819  25.641  1.00  0.00     0.280 C 
ATOM     75  H   UNL A   1      38.461  22.323  24.899  1.00  0.00     0.163 HD
ATOM     76  O   UNL A   1      37.287  23.858  26.022  1.00  0.00    -0.268 OA
BRANCH  74  77
ATOM     77  C   UNL A   1      35.226  22.578  25.977  1.00  0.00     0.292 C 
ATOM     78  C   UNL A   1      34.451  23.805  26.451  1.00  0.00     0.197 C 
ATOM     79  N   UNL A   1      35.117  21.442  26.950  1.00  0.00    -0.333 N 
ATOM     80  N   UNL A   1      33.094  23.500  26.882  1.00  0.00    -0.312 N 
ATOM     81  C   UNL A   1      33.694  21.160  27.238  1.00  0.00     0.283 C 
ATOM     82  H   UNL A   1      35.594  21.691  27.817  1.00  0.00     0.347 HD
ATOM     83  H   UNL A   1      35.547  20.611  26.546  1.00  0.00     0.347 HD
ATOM     84  C   UNL A   1      32.903  22.378  27.780  1.00  0.00     0.183 C 
BRANCH  80  85
ATOM     85  C   UNL A   1      32.114  24.337  26.502  1.00  0.00     0.324 A 
ATOM     86  N   UNL A   1      32.245  25.420  25.781  1.00  0.00    -0.171 NA
ATOM     87  O   UNL A   1      30.842  24.153  26.965  1.00  0.00    -0.315 OA
ATOM     88  C   UNL A   1      30.977  25.931  25.766  1.00  0.00     0.204 A 
ATOM     89  N   UNL A   1      30.089  25.245  26.500  1.00  0.00    -0.055 NA
BRANCH  88  90
ATOM     90  C   UNL A   1      30.658  27.068  24.930  1.00  0.00     0.023 A 
ATOM     91  C   UNL A   1      31.375  28.266  25.022  1.00  0.00     0.012 A 
ATOM     92  C   UNL A   1      29.644  26.938  23.972  1.00  0.00     0.012 A 
ATOM     93  C   UNL A   1      31.070  29.325  24.163  1.00  0.00     0.001 A 
ATOM     94  C   UNL A   1      29.333  28.001  23.126  1.00  0.00     0.001 A 
ATOM     95  C   UNL A   1      30.047  29.193  23.222  1.00  0.00     0.000 A 
ENDBRANCH  88  90
ENDBRANCH  80  85
ENDBRANCH  74  77
ENDBRANCH  72  73
ENDBRANCH   1  72
TORSDOF 12
ENDMDL
MODEL 2
REMARK VINA RESULT:     -13.1      0.109      1.676
REMARK SMILES O=C(NCCCNC(=O)[C@@H]1CN(c2nc(-c3ccccc3)no2)CC[NH2+]1)c1ccc(-c2c3nc(c(-c4c(F)c(F)c(F)c(F)c4F)c4ccc([nH]4)c(-c4c(F)c(F)c(F)c(F)c4F)c4nc(c(-c5c(F)c(F)c(F)c(F)c5F)c5ccc2[nH]5)C=C4)C=C3)cc1
REMARK SMILES IDX 5 1 4 2 3 3 1 4 2 5 27 7 28 8 89 9 29 10 88 11 30 12 31 13
REMARK SMILES IDX 32 14 82 15 33 16 87 17 81 18 83 19 34 20 86 21 80 22 79 23
REMARK SMILES IDX 35 25 67 26 47 27 66 28 48 29 51 30 65 31 84 32 49 33 50 34
REMARK SMILES IDX 64 36 85 37 52 38 36 39 37 40 45 41 38 42 39 43 43 44 46 45
REMARK SMILES IDX 40 46 41 47 44 48 42 49 68 50 69 51 77 52 70 53 71 54 75 55
REMARK SMILES IDX 78 56 72 57 73 58 76 59 74 60 53 61 54 62 62 63 55 64 56 65
REMARK SMILES IDX 60 66 63 67 57 68 58 69 61 70 59 71 6 72 7 73 8 74 9 76
REMARK SMILES IDX 10 77 11 78 26 79 12 80 25 81 24 84 13 85 14 86 23 87 15 88
REMARK SMILES IDX 22 89 16 90 17 91 21 92 18 93 20 94 19 95
REMARK H PARENT 3 6 83 24 51 35 7 75 26 82 26 83
REMARK Flexibility Score: inf
ROOT
ATOM      1  C   UNL A   1      38.136  19.578  25.001  1.00  0.00     0.042 C 
ENDROOT
BRANCH   1   2
ATOM      2  C   UNL A   1      39.233  20.122  25.911  1.00  0.00     0.118 C 
BRANCH   2   3
ATOM      3  N   UNL A   1      40.315  19.158  26.070  1.00  0.00    -0.352 N 
ATOM      4  O   UNL A   1      42.425  18.401  25.939  1.00  0.00    -0.269 OA
ATOM      5  C   UNL A   1      41.671  19.351  26.121  1.00  0.00     0.251 C 
ATOM      6  H   UNL A   1      40.026  18.221  26.154  1.00  0.00     0.163 HD
BRANCH   5   7
ATOM      7  C   UNL A   1      42.229  20.687  26.412  1.00  0.00     0.039 A 
ATOM      8  C   UNL A   1      42.546  21.569  25.376  1.00  0.00     0.014 A 
ATOM      9  C   UNL A   1      42.345  21.098  27.744  1.00  0.00     0.014 A 
ATOM     10  C   UNL A   1      43.080  22.819  25.666  1.00  0.00     0.010 A 
ATOM     11  C   UNL A   1      42.803  22.384  28.035  1.00  0.00     0.010 A 
ATOM     12  C   UNL A   1      43.184  23.248  26.997  1.00  0.00    -0.014 A 
BRANCH  12  13
ATOM     13  C   UNL A   1      43.611  24.636  27.288  1.00  0.00     0.031 A 
ATOM     14  C   UNL A   1      42.634  25.646  27.805  1.00  0.00     0.074 A 
ATOM     15  C   UNL A   1      44.891  24.980  27.050  1.00  0.00     0.049 A 
ATOM     16  N   UNL A   1      42.814  26.920  28.047  1.00  0.00    -0.248 NA
ATOM     17  C   UNL A   1      41.270  25.168  28.074  1.00  0.00     0.031 C 
ATOM     18  C   UNL A   1      45.920  24.076  26.531  1.00  0.00     0.029 A 
ATOM     19  N   UNL A   1      45.543  26.176  27.202  1.00  0.00    -0.354 N 
ATOM     20  C   UNL A   1      41.584  27.401  28.472  1.00  0.00     0.074 A 
ATOM     21  C   UNL A   1      40.659  26.288  28.435  1.00  0.00     0.031 C 
ATOM     22  C   UNL A   1      47.075  24.745  26.420  1.00  0.00     0.029 A 
ATOM     23  C   UNL A   1      46.854  26.136  26.798  1.00  0.00     0.049 A 
ATOM     24  H   UNL A   1      45.113  26.983  27.566  1.00  0.00     0.167 HD
ATOM     25  C   UNL A   1      41.263  28.659  28.858  1.00  0.00     0.037 A 
ATOM     26  C   UNL A   1      47.768  27.118  26.706  1.00  0.00     0.037 A 
ATOM     27  C   UNL A   1      42.201  29.752  28.900  1.00  0.00     0.049 A 
ATOM     28  C   UNL A   1      47.386  28.507  27.121  1.00  0.00     0.074 A 
ATOM     29  C   UNL A   1      41.993  31.051  29.329  1.00  0.00     0.029 A 
ATOM     30  N   UNL A   1      43.524  29.675  28.486  1.00  0.00    -0.354 N 
ATOM     31  N   UNL A   1      46.233  28.944  27.565  1.00  0.00    -0.248 NA
ATOM     32  C   UNL A   1      48.425  29.541  27.022  1.00  0.00     0.031 C 
ATOM     33  C   UNL A   1      43.175  31.772  29.126  1.00  0.00     0.029 A 
ATOM     34  C   UNL A   1      44.136  30.911  28.620  1.00  0.00     0.049 A 
ATOM     35  H   UNL A   1      43.962  28.861  28.146  1.00  0.00     0.167 HD
ATOM     36  C   UNL A   1      46.407  30.297  27.815  1.00  0.00     0.074 A 
ATOM     37  C   UNL A   1      47.784  30.608  27.481  1.00  0.00     0.031 C 
ATOM     38  C   UNL A   1      45.508  31.198  28.281  1.00  0.00     0.037 A 
BRANCH  25  39
ATOM     39  C   UNL A   1      39.835  28.925  29.234  1.00  0.00     0.064 A 
ATOM     40  C   UNL A   1      38.885  29.347  28.291  1.00  0.00     0.173 A 
ATOM     41  C   UNL A   1      39.406  28.743  30.558  1.00  0.00     0.173 A 
ATOM     42  F   UNL A   1      39.245  29.548  27.015  1.00  0.00    -0.203 F 
ATOM     43  C   UNL A   1      37.570  29.609  28.667  1.00  0.00     0.198 A 
ATOM     44  C   UNL A   1      38.084  28.978  30.924  1.00  0.00     0.198 A 
ATOM     45  F   UNL A   1      40.271  28.336  31.499  1.00  0.00    -0.203 F 
ATOM     46  F   UNL A   1      36.694  30.064  27.759  1.00  0.00    -0.200 F 
ATOM     47  C   UNL A   1      37.169  29.421  29.981  1.00  0.00     0.200 A 
ATOM     48  F   UNL A   1      37.696  28.786  32.193  1.00  0.00    -0.200 F 
ATOM     49  F   UNL A   1      35.904  29.676  30.341  1.00  0.00    -0.200 F 
ENDBRANCH  25  39
BRANCH  26  50
ATOM     50  C   UNL A   1      49.119  26.798  26.180  1.00  0.00     0.064 A 
ATOM     51  C   UNL A   1      49.433  26.983  24.829  1.00  0.00     0.173 A 
ATOM     52  C   UNL A   1      50.144  26.372  27.039  1.00  0.00     0.173 A 
ATOM     53  F   UNL A   1      48.482  27.376  23.969  1.00  0.00    -0.203 F 
ATOM     54  C   UNL A   1      50.723  26.755  24.354  1.00  0.00     0.198 A 
ATOM     55  C   UNL A   1      51.439  26.170  26.569  1.00  0.00     0.198 A 
ATOM     56  F   UNL A   1      49.895  26.192  28.345  1.00  0.00    -0.203 F 
ATOM     57  F   UNL A   1      50.994  26.922  23.052  1.00  0.00    -0.200 F 
ATOM     58  C   UNL A   1      51.727  26.360  25.225  1.00  0.00     0.200 A 
ATOM     59  F   UNL A   1      52.410  25.809  27.418  1.00  0.00    -0.200 F 
ATOM     60  F   UNL A   1      52.972  26.164  24.772  1.00  0.00    -0.200 F 
ENDBRANCH  26  50
BRANCH  38  61
ATOM     61  C   UNL A   1      45.988  32.604  28.483  1.00  0.00     0.064 A 
ATOM     62  C   UNL A   1      46.594  33.007  29.680  1.00  0.00     0.173 A 
ATOM     63  C   UNL A   1      45.896  33.538  27.440  1.00  0.00     0.173 A 
ATOM     64  F   UNL A   1      46.688  32.154  30.711  1.00  0.00    -0.203 F 
ATOM     65  C   UNL A   1      47.088  34.301  29.829  1.00  0.00     0.198 A 
ATOM     66  C   UNL A   1      46.413  34.822  27.584  1.00  0.00     0.198 A 
ATOM     67  F   UNL A   1      45.326  33.197  26.276  1.00  0.00    -0.203 F 
ATOM     68  F   UNL A   1      47.639  34.676  30.991  1.00  0.00    -0.200 F 
ATOM     69  C   UNL A   1      47.005  35.202  28.778  1.00  0.00     0.200 A 
ATOM     70  F   UNL A   1      46.342  35.689  26.564  1.00  0.00    -0.200 F 
ATOM     71  F   UNL A   1      47.494  36.442  28.918  1.00  0.00    -0.200 F 
ENDBRANCH  38  61
ENDBRANCH  12  13
ENDBRANCH   5   7
ENDBRANCH   2   3
ENDBRANCH   1   2
BRANCH   1  72
ATOM     72  C   UNL A   1      37.399  20.693  24.266  1.00  0.00     0.118 C 
BRANCH  72  73
ATOM     73  N   UNL A   1      37.542  21.972  24.948  1.00  0.00    -0.351 N 
ATOM     74  C   UNL A   1      36.730  22.812  25.640  1.00  0.00     0.280 C 
ATOM     75  H   UNL A   1      38.463  22.315  24.894  1.00  0.00     0.163 HD
ATOM     76  O   UNL A   1      37.294  23.848  26.024  1.00  0.00    -0.268 OA
BRANCH  74  77
ATOM     77  C   UNL A   1      35.230  22.573  25.978  1.00  0.00     0.292 C 
ATOM     78  C   UNL A   1      34.455  23.803  26.441  1.00  0.00     0.197 C 
ATOM     79  N   UNL A   1      35.121  21.445  26.959  1.00  0.00    -0.333 N 
ATOM     80  N   UNL A   1      33.098  23.501  26.874  1.00  0.00    -0.312 N 
ATOM     81  C   UNL A   1      33.699  21.165  27.249  1.00  0.00     0.283 C 
ATOM     82  H   UNL A   1      35.598  21.701  27.824  1.00  0.00     0.347 HD
ATOM     83  H   UNL A   1      35.552  20.610  26.562  1.00  0.00     0.347 HD
ATOM     84  C   UNL A   1      32.907  22.387  27.780  1.00  0.00     0.183 C 
BRANCH  80  85
ATOM     85  C   UNL A   1      32.118  24.336  26.488  1.00  0.00     0.324 A 
ATOM     86  N   UNL A   1      32.242  25.390  25.724  1.00  0.00    -0.171 NA
ATOM     87  O   UNL A   1      30.855  24.183  26.987  1.00  0.00    -0.315 OA
ATOM     88  C   UNL A   1      30.980  25.914  25.720  1.00  0.00     0.204 A 
ATOM     89  N   UNL A   1      30.103  25.266  26.501  1.00  0.00    -0.055 NA
BRANCH  88  90
ATOM     90  C   UNL A   1      30.653  27.024  24.851  1.00  0.00     0.023 A 
ATOM     91  C   UNL A   1      29.620  26.937  23.912  1.00  0.00     0.012 A 
ATOM     92  C   UNL A   1      31.356  28.227  25.001  1.00  0.00     0.012 A 
ATOM     93  C   UNL A   1      29.301  28.048  23.126  1.00  0.00     0.001 A 
ATOM     94  C   UNL A   1      31.045  29.328  24.205  1.00  0.00     0.001 A 
ATOM     95  C   UNL A   1      30.018  29.238  23.269  1.00  0.00     0.000 A 
ENDBRANCH  88  90
ENDBRANCH  80  85
ENDBRANCH  74  77
ENDBRANCH  72  73
ENDBRANCH   1  72
TORSDOF 12
ENDMDL
MODEL 3
REMARK VINA RESULT:     -13.1      5.235      9.917
REMARK SMILES O=C(NCCCNC(=O)[C@@H]1CN(c2nc(-c3ccccc3)no2)CC[NH2+]1)c1ccc(-c2c3nc(c(-c4c(F)c(F)c(F)c(F)c4F)c4ccc([nH]4)c(-c4c(F)c(F)c(F)c(F)c4F)c4nc(c(-c5c(F)c(F)c(F)c(F)c5F)c5ccc2[nH]5)C=C4)C=C3)cc1
REMARK SMILES IDX 5 1 4 2 3 3 1 4 2 5 27 7 28 8 89 9 29 10 88 11 30 12 31 13
REMARK SMILES IDX 32 14 82 15 33 16 87 17 81 18 83 19 34 20 86 21 80 22 79 23
REMARK SMILES IDX 35 25 67 26 47 27 66 28 48 29 51 30 65 31 84 32 49 33 50 34
REMARK SMILES IDX 64 36 85 37 52 38 36 39 37 40 45 41 38 42 39 43 43 44 46 45
REMARK SMILES IDX 40 46 41 47 44 48 42 49 68 50 69 51 77 52 70 53 71 54 75 55
REMARK SMILES IDX 78 56 72 57 73 58 76 59 74 60 53 61 54 62 62 63 55 64 56 65
REMARK SMILES IDX 60 66 63 67 57 68 58 69 61 70 59 71 6 72 7 73 8 74 9 76
REMARK SMILES IDX 10 77 11 78 26 79 12 80 25 81 24 84 13 85 14 86 23 87 15 88
REMARK SMILES IDX 22 89 16 90 17 91 21 92 18 93 20 94 19 95
REMARK H PARENT 3 6 83 24 51 35 7 75 26 82 26 83
REMARK Flexibility Score: inf
ROOT
ATOM      1  C   UNL A   1      35.001  33.139  27.654  1.00  0.00     0.042 C 
ENDROOT
BRANCH   1   2
ATOM      2  C   UNL A   1      34.400  32.335  28.801  1.00  0.00     0.118 C 
BRANCH   2   3
ATOM      3  N   UNL A   1      33.890  31.050  28.337  1.00  0.00    -0.352 N 
ATOM      4  O   UNL A   1      33.975  29.067  27.287  1.00  0.00    -0.269 OA
ATOM      5  C   UNL A   1      34.562  29.923  27.939  1.00  0.00     0.251 C 
ATOM      6  H   UNL A   1      32.909  30.982  28.304  1.00  0.00     0.163 HD
BRANCH   5   7
ATOM      7  C   UNL A   1      35.978  29.726  28.305  1.00  0.00     0.039 A 
ATOM      8  C   UNL A   1      36.330  29.254  29.573  1.00  0.00     0.014 A 
ATOM      9  C   UNL A   1      36.964  29.925  27.332  1.00  0.00     0.014 A 
ATOM     10  C   UNL A   1      37.668  29.084  29.905  1.00  0.00     0.010 A 
ATOM     11  C   UNL A   1      38.302  29.673  27.641  1.00  0.00     0.010 A 
ATOM     12  C   UNL A   1      38.662  29.262  28.933  1.00  0.00    -0.014 A 
BRANCH  12  13
ATOM     13  C   UNL A   1      40.070  28.932  29.255  1.00  0.00     0.031 A 
ATOM     14  C   UNL A   1      40.933  29.900  30.004  1.00  0.00     0.074 A 
ATOM     15  C   UNL A   1      40.568  27.754  28.835  1.00  0.00     0.049 A 
ATOM     16  N   UNL A   1      42.202  29.809  30.311  1.00  0.00    -0.248 NA
ATOM     17  C   UNL A   1      40.290  31.142  30.459  1.00  0.00     0.031 C 
ATOM     18  C   UNL A   1      39.817  26.745  28.084  1.00  0.00     0.029 A 
ATOM     19  N   UNL A   1      41.818  27.207  28.969  1.00  0.00    -0.354 N 
ATOM     20  C   UNL A   1      42.516  30.988  30.971  1.00  0.00     0.074 A 
ATOM     21  C   UNL A   1      41.311  31.790  31.003  1.00  0.00     0.031 C 
ATOM     22  C   UNL A   1      40.616  25.699  27.834  1.00  0.00     0.029 A 
ATOM     23  C   UNL A   1      41.949  25.989  28.351  1.00  0.00     0.049 A 
ATOM     24  H   UNL A   1      42.549  27.646  29.461  1.00  0.00     0.167 HD
ATOM     25  C   UNL A   1      43.706  31.360  31.502  1.00  0.00     0.037 A 
ATOM     26  C   UNL A   1      43.030  25.207  28.184  1.00  0.00     0.037 A 
ATOM     27  C   UNL A   1      44.892  30.544  31.472  1.00  0.00     0.049 A 
ATOM     28  C   UNL A   1      44.341  25.648  28.764  1.00  0.00     0.074 A 
ATOM     29  C   UNL A   1      46.132  30.802  32.029  1.00  0.00     0.029 A 
ATOM     30  N   UNL A   1      44.988  29.312  30.838  1.00  0.00    -0.354 N 
ATOM     31  N   UNL A   1      44.620  26.744  29.426  1.00  0.00    -0.248 NA
ATOM     32  C   UNL A   1      45.488  24.751  28.574  1.00  0.00     0.031 C 
ATOM     33  C   UNL A   1      46.991  29.751  31.689  1.00  0.00     0.029 A 
ATOM     34  C   UNL A   1      46.274  28.811  30.964  1.00  0.00     0.049 A 
ATOM     35  H   UNL A   1      44.249  28.860  30.368  1.00  0.00     0.167 HD
ATOM     36  C   UNL A   1      45.966  26.665  29.747  1.00  0.00     0.074 A 
ATOM     37  C   UNL A   1      46.448  25.406  29.214  1.00  0.00     0.031 C 
ATOM     38  C   UNL A   1      46.732  27.555  30.426  1.00  0.00     0.037 A 
BRANCH  25  39
ATOM     39  C   UNL A   1      43.788  32.721  32.129  1.00  0.00     0.064 A 
ATOM     40  C   UNL A   1      43.497  32.932  33.485  1.00  0.00     0.173 A 
ATOM     41  C   UNL A   1      44.178  33.831  31.363  1.00  0.00     0.173 A 
ATOM     42  F   UNL A   1      43.109  31.908  34.260  1.00  0.00    -0.203 F 
ATOM     43  C   UNL A   1      43.559  34.208  34.041  1.00  0.00     0.198 A 
ATOM     44  C   UNL A   1      44.267  35.100  31.929  1.00  0.00     0.198 A 
ATOM     45  F   UNL A   1      44.473  33.685  30.063  1.00  0.00    -0.203 F 
ATOM     46  F   UNL A   1      43.223  34.393  35.326  1.00  0.00    -0.200 F 
ATOM     47  C   UNL A   1      43.947  35.290  33.265  1.00  0.00     0.200 A 
ATOM     48  F   UNL A   1      44.652  36.142  31.180  1.00  0.00    -0.200 F 
ATOM     49  F   UNL A   1      44.004  36.516  33.802  1.00  0.00    -0.200 F 
ENDBRANCH  25  39
BRANCH  26  50
ATOM     50  C   UNL A   1      42.895  23.943  27.418  1.00  0.00     0.064 A 
ATOM     51  C   UNL A   1      43.206  23.886  26.055  1.00  0.00     0.173 A 
ATOM     52  C   UNL A   1      42.523  22.750  28.057  1.00  0.00     0.173 A 
ATOM     53  F   UNL A   1      43.554  25.004  25.400  1.00  0.00    -0.203 F 
ATOM     54  C   UNL A   1      43.152  22.681  25.356  1.00  0.00     0.198 A 
ATOM     55  C   UNL A   1      42.495  21.542  27.364  1.00  0.00     0.198 A 
ATOM     56  F   UNL A   1      42.227  22.752  29.365  1.00  0.00    -0.203 F 
ATOM     57  F   UNL A   1      43.438  22.655  24.047  1.00  0.00    -0.200 F 
ATOM     58  C   UNL A   1      42.807  21.510  26.013  1.00  0.00     0.200 A 
ATOM     59  F   UNL A   1      42.181  20.410  28.008  1.00  0.00    -0.200 F 
ATOM     60  F   UNL A   1      42.778  20.348  25.346  1.00  0.00    -0.200 F 
ENDBRANCH  26  50
BRANCH  38  61
ATOM     61  C   UNL A   1      48.168  27.190  30.653  1.00  0.00     0.064 A 
ATOM     62  C   UNL A   1      48.555  26.368  31.719  1.00  0.00     0.173 A 
ATOM     63  C   UNL A   1      49.156  27.618  29.754  1.00  0.00     0.173 A 
ATOM     64  F   UNL A   1      47.648  25.949  32.615  1.00  0.00    -0.203 F 
ATOM     65  C   UNL A   1      49.886  25.990  31.882  1.00  0.00     0.198 A 
ATOM     66  C   UNL A   1      50.480  27.218  29.905  1.00  0.00     0.198 A 
ATOM     67  F   UNL A   1      48.832  28.404  28.717  1.00  0.00    -0.203 F 
ATOM     68  F   UNL A   1      50.242  25.226  32.923  1.00  0.00    -0.200 F 
ATOM     69  C   UNL A   1      50.844  26.407  30.969  1.00  0.00     0.200 A 
ATOM     70  F   UNL A   1      51.404  27.613  29.017  1.00  0.00    -0.200 F 
ATOM     71  F   UNL A   1      52.122  26.031  31.119  1.00  0.00    -0.200 F 
ENDBRANCH  38  61
ENDBRANCH  12  13
ENDBRANCH   5   7
ENDBRANCH   2   3
ENDBRANCH   1   2
BRANCH   1  72
ATOM     72  C   UNL A   1      35.197  34.606  28.025  1.00  0.00     0.118 C 
BRANCH  72  73
ATOM     73  N   UNL A   1      33.923  35.287  28.212  1.00  0.00    -0.351 N 
ATOM     74  C   UNL A   1      33.315  35.974  29.214  1.00  0.00     0.280 C 
ATOM     75  H   UNL A   1      33.359  35.236  27.407  1.00  0.00     0.163 HD
ATOM     76  O   UNL A   1      32.171  36.360  28.930  1.00  0.00    -0.268 OA
BRANCH  74  77
ATOM     77  C   UNL A   1      33.925  36.306  30.605  1.00  0.00     0.292 C 
ATOM     78  C   UNL A   1      33.892  35.173  31.627  1.00  0.00     0.197 C 
ATOM     79  N   UNL A   1      33.286  37.554  31.138  1.00  0.00    -0.333 N 
ATOM     80  N   UNL A   1      34.347  35.575  32.950  1.00  0.00    -0.312 N 
ATOM     81  C   UNL A   1      33.894  37.918  32.435  1.00  0.00     0.283 C 
ATOM     82  H   UNL A   1      32.287  37.394  31.266  1.00  0.00     0.347 HD
ATOM     83  H   UNL A   1      33.430  38.315  30.475  1.00  0.00     0.347 HD
ATOM     84  C   UNL A   1      33.815  36.802  33.508  1.00  0.00     0.183 C 
BRANCH  80  85
ATOM     85  C   UNL A   1      35.156  34.733  33.616  1.00  0.00     0.324 A 
ATOM     86  N   UNL A   1      35.960  33.842  33.094  1.00  0.00    -0.171 NA
ATOM     87  O   UNL A   1      35.112  34.679  34.981  1.00  0.00    -0.315 OA
ATOM     88  C   UNL A   1      36.471  33.212  34.194  1.00  0.00     0.204 A 
ATOM     89  N   UNL A   1      35.966  33.632  35.364  1.00  0.00    -0.055 NA
BRANCH  88  90
ATOM     90  C   UNL A   1      37.537  32.243  34.051  1.00  0.00     0.023 A 
ATOM     91  C   UNL A   1      38.814  32.482  34.567  1.00  0.00     0.012 A 
ATOM     92  C   UNL A   1      37.256  31.019  33.429  1.00  0.00     0.012 A 
ATOM     93  C   UNL A   1      39.803  31.500  34.453  1.00  0.00     0.001 A 
ATOM     94  C   UNL A   1      38.248  30.048  33.305  1.00  0.00     0.001 A 
ATOM     95  C   UNL A   1      39.521  30.290  33.817  1.00  0.00     0.000 A 
ENDBRANCH  88  90
ENDBRANCH  80  85
ENDBRANCH  74  77
ENDBRANCH  72  73
ENDBRANCH   1  72
TORSDOF 12
ENDMDL
