MODEL 1
REMARK VINA RESULT:     -12.3      0.000      0.000
REMARK SMILES CC(C)[C@H](NC(=O)Cn1ccc2c(Br)cccc21)C(=O)NCCCNC(=O)c1ccc(-c2c3nc(c(-c4c(F)c(F)c(F)c(F)c4F)c4ccc([nH]4)c(-c4c(F)c(F)c(F)c(F)c4F)c4nc(c(-c5c(F)c(F)c(F)c(F)c5F)c5ccc2[nH]5)C=C4)C=C3)cc1
REMARK SMILES IDX 22 1 21 2 19 3 20 4 4 6 2 7 1 8 3 9 5 10 6 11 7 13 8 14 9 15
REMARK SMILES IDX 10 16 18 17 11 18 12 19 17 20 13 21 16 22 14 23 15 24 23 25
REMARK SMILES IDX 24 26 25 27 26 28 27 30 28 31 29 32 90 33 30 34 89 35 31 36
REMARK SMILES IDX 32 37 33 38 83 39 34 40 88 41 82 42 84 43 35 44 87 45 81 46
REMARK SMILES IDX 80 47 36 49 68 50 48 51 67 52 49 53 52 54 66 55 85 56 50 57
REMARK SMILES IDX 51 58 65 60 86 61 53 62 37 63 38 64 46 65 39 66 40 67 44 68
REMARK SMILES IDX 47 69 41 70 42 71 45 72 43 73 69 74 70 75 78 76 71 77 72 78
REMARK SMILES IDX 76 79 79 80 73 81 74 82 77 83 75 84 54 85 55 86 63 87 56 88
REMARK SMILES IDX 57 89 61 90 64 91 58 92 59 93 62 94 60 95
REMARK H PARENT 21 5 5 12 25 29 84 48 52 59
REMARK Flexibility Score: inf
ROOT
ATOM      1  C   UNL A   1      33.868  29.819  27.660  1.00  0.00     0.117 C 
ENDROOT
BRANCH   1   2
ATOM      2  N   UNL A   1      32.726  28.914  27.648  1.00  0.00    -0.354 N 
ATOM      3  C   UNL A   1      32.319  27.907  26.831  1.00  0.00     0.242 C 
ATOM      4  O   UNL A   1      31.534  27.096  27.345  1.00  0.00    -0.273 OA
ATOM      5  H   UNL A   1      32.110  29.066  28.402  1.00  0.00     0.163 HD
BRANCH   3   6
ATOM      6  C   UNL A   1      32.816  27.632  25.394  1.00  0.00     0.173 C 
BRANCH   6   7
ATOM      7  C   UNL A   1      32.571  28.935  24.567  1.00  0.00     0.015 C 
ATOM      8  C   UNL A   1      33.427  29.033  23.304  1.00  0.00     0.010 C 
ATOM      9  C   UNL A   1      31.109  29.171  24.196  1.00  0.00     0.010 C 
ENDBRANCH   6   7
BRANCH   6  10
ATOM     10  N   UNL A   1      32.453  26.394  24.676  1.00  0.00    -0.343 N 
ATOM     11  C   UNL A   1      33.285  25.298  24.506  1.00  0.00     0.240 C 
ATOM     12  H   UNL A   1      31.551  26.342  24.289  1.00  0.00     0.164 HD
ATOM     13  O   UNL A   1      33.466  24.866  23.367  1.00  0.00    -0.273 OA
BRANCH  11  14
ATOM     14  C   UNL A   1      33.707  24.526  25.730  1.00  0.00     0.222 C 
BRANCH  14  15
ATOM     15  N   UNL A   1      34.411  23.265  25.565  1.00  0.00    -0.338 N 
ATOM     16  C   UNL A   1      33.880  22.187  24.904  1.00  0.00     0.087 A 
ATOM     17  C   UNL A   1      35.776  23.083  25.680  1.00  0.00     0.050 A 
ATOM     18  C   UNL A   1      34.836  21.214  24.799  1.00  0.00     0.029 A 
ATOM     19  C   UNL A   1      36.049  21.770  25.270  1.00  0.00     0.014 A 
ATOM     20  C   UNL A   1      36.801  23.953  26.087  1.00  0.00     0.027 A 
ATOM     21  C   UNL A   1      37.370  21.296  25.342  1.00  0.00     0.027 A 
ATOM     22  C   UNL A   1      38.114  23.471  26.081  1.00  0.00     0.003 A 
ATOM     23  Br  UNL A   1      37.764  19.503  24.905  1.00  0.00    -0.050 Br
ATOM     24  C   UNL A   1      38.397  22.155  25.729  1.00  0.00     0.016 A 
ENDBRANCH  14  15
ENDBRANCH  11  14
ENDBRANCH   6  10
ENDBRANCH   3   6
ENDBRANCH   1   2
BRANCH   1  25
ATOM     25  C   UNL A   1      33.604  31.311  27.470  1.00  0.00     0.042 C 
BRANCH  25  26
ATOM     26  C   UNL A   1      34.767  32.209  27.824  1.00  0.00     0.118 C 
BRANCH  26  27
ATOM     27  N   UNL A   1      34.730  32.592  29.222  1.00  0.00    -0.352 N 
ATOM     28  C   UNL A   1      35.382  31.992  30.274  1.00  0.00     0.251 C 
ATOM     29  H   UNL A   1      34.173  33.374  29.443  1.00  0.00     0.163 HD
ATOM     30  O   UNL A   1      34.965  32.137  31.411  1.00  0.00    -0.269 OA
BRANCH  28  31
ATOM     31  C   UNL A   1      36.621  31.225  30.022  1.00  0.00     0.039 A 
ATOM     32  C   UNL A   1      36.569  29.826  29.980  1.00  0.00     0.014 A 
ATOM     33  C   UNL A   1      37.850  31.890  29.951  1.00  0.00     0.014 A 
ATOM     34  C   UNL A   1      37.757  29.108  29.929  1.00  0.00     0.010 A 
ATOM     35  C   UNL A   1      39.013  31.191  29.778  1.00  0.00     0.010 A 
ATOM     36  C   UNL A   1      38.965  29.811  29.872  1.00  0.00    -0.014 A 
BRANCH  36  37
ATOM     37  C   UNL A   1      40.236  29.121  29.875  1.00  0.00     0.031 A 
ATOM     38  C   UNL A   1      40.825  28.958  31.221  1.00  0.00     0.074 A 
ATOM     39  C   UNL A   1      40.690  28.486  28.776  1.00  0.00     0.049 A 
ATOM     40  N   UNL A   1      41.896  29.514  31.679  1.00  0.00    -0.248 NA
ATOM     41  C   UNL A   1      40.051  28.219  32.231  1.00  0.00     0.031 C 
ATOM     42  C   UNL A   1      40.023  28.299  27.484  1.00  0.00     0.029 A 
ATOM     43  N   UNL A   1      41.836  27.774  28.627  1.00  0.00    -0.354 N 
ATOM     44  C   UNL A   1      42.044  29.030  32.973  1.00  0.00     0.074 A 
ATOM     45  C   UNL A   1      40.788  28.421  33.325  1.00  0.00     0.031 C 
ATOM     46  C   UNL A   1      40.674  27.353  26.772  1.00  0.00     0.029 A 
ATOM     47  C   UNL A   1      41.877  26.973  27.490  1.00  0.00     0.049 A 
ATOM     48  H   UNL A   1      42.579  27.819  29.272  1.00  0.00     0.167 HD
ATOM     49  C   UNL A   1      43.277  28.934  33.543  1.00  0.00     0.037 A 
ATOM     50  C   UNL A   1      42.811  26.025  27.226  1.00  0.00     0.037 A 
ATOM     51  C   UNL A   1      44.242  29.731  32.824  1.00  0.00     0.049 A 
ATOM     52  C   UNL A   1      43.997  26.350  28.069  1.00  0.00     0.074 A 
ATOM     53  C   UNL A   1      44.338  31.075  32.517  1.00  0.00     0.029 A 
ATOM     54  N   UNL A   1      45.085  29.091  31.947  1.00  0.00    -0.354 N 
ATOM     55  N   UNL A   1      44.720  27.429  27.909  1.00  0.00    -0.248 NA
ATOM     56  C   UNL A   1      44.060  25.748  29.393  1.00  0.00     0.031 C 
ATOM     57  C   UNL A   1      44.817  31.110  31.175  1.00  0.00     0.029 A 
ATOM     58  C   UNL A   1      45.066  29.798  30.772  1.00  0.00     0.049 A 
ATOM     59  H   UNL A   1      45.606  28.275  32.129  1.00  0.00     0.167 HD
ATOM     60  C   UNL A   1      44.990  27.872  29.197  1.00  0.00     0.074 A 
ATOM     61  C   UNL A   1      44.604  26.764  30.070  1.00  0.00     0.031 C 
ATOM     62  C   UNL A   1      45.207  29.194  29.465  1.00  0.00     0.037 A 
BRANCH  49  63
ATOM     63  C   UNL A   1      43.684  27.849  34.505  1.00  0.00     0.064 A 
ATOM     64  C   UNL A   1      43.619  26.505  34.085  1.00  0.00     0.173 A 
ATOM     65  C   UNL A   1      43.860  28.043  35.892  1.00  0.00     0.173 A 
ATOM     66  F   UNL A   1      43.429  26.202  32.792  1.00  0.00    -0.203 F 
ATOM     67  C   UNL A   1      43.653  25.446  34.995  1.00  0.00     0.198 A 
ATOM     68  C   UNL A   1      43.955  26.983  36.789  1.00  0.00     0.198 A 
ATOM     69  F   UNL A   1      43.835  29.256  36.456  1.00  0.00    -0.203 F 
ATOM     70  F   UNL A   1      43.459  24.193  34.562  1.00  0.00    -0.200 F 
ATOM     71  C   UNL A   1      43.818  25.685  36.346  1.00  0.00     0.200 A 
ATOM     72  F   UNL A   1      44.095  27.239  38.097  1.00  0.00    -0.200 F 
ATOM     73  F   UNL A   1      43.796  24.676  37.226  1.00  0.00    -0.200 F 
ENDBRANCH  49  63
BRANCH  50  74
ATOM     74  C   UNL A   1      42.592  24.690  26.607  1.00  0.00     0.064 A 
ATOM     75  C   UNL A   1      43.304  24.281  25.467  1.00  0.00     0.173 A 
ATOM     76  C   UNL A   1      41.864  23.683  27.272  1.00  0.00     0.173 A 
ATOM     77  F   UNL A   1      44.060  25.162  24.796  1.00  0.00    -0.203 F 
ATOM     78  C   UNL A   1      43.303  22.948  25.035  1.00  0.00     0.198 A 
ATOM     79  C   UNL A   1      41.858  22.355  26.839  1.00  0.00     0.198 A 
ATOM     80  F   UNL A   1      41.208  23.953  28.406  1.00  0.00    -0.203 F 
ATOM     81  F   UNL A   1      44.036  22.588  23.973  1.00  0.00    -0.200 F 
ATOM     82  C   UNL A   1      42.589  21.985  25.728  1.00  0.00     0.200 A 
ATOM     83  F   UNL A   1      41.184  21.427  27.530  1.00  0.00    -0.200 F 
ATOM     84  F   UNL A   1      42.631  20.699  25.349  1.00  0.00    -0.200 F 
ENDBRANCH  50  74
BRANCH  62  85
ATOM     85  C   UNL A   1      45.357  30.153  28.313  1.00  0.00     0.064 A 
ATOM     86  C   UNL A   1      44.289  30.883  27.761  1.00  0.00     0.173 A 
ATOM     87  C   UNL A   1      46.652  30.518  27.921  1.00  0.00     0.173 A 
ATOM     88  F   UNL A   1      43.029  30.658  28.148  1.00  0.00    -0.203 F 
ATOM     89  C   UNL A   1      44.510  31.922  26.858  1.00  0.00     0.198 A 
ATOM     90  C   UNL A   1      46.872  31.578  27.046  1.00  0.00     0.198 A 
ATOM     91  F   UNL A   1      47.714  29.892  28.453  1.00  0.00    -0.203 F 
ATOM     92  F   UNL A   1      43.472  32.615  26.364  1.00  0.00    -0.200 F 
ATOM     93  C   UNL A   1      45.802  32.279  26.514  1.00  0.00     0.200 A 
ATOM     94  F   UNL A   1      48.126  31.952  26.755  1.00  0.00    -0.200 F 
ATOM     95  F   UNL A   1      46.018  33.321  25.698  1.00  0.00    -0.200 F 
ENDBRANCH  62  85
ENDBRANCH  36  37
ENDBRANCH  28  31
ENDBRANCH  26  27
ENDBRANCH  25  26
ENDBRANCH   1  25
TORSDOF 14
ENDMDL
MODEL 2
REMARK VINA RESULT:     -12.1      1.092      1.447
REMARK SMILES CC(C)[C@H](NC(=O)Cn1ccc2c(Br)cccc21)C(=O)NCCCNC(=O)c1ccc(-c2c3nc(c(-c4c(F)c(F)c(F)c(F)c4F)c4ccc([nH]4)c(-c4c(F)c(F)c(F)c(F)c4F)c4nc(c(-c5c(F)c(F)c(F)c(F)c5F)c5ccc2[nH]5)C=C4)C=C3)cc1
REMARK SMILES IDX 22 1 21 2 19 3 20 4 4 6 2 7 1 8 3 9 5 10 6 11 7 13 8 14 9 15
REMARK SMILES IDX 10 16 18 17 11 18 12 19 17 20 13 21 16 22 14 23 15 24 23 25
REMARK SMILES IDX 24 26 25 27 26 28 27 30 28 31 29 32 90 33 30 34 89 35 31 36
REMARK SMILES IDX 32 37 33 38 83 39 34 40 88 41 82 42 84 43 35 44 87 45 81 46
REMARK SMILES IDX 80 47 36 49 68 50 48 51 67 52 49 53 52 54 66 55 85 56 50 57
REMARK SMILES IDX 51 58 65 60 86 61 53 62 37 63 38 64 46 65 39 66 40 67 44 68
REMARK SMILES IDX 47 69 41 70 42 71 45 72 43 73 69 74 70 75 78 76 71 77 72 78
REMARK SMILES IDX 76 79 79 80 73 81 74 82 77 83 75 84 54 85 55 86 63 87 56 88
REMARK SMILES IDX 57 89 61 90 64 91 58 92 59 93 62 94 60 95
REMARK H PARENT 21 5 5 12 25 29 84 48 52 59
REMARK Flexibility Score: inf
ROOT
ATOM      1  C   UNL A   1      33.864  28.341  26.607  1.00  0.00     0.117 C 
ENDROOT
BRANCH   1   2
ATOM      2  N   UNL A   1      32.816  27.329  26.569  1.00  0.00    -0.354 N 
ATOM      3  C   UNL A   1      32.094  26.744  25.576  1.00  0.00     0.242 C 
ATOM      4  O   UNL A   1      31.592  25.648  25.866  1.00  0.00    -0.273 OA
ATOM      5  H   UNL A   1      32.576  26.994  27.463  1.00  0.00     0.163 HD
BRANCH   3   6
ATOM      6  C   UNL A   1      31.938  27.259  24.128  1.00  0.00     0.173 C 
BRANCH   6   7
ATOM      7  C   UNL A   1      30.673  28.175  24.101  1.00  0.00     0.015 C 
ATOM      8  C   UNL A   1      30.949  29.619  24.521  1.00  0.00     0.010 C 
ATOM      9  C   UNL A   1      29.935  28.179  22.764  1.00  0.00     0.010 C 
ENDBRANCH   6   7
BRANCH   6  10
ATOM     10  N   UNL A   1      32.038  26.348  22.971  1.00  0.00    -0.343 N 
ATOM     11  C   UNL A   1      33.222  25.857  22.441  1.00  0.00     0.240 C 
ATOM     12  H   UNL A   1      31.199  26.065  22.542  1.00  0.00     0.164 HD
ATOM     13  O   UNL A   1      33.432  25.999  21.236  1.00  0.00    -0.273 OA
BRANCH  11  14
ATOM     14  C   UNL A   1      34.063  24.946  23.297  1.00  0.00     0.222 C 
BRANCH  14  15
ATOM     15  N   UNL A   1      33.549  23.634  23.654  1.00  0.00    -0.338 N 
ATOM     16  C   UNL A   1      32.337  23.157  23.225  1.00  0.00     0.087 A 
ATOM     17  C   UNL A   1      34.304  22.571  24.113  1.00  0.00     0.050 A 
ATOM     18  C   UNL A   1      32.209  21.852  23.612  1.00  0.00     0.029 A 
ATOM     19  C   UNL A   1      33.453  21.457  24.161  1.00  0.00     0.014 A 
ATOM     20  C   UNL A   1      35.658  22.476  24.473  1.00  0.00     0.027 A 
ATOM     21  C   UNL A   1      33.953  20.239  24.652  1.00  0.00     0.027 A 
ATOM     22  C   UNL A   1      36.141  21.232  24.891  1.00  0.00     0.003 A 
ATOM     23  Br  UNL A   1      32.814  18.746  24.837  1.00  0.00    -0.050 Br
ATOM     24  C   UNL A   1      35.299  20.128  24.997  1.00  0.00     0.016 A 
ENDBRANCH  14  15
ENDBRANCH  11  14
ENDBRANCH   6  10
ENDBRANCH   3   6
ENDBRANCH   1   2
BRANCH   1  25
ATOM     25  C   UNL A   1      33.555  29.670  27.292  1.00  0.00     0.042 C 
BRANCH  25  26
ATOM     26  C   UNL A   1      34.744  30.591  27.451  1.00  0.00     0.118 C 
BRANCH  26  27
ATOM     27  N   UNL A   1      34.499  31.595  28.467  1.00  0.00    -0.352 N 
ATOM     28  C   UNL A   1      35.093  31.701  29.703  1.00  0.00     0.251 C 
ATOM     29  H   UNL A   1      33.828  32.282  28.247  1.00  0.00     0.163 HD
ATOM     30  O   UNL A   1      34.533  32.311  30.598  1.00  0.00    -0.269 OA
BRANCH  28  31
ATOM     31  C   UNL A   1      36.438  31.122  29.917  1.00  0.00     0.039 A 
ATOM     32  C   UNL A   1      37.572  31.911  29.689  1.00  0.00     0.014 A 
ATOM     33  C   UNL A   1      36.571  29.763  30.222  1.00  0.00     0.014 A 
ATOM     34  C   UNL A   1      38.825  31.312  29.711  1.00  0.00     0.010 A 
ATOM     35  C   UNL A   1      37.807  29.197  30.365  1.00  0.00     0.010 A 
ATOM     36  C   UNL A   1      38.914  29.949  30.008  1.00  0.00    -0.014 A 
BRANCH  36  37
ATOM     37  C   UNL A   1      40.184  29.257  29.989  1.00  0.00     0.031 A 
ATOM     38  C   UNL A   1      40.795  29.091  31.325  1.00  0.00     0.074 A 
ATOM     39  C   UNL A   1      40.620  28.624  28.881  1.00  0.00     0.049 A 
ATOM     40  N   UNL A   1      41.874  29.644  31.766  1.00  0.00    -0.248 NA
ATOM     41  C   UNL A   1      40.037  28.350  32.345  1.00  0.00     0.031 C 
ATOM     42  C   UNL A   1      39.931  28.442  27.600  1.00  0.00     0.029 A 
ATOM     43  N   UNL A   1      41.762  27.912  28.711  1.00  0.00    -0.354 N 
ATOM     44  C   UNL A   1      42.043  29.158  33.056  1.00  0.00     0.074 A 
ATOM     45  C   UNL A   1      40.792  28.549  33.428  1.00  0.00     0.031 C 
ATOM     46  C   UNL A   1      40.570  27.496  26.874  1.00  0.00     0.029 A 
ATOM     47  C   UNL A   1      41.783  27.114  27.572  1.00  0.00     0.049 A 
ATOM     48  H   UNL A   1      42.515  27.955  29.344  1.00  0.00     0.167 HD
ATOM     49  C   UNL A   1      43.284  29.060  33.606  1.00  0.00     0.037 A 
ATOM     50  C   UNL A   1      42.712  26.166  27.290  1.00  0.00     0.037 A 
ATOM     51  C   UNL A   1      44.238  29.857  32.873  1.00  0.00     0.049 A 
ATOM     52  C   UNL A   1      43.912  26.488  28.114  1.00  0.00     0.074 A 
ATOM     53  C   UNL A   1      44.330  31.202  32.567  1.00  0.00     0.029 A 
ATOM     54  N   UNL A   1      45.066  29.218  31.981  1.00  0.00    -0.354 N 
ATOM     55  N   UNL A   1      44.633  27.566  27.946  1.00  0.00    -0.248 NA
ATOM     56  C   UNL A   1      43.996  25.882  29.436  1.00  0.00     0.031 C 
ATOM     57  C   UNL A   1      44.787  31.240  31.218  1.00  0.00     0.029 A 
ATOM     58  C   UNL A   1      45.028  29.928  30.808  1.00  0.00     0.049 A 
ATOM     59  H   UNL A   1      45.589  28.401  32.153  1.00  0.00     0.167 HD
ATOM     60  C   UNL A   1      44.924  28.006  29.230  1.00  0.00     0.074 A 
ATOM     61  C   UNL A   1      44.552  26.896  30.106  1.00  0.00     0.031 C 
ATOM     62  C   UNL A   1      45.148  29.326  29.497  1.00  0.00     0.037 A 
BRANCH  49  63
ATOM     63  C   UNL A   1      43.706  27.972  34.559  1.00  0.00     0.064 A 
ATOM     64  C   UNL A   1      43.599  26.627  34.149  1.00  0.00     0.173 A 
ATOM     65  C   UNL A   1      43.938  28.170  35.937  1.00  0.00     0.173 A 
ATOM     66  F   UNL A   1      43.355  26.320  32.866  1.00  0.00    -0.203 F 
ATOM     67  C   UNL A   1      43.647  25.573  35.064  1.00  0.00     0.198 A 
ATOM     68  C   UNL A   1      44.045  27.112  36.836  1.00  0.00     0.198 A 
ATOM     69  F   UNL A   1      43.957  29.385  36.494  1.00  0.00    -0.203 F 
ATOM     70  F   UNL A   1      43.412  24.321  34.646  1.00  0.00    -0.200 F 
ATOM     71  C   UNL A   1      43.867  25.815  36.407  1.00  0.00     0.200 A 
ATOM     72  F   UNL A   1      44.239  27.373  38.137  1.00  0.00    -0.200 F 
ATOM     73  F   UNL A   1      43.858  24.811  37.292  1.00  0.00    -0.200 F 
ENDBRANCH  49  63
BRANCH  50  74
ATOM     74  C   UNL A   1      42.482  24.832  26.672  1.00  0.00     0.064 A 
ATOM     75  C   UNL A   1      43.151  24.438  25.502  1.00  0.00     0.173 A 
ATOM     76  C   UNL A   1      41.791  23.814  27.360  1.00  0.00     0.173 A 
ATOM     77  F   UNL A   1      43.870  25.331  24.806  1.00  0.00    -0.203 F 
ATOM     78  C   UNL A   1      43.146  23.107  25.061  1.00  0.00     0.198 A 
ATOM     79  C   UNL A   1      41.782  22.489  26.918  1.00  0.00     0.198 A 
ATOM     80  F   UNL A   1      41.179  24.070  28.521  1.00  0.00    -0.203 F 
ATOM     81  F   UNL A   1      43.839  22.762  23.968  1.00  0.00    -0.200 F 
ATOM     82  C   UNL A   1      42.470  22.133  25.776  1.00  0.00     0.200 A 
ATOM     83  F   UNL A   1      41.146  21.549  27.630  1.00  0.00    -0.200 F 
ATOM     84  F   UNL A   1      42.510  20.850  25.387  1.00  0.00    -0.200 F 
ENDBRANCH  50  74
BRANCH  62  85
ATOM     85  C   UNL A   1      45.279  30.288  28.346  1.00  0.00     0.064 A 
ATOM     86  C   UNL A   1      44.219  31.071  27.857  1.00  0.00     0.173 A 
ATOM     87  C   UNL A   1      46.567  30.597  27.887  1.00  0.00     0.173 A 
ATOM     88  F   UNL A   1      42.972  30.901  28.310  1.00  0.00    -0.203 F 
ATOM     89  C   UNL A   1      44.438  32.108  26.950  1.00  0.00     0.198 A 
ATOM     90  C   UNL A   1      46.788  31.655  27.007  1.00  0.00     0.198 A 
ATOM     91  F   UNL A   1      47.626  29.919  28.356  1.00  0.00    -0.203 F 
ATOM     92  F   UNL A   1      43.409  32.852  26.517  1.00  0.00    -0.200 F 
ATOM     93  C   UNL A   1      45.725  32.409  26.539  1.00  0.00     0.200 A 
ATOM     94  F   UNL A   1      48.041  31.973  26.652  1.00  0.00    -0.200 F 
ATOM     95  F   UNL A   1      45.944  33.447  25.720  1.00  0.00    -0.200 F 
ENDBRANCH  62  85
ENDBRANCH  36  37
ENDBRANCH  28  31
ENDBRANCH  26  27
ENDBRANCH  25  26
ENDBRANCH   1  25
TORSDOF 14
ENDMDL
MODEL 3
REMARK VINA RESULT:     -12.1      3.302      8.905
REMARK SMILES CC(C)[C@H](NC(=O)Cn1ccc2c(Br)cccc21)C(=O)NCCCNC(=O)c1ccc(-c2c3nc(c(-c4c(F)c(F)c(F)c(F)c4F)c4ccc([nH]4)c(-c4c(F)c(F)c(F)c(F)c4F)c4nc(c(-c5c(F)c(F)c(F)c(F)c5F)c5ccc2[nH]5)C=C4)C=C3)cc1
REMARK SMILES IDX 22 1 21 2 19 3 20 4 4 6 2 7 1 8 3 9 5 10 6 11 7 13 8 14 9 15
REMARK SMILES IDX 10 16 18 17 11 18 12 19 17 20 13 21 16 22 14 23 15 24 23 25
REMARK SMILES IDX 24 26 25 27 26 28 27 30 28 31 29 32 90 33 30 34 89 35 31 36
REMARK SMILES IDX 32 37 33 38 83 39 34 40 88 41 82 42 84 43 35 44 87 45 81 46
REMARK SMILES IDX 80 47 36 49 68 50 48 51 67 52 49 53 52 54 66 55 85 56 50 57
REMARK SMILES IDX 51 58 65 60 86 61 53 62 37 63 38 64 46 65 39 66 40 67 44 68
REMARK SMILES IDX 47 69 41 70 42 71 45 72 43 73 69 74 70 75 78 76 71 77 72 78
REMARK SMILES IDX 76 79 79 80 73 81 74 82 77 83 75 84 54 85 55 86 63 87 56 88
REMARK SMILES IDX 57 89 61 90 64 91 58 92 59 93 62 94 60 95
REMARK H PARENT 21 5 5 12 25 29 84 48 52 59
REMARK Flexibility Score: inf
ROOT
ATOM      1  C   UNL A   1      37.261  22.263  25.062  1.00  0.00     0.117 C 
ENDROOT
BRANCH   1   2
ATOM      2  N   UNL A   1      36.278  22.482  26.116  1.00  0.00    -0.354 N 
ATOM      3  C   UNL A   1      34.920  22.547  26.152  1.00  0.00     0.242 C 
ATOM      4  O   UNL A   1      34.412  22.337  27.264  1.00  0.00    -0.273 OA
ATOM      5  H   UNL A   1      36.689  22.613  27.002  1.00  0.00     0.163 HD
BRANCH   3   6
ATOM      6  C   UNL A   1      33.979  22.748  24.944  1.00  0.00     0.173 C 
BRANCH   6   7
ATOM      7  C   UNL A   1      33.466  21.334  24.522  1.00  0.00     0.015 C 
ATOM      8  C   UNL A   1      34.480  20.214  24.761  1.00  0.00     0.010 C 
ATOM      9  C   UNL A   1      32.133  20.940  25.154  1.00  0.00     0.010 C 
ENDBRANCH   6   7
BRANCH   6  10
ATOM     10  N   UNL A   1      34.357  23.608  23.806  1.00  0.00    -0.343 N 
ATOM     11  C   UNL A   1      33.469  24.178  22.907  1.00  0.00     0.240 C 
ATOM     12  H   UNL A   1      35.315  23.793  23.675  1.00  0.00     0.164 HD
ATOM     13  O   UNL A   1      33.653  23.999  21.702  1.00  0.00    -0.273 OA
BRANCH  11  14
ATOM     14  C   UNL A   1      32.490  25.201  23.422  1.00  0.00     0.222 C 
BRANCH  14  15
ATOM     15  N   UNL A   1      32.989  26.358  24.146  1.00  0.00    -0.338 N 
ATOM     16  C   UNL A   1      33.804  27.307  23.582  1.00  0.00     0.087 A 
ATOM     17  C   UNL A   1      32.447  26.877  25.307  1.00  0.00     0.050 A 
ATOM     18  C   UNL A   1      33.979  28.330  24.472  1.00  0.00     0.029 A 
ATOM     19  C   UNL A   1      33.114  28.084  25.565  1.00  0.00     0.014 A 
ATOM     20  C   UNL A   1      31.423  26.410  26.147  1.00  0.00     0.027 A 
ATOM     21  C   UNL A   1      32.796  28.801  26.731  1.00  0.00     0.027 A 
ATOM     22  C   UNL A   1      31.084  27.183  27.262  1.00  0.00     0.003 A 
ATOM     23  Br  UNL A   1      33.745  30.371  27.172  1.00  0.00    -0.050 Br
ATOM     24  C   UNL A   1      31.770  28.356  27.563  1.00  0.00     0.016 A 
ENDBRANCH  14  15
ENDBRANCH  11  14
ENDBRANCH   6  10
ENDBRANCH   3   6
ENDBRANCH   1   2
BRANCH   1  25
ATOM     25  C   UNL A   1      38.520  21.472  25.408  1.00  0.00     0.042 C 
BRANCH  25  26
ATOM     26  C   UNL A   1      39.369  22.080  26.501  1.00  0.00     0.118 C 
BRANCH  26  27
ATOM     27  N   UNL A   1      40.778  22.029  26.163  1.00  0.00    -0.352 N 
ATOM     28  C   UNL A   1      41.655  23.083  26.059  1.00  0.00     0.251 C 
ATOM     29  H   UNL A   1      41.150  21.134  25.987  1.00  0.00     0.163 HD
ATOM     30  O   UNL A   1      42.668  22.969  25.391  1.00  0.00    -0.269 OA
BRANCH  28  31
ATOM     31  C   UNL A   1      41.389  24.329  26.812  1.00  0.00     0.039 A 
ATOM     32  C   UNL A   1      40.618  25.339  26.222  1.00  0.00     0.014 A 
ATOM     33  C   UNL A   1      42.009  24.542  28.048  1.00  0.00     0.014 A 
ATOM     34  C   UNL A   1      40.527  26.573  26.853  1.00  0.00     0.010 A 
ATOM     35  C   UNL A   1      41.822  25.712  28.730  1.00  0.00     0.010 A 
ATOM     36  C   UNL A   1      41.172  26.749  28.082  1.00  0.00    -0.014 A 
BRANCH  36  37
ATOM     37  C   UNL A   1      41.162  28.027  28.759  1.00  0.00     0.031 A 
ATOM     38  C   UNL A   1      42.279  28.916  28.375  1.00  0.00     0.074 A 
ATOM     39  C   UNL A   1      40.094  28.431  29.475  1.00  0.00     0.049 A 
ATOM     40  N   UNL A   1      43.265  29.298  29.113  1.00  0.00    -0.248 NA
ATOM     41  C   UNL A   1      42.403  29.299  26.959  1.00  0.00     0.031 C 
ATOM     42  C   UNL A   1      38.798  27.767  29.641  1.00  0.00     0.029 A 
ATOM     43  N   UNL A   1      39.918  29.603  30.138  1.00  0.00    -0.354 N 
ATOM     44  C   UNL A   1      44.028  30.140  28.313  1.00  0.00     0.074 A 
ATOM     45  C   UNL A   1      43.577  29.933  26.962  1.00  0.00     0.031 C 
ATOM     46  C   UNL A   1      37.908  28.638  30.169  1.00  0.00     0.029 A 
ATOM     47  C   UNL A   1      38.603  29.866  30.509  1.00  0.00     0.049 A 
ATOM     48  H   UNL A   1      40.660  30.217  30.339  1.00  0.00     0.167 HD
ATOM     49  C   UNL A   1      44.778  31.132  28.865  1.00  0.00     0.037 A 
ATOM     50  C   UNL A   1      38.141  31.047  30.992  1.00  0.00     0.037 A 
ATOM     51  C   UNL A   1      44.967  30.912  30.279  1.00  0.00     0.049 A 
ATOM     52  C   UNL A   1      39.327  31.786  31.513  1.00  0.00     0.074 A 
ATOM     53  C   UNL A   1      45.523  29.890  31.025  1.00  0.00     0.029 A 
ATOM     54  N   UNL A   1      44.182  31.624  31.155  1.00  0.00    -0.354 N 
ATOM     55  N   UNL A   1      40.032  31.384  32.538  1.00  0.00    -0.248 NA
ATOM     56  C   UNL A   1      40.020  32.672  30.588  1.00  0.00     0.031 C 
ATOM     57  C   UNL A   1      44.656  29.743  32.147  1.00  0.00     0.029 A 
ATOM     58  C   UNL A   1      43.676  30.734  32.067  1.00  0.00     0.049 A 
ATOM     59  H   UNL A   1      44.015  32.594  31.131  1.00  0.00     0.167 HD
ATOM     60  C   UNL A   1      41.352  31.617  32.178  1.00  0.00     0.074 A 
ATOM     61  C   UNL A   1      41.278  32.464  30.988  1.00  0.00     0.031 C 
ATOM     62  C   UNL A   1      42.373  30.862  32.681  1.00  0.00     0.037 A 
BRANCH  49  63
ATOM     63  C   UNL A   1      45.023  32.470  28.218  1.00  0.00     0.064 A 
ATOM     64  C   UNL A   1      43.938  33.354  28.049  1.00  0.00     0.173 A 
ATOM     65  C   UNL A   1      46.196  32.806  27.508  1.00  0.00     0.173 A 
ATOM     66  F   UNL A   1      42.765  33.121  28.656  1.00  0.00    -0.203 F 
ATOM     67  C   UNL A   1      44.005  34.445  27.178  1.00  0.00     0.198 A 
ATOM     68  C   UNL A   1      46.277  33.929  26.688  1.00  0.00     0.198 A 
ATOM     69  F   UNL A   1      47.271  32.012  27.482  1.00  0.00    -0.203 F 
ATOM     70  F   UNL A   1      42.908  35.181  26.953  1.00  0.00    -0.200 F 
ATOM     71  C   UNL A   1      45.173  34.730  26.497  1.00  0.00     0.200 A 
ATOM     72  F   UNL A   1      47.414  34.174  26.021  1.00  0.00    -0.200 F 
ATOM     73  F   UNL A   1      45.222  35.741  25.620  1.00  0.00    -0.200 F 
ENDBRANCH  49  63
BRANCH  50  74
ATOM     74  C   UNL A   1      36.844  31.704  30.680  1.00  0.00     0.064 A 
ATOM     75  C   UNL A   1      35.934  32.054  31.691  1.00  0.00     0.173 A 
ATOM     76  C   UNL A   1      36.579  32.237  29.402  1.00  0.00     0.173 A 
ATOM     77  F   UNL A   1      36.130  31.629  32.948  1.00  0.00    -0.203 F 
ATOM     78  C   UNL A   1      34.843  32.899  31.443  1.00  0.00     0.198 A 
ATOM     79  C   UNL A   1      35.489  33.074  29.153  1.00  0.00     0.198 A 
ATOM     80  F   UNL A   1      37.422  32.021  28.386  1.00  0.00    -0.203 F 
ATOM     81  F   UNL A   1      34.027  33.251  32.446  1.00  0.00    -0.200 F 
ATOM     82  C   UNL A   1      34.629  33.416  30.177  1.00  0.00     0.200 A 
ATOM     83  F   UNL A   1      35.305  33.590  27.931  1.00  0.00    -0.200 F 
ATOM     84  F   UNL A   1      33.619  34.269  29.950  1.00  0.00    -0.200 F 
ENDBRANCH  50  74
BRANCH  62  85
ATOM     85  C   UNL A   1      42.078  29.896  33.798  1.00  0.00     0.064 A 
ATOM     86  C   UNL A   1      41.698  28.558  33.594  1.00  0.00     0.173 A 
ATOM     87  C   UNL A   1      42.423  30.270  35.104  1.00  0.00     0.173 A 
ATOM     88  F   UNL A   1      41.438  28.096  32.366  1.00  0.00    -0.203 F 
ATOM     89  C   UNL A   1      41.661  27.643  34.646  1.00  0.00     0.198 A 
ATOM     90  C   UNL A   1      42.418  29.347  36.147  1.00  0.00     0.198 A 
ATOM     91  F   UNL A   1      42.844  31.520  35.354  1.00  0.00    -0.203 F 
ATOM     92  F   UNL A   1      41.313  26.367  34.417  1.00  0.00    -0.200 F 
ATOM     93  C   UNL A   1      42.036  28.035  35.919  1.00  0.00     0.200 A 
ATOM     94  F   UNL A   1      42.832  29.720  37.367  1.00  0.00    -0.200 F 
ATOM     95  F   UNL A   1      42.065  27.142  36.918  1.00  0.00    -0.200 F 
ENDBRANCH  62  85
ENDBRANCH  36  37
ENDBRANCH  28  31
ENDBRANCH  26  27
ENDBRANCH  25  26
ENDBRANCH   1  25
TORSDOF 14
ENDMDL
