MODEL 1
REMARK VINA RESULT:     -13.5      0.000      0.000
REMARK SMILES NS(=O)(=O)c1ccc(-n2nc(C(=O)NCCCNC(=O)c3ccc(-c4c5nc(c(-c6c(F)c(F)c(F)c(F)c6F)c6ccc([nH]6)c(-c6c(F)c(F)c(F)c(F)c6F)c6nc(c(-c7c(F)c(F)c(F)c(F)c7F)c7ccc4[nH]7)C=C6)C=C5)cc3)cc2-c2cc3ccccc3s2)cc1
REMARK SMILES IDX 15 1 14 2 12 3 13 4 11 6 9 7 10 8 85 9 84 10 8 11 5 12 6 13
REMARK SMILES IDX 96 14 7 15 95 16 2 17 3 18 4 19 1 20 86 23 87 24 94 25 88 26
REMARK SMILES IDX 93 27 89 28 92 29 90 30 91 31 16 32 17 33 18 34 19 35 20 37
REMARK SMILES IDX 21 38 22 39 83 40 23 41 82 42 24 43 25 44 26 45 76 46 27 47
REMARK SMILES IDX 81 48 75 49 77 50 28 51 80 52 74 53 73 54 29 56 61 57 41 58
REMARK SMILES IDX 60 59 42 60 45 61 59 62 78 63 43 64 44 65 58 67 79 68 46 69
REMARK SMILES IDX 30 70 31 71 39 72 32 73 33 74 37 75 40 76 34 77 35 78 38 79
REMARK SMILES IDX 36 80 62 81 63 82 71 83 64 84 65 85 69 86 72 87 66 88 67 89
REMARK SMILES IDX 70 90 68 91 47 92 48 93 56 94 49 95 50 96 54 97 57 98 51 99
REMARK SMILES IDX 52 100 55 101 53 102
REMARK H PARENT 14 5 1 21 1 22 18 36 77 55 45 66
REMARK Flexibility Score: inf
ROOT
ATOM      1  C   UNL A   1      31.837  30.494  26.097  1.00  0.00     0.118 C 
ENDROOT
BRANCH   1   2
ATOM      2  N   UNL A   1      31.376  30.344  24.721  1.00  0.00    -0.351 N 
ATOM      3  C   UNL A   1      31.185  29.217  23.933  1.00  0.00     0.271 C 
ATOM      4  O   UNL A   1      30.653  29.394  22.836  1.00  0.00    -0.267 OA
ATOM      5  H   UNL A   1      31.163  31.193  24.271  1.00  0.00     0.163 HD
BRANCH   3   6
ATOM      6  C   UNL A   1      31.557  27.882  24.440  1.00  0.00     0.151 A 
ATOM      7  N   UNL A   1      32.656  26.032  24.535  1.00  0.00    -0.231 N 
ATOM      8  N   UNL A   1      32.803  27.375  24.339  1.00  0.00    -0.162 NA
ATOM      9  C   UNL A   1      31.340  25.717  24.789  1.00  0.00     0.085 A 
ATOM     10  C   UNL A   1      30.735  26.928  25.059  1.00  0.00     0.066 A 
BRANCH   7  11
ATOM     11  C   UNL A   1      33.790  25.192  24.618  1.00  0.00     0.065 A 
ATOM     12  C   UNL A   1      35.896  23.399  24.902  1.00  0.00     0.082 A 
ATOM     13  C   UNL A   1      35.442  23.739  23.623  1.00  0.00     0.024 A 
ATOM     14  C   UNL A   1      35.322  23.968  26.042  1.00  0.00     0.024 A 
ATOM     15  C   UNL A   1      34.366  24.619  23.480  1.00  0.00     0.030 A 
ATOM     16  C   UNL A   1      34.287  24.890  25.896  1.00  0.00     0.030 A 
BRANCH  12  17
ATOM     17  S   UNL A   1      37.198  22.217  25.085  1.00  0.00     0.238 S 
ATOM     18  O   UNL A   1      38.309  22.824  25.762  1.00  0.00    -0.207 OA
ATOM     19  O   UNL A   1      37.335  21.489  23.838  1.00  0.00    -0.207 OA
BRANCH  17  20
ATOM     20  N   UNL A   1      36.548  21.129  26.191  1.00  0.00    -0.225 NA
ATOM     21  H   UNL A   1      37.075  21.176  27.062  1.00  0.00     0.137 HD
ATOM     22  H   UNL A   1      36.603  20.184  25.809  1.00  0.00     0.137 HD
ENDBRANCH  17  20
ENDBRANCH  12  17
ENDBRANCH   7  11
BRANCH   9  23
ATOM     23  C   UNL A   1      30.602  24.491  24.676  1.00  0.00     0.054 A 
ATOM     24  C   UNL A   1      30.715  23.595  23.622  1.00  0.00     0.031 A 
ATOM     25  S   UNL A   1      30.442  23.538  26.118  1.00  0.00    -0.134 S 
ATOM     26  C   UNL A   1      31.593  22.525  24.068  1.00  0.00    -0.007 A 
ATOM     27  C   UNL A   1      31.626  22.453  25.467  1.00  0.00     0.035 A 
ATOM     28  C   UNL A   1      32.475  21.692  23.341  1.00  0.00     0.009 A 
ATOM     29  C   UNL A   1      32.530  21.630  26.158  1.00  0.00     0.019 A 
ATOM     30  C   UNL A   1      33.414  20.907  24.022  1.00  0.00     0.001 A 
ATOM     31  C   UNL A   1      33.450  20.891  25.412  1.00  0.00     0.001 A 
ENDBRANCH   9  23
ENDBRANCH   3   6
ENDBRANCH   1   2
BRANCH   1  32
ATOM     32  C   UNL A   1      31.492  31.872  26.680  1.00  0.00     0.042 C 
BRANCH  32  33
ATOM     33  C   UNL A   1      32.683  32.553  27.330  1.00  0.00     0.118 C 
BRANCH  33  34
ATOM     34  N   UNL A   1      32.408  33.939  27.718  1.00  0.00    -0.352 N 
ATOM     35  C   UNL A   1      33.033  34.695  28.694  1.00  0.00     0.251 C 
ATOM     36  H   UNL A   1      31.686  34.390  27.223  1.00  0.00     0.163 HD
ATOM     37  O   UNL A   1      32.497  35.691  29.161  1.00  0.00    -0.269 OA
BRANCH  35  38
ATOM     38  C   UNL A   1      34.358  34.267  29.173  1.00  0.00     0.039 A 
ATOM     39  C   UNL A   1      34.503  33.470  30.313  1.00  0.00     0.014 A 
ATOM     40  C   UNL A   1      35.463  34.619  28.406  1.00  0.00     0.014 A 
ATOM     41  C   UNL A   1      35.756  32.938  30.604  1.00  0.00     0.010 A 
ATOM     42  C   UNL A   1      36.647  33.956  28.588  1.00  0.00     0.010 A 
ATOM     43  C   UNL A   1      36.820  33.153  29.713  1.00  0.00    -0.014 A 
BRANCH  43  44
ATOM     44  C   UNL A   1      38.071  32.406  29.840  1.00  0.00     0.031 A 
ATOM     45  C   UNL A   1      37.971  30.997  29.359  1.00  0.00     0.074 A 
ATOM     46  C   UNL A   1      39.253  33.015  30.098  1.00  0.00     0.049 A 
ATOM     47  N   UNL A   1      38.141  29.911  30.036  1.00  0.00    -0.248 NA
ATOM     48  C   UNL A   1      37.476  30.761  27.989  1.00  0.00     0.031 C 
ATOM     49  C   UNL A   1      39.485  34.461  30.229  1.00  0.00     0.029 A 
ATOM     50  N   UNL A   1      40.521  32.509  30.151  1.00  0.00    -0.354 N 
ATOM     51  C   UNL A   1      38.012  28.865  29.119  1.00  0.00     0.074 A 
ATOM     52  C   UNL A   1      37.388  29.430  27.957  1.00  0.00     0.031 C 
ATOM     53  C   UNL A   1      40.798  34.729  30.073  1.00  0.00     0.029 A 
ATOM     54  C   UNL A   1      41.519  33.473  30.024  1.00  0.00     0.049 A 
ATOM     55  H   UNL A   1      40.711  31.550  30.268  1.00  0.00     0.167 HD
ATOM     56  C   UNL A   1      38.746  27.727  29.278  1.00  0.00     0.037 A 
ATOM     57  C   UNL A   1      42.848  33.261  29.865  1.00  0.00     0.037 A 
ATOM     58  C   UNL A   1      39.271  27.673  30.621  1.00  0.00     0.049 A 
ATOM     59  C   UNL A   1      43.134  31.881  30.315  1.00  0.00     0.074 A 
ATOM     60  C   UNL A   1      38.787  27.425  31.885  1.00  0.00     0.029 A 
ATOM     61  N   UNL A   1      40.463  28.329  30.758  1.00  0.00    -0.354 N 
ATOM     62  N   UNL A   1      43.022  31.489  31.554  1.00  0.00    -0.248 NA
ATOM     63  C   UNL A   1      43.214  30.815  29.324  1.00  0.00     0.031 C 
ATOM     64  C   UNL A   1      39.670  28.096  32.786  1.00  0.00     0.029 A 
ATOM     65  C   UNL A   1      40.698  28.689  32.054  1.00  0.00     0.049 A 
ATOM     66  H   UNL A   1      41.079  28.518  30.014  1.00  0.00     0.167 HD
ATOM     67  C   UNL A   1      42.581  30.185  31.456  1.00  0.00     0.074 A 
ATOM     68  C   UNL A   1      42.895  29.771  30.095  1.00  0.00     0.031 C 
ATOM     69  C   UNL A   1      41.694  29.688  32.365  1.00  0.00     0.037 A 
BRANCH  56  70
ATOM     70  C   UNL A   1      39.467  26.981  28.154  1.00  0.00     0.064 A 
ATOM     71  C   UNL A   1      39.559  25.571  28.241  1.00  0.00     0.173 A 
ATOM     72  C   UNL A   1      40.339  27.572  27.215  1.00  0.00     0.173 A 
ATOM     73  F   UNL A   1      38.773  24.883  29.083  1.00  0.00    -0.203 F 
ATOM     74  C   UNL A   1      40.526  24.839  27.541  1.00  0.00     0.198 A 
ATOM     75  C   UNL A   1      41.277  26.833  26.489  1.00  0.00     0.198 A 
ATOM     76  F   UNL A   1      40.404  28.892  27.017  1.00  0.00    -0.203 F 
ATOM     77  F   UNL A   1      40.658  23.524  27.765  1.00  0.00    -0.200 F 
ATOM     78  C   UNL A   1      41.395  25.475  26.679  1.00  0.00     0.200 A 
ATOM     79  F   UNL A   1      42.119  27.472  25.665  1.00  0.00    -0.200 F 
ATOM     80  F   UNL A   1      42.369  24.792  26.063  1.00  0.00    -0.200 F 
ENDBRANCH  56  70
BRANCH  57  81
ATOM     81  C   UNL A   1      43.852  34.080  29.143  1.00  0.00     0.064 A 
ATOM     82  C   UNL A   1      44.026  33.953  27.755  1.00  0.00     0.173 A 
ATOM     83  C   UNL A   1      44.451  35.200  29.749  1.00  0.00     0.173 A 
ATOM     84  F   UNL A   1      43.459  32.932  27.095  1.00  0.00    -0.203 F 
ATOM     85  C   UNL A   1      44.719  34.913  27.010  1.00  0.00     0.198 A 
ATOM     86  C   UNL A   1      45.150  36.155  29.006  1.00  0.00     0.198 A 
ATOM     87  F   UNL A   1      44.288  35.442  31.058  1.00  0.00    -0.203 F 
ATOM     88  F   UNL A   1      44.800  34.795  25.678  1.00  0.00    -0.200 F 
ATOM     89  C   UNL A   1      45.267  36.021  27.635  1.00  0.00     0.200 A 
ATOM     90  F   UNL A   1      45.646  37.239  29.617  1.00  0.00    -0.200 F 
ATOM     91  F   UNL A   1      45.868  36.977  26.913  1.00  0.00    -0.200 F 
ENDBRANCH  57  81
BRANCH  69  92
ATOM     92  C   UNL A   1      41.656  30.326  33.718  1.00  0.00     0.064 A 
ATOM     93  C   UNL A   1      40.808  31.382  34.087  1.00  0.00     0.173 A 
ATOM     94  C   UNL A   1      42.483  29.779  34.708  1.00  0.00     0.173 A 
ATOM     95  F   UNL A   1      39.933  31.903  33.217  1.00  0.00    -0.203 F 
ATOM     96  C   UNL A   1      40.824  31.892  35.384  1.00  0.00     0.198 A 
ATOM     97  C   UNL A   1      42.466  30.262  36.011  1.00  0.00     0.198 A 
ATOM     98  F   UNL A   1      43.285  28.742  34.417  1.00  0.00    -0.203 F 
ATOM     99  F   UNL A   1      40.025  32.917  35.713  1.00  0.00    -0.200 F 
ATOM    100  C   UNL A   1      41.647  31.327  36.345  1.00  0.00     0.200 A 
ATOM    101  F   UNL A   1      43.232  29.681  36.944  1.00  0.00    -0.200 F 
ATOM    102  F   UNL A   1      41.638  31.794  37.601  1.00  0.00    -0.200 F 
ENDBRANCH  69  92
ENDBRANCH  43  44
ENDBRANCH  35  38
ENDBRANCH  33  34
ENDBRANCH  32  33
ENDBRANCH   1  32
TORSDOF 14
ENDMDL
MODEL 2
REMARK VINA RESULT:     -13.4      3.543      8.978
REMARK SMILES NS(=O)(=O)c1ccc(-n2nc(C(=O)NCCCNC(=O)c3ccc(-c4c5nc(c(-c6c(F)c(F)c(F)c(F)c6F)c6ccc([nH]6)c(-c6c(F)c(F)c(F)c(F)c6F)c6nc(c(-c7c(F)c(F)c(F)c(F)c7F)c7ccc4[nH]7)C=C6)C=C5)cc3)cc2-c2cc3ccccc3s2)cc1
REMARK SMILES IDX 15 1 14 2 12 3 13 4 11 6 9 7 10 8 85 9 84 10 8 11 5 12 6 13
REMARK SMILES IDX 96 14 7 15 95 16 2 17 3 18 4 19 1 20 86 23 87 24 94 25 88 26
REMARK SMILES IDX 93 27 89 28 92 29 90 30 91 31 16 32 17 33 18 34 19 35 20 37
REMARK SMILES IDX 21 38 22 39 83 40 23 41 82 42 24 43 25 44 26 45 76 46 27 47
REMARK SMILES IDX 81 48 75 49 77 50 28 51 80 52 74 53 73 54 29 56 61 57 41 58
REMARK SMILES IDX 60 59 42 60 45 61 59 62 78 63 43 64 44 65 58 67 79 68 46 69
REMARK SMILES IDX 30 70 31 71 39 72 32 73 33 74 37 75 40 76 34 77 35 78 38 79
REMARK SMILES IDX 36 80 62 81 63 82 71 83 64 84 65 85 69 86 72 87 66 88 67 89
REMARK SMILES IDX 70 90 68 91 47 92 48 93 56 94 49 95 50 96 54 97 57 98 51 99
REMARK SMILES IDX 52 100 55 101 53 102
REMARK H PARENT 14 5 1 21 1 22 18 36 77 55 45 66
REMARK Flexibility Score: inf
ROOT
ATOM      1  C   UNL A   1      39.782  20.191  25.961  1.00  0.00     0.118 C 
ENDROOT
BRANCH   1   2
ATOM      2  N   UNL A   1      40.038  21.605  26.217  1.00  0.00    -0.351 N 
ATOM      3  C   UNL A   1      39.218  22.721  26.119  1.00  0.00     0.271 C 
ATOM      4  O   UNL A   1      39.681  23.784  26.534  1.00  0.00    -0.267 OA
ATOM      5  H   UNL A   1      40.957  21.802  26.511  1.00  0.00     0.163 HD
BRANCH   3   6
ATOM      6  C   UNL A   1      37.845  22.591  25.595  1.00  0.00     0.151 A 
ATOM      7  N   UNL A   1      35.851  23.223  25.079  1.00  0.00    -0.231 N 
ATOM      8  N   UNL A   1      37.156  23.624  25.066  1.00  0.00    -0.162 NA
ATOM      9  C   UNL A   1      35.738  21.945  25.578  1.00  0.00     0.085 A 
ATOM     10  C   UNL A   1      37.028  21.451  25.574  1.00  0.00     0.066 A 
BRANCH   7  11
ATOM     11  C   UNL A   1      34.851  24.021  24.478  1.00  0.00     0.065 A 
ATOM     12  C   UNL A   1      33.025  25.766  23.315  1.00  0.00     0.082 A 
ATOM     13  C   UNL A   1      33.473  24.652  22.598  1.00  0.00     0.024 A 
ATOM     14  C   UNL A   1      33.463  26.003  24.620  1.00  0.00     0.024 A 
ATOM     15  C   UNL A   1      34.412  23.789  23.171  1.00  0.00     0.030 A 
ATOM     16  C   UNL A   1      34.355  25.110  25.212  1.00  0.00     0.030 A 
BRANCH  12  17
ATOM     17  S   UNL A   1      31.906  26.905  22.556  1.00  0.00     0.238 S 
ATOM     18  O   UNL A   1      32.522  28.199  22.467  1.00  0.00    -0.207 OA
ATOM     19  O   UNL A   1      30.586  26.696  23.120  1.00  0.00    -0.207 OA
BRANCH  17  20
ATOM     20  N   UNL A   1      31.832  26.341  20.974  1.00  0.00    -0.225 NA
ATOM     21  H   UNL A   1      31.683  25.332  20.980  1.00  0.00     0.137 HD
ATOM     22  H   UNL A   1      32.709  26.553  20.496  1.00  0.00     0.137 HD
ENDBRANCH  17  20
ENDBRANCH  12  17
ENDBRANCH   7  11
BRANCH   9  23
ATOM     23  C   UNL A   1      34.637  21.228  26.153  1.00  0.00     0.054 A 
ATOM     24  C   UNL A   1      33.904  21.653  27.253  1.00  0.00     0.031 A 
ATOM     25  S   UNL A   1      33.499  20.520  25.049  1.00  0.00    -0.134 S 
ATOM     26  C   UNL A   1      32.685  22.260  26.741  1.00  0.00    -0.007 A 
ATOM     27  C   UNL A   1      32.398  21.797  25.451  1.00  0.00     0.035 A 
ATOM     28  C   UNL A   1      31.877  23.295  27.270  1.00  0.00     0.009 A 
ATOM     29  C   UNL A   1      31.381  22.355  24.659  1.00  0.00     0.019 A 
ATOM     30  C   UNL A   1      30.896  23.891  26.468  1.00  0.00     0.001 A 
ATOM     31  C   UNL A   1      30.664  23.436  25.174  1.00  0.00     0.001 A 
ENDBRANCH   9  23
ENDBRANCH   3   6
ENDBRANCH   1   2
BRANCH   1  32
ATOM     32  C   UNL A   1      41.050  19.336  26.092  1.00  0.00     0.042 C 
BRANCH  32  33
ATOM     33  C   UNL A   1      42.296  20.165  26.351  1.00  0.00     0.118 C 
BRANCH  33  34
ATOM     34  N   UNL A   1      43.402  19.833  25.448  1.00  0.00    -0.352 N 
ATOM     35  C   UNL A   1      44.217  20.699  24.740  1.00  0.00     0.251 C 
ATOM     36  H   UNL A   1      43.588  18.873  25.329  1.00  0.00     0.163 HD
ATOM     37  O   UNL A   1      44.855  20.312  23.769  1.00  0.00    -0.269 OA
BRANCH  35  38
ATOM     38  C   UNL A   1      44.291  22.105  25.170  1.00  0.00     0.039 A 
ATOM     39  C   UNL A   1      43.408  23.070  24.676  1.00  0.00     0.014 A 
ATOM     40  C   UNL A   1      45.225  22.428  26.147  1.00  0.00     0.014 A 
ATOM     41  C   UNL A   1      43.400  24.333  25.261  1.00  0.00     0.010 A 
ATOM     42  C   UNL A   1      45.095  23.604  26.838  1.00  0.00     0.010 A 
ATOM     43  C   UNL A   1      44.222  24.583  26.371  1.00  0.00    -0.014 A 
BRANCH  43  44
ATOM     44  C   UNL A   1      44.058  25.797  27.172  1.00  0.00     0.031 A 
ATOM     45  C   UNL A   1      45.011  26.884  26.801  1.00  0.00     0.074 A 
ATOM     46  C   UNL A   1      42.975  26.003  27.958  1.00  0.00     0.049 A 
ATOM     47  N   UNL A   1      45.916  27.434  27.540  1.00  0.00    -0.248 NA
ATOM     48  C   UNL A   1      45.068  27.312  25.391  1.00  0.00     0.031 C 
ATOM     49  C   UNL A   1      41.808  25.119  28.094  1.00  0.00     0.029 A 
ATOM     50  N   UNL A   1      42.600  27.096  28.687  1.00  0.00    -0.354 N 
ATOM     51  C   UNL A   1      46.487  28.441  26.758  1.00  0.00     0.074 A 
ATOM     52  C   UNL A   1      46.094  28.166  25.406  1.00  0.00     0.031 C 
ATOM     53  C   UNL A   1      40.771  25.807  28.616  1.00  0.00     0.029 A 
ATOM     54  C   UNL A   1      41.249  27.112  29.027  1.00  0.00     0.049 A 
ATOM     55  H   UNL A   1      43.229  27.807  28.948  1.00  0.00     0.167 HD
ATOM     56  C   UNL A   1      46.933  29.588  27.347  1.00  0.00     0.037 A 
ATOM     57  C   UNL A   1      40.556  28.133  29.586  1.00  0.00     0.037 A 
ATOM     58  C   UNL A   1      47.065  29.383  28.769  1.00  0.00     0.049 A 
ATOM     59  C   UNL A   1      41.539  29.046  30.209  1.00  0.00     0.074 A 
ATOM     60  C   UNL A   1      47.924  28.724  29.619  1.00  0.00     0.029 A 
ATOM     61  N   UNL A   1      45.905  29.614  29.454  1.00  0.00    -0.354 N 
ATOM     62  N   UNL A   1      42.272  28.723  31.238  1.00  0.00    -0.248 NA
ATOM     63  C   UNL A   1      41.977  30.226  29.473  1.00  0.00     0.031 C 
ATOM     64  C   UNL A   1      47.170  28.437  30.798  1.00  0.00     0.029 A 
ATOM     65  C   UNL A   1      45.891  28.973  30.660  1.00  0.00     0.049 A 
ATOM     66  H   UNL A   1      45.167  30.175  29.120  1.00  0.00     0.167 HD
ATOM     67  C   UNL A   1      43.471  29.370  31.014  1.00  0.00     0.074 A 
ATOM     68  C   UNL A   1      43.173  30.410  30.038  1.00  0.00     0.031 C 
ATOM     69  C   UNL A   1      44.648  28.781  31.371  1.00  0.00     0.037 A 
BRANCH  56  70
ATOM     70  C   UNL A   1      46.708  31.000  26.804  1.00  0.00     0.064 A 
ATOM     71  C   UNL A   1      47.795  31.906  26.829  1.00  0.00     0.173 A 
ATOM     72  C   UNL A   1      45.447  31.598  26.592  1.00  0.00     0.173 A 
ATOM     73  F   UNL A   1      49.050  31.466  27.005  1.00  0.00    -0.203 F 
ATOM     74  C   UNL A   1      47.615  33.293  26.774  1.00  0.00     0.198 A 
ATOM     75  C   UNL A   1      45.276  32.981  26.499  1.00  0.00     0.198 A 
ATOM     76  F   UNL A   1      44.309  30.898  26.562  1.00  0.00    -0.203 F 
ATOM     77  F   UNL A   1      48.665  34.109  26.940  1.00  0.00    -0.200 F 
ATOM     78  C   UNL A   1      46.352  33.829  26.626  1.00  0.00     0.200 A 
ATOM     79  F   UNL A   1      44.039  33.481  26.366  1.00  0.00    -0.200 F 
ATOM     80  F   UNL A   1      46.165  35.155  26.647  1.00  0.00    -0.200 F 
ENDBRANCH  56  70
BRANCH  57  81
ATOM     81  C   UNL A   1      39.128  28.499  29.429  1.00  0.00     0.064 A 
ATOM     82  C   UNL A   1      38.289  28.642  30.548  1.00  0.00     0.173 A 
ATOM     83  C   UNL A   1      38.632  28.996  28.209  1.00  0.00     0.173 A 
ATOM     84  F   UNL A   1      38.700  28.225  31.755  1.00  0.00    -0.203 F 
ATOM     85  C   UNL A   1      37.050  29.285  30.461  1.00  0.00     0.198 A 
ATOM     86  C   UNL A   1      37.391  29.632  28.121  1.00  0.00     0.198 A 
ATOM     87  F   UNL A   1      39.384  28.964  27.099  1.00  0.00    -0.203 F 
ATOM     88  F   UNL A   1      36.313  29.468  31.564  1.00  0.00    -0.200 F 
ATOM     89  C   UNL A   1      36.609  29.792  29.250  1.00  0.00     0.200 A 
ATOM     90  F   UNL A   1      36.991  30.148  26.951  1.00  0.00    -0.200 F 
ATOM     91  F   UNL A   1      35.456  30.471  29.180  1.00  0.00    -0.200 F 
ENDBRANCH  57  81
BRANCH  69  92
ATOM     92  C   UNL A   1      44.611  27.764  32.466  1.00  0.00     0.064 A 
ATOM     93  C   UNL A   1      44.564  28.059  33.838  1.00  0.00     0.173 A 
ATOM     94  C   UNL A   1      44.550  26.415  32.089  1.00  0.00     0.173 A 
ATOM     95  F   UNL A   1      44.536  29.325  34.273  1.00  0.00    -0.203 F 
ATOM     96  C   UNL A   1      44.500  27.040  34.787  1.00  0.00     0.198 A 
ATOM     97  C   UNL A   1      44.445  25.404  33.035  1.00  0.00     0.198 A 
ATOM     98  F   UNL A   1      44.554  26.081  30.788  1.00  0.00    -0.203 F 
ATOM     99  F   UNL A   1      44.480  27.340  36.094  1.00  0.00    -0.200 F 
ATOM    100  C   UNL A   1      44.434  25.715  34.385  1.00  0.00     0.200 A 
ATOM    101  F   UNL A   1      44.337  24.130  32.636  1.00  0.00    -0.200 F 
ATOM    102  F   UNL A   1      44.339  24.737  35.295  1.00  0.00    -0.200 F 
ENDBRANCH  69  92
ENDBRANCH  43  44
ENDBRANCH  35  38
ENDBRANCH  33  34
ENDBRANCH  32  33
ENDBRANCH   1  32
TORSDOF 14
ENDMDL
MODEL 3
REMARK VINA RESULT:     -13.3      3.616      9.146
REMARK SMILES NS(=O)(=O)c1ccc(-n2nc(C(=O)NCCCNC(=O)c3ccc(-c4c5nc(c(-c6c(F)c(F)c(F)c(F)c6F)c6ccc([nH]6)c(-c6c(F)c(F)c(F)c(F)c6F)c6nc(c(-c7c(F)c(F)c(F)c(F)c7F)c7ccc4[nH]7)C=C6)C=C5)cc3)cc2-c2cc3ccccc3s2)cc1
REMARK SMILES IDX 15 1 14 2 12 3 13 4 11 6 9 7 10 8 85 9 84 10 8 11 5 12 6 13
REMARK SMILES IDX 96 14 7 15 95 16 2 17 3 18 4 19 1 20 86 23 87 24 94 25 88 26
REMARK SMILES IDX 93 27 89 28 92 29 90 30 91 31 16 32 17 33 18 34 19 35 20 37
REMARK SMILES IDX 21 38 22 39 83 40 23 41 82 42 24 43 25 44 26 45 76 46 27 47
REMARK SMILES IDX 81 48 75 49 77 50 28 51 80 52 74 53 73 54 29 56 61 57 41 58
REMARK SMILES IDX 60 59 42 60 45 61 59 62 78 63 43 64 44 65 58 67 79 68 46 69
REMARK SMILES IDX 30 70 31 71 39 72 32 73 33 74 37 75 40 76 34 77 35 78 38 79
REMARK SMILES IDX 36 80 62 81 63 82 71 83 64 84 65 85 69 86 72 87 66 88 67 89
REMARK SMILES IDX 70 90 68 91 47 92 48 93 56 94 49 95 50 96 54 97 57 98 51 99
REMARK SMILES IDX 52 100 55 101 53 102
REMARK H PARENT 14 5 1 21 1 22 18 36 77 55 45 66
REMARK Flexibility Score: inf
ROOT
ATOM      1  C   UNL A   1      36.552  20.785  25.442  1.00  0.00     0.118 C 
ENDROOT
BRANCH   1   2
ATOM      2  N   UNL A   1      35.285  20.065  25.369  1.00  0.00    -0.351 N 
ATOM      3  C   UNL A   1      34.024  20.464  24.948  1.00  0.00     0.271 C 
ATOM      4  O   UNL A   1      33.163  19.586  24.873  1.00  0.00    -0.267 OA
ATOM      5  H   UNL A   1      35.333  19.130  25.673  1.00  0.00     0.163 HD
BRANCH   3   6
ATOM      6  C   UNL A   1      33.778  21.866  24.559  1.00  0.00     0.151 A 
ATOM      7  N   UNL A   1      33.142  23.909  24.802  1.00  0.00    -0.231 N 
ATOM      8  N   UNL A   1      33.788  22.888  25.438  1.00  0.00    -0.162 NA
ATOM      9  C   UNL A   1      32.768  23.533  23.532  1.00  0.00     0.085 A 
ATOM     10  C   UNL A   1      33.474  22.373  23.286  1.00  0.00     0.066 A 
BRANCH   7  11
ATOM     11  C   UNL A   1      33.075  25.192  25.393  1.00  0.00     0.065 A 
ATOM     12  C   UNL A   1      32.914  27.798  26.348  1.00  0.00     0.082 A 
ATOM     13  C   UNL A   1      31.999  26.838  26.794  1.00  0.00     0.024 A 
ATOM     14  C   UNL A   1      33.926  27.461  25.446  1.00  0.00     0.024 A 
ATOM     15  C   UNL A   1      32.062  25.535  26.294  1.00  0.00     0.030 A 
ATOM     16  C   UNL A   1      34.024  26.146  24.992  1.00  0.00     0.030 A 
BRANCH  12  17
ATOM     17  S   UNL A   1      32.777  29.468  26.913  1.00  0.00     0.238 S 
ATOM     18  O   UNL A   1      31.566  29.625  27.668  1.00  0.00    -0.207 OA
ATOM     19  O   UNL A   1      33.149  30.353  25.825  1.00  0.00    -0.207 OA
BRANCH  17  20
ATOM     20  N   UNL A   1      34.019  29.571  28.042  1.00  0.00    -0.225 NA
ATOM     21  H   UNL A   1      33.789  28.996  28.853  1.00  0.00     0.137 HD
ATOM     22  H   UNL A   1      34.131  30.542  28.335  1.00  0.00     0.137 HD
ENDBRANCH  17  20
ENDBRANCH  12  17
ENDBRANCH   7  11
BRANCH   9  23
ATOM     23  C   UNL A   1      31.772  24.039  22.630  1.00  0.00     0.054 A 
ATOM     24  C   UNL A   1      30.506  24.466  23.008  1.00  0.00     0.031 A 
ATOM     25  S   UNL A   1      32.315  25.138  21.400  1.00  0.00    -0.134 S 
ATOM     26  C   UNL A   1      30.555  25.917  23.088  1.00  0.00    -0.007 A 
ATOM     27  C   UNL A   1      31.607  26.427  22.317  1.00  0.00     0.035 A 
ATOM     28  C   UNL A   1      29.827  26.821  23.898  1.00  0.00     0.009 A 
ATOM     29  C   UNL A   1      31.988  27.778  22.361  1.00  0.00     0.019 A 
ATOM     30  C   UNL A   1      30.233  28.159  23.987  1.00  0.00     0.001 A 
ATOM     31  C   UNL A   1      31.309  28.625  23.240  1.00  0.00     0.001 A 
ENDBRANCH   9  23
ENDBRANCH   3   6
ENDBRANCH   1   2
BRANCH   1  32
ATOM     32  C   UNL A   1      37.730  19.944  24.930  1.00  0.00     0.042 C 
BRANCH  32  33
ATOM     33  C   UNL A   1      39.061  20.368  25.526  1.00  0.00     0.118 C 
BRANCH  33  34
ATOM     34  N   UNL A   1      39.990  19.249  25.705  1.00  0.00    -0.352 N 
ATOM     35  C   UNL A   1      41.337  19.296  26.017  1.00  0.00     0.251 C 
ATOM     36  H   UNL A   1      39.608  18.348  25.588  1.00  0.00     0.163 HD
ATOM     37  O   UNL A   1      42.071  18.341  25.795  1.00  0.00    -0.269 OA
BRANCH  35  38
ATOM     38  C   UNL A   1      41.878  20.530  26.612  1.00  0.00     0.039 A 
ATOM     39  C   UNL A   1      42.427  21.545  25.822  1.00  0.00     0.014 A 
ATOM     40  C   UNL A   1      41.753  20.688  27.988  1.00  0.00     0.014 A 
ATOM     41  C   UNL A   1      42.742  22.763  26.419  1.00  0.00     0.010 A 
ATOM     42  C   UNL A   1      41.893  21.935  28.537  1.00  0.00     0.010 A 
ATOM     43  C   UNL A   1      42.435  22.966  27.773  1.00  0.00    -0.014 A 
BRANCH  43  44
ATOM     44  C   UNL A   1      42.506  24.300  28.370  1.00  0.00     0.031 A 
ATOM     45  C   UNL A   1      41.309  25.143  28.078  1.00  0.00     0.074 A 
ATOM     46  C   UNL A   1      43.422  24.622  29.313  1.00  0.00     0.049 A 
ATOM     47  N   UNL A   1      41.262  26.263  27.438  1.00  0.00    -0.248 NA
ATOM     48  C   UNL A   1      39.977  24.602  28.410  1.00  0.00     0.031 C 
ATOM     49  C   UNL A   1      44.416  23.721  29.916  1.00  0.00     0.029 A 
ATOM     50  N   UNL A   1      43.578  25.763  30.048  1.00  0.00    -0.354 N 
ATOM     51  C   UNL A   1      39.931  26.683  27.500  1.00  0.00     0.074 A 
ATOM     52  C   UNL A   1      39.170  25.533  27.897  1.00  0.00     0.031 C 
ATOM     53  C   UNL A   1      44.866  24.246  31.074  1.00  0.00     0.029 A 
ATOM     54  C   UNL A   1      44.346  25.593  31.198  1.00  0.00     0.049 A 
ATOM     55  H   UNL A   1      43.184  26.627  29.787  1.00  0.00     0.167 HD
ATOM     56  C   UNL A   1      39.640  28.014  27.557  1.00  0.00     0.037 A 
ATOM     57  C   UNL A   1      44.527  26.485  32.203  1.00  0.00     0.037 A 
ATOM     58  C   UNL A   1      40.797  28.780  27.161  1.00  0.00     0.049 A 
ATOM     59  C   UNL A   1      44.177  27.822  31.675  1.00  0.00     0.074 A 
ATOM     60  C   UNL A   1      41.463  29.072  25.993  1.00  0.00     0.029 A 
ATOM     61  N   UNL A   1      41.651  29.036  28.197  1.00  0.00    -0.354 N 
ATOM     62  N   UNL A   1      44.861  28.433  30.748  1.00  0.00    -0.248 NA
ATOM     63  C   UNL A   1      42.844  28.357  31.928  1.00  0.00     0.031 C 
ATOM     64  C   UNL A   1      42.809  29.371  26.369  1.00  0.00     0.029 A 
ATOM     65  C   UNL A   1      42.915  29.308  27.757  1.00  0.00     0.049 A 
ATOM     66  H   UNL A   1      41.389  29.026  29.147  1.00  0.00     0.167 HD
ATOM     67  C   UNL A   1      43.907  29.115  30.021  1.00  0.00     0.074 A 
ATOM     68  C   UNL A   1      42.738  29.187  30.887  1.00  0.00     0.031 C 
ATOM     69  C   UNL A   1      44.035  29.245  28.669  1.00  0.00     0.037 A 
BRANCH  56  70
ATOM     70  C   UNL A   1      38.592  28.647  28.474  1.00  0.00     0.064 A 
ATOM     71  C   UNL A   1      37.861  29.757  27.986  1.00  0.00     0.173 A 
ATOM     72  C   UNL A   1      38.511  28.455  29.870  1.00  0.00     0.173 A 
ATOM     73  F   UNL A   1      37.840  30.041  26.675  1.00  0.00    -0.203 F 
ATOM     74  C   UNL A   1      37.216  30.661  28.837  1.00  0.00     0.198 A 
ATOM     75  C   UNL A   1      37.833  29.340  30.713  1.00  0.00     0.198 A 
ATOM     76  F   UNL A   1      39.155  27.472  30.505  1.00  0.00    -0.203 F 
ATOM     77  F   UNL A   1      36.656  31.769  28.332  1.00  0.00    -0.200 F 
ATOM     78  C   UNL A   1      37.218  30.460  30.203  1.00  0.00     0.200 A 
ATOM     79  F   UNL A   1      37.857  29.130  32.037  1.00  0.00    -0.200 F 
ATOM     80  F   UNL A   1      36.666  31.359  31.028  1.00  0.00    -0.200 F 
ENDBRANCH  56  70
BRANCH  57  81
ATOM     81  C   UNL A   1      44.761  26.242  33.646  1.00  0.00     0.064 A 
ATOM     82  C   UNL A   1      45.951  26.659  34.267  1.00  0.00     0.173 A 
ATOM     83  C   UNL A   1      43.710  25.860  34.502  1.00  0.00     0.173 A 
ATOM     84  F   UNL A   1      46.989  27.071  33.525  1.00  0.00    -0.203 F 
ATOM     85  C   UNL A   1      46.067  26.733  35.659  1.00  0.00     0.198 A 
ATOM     86  C   UNL A   1      43.829  25.927  35.892  1.00  0.00     0.198 A 
ATOM     87  F   UNL A   1      42.515  25.508  34.006  1.00  0.00    -0.203 F 
ATOM     88  F   UNL A   1      47.192  27.206  36.211  1.00  0.00    -0.200 F 
ATOM     89  C   UNL A   1      45.001  26.381  36.469  1.00  0.00     0.200 A 
ATOM     90  F   UNL A   1      42.779  25.617  36.664  1.00  0.00    -0.200 F 
ATOM     91  F   UNL A   1      45.086  26.521  37.800  1.00  0.00    -0.200 F 
ENDBRANCH  57  81
BRANCH  69  92
ATOM     92  C   UNL A   1      45.412  29.167  28.091  1.00  0.00     0.064 A 
ATOM     93  C   UNL A   1      46.034  27.989  27.650  1.00  0.00     0.173 A 
ATOM     94  C   UNL A   1      46.104  30.373  27.915  1.00  0.00     0.173 A 
ATOM     95  F   UNL A   1      45.404  26.809  27.711  1.00  0.00    -0.203 F 
ATOM     96  C   UNL A   1      47.313  28.019  27.097  1.00  0.00     0.198 A 
ATOM     97  C   UNL A   1      47.361  30.406  27.325  1.00  0.00     0.198 A 
ATOM     98  F   UNL A   1      45.537  31.533  28.285  1.00  0.00    -0.203 F 
ATOM     99  F   UNL A   1      47.903  26.881  26.703  1.00  0.00    -0.200 F 
ATOM    100  C   UNL A   1      47.971  29.228  26.928  1.00  0.00     0.200 A 
ATOM    101  F   UNL A   1      47.970  31.582  27.125  1.00  0.00    -0.200 F 
ATOM    102  F   UNL A   1      49.186  29.262  26.364  1.00  0.00    -0.200 F 
ENDBRANCH  69  92
ENDBRANCH  43  44
ENDBRANCH  35  38
ENDBRANCH  33  34
ENDBRANCH  32  33
ENDBRANCH   1  32
TORSDOF 14
ENDMDL
