MODEL 1
REMARK VINA RESULT:      -9.7      0.000      0.000
REMARK SMILES CCCC[C@@H](C(=O)NCCCNC(=O)c1ccc(-c2c3nc(c(-c4c(F)c(F)c(F)c(F)c4F)c4ccc([nH]4)c(-c4c(F)c(F)c(F)c(F)c4F)c4nc(c(-c5c(F)c(F)c(F)c(F)c5F)c5ccc2[nH]5)C=C4)C=C3)cc1)[C@H](O)c1ccc(Br)cc1F
REMARK SMILES IDX 9 1 8 2 6 3 7 4 5 6 4 7 3 8 2 9 1 10 78 11 80 12 81 13 86 14
REMARK SMILES IDX 82 15 85 16 87 17 83 18 84 19 79 20 10 22 11 23 12 24 13 25
REMARK SMILES IDX 14 27 15 28 16 29 77 30 17 31 76 32 18 33 19 34 20 35 70 36
REMARK SMILES IDX 21 37 75 38 69 39 71 40 22 41 74 42 68 43 67 44 23 46 55 47
REMARK SMILES IDX 35 48 54 49 36 50 39 51 53 52 72 53 37 54 38 55 52 57 73 58
REMARK SMILES IDX 40 59 24 60 25 61 33 62 26 63 27 64 31 65 34 66 28 67 29 68
REMARK SMILES IDX 32 69 30 70 56 71 57 72 65 73 58 74 59 75 63 76 66 77 60 78
REMARK SMILES IDX 61 79 64 80 62 81 41 82 42 83 50 84 43 85 44 86 48 87 51 88
REMARK SMILES IDX 45 89 46 90 49 91 47 92
REMARK H PARENT 8 5 79 21 12 26 71 45 39 56
REMARK Flexibility Score: inf
ROOT
ATOM      1  C   UNL A   1      42.851  20.386  26.384  1.00  0.00     0.117 C 
ENDROOT
BRANCH   1   2
ATOM      2  N   UNL A   1      43.518  20.827  25.176  1.00  0.00    -0.356 N 
ATOM      3  C   UNL A   1      43.903  22.065  24.758  1.00  0.00     0.226 C 
ATOM      4  O   UNL A   1      44.376  22.114  23.619  1.00  0.00    -0.275 OA
ATOM      5  H   UNL A   1      43.730  20.103  24.543  1.00  0.00     0.163 HD
BRANCH   3   6
ATOM      6  C   UNL A   1      43.810  23.306  25.660  1.00  0.00     0.112 C 
BRANCH   6   7
ATOM      7  C   UNL A   1      43.599  24.655  24.943  1.00  0.00     0.016 C 
BRANCH   7   8
ATOM      8  C   UNL A   1      43.853  25.990  25.638  1.00  0.00     0.001 C 
BRANCH   8   9
ATOM      9  C   UNL A   1      45.205  26.652  25.379  1.00  0.00    -0.003 C 
ATOM     10  C   UNL A   1      45.356  27.980  26.101  1.00  0.00     0.004 C 
ENDBRANCH   8   9
ENDBRANCH   7   8
ENDBRANCH   6   7
BRANCH   6  11
ATOM     11  C   UNL A   1      45.112  23.357  26.551  1.00  0.00     0.160 C 
BRANCH  11  12
ATOM     12  C   UNL A   1      45.000  23.677  28.044  1.00  0.00     0.017 A 
ATOM     13  C   UNL A   1      43.965  23.096  28.801  1.00  0.00     0.010 A 
ATOM     14  C   UNL A   1      45.858  24.553  28.726  1.00  0.00     0.130 A 
ATOM     15  C   UNL A   1      43.843  23.337  30.177  1.00  0.00     0.016 A 
ATOM     16  C   UNL A   1      45.775  24.768  30.100  1.00  0.00     0.055 A 
ATOM     17  F   UNL A   1      46.770  25.271  28.063  1.00  0.00    -0.207 F 
ATOM     18  C   UNL A   1      44.765  24.153  30.824  1.00  0.00     0.020 A 
ATOM     19  Br  UNL A   1      44.634  24.452  32.684  1.00  0.00    -0.051 Br
ENDBRANCH  11  12
BRANCH  11  20
ATOM     20  O   UNL A   1      45.833  22.128  26.363  1.00  0.00    -0.387 OA
ATOM     21  H   UNL A   1      46.005  21.719  27.225  1.00  0.00     0.211 HD
ENDBRANCH  11  20
ENDBRANCH   6  11
ENDBRANCH   3   6
ENDBRANCH   1   2
BRANCH   1  22
ATOM     22  C   UNL A   1      41.337  20.476  26.221  1.00  0.00     0.042 C 
BRANCH  22  23
ATOM     23  C   UNL A   1      40.725  21.769  26.723  1.00  0.00     0.118 C 
BRANCH  23  24
ATOM     24  N   UNL A   1      39.523  22.134  25.992  1.00  0.00    -0.352 N 
ATOM     25  C   UNL A   1      38.755  23.273  26.051  1.00  0.00     0.251 C 
ATOM     26  H   UNL A   1      39.208  21.457  25.352  1.00  0.00     0.163 HD
ATOM     27  O   UNL A   1      37.666  23.288  25.486  1.00  0.00    -0.269 OA
BRANCH  25  28
ATOM     28  C   UNL A   1      39.206  24.473  26.800  1.00  0.00     0.039 A 
ATOM     29  C   UNL A   1      39.984  25.427  26.133  1.00  0.00     0.014 A 
ATOM     30  C   UNL A   1      38.917  24.652  28.154  1.00  0.00     0.014 A 
ATOM     31  C   UNL A   1      40.422  26.572  26.808  1.00  0.00     0.010 A 
ATOM     32  C   UNL A   1      39.258  25.841  28.793  1.00  0.00     0.010 A 
ATOM     33  C   UNL A   1      40.036  26.804  28.136  1.00  0.00    -0.014 A 
BRANCH  33  34
ATOM     34  C   UNL A   1      40.474  28.019  28.875  1.00  0.00     0.031 A 
ATOM     35  C   UNL A   1      41.897  28.135  29.353  1.00  0.00     0.074 A 
ATOM     36  C   UNL A   1      39.586  28.990  29.163  1.00  0.00     0.049 A 
ATOM     37  N   UNL A   1      42.458  29.076  30.072  1.00  0.00    -0.248 NA
ATOM     38  C   UNL A   1      42.803  27.030  29.005  1.00  0.00     0.031 C 
ATOM     39  C   UNL A   1      38.170  28.979  28.792  1.00  0.00     0.029 A 
ATOM     40  N   UNL A   1      39.742  30.173  29.839  1.00  0.00    -0.354 N 
ATOM     41  C   UNL A   1      43.771  28.664  30.273  1.00  0.00     0.074 A 
ATOM     42  C   UNL A   1      43.902  27.359  29.664  1.00  0.00     0.031 C 
ATOM     43  C   UNL A   1      37.597  30.119  29.210  1.00  0.00     0.029 A 
ATOM     44  C   UNL A   1      38.592  30.921  29.917  1.00  0.00     0.049 A 
ATOM     45  H   UNL A   1      40.598  30.460  30.232  1.00  0.00     0.167 HD
ATOM     46  C   UNL A   1      44.785  29.326  30.881  1.00  0.00     0.037 A 
ATOM     47  C   UNL A   1      38.367  32.116  30.493  1.00  0.00     0.037 A 
ATOM     48  C   UNL A   1      44.658  30.635  31.464  1.00  0.00     0.049 A 
ATOM     49  C   UNL A   1      39.503  32.822  31.185  1.00  0.00     0.074 A 
ATOM     50  C   UNL A   1      45.631  31.414  32.063  1.00  0.00     0.029 A 
ATOM     51  N   UNL A   1      43.474  31.359  31.521  1.00  0.00    -0.354 N 
ATOM     52  N   UNL A   1      40.753  32.451  31.317  1.00  0.00    -0.248 NA
ATOM     53  C   UNL A   1      39.193  34.118  31.805  1.00  0.00     0.031 C 
ATOM     54  C   UNL A   1      45.028  32.589  32.524  1.00  0.00     0.029 A 
ATOM     55  C   UNL A   1      43.690  32.568  32.164  1.00  0.00     0.049 A 
ATOM     56  H   UNL A   1      42.610  31.059  31.159  1.00  0.00     0.167 HD
ATOM     57  C   UNL A   1      41.387  33.479  32.001  1.00  0.00     0.074 A 
ATOM     58  C   UNL A   1      40.385  34.495  32.248  1.00  0.00     0.031 C 
ATOM     59  C   UNL A   1      42.683  33.573  32.390  1.00  0.00     0.037 A 
BRANCH  46  60
ATOM     60  C   UNL A   1      46.121  28.638  30.939  1.00  0.00     0.064 A 
ATOM     61  C   UNL A   1      46.508  27.875  32.053  1.00  0.00     0.173 A 
ATOM     62  C   UNL A   1      47.024  28.739  29.871  1.00  0.00     0.173 A 
ATOM     63  F   UNL A   1      45.688  27.754  33.108  1.00  0.00    -0.203 F 
ATOM     64  C   UNL A   1      47.764  27.277  32.112  1.00  0.00     0.198 A 
ATOM     65  C   UNL A   1      48.266  28.108  29.919  1.00  0.00     0.198 A 
ATOM     66  F   UNL A   1      46.705  29.449  28.779  1.00  0.00    -0.203 F 
ATOM     67  F   UNL A   1      48.136  26.613  33.216  1.00  0.00    -0.200 F 
ATOM     68  C   UNL A   1      48.640  27.390  31.045  1.00  0.00     0.200 A 
ATOM     69  F   UNL A   1      49.106  28.207  28.879  1.00  0.00    -0.200 F 
ATOM     70  F   UNL A   1      49.849  26.816  31.103  1.00  0.00    -0.200 F 
ENDBRANCH  46  60
BRANCH  47  71
ATOM     71  C   UNL A   1      37.022  32.743  30.405  1.00  0.00     0.064 A 
ATOM     72  C   UNL A   1      36.090  32.583  31.441  1.00  0.00     0.173 A 
ATOM     73  C   UNL A   1      36.639  33.510  29.295  1.00  0.00     0.173 A 
ATOM     74  F   UNL A   1      36.404  31.842  32.513  1.00  0.00    -0.203 F 
ATOM     75  C   UNL A   1      34.820  33.151  31.362  1.00  0.00     0.198 A 
ATOM     76  C   UNL A   1      35.378  34.101  29.231  1.00  0.00     0.198 A 
ATOM     77  F   UNL A   1      37.493  33.697  28.279  1.00  0.00    -0.203 F 
ATOM     78  F   UNL A   1      33.935  32.946  32.347  1.00  0.00    -0.200 F 
ATOM     79  C   UNL A   1      34.467  33.914  30.260  1.00  0.00     0.200 A 
ATOM     80  F   UNL A   1      35.045  34.850  28.171  1.00  0.00    -0.200 F 
ATOM     81  F   UNL A   1      33.248  34.465  30.187  1.00  0.00    -0.200 F 
ENDBRANCH  47  71
BRANCH  59  82
ATOM     82  C   UNL A   1      43.102  34.838  33.082  1.00  0.00     0.064 A 
ATOM     83  C   UNL A   1      43.466  35.988  32.366  1.00  0.00     0.173 A 
ATOM     84  C   UNL A   1      43.101  34.911  34.483  1.00  0.00     0.173 A 
ATOM     85  F   UNL A   1      43.498  35.966  31.025  1.00  0.00    -0.203 F 
ATOM     86  C   UNL A   1      43.840  37.154  33.027  1.00  0.00     0.198 A 
ATOM     87  C   UNL A   1      43.445  36.088  35.142  1.00  0.00     0.198 A 
ATOM     88  F   UNL A   1      42.755  33.841  35.216  1.00  0.00    -0.203 F 
ATOM     89  F   UNL A   1      44.233  38.224  32.324  1.00  0.00    -0.200 F 
ATOM     90  C   UNL A   1      43.822  37.205  34.413  1.00  0.00     0.200 A 
ATOM     91  F   UNL A   1      43.412  36.140  36.480  1.00  0.00    -0.200 F 
ATOM     92  F   UNL A   1      44.174  38.332  35.048  1.00  0.00    -0.200 F 
ENDBRANCH  59  82
ENDBRANCH  33  34
ENDBRANCH  25  28
ENDBRANCH  23  24
ENDBRANCH  22  23
ENDBRANCH   1  22
TORSDOF 16
ENDMDL
MODEL 2
REMARK VINA RESULT:      -9.6      3.876     10.752
REMARK SMILES CCCC[C@@H](C(=O)NCCCNC(=O)c1ccc(-c2c3nc(c(-c4c(F)c(F)c(F)c(F)c4F)c4ccc([nH]4)c(-c4c(F)c(F)c(F)c(F)c4F)c4nc(c(-c5c(F)c(F)c(F)c(F)c5F)c5ccc2[nH]5)C=C4)C=C3)cc1)[C@H](O)c1ccc(Br)cc1F
REMARK SMILES IDX 9 1 8 2 6 3 7 4 5 6 4 7 3 8 2 9 1 10 78 11 80 12 81 13 86 14
REMARK SMILES IDX 82 15 85 16 87 17 83 18 84 19 79 20 10 22 11 23 12 24 13 25
REMARK SMILES IDX 14 27 15 28 16 29 77 30 17 31 76 32 18 33 19 34 20 35 70 36
REMARK SMILES IDX 21 37 75 38 69 39 71 40 22 41 74 42 68 43 67 44 23 46 55 47
REMARK SMILES IDX 35 48 54 49 36 50 39 51 53 52 72 53 37 54 38 55 52 57 73 58
REMARK SMILES IDX 40 59 24 60 25 61 33 62 26 63 27 64 31 65 34 66 28 67 29 68
REMARK SMILES IDX 32 69 30 70 56 71 57 72 65 73 58 74 59 75 63 76 66 77 60 78
REMARK SMILES IDX 61 79 64 80 62 81 41 82 42 83 50 84 43 85 44 86 48 87 51 88
REMARK SMILES IDX 45 89 46 90 49 91 47 92
REMARK H PARENT 8 5 79 21 12 26 71 45 39 56
REMARK Flexibility Score: inf
ROOT
ATOM      1  C   UNL A   1      34.426  32.602  30.766  1.00  0.00     0.117 C 
ENDROOT
BRANCH   1   2
ATOM      2  N   UNL A   1      34.290  33.069  32.131  1.00  0.00    -0.356 N 
ATOM      3  C   UNL A   1      35.178  33.116  33.162  1.00  0.00     0.226 C 
ATOM      4  O   UNL A   1      34.715  33.496  34.241  1.00  0.00    -0.275 OA
ATOM      5  H   UNL A   1      33.395  33.413  32.353  1.00  0.00     0.163 HD
BRANCH   3   6
ATOM      6  C   UNL A   1      36.667  32.778  32.984  1.00  0.00     0.112 C 
BRANCH   6   7
ATOM      7  C   UNL A   1      37.287  31.851  34.050  1.00  0.00     0.016 C 
BRANCH   7   8
ATOM      8  C   UNL A   1      38.207  32.380  35.146  1.00  0.00     0.001 C 
BRANCH   8   9
ATOM      9  C   UNL A   1      37.563  33.248  36.224  1.00  0.00    -0.003 C 
ATOM     10  C   UNL A   1      38.542  34.221  36.857  1.00  0.00     0.004 C 
ENDBRANCH   8   9
ENDBRANCH   7   8
ENDBRANCH   6   7
BRANCH   6  11
ATOM     11  C   UNL A   1      37.468  34.136  32.907  1.00  0.00     0.160 C 
BRANCH  11  12
ATOM     12  C   UNL A   1      38.703  34.241  32.009  1.00  0.00     0.017 A 
ATOM     13  C   UNL A   1      38.557  34.124  30.613  1.00  0.00     0.010 A 
ATOM     14  C   UNL A   1      40.010  34.421  32.487  1.00  0.00     0.130 A 
ATOM     15  C   UNL A   1      39.656  34.244  29.751  1.00  0.00     0.016 A 
ATOM     16  C   UNL A   1      41.105  34.585  31.641  1.00  0.00     0.055 A 
ATOM     17  F   UNL A   1      40.268  34.386  33.799  1.00  0.00    -0.207 F 
ATOM     18  C   UNL A   1      40.921  34.499  30.270  1.00  0.00     0.020 A 
ATOM     19  Br  UNL A   1      42.402  34.702  29.115  1.00  0.00    -0.051 Br
ENDBRANCH  11  12
BRANCH  11  20
ATOM     20  O   UNL A   1      36.539  35.187  32.593  1.00  0.00    -0.387 OA
ATOM     21  H   UNL A   1      35.959  34.901  31.872  1.00  0.00     0.211 HD
ENDBRANCH  11  20
ENDBRANCH   6  11
ENDBRANCH   3   6
ENDBRANCH   1   2
BRANCH   1  22
ATOM     22  C   UNL A   1      34.675  33.775  29.824  1.00  0.00     0.042 C 
BRANCH  22  23
ATOM     23  C   UNL A   1      35.101  33.380  28.424  1.00  0.00     0.118 C 
BRANCH  23  24
ATOM     24  N   UNL A   1      34.343  32.251  27.911  1.00  0.00    -0.352 N 
ATOM     25  C   UNL A   1      34.712  30.938  27.729  1.00  0.00     0.251 C 
ATOM     26  H   UNL A   1      33.417  32.459  27.654  1.00  0.00     0.163 HD
ATOM     27  O   UNL A   1      33.970  30.194  27.095  1.00  0.00    -0.269 OA
BRANCH  25  28
ATOM     28  C   UNL A   1      35.993  30.413  28.264  1.00  0.00     0.039 A 
ATOM     29  C   UNL A   1      35.977  29.708  29.472  1.00  0.00     0.014 A 
ATOM     30  C   UNL A   1      37.211  30.642  27.621  1.00  0.00     0.014 A 
ATOM     31  C   UNL A   1      37.166  29.195  30.002  1.00  0.00     0.010 A 
ATOM     32  C   UNL A   1      38.375  30.037  28.089  1.00  0.00     0.010 A 
ATOM     33  C   UNL A   1      38.372  29.328  29.298  1.00  0.00    -0.014 A 
BRANCH  33  34
ATOM     34  C   UNL A   1      39.650  28.782  29.828  1.00  0.00     0.031 A 
ATOM     35  C   UNL A   1      40.336  29.460  30.984  1.00  0.00     0.074 A 
ATOM     36  C   UNL A   1      40.220  27.711  29.241  1.00  0.00     0.049 A 
ATOM     37  N   UNL A   1      41.487  29.185  31.546  1.00  0.00    -0.248 NA
ATOM     38  C   UNL A   1      39.653  30.627  31.565  1.00  0.00     0.031 C 
ATOM     39  C   UNL A   1      39.678  26.988  28.090  1.00  0.00     0.029 A 
ATOM     40  N   UNL A   1      41.387  27.049  29.530  1.00  0.00    -0.354 N 
ATOM     41  C   UNL A   1      41.668  30.151  32.528  1.00  0.00     0.074 A 
ATOM     42  C   UNL A   1      40.547  31.060  32.438  1.00  0.00     0.031 C 
ATOM     43  C   UNL A   1      40.489  25.959  27.796  1.00  0.00     0.029 A 
ATOM     44  C   UNL A   1      41.630  25.976  28.707  1.00  0.00     0.049 A 
ATOM     45  H   UNL A   1      41.992  27.317  30.258  1.00  0.00     0.167 HD
ATOM     46  C   UNL A   1      42.660  30.255  33.445  1.00  0.00     0.037 A 
ATOM     47  C   UNL A   1      42.657  25.106  28.690  1.00  0.00     0.037 A 
ATOM     48  C   UNL A   1      43.761  29.334  33.549  1.00  0.00     0.049 A 
ATOM     49  C   UNL A   1      43.761  25.255  29.703  1.00  0.00     0.074 A 
ATOM     50  C   UNL A   1      44.794  29.321  34.468  1.00  0.00     0.029 A 
ATOM     51  N   UNL A   1      43.970  28.259  32.696  1.00  0.00    -0.354 N 
ATOM     52  N   UNL A   1      43.891  26.137  30.664  1.00  0.00    -0.248 NA
ATOM     53  C   UNL A   1      44.861  24.283  29.627  1.00  0.00     0.031 C 
ATOM     54  C   UNL A   1      45.654  28.266  34.145  1.00  0.00     0.029 A 
ATOM     55  C   UNL A   1      45.129  27.588  33.056  1.00  0.00     0.049 A 
ATOM     56  H   UNL A   1      43.383  28.010  31.946  1.00  0.00     0.167 HD
ATOM     57  C   UNL A   1      45.064  25.806  31.329  1.00  0.00     0.074 A 
ATOM     58  C   UNL A   1      45.602  24.636  30.667  1.00  0.00     0.031 C 
ATOM     59  C   UNL A   1      45.643  26.417  32.393  1.00  0.00     0.037 A 
BRANCH  46  60
ATOM     60  C   UNL A   1      42.591  31.407  34.409  1.00  0.00     0.064 A 
ATOM     61  C   UNL A   1      41.880  31.315  35.617  1.00  0.00     0.173 A 
ATOM     62  C   UNL A   1      43.244  32.615  34.127  1.00  0.00     0.173 A 
ATOM     63  F   UNL A   1      41.227  30.186  35.932  1.00  0.00    -0.203 F 
ATOM     64  C   UNL A   1      41.789  32.402  36.482  1.00  0.00     0.198 A 
ATOM     65  C   UNL A   1      43.182  33.690  35.013  1.00  0.00     0.198 A 
ATOM     66  F   UNL A   1      43.944  32.758  32.992  1.00  0.00    -0.203 F 
ATOM     67  F   UNL A   1      41.046  32.311  37.594  1.00  0.00    -0.200 F 
ATOM     68  C   UNL A   1      42.443  33.587  36.182  1.00  0.00     0.200 A 
ATOM     69  F   UNL A   1      43.827  34.830  34.728  1.00  0.00    -0.200 F 
ATOM     70  F   UNL A   1      42.355  34.633  37.014  1.00  0.00    -0.200 F 
ENDBRANCH  46  60
BRANCH  47  71
ATOM     71  C   UNL A   1      42.670  23.989  27.709  1.00  0.00     0.064 A 
ATOM     72  C   UNL A   1      42.219  22.712  28.074  1.00  0.00     0.173 A 
ATOM     73  C   UNL A   1      43.127  24.168  26.396  1.00  0.00     0.173 A 
ATOM     74  F   UNL A   1      41.791  22.487  29.325  1.00  0.00    -0.203 F 
ATOM     75  C   UNL A   1      42.242  21.653  27.169  1.00  0.00     0.198 A 
ATOM     76  C   UNL A   1      43.123  23.115  25.483  1.00  0.00     0.198 A 
ATOM     77  F   UNL A   1      43.565  25.370  25.994  1.00  0.00    -0.203 F 
ATOM     78  F   UNL A   1      41.846  20.434  27.558  1.00  0.00    -0.200 F 
ATOM     79  C   UNL A   1      42.688  21.857  25.872  1.00  0.00     0.200 A 
ATOM     80  F   UNL A   1      43.541  23.319  24.226  1.00  0.00    -0.200 F 
ATOM     81  F   UNL A   1      42.704  20.840  25.000  1.00  0.00    -0.200 F 
ENDBRANCH  47  71
BRANCH  59  82
ATOM     82  C   UNL A   1      46.900  25.803  32.937  1.00  0.00     0.064 A 
ATOM     83  C   UNL A   1      46.871  24.804  33.922  1.00  0.00     0.173 A 
ATOM     84  C   UNL A   1      48.152  26.193  32.436  1.00  0.00     0.173 A 
ATOM     85  F   UNL A   1      45.701  24.407  34.445  1.00  0.00    -0.203 F 
ATOM     86  C   UNL A   1      48.048  24.240  34.404  1.00  0.00     0.198 A 
ATOM     87  C   UNL A   1      49.326  25.604  32.897  1.00  0.00     0.198 A 
ATOM     88  F   UNL A   1      48.236  27.139  31.488  1.00  0.00    -0.203 F 
ATOM     89  F   UNL A   1      47.999  23.325  35.381  1.00  0.00    -0.200 F 
ATOM     90  C   UNL A   1      49.273  24.635  33.886  1.00  0.00     0.200 A 
ATOM     91  F   UNL A   1      50.507  25.976  32.384  1.00  0.00    -0.200 F 
ATOM     92  F   UNL A   1      50.405  24.084  34.346  1.00  0.00    -0.200 F 
ENDBRANCH  59  82
ENDBRANCH  33  34
ENDBRANCH  25  28
ENDBRANCH  23  24
ENDBRANCH  22  23
ENDBRANCH   1  22
TORSDOF 16
ENDMDL
MODEL 3
REMARK VINA RESULT:      -9.5      3.800     10.808
REMARK SMILES CCCC[C@@H](C(=O)NCCCNC(=O)c1ccc(-c2c3nc(c(-c4c(F)c(F)c(F)c(F)c4F)c4ccc([nH]4)c(-c4c(F)c(F)c(F)c(F)c4F)c4nc(c(-c5c(F)c(F)c(F)c(F)c5F)c5ccc2[nH]5)C=C4)C=C3)cc1)[C@H](O)c1ccc(Br)cc1F
REMARK SMILES IDX 9 1 8 2 6 3 7 4 5 6 4 7 3 8 2 9 1 10 78 11 80 12 81 13 86 14
REMARK SMILES IDX 82 15 85 16 87 17 83 18 84 19 79 20 10 22 11 23 12 24 13 25
REMARK SMILES IDX 14 27 15 28 16 29 77 30 17 31 76 32 18 33 19 34 20 35 70 36
REMARK SMILES IDX 21 37 75 38 69 39 71 40 22 41 74 42 68 43 67 44 23 46 55 47
REMARK SMILES IDX 35 48 54 49 36 50 39 51 53 52 72 53 37 54 38 55 52 57 73 58
REMARK SMILES IDX 40 59 24 60 25 61 33 62 26 63 27 64 31 65 34 66 28 67 29 68
REMARK SMILES IDX 32 69 30 70 56 71 57 72 65 73 58 74 59 75 63 76 66 77 60 78
REMARK SMILES IDX 61 79 64 80 62 81 41 82 42 83 50 84 43 85 44 86 48 87 51 88
REMARK SMILES IDX 45 89 46 90 49 91 47 92
REMARK H PARENT 8 5 79 21 12 26 71 45 39 56
REMARK Flexibility Score: inf
ROOT
ATOM      1  C   UNL A   1      34.740  32.487  30.860  1.00  0.00     0.117 C 
ENDROOT
BRANCH   1   2
ATOM      2  N   UNL A   1      34.473  33.006  32.187  1.00  0.00    -0.356 N 
ATOM      3  C   UNL A   1      35.275  33.153  33.277  1.00  0.00     0.226 C 
ATOM      4  O   UNL A   1      34.710  33.552  34.299  1.00  0.00    -0.275 OA
ATOM      5  H   UNL A   1      33.545  33.306  32.324  1.00  0.00     0.163 HD
BRANCH   3   6
ATOM      6  C   UNL A   1      36.790  32.896  33.226  1.00  0.00     0.112 C 
BRANCH   6   7
ATOM      7  C   UNL A   1      37.401  32.184  34.451  1.00  0.00     0.016 C 
BRANCH   7   8
ATOM      8  C   UNL A   1      38.083  32.953  35.578  1.00  0.00     0.001 C 
BRANCH   8   9
ATOM      9  C   UNL A   1      37.189  33.444  36.714  1.00  0.00    -0.003 C 
ATOM     10  C   UNL A   1      37.572  32.855  38.060  1.00  0.00     0.004 C 
ENDBRANCH   8   9
ENDBRANCH   7   8
ENDBRANCH   6   7
BRANCH   6  11
ATOM     11  C   UNL A   1      37.509  34.279  32.982  1.00  0.00     0.160 C 
BRANCH  11  12
ATOM     12  C   UNL A   1      38.758  34.342  32.098  1.00  0.00     0.017 A 
ATOM     13  C   UNL A   1      40.013  34.582  32.689  1.00  0.00     0.010 A 
ATOM     14  C   UNL A   1      38.739  34.203  30.702  1.00  0.00     0.130 A 
ATOM     15  C   UNL A   1      41.186  34.617  31.921  1.00  0.00     0.016 A 
ATOM     16  C   UNL A   1      39.901  34.192  29.932  1.00  0.00     0.055 A 
ATOM     17  F   UNL A   1      37.582  34.128  30.037  1.00  0.00    -0.207 F 
ATOM     18  C   UNL A   1      41.125  34.397  30.549  1.00  0.00     0.020 A 
ATOM     19  Br  UNL A   1      42.704  34.402  29.512  1.00  0.00    -0.051 Br
ENDBRANCH  11  12
BRANCH  11  20
ATOM     20  O   UNL A   1      36.527  35.220  32.517  1.00  0.00    -0.387 OA
ATOM     21  H   UNL A   1      36.939  35.832  31.888  1.00  0.00     0.211 HD
ENDBRANCH  11  20
ENDBRANCH   6  11
ENDBRANCH   3   6
ENDBRANCH   1   2
BRANCH   1  22
ATOM     22  C   UNL A   1      34.486  33.561  29.807  1.00  0.00     0.042 C 
BRANCH  22  23
ATOM     23  C   UNL A   1      34.949  33.196  28.410  1.00  0.00     0.118 C 
BRANCH  23  24
ATOM     24  N   UNL A   1      34.204  32.080  27.853  1.00  0.00    -0.352 N 
ATOM     25  C   UNL A   1      34.578  30.773  27.644  1.00  0.00     0.251 C 
ATOM     26  H   UNL A   1      33.283  32.294  27.582  1.00  0.00     0.163 HD
ATOM     27  O   UNL A   1      33.851  30.045  26.975  1.00  0.00    -0.269 OA
BRANCH  25  28
ATOM     28  C   UNL A   1      35.849  30.235  28.190  1.00  0.00     0.039 A 
ATOM     29  C   UNL A   1      37.035  30.462  27.482  1.00  0.00     0.014 A 
ATOM     30  C   UNL A   1      35.886  29.474  29.361  1.00  0.00     0.014 A 
ATOM     31  C   UNL A   1      38.250  29.972  27.972  1.00  0.00     0.010 A 
ATOM     32  C   UNL A   1      37.107  29.083  29.905  1.00  0.00     0.010 A 
ATOM     33  C   UNL A   1      38.301  29.305  29.205  1.00  0.00    -0.014 A 
BRANCH  33  34
ATOM     34  C   UNL A   1      39.580  28.786  29.759  1.00  0.00     0.031 A 
ATOM     35  C   UNL A   1      40.233  29.482  30.924  1.00  0.00     0.074 A 
ATOM     36  C   UNL A   1      40.181  27.725  29.187  1.00  0.00     0.049 A 
ATOM     37  N   UNL A   1      41.380  29.231  31.507  1.00  0.00    -0.248 NA
ATOM     38  C   UNL A   1      39.517  30.636  31.489  1.00  0.00     0.031 C 
ATOM     39  C   UNL A   1      39.673  26.987  28.030  1.00  0.00     0.029 A 
ATOM     40  N   UNL A   1      41.356  27.086  29.498  1.00  0.00    -0.354 N 
ATOM     41  C   UNL A   1      41.524  30.205  32.488  1.00  0.00     0.074 A 
ATOM     42  C   UNL A   1      40.387  31.091  32.376  1.00  0.00     0.031 C 
ATOM     43  C   UNL A   1      40.509  25.974  27.753  1.00  0.00     0.029 A 
ATOM     44  C   UNL A   1      41.634  26.016  28.683  1.00  0.00     0.049 A 
ATOM     45  H   UNL A   1      41.943  27.369  30.235  1.00  0.00     0.167 HD
ATOM     46  C   UNL A   1      42.499  30.331  33.422  1.00  0.00     0.037 A 
ATOM     47  C   UNL A   1      42.678  25.167  28.687  1.00  0.00     0.037 A 
ATOM     48  C   UNL A   1      43.615  29.433  33.548  1.00  0.00     0.049 A 
ATOM     49  C   UNL A   1      43.762  25.341  29.718  1.00  0.00     0.074 A 
ATOM     50  C   UNL A   1      44.632  29.443  34.485  1.00  0.00     0.029 A 
ATOM     51  N   UNL A   1      43.860  28.359  32.702  1.00  0.00    -0.354 N 
ATOM     52  N   UNL A   1      43.858  26.229  30.677  1.00  0.00    -0.248 NA
ATOM     53  C   UNL A   1      44.882  24.391  29.664  1.00  0.00     0.031 C 
ATOM     54  C   UNL A   1      45.519  28.405  34.180  1.00  0.00     0.029 A 
ATOM     55  C   UNL A   1      45.025  27.713  33.085  1.00  0.00     0.049 A 
ATOM     56  H   UNL A   1      43.291  28.096  31.944  1.00  0.00     0.167 HD
ATOM     57  C   UNL A   1      45.026  25.924  31.364  1.00  0.00     0.074 A 
ATOM     58  C   UNL A   1      45.598  24.762  30.716  1.00  0.00     0.031 C 
ATOM     59  C   UNL A   1      45.574  26.549  32.435  1.00  0.00     0.037 A 
BRANCH  46  60
ATOM     60  C   UNL A   1      42.390  31.485  34.380  1.00  0.00     0.064 A 
ATOM     61  C   UNL A   1      43.033  32.709  34.134  1.00  0.00     0.173 A 
ATOM     62  C   UNL A   1      41.635  31.370  35.556  1.00  0.00     0.173 A 
ATOM     63  F   UNL A   1      43.778  32.871  33.030  1.00  0.00    -0.203 F 
ATOM     64  C   UNL A   1      42.959  33.757  35.049  1.00  0.00     0.198 A 
ATOM     65  C   UNL A   1      41.533  32.432  36.451  1.00  0.00     0.198 A 
ATOM     66  F   UNL A   1      40.994  30.226  35.839  1.00  0.00    -0.203 F 
ATOM     67  F   UNL A   1      43.639  34.889  34.823  1.00  0.00    -0.200 F 
ATOM     68  C   UNL A   1      42.206  33.620  36.204  1.00  0.00     0.200 A 
ATOM     69  F   UNL A   1      40.793  32.302  37.562  1.00  0.00    -0.200 F 
ATOM     70  F   UNL A   1      42.136  34.627  37.084  1.00  0.00    -0.200 F 
ENDBRANCH  46  60
BRANCH  47  71
ATOM     71  C   UNL A   1      42.730  24.047  27.710  1.00  0.00     0.064 A 
ATOM     72  C   UNL A   1      43.254  24.244  26.425  1.00  0.00     0.173 A 
ATOM     73  C   UNL A   1      42.262  22.765  28.034  1.00  0.00     0.173 A 
ATOM     74  F   UNL A   1      43.695  25.458  26.062  1.00  0.00    -0.203 F 
ATOM     75  C   UNL A   1      43.292  23.208  25.494  1.00  0.00     0.198 A 
ATOM     76  C   UNL A   1      42.327  21.722  27.112  1.00  0.00     0.198 A 
ATOM     77  F   UNL A   1      41.755  22.522  29.251  1.00  0.00    -0.203 F 
ATOM     78  F   UNL A   1      43.758  23.436  24.260  1.00  0.00    -0.200 F 
ATOM     79  C   UNL A   1      42.834  21.946  25.841  1.00  0.00     0.200 A 
ATOM     80  F   UNL A   1      41.897  20.500  27.455  1.00  0.00    -0.200 F 
ATOM     81  F   UNL A   1      42.876  20.948  24.948  1.00  0.00    -0.200 F 
ENDBRANCH  47  71
BRANCH  59  82
ATOM     82  C   UNL A   1      46.834  25.963  33.003  1.00  0.00     0.064 A 
ATOM     83  C   UNL A   1      48.103  26.411  32.605  1.00  0.00     0.173 A 
ATOM     84  C   UNL A   1      46.769  24.965  33.988  1.00  0.00     0.173 A 
ATOM     85  F   UNL A   1      48.219  27.352  31.656  1.00  0.00    -0.203 F 
ATOM     86  C   UNL A   1      49.259  25.862  33.153  1.00  0.00     0.198 A 
ATOM     87  C   UNL A   1      47.927  24.441  34.557  1.00  0.00     0.198 A 
ATOM     88  F   UNL A   1      45.581  24.506  34.408  1.00  0.00    -0.203 F 
ATOM     89  F   UNL A   1      50.461  26.269  32.722  1.00  0.00    -0.200 F 
ATOM     90  C   UNL A   1      49.170  24.884  34.132  1.00  0.00     0.200 A 
ATOM     91  F   UNL A   1      47.838  23.508  35.514  1.00  0.00    -0.200 F 
ATOM     92  F   UNL A   1      50.285  24.363  34.664  1.00  0.00    -0.200 F 
ENDBRANCH  59  82
ENDBRANCH  33  34
ENDBRANCH  25  28
ENDBRANCH  23  24
ENDBRANCH  22  23
ENDBRANCH   1  22
TORSDOF 16
ENDMDL
