MODEL 1
REMARK VINA RESULT:     -10.0      0.000      0.000
REMARK SMILES CC[C@H](c1ccccc1)[C@@H](C)OC(=O)c1ccccc1C(=O)NCCCNC(=O)c1ccc(-c2c3nc(c(-c4c(F)c(F)c(F)c(F)c4F)c4ccc([nH]4)c(-c4c(F)c(F)c(F)c(F)c4F)c4nc(c(-c5c(F)c(F)c(F)c(F)c5F)c5ccc2[nH]5)C=C4)C=C3)cc1
REMARK SMILES IDX 21 1 22 2 23 3 20 5 15 6 16 7 17 8 19 9 18 10 13 11 14 12
REMARK SMILES IDX 12 13 10 14 11 15 3 16 2 17 1 18 4 19 5 20 9 21 6 22 8 23
REMARK SMILES IDX 7 24 24 25 25 26 26 27 27 28 28 29 29 31 30 32 31 33 92 34
REMARK SMILES IDX 32 35 91 36 33 37 34 38 35 39 85 40 36 41 90 42 84 43 86 44
REMARK SMILES IDX 37 45 89 46 83 47 82 48 38 50 70 51 50 52 69 53 51 54 54 55
REMARK SMILES IDX 68 56 87 57 52 58 53 59 67 61 88 62 55 63 39 64 40 65 48 66
REMARK SMILES IDX 41 67 42 68 46 69 49 70 43 71 44 72 47 73 45 74 71 75 72 76
REMARK SMILES IDX 80 77 73 78 74 79 78 80 81 81 75 82 76 83 79 84 77 85 56 86
REMARK SMILES IDX 57 87 65 88 58 89 59 90 63 91 66 92 60 93 61 94 64 95 62 96
REMARK H PARENT 23 4 27 30 86 49 54 60
REMARK Flexibility Score: inf
ROOT
ATOM      1  C   UNL A   1      43.142  23.205  25.778  1.00  0.00     0.252 C 
ATOM      2  O   UNL A   1      43.034  24.255  25.151  1.00  0.00    -0.269 OA
ATOM      3  N   UNL A   1      42.792  22.024  25.177  1.00  0.00    -0.352 N 
ATOM      4  H   UNL A   1      42.604  22.083  24.212  1.00  0.00     0.163 HD
ENDROOT
BRANCH   1   5
ATOM      5  C   UNL A   1      43.545  23.259  27.194  1.00  0.00     0.054 A 
ATOM      6  C   UNL A   1      44.861  23.442  27.630  1.00  0.00     0.072 A 
ATOM      7  C   UNL A   1      45.139  23.467  29.006  1.00  0.00     0.016 A 
ATOM      8  C   UNL A   1      44.103  23.359  29.937  1.00  0.00     0.001 A 
ATOM      9  C   UNL A   1      42.507  23.173  28.135  1.00  0.00     0.015 A 
ATOM     10  C   UNL A   1      42.786  23.218  29.502  1.00  0.00     0.001 A 
BRANCH   6  11
ATOM     11  C   UNL A   1      46.012  23.521  26.715  1.00  0.00     0.339 C 
ATOM     12  O   UNL A   1      46.329  22.577  26.012  1.00  0.00    -0.246 OA
BRANCH  11  13
ATOM     13  O   UNL A   1      46.612  24.730  26.794  1.00  0.00    -0.458 OA
BRANCH  13  14
ATOM     14  C   UNL A   1      46.232  25.772  25.847  1.00  0.00     0.181 C 
ATOM     15  C   UNL A   1      47.058  25.594  24.581  1.00  0.00     0.053 C 
BRANCH  14  16
ATOM     16  C   UNL A   1      46.251  27.222  26.419  1.00  0.00     0.060 C 
BRANCH  16  17
ATOM     17  C   UNL A   1      46.849  27.210  27.845  1.00  0.00     0.009 C 
ATOM     18  C   UNL A   1      48.228  27.851  27.924  1.00  0.00     0.005 C 
ENDBRANCH  16  17
BRANCH  16  19
ATOM     19  C   UNL A   1      44.873  27.879  26.326  1.00  0.00    -0.041 A 
ATOM     20  C   UNL A   1      44.629  29.061  27.051  1.00  0.00     0.004 A 
ATOM     21  C   UNL A   1      43.857  27.387  25.496  1.00  0.00     0.004 A 
ATOM     22  C   UNL A   1      43.406  29.727  26.949  1.00  0.00     0.000 A 
ATOM     23  C   UNL A   1      42.628  28.048  25.407  1.00  0.00     0.000 A 
ATOM     24  C   UNL A   1      42.404  29.218  26.129  1.00  0.00     0.000 A 
ENDBRANCH  16  19
ENDBRANCH  14  16
ENDBRANCH  13  14
ENDBRANCH  11  13
ENDBRANCH   6  11
ENDBRANCH   1   5
BRANCH   3  25
ATOM     25  C   UNL A   1      42.657  20.700  25.752  1.00  0.00     0.118 C 
BRANCH  25  26
ATOM     26  C   UNL A   1      41.247  20.275  26.193  1.00  0.00     0.042 C 
BRANCH  26  27
ATOM     27  C   UNL A   1      40.347  21.311  26.863  1.00  0.00     0.118 C 
BRANCH  27  28
ATOM     28  N   UNL A   1      39.284  21.833  26.011  1.00  0.00    -0.352 N 
ATOM     29  C   UNL A   1      38.716  23.082  25.906  1.00  0.00     0.251 C 
ATOM     30  H   UNL A   1      38.901  21.166  25.395  1.00  0.00     0.163 HD
ATOM     31  O   UNL A   1      37.773  23.259  25.138  1.00  0.00    -0.269 OA
BRANCH  29  32
ATOM     32  C   UNL A   1      39.206  24.227  26.699  1.00  0.00     0.039 A 
ATOM     33  C   UNL A   1      38.808  24.359  28.038  1.00  0.00     0.014 A 
ATOM     34  C   UNL A   1      39.959  25.232  26.103  1.00  0.00     0.014 A 
ATOM     35  C   UNL A   1      39.208  25.474  28.787  1.00  0.00     0.010 A 
ATOM     36  C   UNL A   1      40.427  26.295  26.866  1.00  0.00     0.010 A 
ATOM     37  C   UNL A   1      40.040  26.442  28.207  1.00  0.00    -0.014 A 
BRANCH  37  38
ATOM     38  C   UNL A   1      40.467  27.682  28.905  1.00  0.00     0.031 A 
ATOM     39  C   UNL A   1      41.823  27.700  29.557  1.00  0.00     0.074 A 
ATOM     40  C   UNL A   1      39.615  28.708  29.081  1.00  0.00     0.049 A 
ATOM     41  N   UNL A   1      42.278  28.456  30.521  1.00  0.00    -0.248 NA
ATOM     42  C   UNL A   1      42.773  26.676  29.093  1.00  0.00     0.031 C 
ATOM     43  C   UNL A   1      38.283  28.819  28.491  1.00  0.00     0.029 A 
ATOM     44  N   UNL A   1      39.737  29.839  29.849  1.00  0.00    -0.354 N 
ATOM     45  C   UNL A   1      43.533  27.946  30.834  1.00  0.00     0.074 A 
ATOM     46  C   UNL A   1      43.759  26.810  29.967  1.00  0.00     0.031 C 
ATOM     47  C   UNL A   1      37.709  29.957  28.914  1.00  0.00     0.029 A 
ATOM     48  C   UNL A   1      38.605  30.618  29.859  1.00  0.00     0.049 A 
ATOM     49  H   UNL A   1      40.556  30.070  30.344  1.00  0.00     0.167 HD
ATOM     50  C   UNL A   1      44.411  28.389  31.766  1.00  0.00     0.037 A 
ATOM     51  C   UNL A   1      38.315  31.716  30.581  1.00  0.00     0.037 A 
ATOM     52  C   UNL A   1      44.195  29.566  32.566  1.00  0.00     0.049 A 
ATOM     53  C   UNL A   1      39.325  32.222  31.578  1.00  0.00     0.074 A 
ATOM     54  C   UNL A   1      45.028  30.140  33.511  1.00  0.00     0.029 A 
ATOM     55  N   UNL A   1      43.062  30.366  32.493  1.00  0.00    -0.354 N 
ATOM     56  N   UNL A   1      40.492  31.719  31.901  1.00  0.00    -0.248 NA
ATOM     57  C   UNL A   1      38.972  33.440  32.319  1.00  0.00     0.031 C 
ATOM     58  C   UNL A   1      44.391  31.276  34.020  1.00  0.00     0.029 A 
ATOM     59  C   UNL A   1      43.177  31.432  33.368  1.00  0.00     0.049 A 
ATOM     60  H   UNL A   1      42.290  30.200  31.903  1.00  0.00     0.167 HD
ATOM     61  C   UNL A   1      41.022  32.568  32.864  1.00  0.00     0.074 A 
ATOM     62  C   UNL A   1      40.053  33.626  33.061  1.00  0.00     0.031 C 
ATOM     63  C   UNL A   1      42.200  32.478  33.528  1.00  0.00     0.037 A 
BRANCH  50  64
ATOM     64  C   UNL A   1      45.665  27.589  31.975  1.00  0.00     0.064 A 
ATOM     65  C   UNL A   1      46.900  27.990  31.444  1.00  0.00     0.173 A 
ATOM     66  C   UNL A   1      45.629  26.396  32.714  1.00  0.00     0.173 A 
ATOM     67  F   UNL A   1      46.988  29.114  30.717  1.00  0.00    -0.203 F 
ATOM     68  C   UNL A   1      48.041  27.206  31.606  1.00  0.00     0.198 A 
ATOM     69  C   UNL A   1      46.780  25.633  32.904  1.00  0.00     0.198 A 
ATOM     70  F   UNL A   1      44.478  25.966  33.252  1.00  0.00    -0.203 F 
ATOM     71  F   UNL A   1      49.192  27.577  31.029  1.00  0.00    -0.200 F 
ATOM     72  C   UNL A   1      47.981  26.031  32.339  1.00  0.00     0.200 A 
ATOM     73  F   UNL A   1      46.721  24.504  33.624  1.00  0.00    -0.200 F 
ATOM     74  F   UNL A   1      49.078  25.277  32.491  1.00  0.00    -0.200 F 
ENDBRANCH  50  64
BRANCH  51  75
ATOM     75  C   UNL A   1      37.018  32.414  30.383  1.00  0.00     0.064 A 
ATOM     76  C   UNL A   1      35.976  32.256  31.308  1.00  0.00     0.173 A 
ATOM     77  C   UNL A   1      36.793  33.262  29.289  1.00  0.00     0.173 A 
ATOM     78  F   UNL A   1      36.133  31.436  32.358  1.00  0.00    -0.203 F 
ATOM     79  C   UNL A   1      34.756  32.909  31.140  1.00  0.00     0.198 A 
ATOM     80  C   UNL A   1      35.583  33.937  29.137  1.00  0.00     0.198 A 
ATOM     81  F   UNL A   1      37.758  33.452  28.376  1.00  0.00    -0.203 F 
ATOM     82  F   UNL A   1      33.766  32.709  32.020  1.00  0.00    -0.200 F 
ATOM     83  C   UNL A   1      34.564  33.756  30.059  1.00  0.00     0.200 A 
ATOM     84  F   UNL A   1      35.406  34.766  28.099  1.00  0.00    -0.200 F 
ATOM     85  F   UNL A   1      33.395  34.392  29.904  1.00  0.00    -0.200 F 
ENDBRANCH  51  75
BRANCH  63  86
ATOM     86  C   UNL A   1      42.522  33.579  34.496  1.00  0.00     0.064 A 
ATOM     87  C   UNL A   1      43.171  34.750  34.084  1.00  0.00     0.173 A 
ATOM     88  C   UNL A   1      42.135  33.473  35.840  1.00  0.00     0.173 A 
ATOM     89  F   UNL A   1      43.573  34.889  32.813  1.00  0.00    -0.203 F 
ATOM     90  C   UNL A   1      43.439  35.773  34.991  1.00  0.00     0.198 A 
ATOM     91  C   UNL A   1      42.381  34.508  36.737  1.00  0.00     0.198 A 
ATOM     92  F   UNL A   1      41.506  32.372  36.279  1.00  0.00    -0.203 F 
ATOM     93  F   UNL A   1      44.096  36.869  34.587  1.00  0.00    -0.200 F 
ATOM     94  C   UNL A   1      43.038  35.654  36.314  1.00  0.00     0.200 A 
ATOM     95  F   UNL A   1      41.984  34.396  38.013  1.00  0.00    -0.200 F 
ATOM     96  F   UNL A   1      43.290  36.641  37.183  1.00  0.00    -0.200 F 
ENDBRANCH  63  86
ENDBRANCH  37  38
ENDBRANCH  29  32
ENDBRANCH  27  28
ENDBRANCH  26  27
ENDBRANCH  25  26
ENDBRANCH   3  25
TORSDOF 16
ENDMDL
MODEL 2
REMARK VINA RESULT:      -9.8      4.956      9.885
REMARK SMILES CC[C@H](c1ccccc1)[C@@H](C)OC(=O)c1ccccc1C(=O)NCCCNC(=O)c1ccc(-c2c3nc(c(-c4c(F)c(F)c(F)c(F)c4F)c4ccc([nH]4)c(-c4c(F)c(F)c(F)c(F)c4F)c4nc(c(-c5c(F)c(F)c(F)c(F)c5F)c5ccc2[nH]5)C=C4)C=C3)cc1
REMARK SMILES IDX 21 1 22 2 23 3 20 5 15 6 16 7 17 8 19 9 18 10 13 11 14 12
REMARK SMILES IDX 12 13 10 14 11 15 3 16 2 17 1 18 4 19 5 20 9 21 6 22 8 23
REMARK SMILES IDX 7 24 24 25 25 26 26 27 27 28 28 29 29 31 30 32 31 33 92 34
REMARK SMILES IDX 32 35 91 36 33 37 34 38 35 39 85 40 36 41 90 42 84 43 86 44
REMARK SMILES IDX 37 45 89 46 83 47 82 48 38 50 70 51 50 52 69 53 51 54 54 55
REMARK SMILES IDX 68 56 87 57 52 58 53 59 67 61 88 62 55 63 39 64 40 65 48 66
REMARK SMILES IDX 41 67 42 68 46 69 49 70 43 71 44 72 47 73 45 74 71 75 72 76
REMARK SMILES IDX 80 77 73 78 74 79 78 80 81 81 75 82 76 83 79 84 77 85 56 86
REMARK SMILES IDX 57 87 65 88 58 89 59 90 63 91 66 92 60 93 61 94 64 95 62 96
REMARK H PARENT 23 4 27 30 86 49 54 60
REMARK Flexibility Score: inf
ROOT
ATOM      1  C   UNL A   1      32.178  29.009  23.619  1.00  0.00     0.252 C 
ATOM      2  O   UNL A   1      32.925  28.848  22.659  1.00  0.00    -0.269 OA
ATOM      3  N   UNL A   1      32.642  29.661  24.731  1.00  0.00    -0.352 N 
ATOM      4  H   UNL A   1      33.523  30.089  24.630  1.00  0.00     0.163 HD
ENDROOT
BRANCH   1   5
ATOM      5  C   UNL A   1      30.835  28.403  23.586  1.00  0.00     0.054 A 
ATOM      6  C   UNL A   1      30.551  27.098  24.001  1.00  0.00     0.072 A 
ATOM      7  C   UNL A   1      29.236  26.614  23.917  1.00  0.00     0.016 A 
ATOM      8  C   UNL A   1      28.206  27.444  23.467  1.00  0.00     0.001 A 
ATOM      9  C   UNL A   1      29.791  29.238  23.155  1.00  0.00     0.015 A 
ATOM     10  C   UNL A   1      28.482  28.757  23.091  1.00  0.00     0.001 A 
BRANCH   6  11
ATOM     11  C   UNL A   1      31.585  26.149  24.448  1.00  0.00     0.339 C 
ATOM     12  O   UNL A   1      32.206  26.329  25.481  1.00  0.00    -0.246 OA
BRANCH  11  13
ATOM     13  O   UNL A   1      31.716  25.128  23.573  1.00  0.00    -0.458 OA
BRANCH  13  14
ATOM     14  C   UNL A   1      32.907  25.061  22.735  1.00  0.00     0.181 C 
ATOM     15  C   UNL A   1      32.568  25.649  21.372  1.00  0.00     0.053 C 
BRANCH  14  16
ATOM     16  C   UNL A   1      33.592  23.662  22.671  1.00  0.00     0.060 C 
BRANCH  16  17
ATOM     17  C   UNL A   1      32.530  22.555  22.860  1.00  0.00     0.009 C 
ATOM     18  C   UNL A   1      32.902  21.543  23.936  1.00  0.00     0.005 C 
ENDBRANCH  16  17
BRANCH  16  19
ATOM     19  C   UNL A   1      34.770  23.570  23.642  1.00  0.00    -0.041 A 
ATOM     20  C   UNL A   1      35.942  22.907  23.234  1.00  0.00     0.004 A 
ATOM     21  C   UNL A   1      34.756  24.178  24.905  1.00  0.00     0.004 A 
ATOM     22  C   UNL A   1      37.062  22.849  24.065  1.00  0.00     0.000 A 
ATOM     23  C   UNL A   1      35.874  24.107  25.742  1.00  0.00     0.000 A 
ATOM     24  C   UNL A   1      37.027  23.447  25.321  1.00  0.00     0.000 A 
ENDBRANCH  16  19
ENDBRANCH  14  16
ENDBRANCH  13  14
ENDBRANCH  11  13
ENDBRANCH   6  11
ENDBRANCH   1   5
BRANCH   3  25
ATOM     25  C   UNL A   1      32.029  29.813  26.036  1.00  0.00     0.118 C 
BRANCH  25  26
ATOM     26  C   UNL A   1      31.754  31.250  26.509  1.00  0.00     0.042 C 
BRANCH  26  27
ATOM     27  C   UNL A   1      32.891  32.038  27.156  1.00  0.00     0.118 C 
BRANCH  27  28
ATOM     28  N   UNL A   1      32.529  33.385  27.584  1.00  0.00    -0.352 N 
ATOM     29  C   UNL A   1      33.092  34.243  28.500  1.00  0.00     0.251 C 
ATOM     30  H   UNL A   1      31.731  33.747  27.134  1.00  0.00     0.163 HD
ATOM     31  O   UNL A   1      32.554  35.323  28.733  1.00  0.00    -0.269 OA
BRANCH  29  32
ATOM     32  C   UNL A   1      34.333  33.902  29.224  1.00  0.00     0.039 A 
ATOM     33  C   UNL A   1      35.551  34.460  28.808  1.00  0.00     0.014 A 
ATOM     34  C   UNL A   1      34.324  32.947  30.235  1.00  0.00     0.014 A 
ATOM     35  C   UNL A   1      36.747  34.096  29.441  1.00  0.00     0.010 A 
ATOM     36  C   UNL A   1      35.496  32.648  30.919  1.00  0.00     0.010 A 
ATOM     37  C   UNL A   1      36.723  33.199  30.517  1.00  0.00    -0.014 A 
BRANCH  37  38
ATOM     38  C   UNL A   1      37.945  32.713  31.209  1.00  0.00     0.031 A 
ATOM     39  C   UNL A   1      38.697  31.560  30.599  1.00  0.00     0.074 A 
ATOM     40  C   UNL A   1      38.289  33.183  32.420  1.00  0.00     0.049 A 
ATOM     41  N   UNL A   1      39.522  30.713  31.154  1.00  0.00    -0.248 NA
ATOM     42  C   UNL A   1      38.424  31.296  29.178  1.00  0.00     0.031 C 
ATOM     43  C   UNL A   1      37.653  34.304  33.111  1.00  0.00     0.029 A 
ATOM     44  N   UNL A   1      39.244  32.744  33.303  1.00  0.00    -0.354 N 
ATOM     45  C   UNL A   1      39.803  29.768  30.173  1.00  0.00     0.074 A 
ATOM     46  C   UNL A   1      39.048  30.141  28.996  1.00  0.00     0.031 C 
ATOM     47  C   UNL A   1      38.236  34.467  34.310  1.00  0.00     0.029 A 
ATOM     48  C   UNL A   1      39.236  33.420  34.499  1.00  0.00     0.049 A 
ATOM     49  H   UNL A   1      39.873  32.014  33.100  1.00  0.00     0.167 HD
ATOM     50  C   UNL A   1      40.615  28.688  30.256  1.00  0.00     0.037 A 
ATOM     51  C   UNL A   1      39.931  33.192  35.629  1.00  0.00     0.037 A 
ATOM     52  C   UNL A   1      41.412  28.378  31.414  1.00  0.00     0.049 A 
ATOM     53  C   UNL A   1      40.866  32.013  35.685  1.00  0.00     0.074 A 
ATOM     54  C   UNL A   1      42.305  27.338  31.602  1.00  0.00     0.029 A 
ATOM     55  N   UNL A   1      41.426  29.133  32.580  1.00  0.00    -0.354 N 
ATOM     56  N   UNL A   1      41.102  31.100  34.773  1.00  0.00    -0.248 NA
ATOM     57  C   UNL A   1      41.623  31.825  36.930  1.00  0.00     0.031 C 
ATOM     58  C   UNL A   1      42.846  27.455  32.887  1.00  0.00     0.029 A 
ATOM     59  C   UNL A   1      42.317  28.588  33.487  1.00  0.00     0.049 A 
ATOM     60  H   UNL A   1      40.882  29.940  32.737  1.00  0.00     0.167 HD
ATOM     61  C   UNL A   1      42.047  30.244  35.323  1.00  0.00     0.074 A 
ATOM     62  C   UNL A   1      42.351  30.756  36.643  1.00  0.00     0.031 C 
ATOM     63  C   UNL A   1      42.609  29.132  34.788  1.00  0.00     0.037 A 
BRANCH  50  64
ATOM     64  C   UNL A   1      40.664  27.762  29.073  1.00  0.00     0.064 A 
ATOM     65  C   UNL A   1      41.592  27.930  28.035  1.00  0.00     0.173 A 
ATOM     66  C   UNL A   1      39.760  26.692  28.974  1.00  0.00     0.173 A 
ATOM     67  F   UNL A   1      42.468  28.945  28.071  1.00  0.00    -0.203 F 
ATOM     68  C   UNL A   1      41.584  27.092  26.921  1.00  0.00     0.198 A 
ATOM     69  C   UNL A   1      39.779  25.834  27.876  1.00  0.00     0.198 A 
ATOM     70  F   UNL A   1      38.854  26.478  29.939  1.00  0.00    -0.203 F 
ATOM     71  F   UNL A   1      42.435  27.317  25.912  1.00  0.00    -0.200 F 
ATOM     72  C   UNL A   1      40.682  26.042  26.845  1.00  0.00     0.200 A 
ATOM     73  F   UNL A   1      38.914  24.813  27.811  1.00  0.00    -0.200 F 
ATOM     74  F   UNL A   1      40.675  25.239  25.773  1.00  0.00    -0.200 F 
ENDBRANCH  50  64
BRANCH  51  75
ATOM     75  C   UNL A   1      39.774  34.102  36.794  1.00  0.00     0.064 A 
ATOM     76  C   UNL A   1      40.473  35.316  36.848  1.00  0.00     0.173 A 
ATOM     77  C   UNL A   1      38.918  33.796  37.861  1.00  0.00     0.173 A 
ATOM     78  F   UNL A   1      41.323  35.643  35.863  1.00  0.00    -0.203 F 
ATOM     79  C   UNL A   1      40.332  36.183  37.930  1.00  0.00     0.198 A 
ATOM     80  C   UNL A   1      38.755  34.676  38.930  1.00  0.00     0.198 A 
ATOM     81  F   UNL A   1      38.223  32.648  37.858  1.00  0.00    -0.203 F 
ATOM     82  F   UNL A   1      41.040  37.319  37.972  1.00  0.00    -0.200 F 
ATOM     83  C   UNL A   1      39.466  35.867  38.966  1.00  0.00     0.200 A 
ATOM     84  F   UNL A   1      37.907  34.373  39.922  1.00  0.00    -0.200 F 
ATOM     85  F   UNL A   1      39.321  36.705  40.001  1.00  0.00    -0.200 F 
ENDBRANCH  51  75
BRANCH  63  86
ATOM     86  C   UNL A   1      43.641  28.424  35.616  1.00  0.00     0.064 A 
ATOM     87  C   UNL A   1      45.006  28.710  35.486  1.00  0.00     0.173 A 
ATOM     88  C   UNL A   1      43.250  27.484  36.579  1.00  0.00     0.173 A 
ATOM     89  F   UNL A   1      45.428  29.591  34.567  1.00  0.00    -0.203 F 
ATOM     90  C   UNL A   1      45.949  28.062  36.280  1.00  0.00     0.198 A 
ATOM     91  C   UNL A   1      44.192  26.857  37.389  1.00  0.00     0.198 A 
ATOM     92  F   UNL A   1      41.953  27.182  36.743  1.00  0.00    -0.203 F 
ATOM     93  F   UNL A   1      47.253  28.319  36.114  1.00  0.00    -0.200 F 
ATOM     94  C   UNL A   1      45.541  27.142  37.235  1.00  0.00     0.200 A 
ATOM     95  F   UNL A   1      43.795  25.976  38.319  1.00  0.00    -0.200 F 
ATOM     96  F   UNL A   1      46.448  26.524  38.003  1.00  0.00    -0.200 F 
ENDBRANCH  63  86
ENDBRANCH  37  38
ENDBRANCH  29  32
ENDBRANCH  27  28
ENDBRANCH  26  27
ENDBRANCH  25  26
ENDBRANCH   3  25
TORSDOF 16
ENDMDL
MODEL 3
REMARK VINA RESULT:      -9.8      4.990     10.037
REMARK SMILES CC[C@H](c1ccccc1)[C@@H](C)OC(=O)c1ccccc1C(=O)NCCCNC(=O)c1ccc(-c2c3nc(c(-c4c(F)c(F)c(F)c(F)c4F)c4ccc([nH]4)c(-c4c(F)c(F)c(F)c(F)c4F)c4nc(c(-c5c(F)c(F)c(F)c(F)c5F)c5ccc2[nH]5)C=C4)C=C3)cc1
REMARK SMILES IDX 21 1 22 2 23 3 20 5 15 6 16 7 17 8 19 9 18 10 13 11 14 12
REMARK SMILES IDX 12 13 10 14 11 15 3 16 2 17 1 18 4 19 5 20 9 21 6 22 8 23
REMARK SMILES IDX 7 24 24 25 25 26 26 27 27 28 28 29 29 31 30 32 31 33 92 34
REMARK SMILES IDX 32 35 91 36 33 37 34 38 35 39 85 40 36 41 90 42 84 43 86 44
REMARK SMILES IDX 37 45 89 46 83 47 82 48 38 50 70 51 50 52 69 53 51 54 54 55
REMARK SMILES IDX 68 56 87 57 52 58 53 59 67 61 88 62 55 63 39 64 40 65 48 66
REMARK SMILES IDX 41 67 42 68 46 69 49 70 43 71 44 72 47 73 45 74 71 75 72 76
REMARK SMILES IDX 80 77 73 78 74 79 78 80 81 81 75 82 76 83 79 84 77 85 56 86
REMARK SMILES IDX 57 87 65 88 58 89 59 90 63 91 66 92 60 93 61 94 64 95 62 96
REMARK H PARENT 23 4 27 30 86 49 54 60
REMARK Flexibility Score: inf
ROOT
ATOM      1  C   UNL A   1      32.258  29.152  23.654  1.00  0.00     0.252 C 
ATOM      2  O   UNL A   1      33.054  28.938  22.743  1.00  0.00    -0.269 OA
ATOM      3  N   UNL A   1      32.714  29.668  24.838  1.00  0.00    -0.352 N 
ATOM      4  H   UNL A   1      33.651  29.972  24.830  1.00  0.00     0.163 HD
ENDROOT
BRANCH   1   5
ATOM      5  C   UNL A   1      30.852  28.746  23.481  1.00  0.00     0.054 A 
ATOM      6  C   UNL A   1      30.348  27.487  23.823  1.00  0.00     0.072 A 
ATOM      7  C   UNL A   1      28.992  27.200  23.606  1.00  0.00     0.016 A 
ATOM      8  C   UNL A   1      28.136  28.180  23.095  1.00  0.00     0.001 A 
ATOM      9  C   UNL A   1      29.981  29.732  22.988  1.00  0.00     0.015 A 
ATOM     10  C   UNL A   1      28.629  29.447  22.792  1.00  0.00     0.001 A 
BRANCH   6  11
ATOM     11  C   UNL A   1      31.192  26.389  24.326  1.00  0.00     0.339 C 
ATOM     12  O   UNL A   1      31.712  26.444  25.427  1.00  0.00    -0.246 OA
BRANCH  11  13
ATOM     13  O   UNL A   1      31.284  25.394  23.418  1.00  0.00    -0.458 OA
BRANCH  13  14
ATOM     14  C   UNL A   1      32.538  25.204  22.699  1.00  0.00     0.181 C 
ATOM     15  C   UNL A   1      32.371  25.753  21.289  1.00  0.00     0.053 C 
BRANCH  14  16
ATOM     16  C   UNL A   1      33.119  23.759  22.753  1.00  0.00     0.060 C 
BRANCH  16  17
ATOM     17  C   UNL A   1      32.041  22.786  23.285  1.00  0.00     0.009 C 
ATOM     18  C   UNL A   1      32.497  21.333  23.300  1.00  0.00     0.005 C 
ENDBRANCH  16  17
BRANCH  16  19
ATOM     19  C   UNL A   1      34.437  23.713  23.527  1.00  0.00    -0.041 A 
ATOM     20  C   UNL A   1      34.491  24.269  24.819  1.00  0.00     0.004 A 
ATOM     21  C   UNL A   1      35.583  23.079  23.028  1.00  0.00     0.004 A 
ATOM     22  C   UNL A   1      35.656  24.197  25.584  1.00  0.00     0.000 A 
ATOM     23  C   UNL A   1      36.754  23.021  23.791  1.00  0.00     0.000 A 
ATOM     24  C   UNL A   1      36.789  23.575  25.069  1.00  0.00     0.000 A 
ENDBRANCH  16  19
ENDBRANCH  14  16
ENDBRANCH  13  14
ENDBRANCH  11  13
ENDBRANCH   6  11
ENDBRANCH   1   5
BRANCH   3  25
ATOM     25  C   UNL A   1      32.021  29.836  26.100  1.00  0.00     0.118 C 
BRANCH  25  26
ATOM     26  C   UNL A   1      31.758  31.279  26.561  1.00  0.00     0.042 C 
BRANCH  26  27
ATOM     27  C   UNL A   1      32.900  32.060  27.209  1.00  0.00     0.118 C 
BRANCH  27  28
ATOM     28  N   UNL A   1      32.550  33.414  27.622  1.00  0.00    -0.352 N 
ATOM     29  C   UNL A   1      33.126  34.282  28.522  1.00  0.00     0.251 C 
ATOM     30  H   UNL A   1      31.751  33.776  27.173  1.00  0.00     0.163 HD
ATOM     31  O   UNL A   1      32.597  35.368  28.745  1.00  0.00    -0.269 OA
BRANCH  29  32
ATOM     32  C   UNL A   1      34.370  33.941  29.241  1.00  0.00     0.039 A 
ATOM     33  C   UNL A   1      35.588  34.487  28.810  1.00  0.00     0.014 A 
ATOM     34  C   UNL A   1      34.362  32.999  30.263  1.00  0.00     0.014 A 
ATOM     35  C   UNL A   1      36.787  34.123  29.438  1.00  0.00     0.010 A 
ATOM     36  C   UNL A   1      35.537  32.701  30.943  1.00  0.00     0.010 A 
ATOM     37  C   UNL A   1      36.765  33.239  30.525  1.00  0.00    -0.014 A 
BRANCH  37  38
ATOM     38  C   UNL A   1      37.988  32.754  31.215  1.00  0.00     0.031 A 
ATOM     39  C   UNL A   1      38.730  31.590  30.613  1.00  0.00     0.074 A 
ATOM     40  C   UNL A   1      38.344  33.237  32.418  1.00  0.00     0.049 A 
ATOM     41  N   UNL A   1      39.554  30.745  31.173  1.00  0.00    -0.248 NA
ATOM     42  C   UNL A   1      38.446  31.311  29.197  1.00  0.00     0.031 C 
ATOM     43  C   UNL A   1      37.720  34.369  33.100  1.00  0.00     0.029 A 
ATOM     44  N   UNL A   1      39.303  32.802  33.299  1.00  0.00    -0.354 N 
ATOM     45  C   UNL A   1      39.822  29.787  30.201  1.00  0.00     0.074 A 
ATOM     46  C   UNL A   1      39.061  30.151  29.025  1.00  0.00     0.031 C 
ATOM     47  C   UNL A   1      38.312  34.543  34.292  1.00  0.00     0.029 A 
ATOM     48  C   UNL A   1      39.308  33.493  34.487  1.00  0.00     0.049 A 
ATOM     49  H   UNL A   1      39.926  32.067  33.100  1.00  0.00     0.167 HD
ATOM     50  C   UNL A   1      40.629  28.703  30.290  1.00  0.00     0.037 A 
ATOM     51  C   UNL A   1      40.009  33.274  35.615  1.00  0.00     0.037 A 
ATOM     52  C   UNL A   1      41.433  28.402  31.446  1.00  0.00     0.049 A 
ATOM     53  C   UNL A   1      40.938  32.090  35.678  1.00  0.00     0.074 A 
ATOM     54  C   UNL A   1      42.321  27.359  31.640  1.00  0.00     0.029 A 
ATOM     55  N   UNL A   1      41.459  29.171  32.603  1.00  0.00    -0.354 N 
ATOM     56  N   UNL A   1      41.162  31.165  34.775  1.00  0.00    -0.248 NA
ATOM     57  C   UNL A   1      41.702  31.912  36.920  1.00  0.00     0.031 C 
ATOM     58  C   UNL A   1      42.871  27.488  32.920  1.00  0.00     0.029 A 
ATOM     59  C   UNL A   1      42.353  28.631  33.510  1.00  0.00     0.049 A 
ATOM     60  H   UNL A   1      40.921  29.982  32.754  1.00  0.00     0.167 HD
ATOM     61  C   UNL A   1      42.105  30.310  35.328  1.00  0.00     0.074 A 
ATOM     62  C   UNL A   1      42.422  30.836  36.641  1.00  0.00     0.031 C 
ATOM     63  C   UNL A   1      42.657  29.189  34.803  1.00  0.00     0.037 A 
BRANCH  50  64
ATOM     64  C   UNL A   1      40.663  27.763  29.118  1.00  0.00     0.064 A 
ATOM     65  C   UNL A   1      39.794  26.667  29.017  1.00  0.00     0.173 A 
ATOM     66  C   UNL A   1      41.590  27.959  28.081  1.00  0.00     0.173 A 
ATOM     67  F   UNL A   1      38.900  26.425  29.987  1.00  0.00    -0.203 F 
ATOM     68  C   UNL A   1      39.879  25.778  27.947  1.00  0.00     0.198 A 
ATOM     69  C   UNL A   1      41.648  27.088  26.994  1.00  0.00     0.198 A 
ATOM     70  F   UNL A   1      42.442  28.994  28.119  1.00  0.00    -0.203 F 
ATOM     71  F   UNL A   1      39.083  24.701  27.910  1.00  0.00    -0.200 F 
ATOM     72  C   UNL A   1      40.802  25.992  26.935  1.00  0.00     0.200 A 
ATOM     73  F   UNL A   1      42.532  27.304  26.011  1.00  0.00    -0.200 F 
ATOM     74  F   UNL A   1      40.884  25.135  25.909  1.00  0.00    -0.200 F 
ENDBRANCH  50  64
BRANCH  51  75
ATOM     75  C   UNL A   1      39.866  34.198  36.770  1.00  0.00     0.064 A 
ATOM     76  C   UNL A   1      38.976  33.901  37.813  1.00  0.00     0.173 A 
ATOM     77  C   UNL A   1      40.618  35.377  36.873  1.00  0.00     0.173 A 
ATOM     78  F   UNL A   1      38.217  32.797  37.749  1.00  0.00    -0.203 F 
ATOM     79  C   UNL A   1      38.835  34.753  38.906  1.00  0.00     0.198 A 
ATOM     80  C   UNL A   1      40.497  36.215  37.980  1.00  0.00     0.198 A 
ATOM     81  F   UNL A   1      41.486  35.706  35.904  1.00  0.00    -0.203 F 
ATOM     82  F   UNL A   1      37.951  34.463  39.869  1.00  0.00    -0.200 F 
ATOM     83  C   UNL A   1      39.603  35.906  38.993  1.00  0.00     0.200 A 
ATOM     84  F   UNL A   1      41.250  37.320  38.068  1.00  0.00    -0.200 F 
ATOM     85  F   UNL A   1      39.475  36.719  40.050  1.00  0.00    -0.200 F 
ENDBRANCH  51  75
BRANCH  63  86
ATOM     86  C   UNL A   1      43.691  28.485  35.631  1.00  0.00     0.064 A 
ATOM     87  C   UNL A   1      43.339  27.493  36.556  1.00  0.00     0.173 A 
ATOM     88  C   UNL A   1      45.052  28.778  35.461  1.00  0.00     0.173 A 
ATOM     89  F   UNL A   1      42.049  27.190  36.764  1.00  0.00    -0.203 F 
ATOM     90  C   UNL A   1      44.314  26.832  37.298  1.00  0.00     0.198 A 
ATOM     91  C   UNL A   1      46.025  28.097  36.185  1.00  0.00     0.198 A 
ATOM     92  F   UNL A   1      45.437  29.716  34.583  1.00  0.00    -0.203 F 
ATOM     93  F   UNL A   1      43.955  25.915  38.207  1.00  0.00    -0.200 F 
ATOM     94  C   UNL A   1      45.655  27.129  37.108  1.00  0.00     0.200 A 
ATOM     95  F   UNL A   1      47.322  28.378  35.992  1.00  0.00    -0.200 F 
ATOM     96  F   UNL A   1      46.593  26.487  37.817  1.00  0.00    -0.200 F 
ENDBRANCH  63  86
ENDBRANCH  37  38
ENDBRANCH  29  32
ENDBRANCH  27  28
ENDBRANCH  26  27
ENDBRANCH  25  26
ENDBRANCH   3  25
TORSDOF 16
ENDMDL
