MODEL 1
REMARK VINA RESULT:     -12.3      0.000      0.000
REMARK SMILES [NH3+][C@H]1C=C[C@@H](C(=O)N2CCC(CC(=O)NCCCNC(=O)c3ccc(-c4c5nc(c(-c6c(F)c(F)c(F)c(F)c6F)c6ccc([nH]6)c(-c6c(F)c(F)c(F)c(F)c6F)c6nc(c(-c7c(F)c(F)c(F)c(F)c7F)c7ccc4[nH]7)C=C6)C=C5)cc3)CC2)C1
REMARK SMILES IDX 16 1 15 2 13 3 14 4 12 6 11 7 6 8 7 9 8 10 9 11 86 12 10 13
REMARK SMILES IDX 85 14 5 15 2 16 3 17 87 18 4 19 1 20 17 24 18 25 19 26 20 27
REMARK SMILES IDX 21 29 22 30 23 31 84 32 24 33 83 34 25 35 26 36 27 37 77 38
REMARK SMILES IDX 28 39 82 40 76 41 78 42 29 43 81 44 75 45 74 46 30 48 62 49
REMARK SMILES IDX 42 50 61 51 43 52 46 53 60 54 79 55 44 56 45 57 59 59 80 60
REMARK SMILES IDX 47 61 31 62 32 63 40 64 33 65 34 66 38 67 41 68 35 69 36 70
REMARK SMILES IDX 39 71 37 72 63 73 64 74 72 75 65 76 66 77 70 78 73 79 67 80
REMARK SMILES IDX 68 81 71 82 69 83 48 84 49 85 57 86 50 87 51 88 55 89 58 90
REMARK SMILES IDX 52 91 53 92 56 93 54 94
REMARK H PARENT 15 5 1 21 1 22 1 23 19 28 78 47 46 58
REMARK Flexibility Score: inf
ROOT
ATOM      1  C   UNL A   1      36.738  20.452  24.841  1.00  0.00     0.117 C 
ENDROOT
BRANCH   1   2
ATOM      2  N   UNL A   1      35.464  19.800  25.122  1.00  0.00    -0.356 N 
ATOM      3  C   UNL A   1      34.181  20.207  24.912  1.00  0.00     0.220 C 
ATOM      4  O   UNL A   1      33.268  19.464  25.278  1.00  0.00    -0.275 OA
ATOM      5  H   UNL A   1      35.546  18.911  25.537  1.00  0.00     0.163 HD
BRANCH   3   6
ATOM      6  C   UNL A   1      33.880  21.547  24.269  1.00  0.00     0.103 C 
BRANCH   6   7
ATOM      7  C   UNL A   1      33.896  22.717  25.270  1.00  0.00     0.002 C 
ATOM      8  C   UNL A   1      33.327  26.501  24.680  1.00  0.00     0.229 C 
ATOM      9  O   UNL A   1      33.507  26.207  23.496  1.00  0.00    -0.274 OA
ATOM     10  N   UNL A   1      33.570  25.593  25.705  1.00  0.00    -0.342 N 
ATOM     11  C   UNL A   1      34.899  25.011  25.756  1.00  0.00     0.120 C 
ATOM     12  C   UNL A   1      32.510  24.688  26.122  1.00  0.00     0.120 C 
ATOM     13  C   UNL A   1      34.984  23.739  24.923  1.00  0.00     0.026 C 
ATOM     14  C   UNL A   1      32.513  23.396  25.300  1.00  0.00     0.026 C 
BRANCH   8  15
ATOM     15  C   UNL A   1      33.025  27.945  25.102  1.00  0.00     0.107 C 
ATOM     16  C   UNL A   1      31.780  28.718  27.090  1.00  0.00     0.205 C 
ATOM     17  C   UNL A   1      33.255  28.777  27.294  1.00  0.00     0.033 C 
ATOM     18  C   UNL A   1      31.620  28.212  25.648  1.00  0.00     0.087 C 
ATOM     19  C   UNL A   1      33.934  28.378  26.215  1.00  0.00    -0.012 C 
BRANCH  16  20
ATOM     20  N   UNL A   1      31.155  27.824  28.050  1.00  0.00    -0.352 N 
ATOM     21  H   UNL A   1      31.823  27.106  28.331  1.00  0.00     0.345 HD
ATOM     22  H   UNL A   1      30.341  27.382  27.622  1.00  0.00     0.345 HD
ATOM     23  H   UNL A   1      30.862  28.356  28.869  1.00  0.00     0.345 HD
ENDBRANCH  16  20
ENDBRANCH   8  15
ENDBRANCH   6   7
ENDBRANCH   3   6
ENDBRANCH   1   2
BRANCH   1  24
ATOM     24  C   UNL A   1      37.931  19.505  24.986  1.00  0.00     0.042 C 
BRANCH  24  25
ATOM     25  C   UNL A   1      39.115  20.095  25.742  1.00  0.00     0.118 C 
BRANCH  25  26
ATOM     26  N   UNL A   1      40.185  19.126  25.908  1.00  0.00    -0.352 N 
ATOM     27  C   UNL A   1      41.531  19.321  26.104  1.00  0.00     0.251 C 
ATOM     28  H   UNL A   1      39.902  18.184  25.875  1.00  0.00     0.163 HD
ATOM     29  O   UNL A   1      42.298  18.371  25.970  1.00  0.00    -0.269 OA
BRANCH  27  30
ATOM     30  C   UNL A   1      42.082  20.651  26.472  1.00  0.00     0.039 A 
ATOM     31  C   UNL A   1      42.153  20.992  27.828  1.00  0.00     0.014 A 
ATOM     32  C   UNL A   1      42.440  21.599  25.509  1.00  0.00     0.014 A 
ATOM     33  C   UNL A   1      42.603  22.259  28.216  1.00  0.00     0.010 A 
ATOM     34  C   UNL A   1      42.954  22.838  25.898  1.00  0.00     0.010 A 
ATOM     35  C   UNL A   1      43.020  23.192  27.254  1.00  0.00    -0.014 A 
BRANCH  35  36
ATOM     36  C   UNL A   1      43.477  24.553  27.647  1.00  0.00     0.031 A 
ATOM     37  C   UNL A   1      42.470  25.611  28.018  1.00  0.00     0.074 A 
ATOM     38  C   UNL A   1      44.790  24.859  27.632  1.00  0.00     0.049 A 
ATOM     39  N   UNL A   1      42.662  26.873  28.319  1.00  0.00    -0.248 NA
ATOM     40  C   UNL A   1      41.055  25.205  28.031  1.00  0.00     0.031 C 
ATOM     41  C   UNL A   1      45.868  23.943  27.260  1.00  0.00     0.029 A 
ATOM     42  N   UNL A   1      45.439  26.034  27.929  1.00  0.00    -0.354 N 
ATOM     43  C   UNL A   1      41.398  27.412  28.522  1.00  0.00     0.074 A 
ATOM     44  C   UNL A   1      40.442  26.353  28.282  1.00  0.00     0.031 C 
ATOM     45  C   UNL A   1      47.045  24.584  27.362  1.00  0.00     0.029 A 
ATOM     46  C   UNL A   1      46.803  25.963  27.778  1.00  0.00     0.049 A 
ATOM     47  H   UNL A   1      44.972  26.849  28.221  1.00  0.00     0.167 HD
ATOM     48  C   UNL A   1      41.064  28.671  28.895  1.00  0.00     0.037 A 
ATOM     49  C   UNL A   1      47.751  26.906  27.948  1.00  0.00     0.037 A 
ATOM     50  C   UNL A   1      42.013  29.711  29.195  1.00  0.00     0.049 A 
ATOM     51  C   UNL A   1      47.351  28.288  28.391  1.00  0.00     0.074 A 
ATOM     52  C   UNL A   1      41.769  30.991  29.662  1.00  0.00     0.029 A 
ATOM     53  N   UNL A   1      43.386  29.587  29.066  1.00  0.00    -0.354 N 
ATOM     54  N   UNL A   1      46.157  28.763  28.645  1.00  0.00    -0.248 NA
ATOM     55  C   UNL A   1      48.436  29.264  28.578  1.00  0.00     0.031 C 
ATOM     56  C   UNL A   1      42.993  31.654  29.782  1.00  0.00     0.029 A 
ATOM     57  C   UNL A   1      44.002  30.775  29.427  1.00  0.00     0.049 A 
ATOM     58  H   UNL A   1      43.855  28.777  28.762  1.00  0.00     0.167 HD
ATOM     59  C   UNL A   1      46.348  30.077  29.050  1.00  0.00     0.074 A 
ATOM     60  C   UNL A   1      47.773  30.324  29.020  1.00  0.00     0.031 C 
ATOM     61  C   UNL A   1      45.423  30.998  29.414  1.00  0.00     0.037 A 
BRANCH  48  62
ATOM     62  C   UNL A   1      39.606  29.004  29.015  1.00  0.00     0.064 A 
ATOM     63  C   UNL A   1      38.846  29.389  27.902  1.00  0.00     0.173 A 
ATOM     64  C   UNL A   1      38.947  28.864  30.246  1.00  0.00     0.173 A 
ATOM     65  F   UNL A   1      39.432  29.545  26.705  1.00  0.00    -0.203 F 
ATOM     66  C   UNL A   1      37.480  29.637  28.020  1.00  0.00     0.198 A 
ATOM     67  C   UNL A   1      37.578  29.089  30.354  1.00  0.00     0.198 A 
ATOM     68  F   UNL A   1      39.628  28.490  31.339  1.00  0.00    -0.203 F 
ATOM     69  F   UNL A   1      36.779  30.034  26.949  1.00  0.00    -0.200 F 
ATOM     70  C   UNL A   1      36.846  29.479  29.243  1.00  0.00     0.200 A 
ATOM     71  F   UNL A   1      36.964  28.922  31.535  1.00  0.00    -0.200 F 
ATOM     72  F   UNL A   1      35.529  29.703  29.350  1.00  0.00    -0.200 F 
ENDBRANCH  48  62
BRANCH  49  73
ATOM     73  C   UNL A   1      49.182  26.577  27.716  1.00  0.00     0.064 A 
ATOM     74  C   UNL A   1      49.693  26.466  26.415  1.00  0.00     0.173 A 
ATOM     75  C   UNL A   1      50.057  26.334  28.784  1.00  0.00     0.173 A 
ATOM     76  F   UNL A   1      48.888  26.664  25.362  1.00  0.00    -0.203 F 
ATOM     77  C   UNL A   1      51.017  26.097  26.191  1.00  0.00     0.198 A 
ATOM     78  C   UNL A   1      51.388  25.993  28.560  1.00  0.00     0.198 A 
ATOM     79  F   UNL A   1      49.617  26.430  30.048  1.00  0.00    -0.203 F 
ATOM     80  F   UNL A   1      51.464  25.944  24.937  1.00  0.00    -0.200 F 
ATOM     81  C   UNL A   1      51.866  25.864  27.263  1.00  0.00     0.200 A 
ATOM     82  F   UNL A   1      52.208  25.778  29.598  1.00  0.00    -0.200 F 
ATOM     83  F   UNL A   1      53.137  25.505  27.047  1.00  0.00    -0.200 F 
ENDBRANCH  49  73
BRANCH  61  84
ATOM     84  C   UNL A   1      45.922  32.343  29.851  1.00  0.00     0.064 A 
ATOM     85  C   UNL A   1      46.095  33.394  28.939  1.00  0.00     0.173 A 
ATOM     86  C   UNL A   1      46.193  32.593  31.205  1.00  0.00     0.173 A 
ATOM     87  F   UNL A   1      45.864  33.199  27.633  1.00  0.00    -0.203 F 
ATOM     88  C   UNL A   1      46.541  34.642  29.365  1.00  0.00     0.198 A 
ATOM     89  C   UNL A   1      46.614  33.850  31.630  1.00  0.00     0.198 A 
ATOM     90  F   UNL A   1      46.037  31.621  32.117  1.00  0.00    -0.203 F 
ATOM     91  F   UNL A   1      46.739  35.621  28.471  1.00  0.00    -0.200 F 
ATOM     92  C   UNL A   1      46.794  34.870  30.710  1.00  0.00     0.200 A 
ATOM     93  F   UNL A   1      46.847  34.072  32.931  1.00  0.00    -0.200 F 
ATOM     94  F   UNL A   1      47.217  36.075  31.118  1.00  0.00    -0.200 F 
ENDBRANCH  61  84
ENDBRANCH  35  36
ENDBRANCH  27  30
ENDBRANCH  25  26
ENDBRANCH  24  25
ENDBRANCH   1  24
TORSDOF 13
ENDMDL
MODEL 2
REMARK VINA RESULT:     -12.0      5.372     10.875
REMARK SMILES [NH3+][C@H]1C=C[C@@H](C(=O)N2CCC(CC(=O)NCCCNC(=O)c3ccc(-c4c5nc(c(-c6c(F)c(F)c(F)c(F)c6F)c6ccc([nH]6)c(-c6c(F)c(F)c(F)c(F)c6F)c6nc(c(-c7c(F)c(F)c(F)c(F)c7F)c7ccc4[nH]7)C=C6)C=C5)cc3)CC2)C1
REMARK SMILES IDX 16 1 15 2 13 3 14 4 12 6 11 7 6 8 7 9 8 10 9 11 86 12 10 13
REMARK SMILES IDX 85 14 5 15 2 16 3 17 87 18 4 19 1 20 17 24 18 25 19 26 20 27
REMARK SMILES IDX 21 29 22 30 23 31 84 32 24 33 83 34 25 35 26 36 27 37 77 38
REMARK SMILES IDX 28 39 82 40 76 41 78 42 29 43 81 44 75 45 74 46 30 48 62 49
REMARK SMILES IDX 42 50 61 51 43 52 46 53 60 54 79 55 44 56 45 57 59 59 80 60
REMARK SMILES IDX 47 61 31 62 32 63 40 64 33 65 34 66 38 67 41 68 35 69 36 70
REMARK SMILES IDX 39 71 37 72 63 73 64 74 72 75 65 76 66 77 70 78 73 79 67 80
REMARK SMILES IDX 68 81 71 82 69 83 48 84 49 85 57 86 50 87 51 88 55 89 58 90
REMARK SMILES IDX 52 91 53 92 56 93 54 94
REMARK H PARENT 15 5 1 21 1 22 1 23 19 28 78 47 46 58
REMARK Flexibility Score: inf
ROOT
ATOM      1  C   UNL A   1      31.536  30.772  26.213  1.00  0.00     0.117 C 
ENDROOT
BRANCH   1   2
ATOM      2  N   UNL A   1      31.012  30.514  24.877  1.00  0.00    -0.356 N 
ATOM      3  C   UNL A   1      30.844  29.351  24.188  1.00  0.00     0.220 C 
ATOM      4  O   UNL A   1      30.401  29.415  23.039  1.00  0.00    -0.275 OA
ATOM      5  H   UNL A   1      30.732  31.321  24.388  1.00  0.00     0.163 HD
BRANCH   3   6
ATOM      6  C   UNL A   1      31.212  28.015  24.803  1.00  0.00     0.103 C 
BRANCH   6   7
ATOM      7  C   UNL A   1      31.651  26.969  23.762  1.00  0.00     0.002 C 
ATOM      8  C   UNL A   1      34.415  24.266  23.967  1.00  0.00     0.229 C 
ATOM      9  O   UNL A   1      34.806  24.928  24.931  1.00  0.00    -0.274 OA
ATOM     10  N   UNL A   1      33.423  24.732  23.111  1.00  0.00    -0.342 N 
ATOM     11  C   UNL A   1      33.652  26.025  22.493  1.00  0.00     0.120 C 
ATOM     12  C   UNL A   1      32.027  24.463  23.425  1.00  0.00     0.120 C 
ATOM     13  C   UNL A   1      33.116  27.159  23.356  1.00  0.00     0.026 C 
ATOM     14  C   UNL A   1      31.431  25.550  24.323  1.00  0.00     0.026 C 
BRANCH   8  15
ATOM     15  C   UNL A   1      35.146  22.987  23.535  1.00  0.00     0.107 C 
ATOM     16  C   UNL A   1      37.004  21.837  24.687  1.00  0.00     0.205 C 
ATOM     17  C   UNL A   1      35.687  21.201  24.973  1.00  0.00     0.033 C 
ATOM     18  C   UNL A   1      36.667  22.981  23.718  1.00  0.00     0.087 C 
ATOM     19  C   UNL A   1      34.681  21.808  24.337  1.00  0.00    -0.012 C 
BRANCH  16  20
ATOM     20  N   UNL A   1      37.625  22.326  25.906  1.00  0.00    -0.352 N 
ATOM     21  H   UNL A   1      38.130  23.189  25.708  1.00  0.00     0.345 HD
ATOM     22  H   UNL A   1      38.275  21.624  26.261  1.00  0.00     0.345 HD
ATOM     23  H   UNL A   1      36.905  22.506  26.605  1.00  0.00     0.345 HD
ENDBRANCH  16  20
ENDBRANCH   8  15
ENDBRANCH   6   7
ENDBRANCH   3   6
ENDBRANCH   1   2
BRANCH   1  24
ATOM     24  C   UNL A   1      31.417  32.241  26.621  1.00  0.00     0.042 C 
BRANCH  24  25
ATOM     25  C   UNL A   1      32.713  32.862  27.128  1.00  0.00     0.118 C 
BRANCH  25  26
ATOM     26  N   UNL A   1      32.515  34.227  27.583  1.00  0.00    -0.352 N 
ATOM     27  C   UNL A   1      33.045  34.882  28.668  1.00  0.00     0.251 C 
ATOM     28  H   UNL A   1      31.907  34.766  27.028  1.00  0.00     0.163 HD
ATOM     29  O   UNL A   1      32.557  35.955  29.016  1.00  0.00    -0.269 OA
BRANCH  27  30
ATOM     30  C   UNL A   1      34.192  34.328  29.432  1.00  0.00     0.039 A 
ATOM     31  C   UNL A   1      35.482  34.489  28.910  1.00  0.00     0.014 A 
ATOM     32  C   UNL A   1      34.015  33.575  30.596  1.00  0.00     0.014 A 
ATOM     33  C   UNL A   1      36.584  33.923  29.563  1.00  0.00     0.010 A 
ATOM     34  C   UNL A   1      35.121  33.070  31.285  1.00  0.00     0.010 A 
ATOM     35  C   UNL A   1      36.416  33.218  30.765  1.00  0.00    -0.014 A 
BRANCH  35  36
ATOM     36  C   UNL A   1      37.574  32.590  31.458  1.00  0.00     0.031 A 
ATOM     37  C   UNL A   1      38.316  31.450  30.809  1.00  0.00     0.074 A 
ATOM     38  C   UNL A   1      37.936  33.007  32.687  1.00  0.00     0.049 A 
ATOM     39  N   UNL A   1      39.301  30.724  31.280  1.00  0.00    -0.248 NA
ATOM     40  C   UNL A   1      37.878  31.056  29.460  1.00  0.00     0.031 C 
ATOM     41  C   UNL A   1      37.284  34.075  33.445  1.00  0.00     0.029 A 
ATOM     42  N   UNL A   1      38.940  32.573  33.520  1.00  0.00    -0.354 N 
ATOM     43  C   UNL A   1      39.575  29.775  30.303  1.00  0.00     0.074 A 
ATOM     44  C   UNL A   1      38.635  29.993  29.225  1.00  0.00     0.031 C 
ATOM     45  C   UNL A   1      37.911  34.223  34.624  1.00  0.00     0.029 A 
ATOM     46  C   UNL A   1      38.989  33.242  34.719  1.00  0.00     0.049 A 
ATOM     47  H   UNL A   1      39.565  31.852  33.281  1.00  0.00     0.167 HD
ATOM     48  C   UNL A   1      40.536  28.820  30.295  1.00  0.00     0.037 A 
ATOM     49  C   UNL A   1      39.805  33.077  35.779  1.00  0.00     0.037 A 
ATOM     50  C   UNL A   1      41.512  28.639  31.336  1.00  0.00     0.049 A 
ATOM     51  C   UNL A   1      40.883  32.027  35.729  1.00  0.00     0.074 A 
ATOM     52  C   UNL A   1      42.576  27.753  31.375  1.00  0.00     0.029 A 
ATOM     53  N   UNL A   1      41.550  29.361  32.517  1.00  0.00    -0.354 N 
ATOM     54  N   UNL A   1      41.172  31.182  34.770  1.00  0.00    -0.248 NA
ATOM     55  C   UNL A   1      41.753  31.912  36.909  1.00  0.00     0.031 C 
ATOM     56  C   UNL A   1      43.237  27.915  32.596  1.00  0.00     0.029 A 
ATOM     57  C   UNL A   1      42.609  28.929  33.300  1.00  0.00     0.049 A 
ATOM     58  H   UNL A   1      40.919  30.075  32.764  1.00  0.00     0.167 HD
ATOM     59  C   UNL A   1      42.272  30.462  35.216  1.00  0.00     0.074 A 
ATOM     60  C   UNL A   1      42.607  30.974  36.527  1.00  0.00     0.031 C 
ATOM     61  C   UNL A   1      42.943  29.463  34.593  1.00  0.00     0.037 A 
BRANCH  48  62
ATOM     62  C   UNL A   1      40.595  27.894  29.116  1.00  0.00     0.064 A 
ATOM     63  C   UNL A   1      39.768  26.766  29.025  1.00  0.00     0.173 A 
ATOM     64  C   UNL A   1      41.439  28.182  28.032  1.00  0.00     0.173 A 
ATOM     65  F   UNL A   1      38.951  26.444  30.039  1.00  0.00    -0.203 F 
ATOM     66  C   UNL A   1      39.795  25.949  27.897  1.00  0.00     0.198 A 
ATOM     67  C   UNL A   1      41.444  27.377  26.896  1.00  0.00     0.198 A 
ATOM     68  F   UNL A   1      42.244  29.254  28.067  1.00  0.00    -0.203 F 
ATOM     69  F   UNL A   1      39.017  24.859  27.844  1.00  0.00    -0.200 F 
ATOM     70  C   UNL A   1      40.625  26.260  26.831  1.00  0.00     0.200 A 
ATOM     71  F   UNL A   1      42.238  27.687  25.861  1.00  0.00    -0.200 F 
ATOM     72  F   UNL A   1      40.637  25.482  25.740  1.00  0.00    -0.200 F 
ENDBRANCH  48  62
BRANCH  49  73
ATOM     73  C   UNL A   1      39.653  33.939  36.980  1.00  0.00     0.064 A 
ATOM     74  C   UNL A   1      38.868  33.526  38.067  1.00  0.00     0.173 A 
ATOM     75  C   UNL A   1      40.258  35.201  37.054  1.00  0.00     0.173 A 
ATOM     76  F   UNL A   1      38.249  32.338  38.031  1.00  0.00    -0.203 F 
ATOM     77  C   UNL A   1      38.671  34.356  39.168  1.00  0.00     0.198 A 
ATOM     78  C   UNL A   1      40.084  36.018  38.169  1.00  0.00     0.198 A 
ATOM     79  F   UNL A   1      41.021  35.641  36.042  1.00  0.00    -0.203 F 
ATOM     80  F   UNL A   1      37.871  33.959  40.167  1.00  0.00    -0.200 F 
ATOM     81  C   UNL A   1      39.282  35.600  39.221  1.00  0.00     0.200 A 
ATOM     82  F   UNL A   1      40.684  37.216  38.221  1.00  0.00    -0.200 F 
ATOM     83  F   UNL A   1      39.089  36.398  40.278  1.00  0.00    -0.200 F 
ENDBRANCH  49  73
BRANCH  61  84
ATOM     84  C   UNL A   1      44.134  28.886  35.300  1.00  0.00     0.064 A 
ATOM     85  C   UNL A   1      45.424  29.399  35.104  1.00  0.00     0.173 A 
ATOM     86  C   UNL A   1      43.975  27.834  36.215  1.00  0.00     0.173 A 
ATOM     87  F   UNL A   1      45.629  30.394  34.228  1.00  0.00    -0.203 F 
ATOM     88  C   UNL A   1      46.515  28.865  35.783  1.00  0.00     0.198 A 
ATOM     89  C   UNL A   1      45.065  27.320  36.911  1.00  0.00     0.198 A 
ATOM     90  F   UNL A   1      42.759  27.314  36.442  1.00  0.00    -0.203 F 
ATOM     91  F   UNL A   1      47.746  29.342  35.549  1.00  0.00    -0.200 F 
ATOM     92  C   UNL A   1      46.334  27.831  36.690  1.00  0.00     0.200 A 
ATOM     93  F   UNL A   1      44.887  26.329  37.795  1.00  0.00    -0.200 F 
ATOM     94  F   UNL A   1      47.386  27.323  37.347  1.00  0.00    -0.200 F 
ENDBRANCH  61  84
ENDBRANCH  35  36
ENDBRANCH  27  30
ENDBRANCH  25  26
ENDBRANCH  24  25
ENDBRANCH   1  24
TORSDOF 13
ENDMDL
MODEL 3
REMARK VINA RESULT:     -12.0      2.867      8.470
REMARK SMILES [NH3+][C@H]1C=C[C@@H](C(=O)N2CCC(CC(=O)NCCCNC(=O)c3ccc(-c4c5nc(c(-c6c(F)c(F)c(F)c(F)c6F)c6ccc([nH]6)c(-c6c(F)c(F)c(F)c(F)c6F)c6nc(c(-c7c(F)c(F)c(F)c(F)c7F)c7ccc4[nH]7)C=C6)C=C5)cc3)CC2)C1
REMARK SMILES IDX 16 1 15 2 13 3 14 4 12 6 11 7 6 8 7 9 8 10 9 11 86 12 10 13
REMARK SMILES IDX 85 14 5 15 2 16 3 17 87 18 4 19 1 20 17 24 18 25 19 26 20 27
REMARK SMILES IDX 21 29 22 30 23 31 84 32 24 33 83 34 25 35 26 36 27 37 77 38
REMARK SMILES IDX 28 39 82 40 76 41 78 42 29 43 81 44 75 45 74 46 30 48 62 49
REMARK SMILES IDX 42 50 61 51 43 52 46 53 60 54 79 55 44 56 45 57 59 59 80 60
REMARK SMILES IDX 47 61 31 62 32 63 40 64 33 65 34 66 38 67 41 68 35 69 36 70
REMARK SMILES IDX 39 71 37 72 63 73 64 74 72 75 65 76 66 77 70 78 73 79 67 80
REMARK SMILES IDX 68 81 71 82 69 83 48 84 49 85 57 86 50 87 51 88 55 89 58 90
REMARK SMILES IDX 52 91 53 92 56 93 54 94
REMARK H PARENT 15 5 1 21 1 22 1 23 19 28 78 47 46 58
REMARK Flexibility Score: inf
ROOT
ATOM      1  C   UNL A   1      35.464  21.019  25.208  1.00  0.00     0.117 C 
ENDROOT
BRANCH   1   2
ATOM      2  N   UNL A   1      34.245  20.232  25.352  1.00  0.00    -0.356 N 
ATOM      3  C   UNL A   1      33.007  20.387  24.806  1.00  0.00     0.220 C 
ATOM      4  O   UNL A   1      32.127  19.584  25.123  1.00  0.00    -0.275 OA
ATOM      5  H   UNL A   1      34.333  19.454  25.948  1.00  0.00     0.163 HD
BRANCH   3   6
ATOM      6  C   UNL A   1      32.708  21.528  23.853  1.00  0.00     0.103 C 
BRANCH   6   7
ATOM      7  C   UNL A   1      31.578  22.450  24.348  1.00  0.00     0.002 C 
ATOM      8  C   UNL A   1      31.749  26.052  25.757  1.00  0.00     0.229 C 
ATOM      9  O   UNL A   1      32.951  25.806  25.877  1.00  0.00    -0.274 OA
ATOM     10  N   UNL A   1      30.827  25.063  25.432  1.00  0.00    -0.342 N 
ATOM     11  C   UNL A   1      30.792  23.897  26.296  1.00  0.00     0.120 C 
ATOM     12  C   UNL A   1      30.558  24.772  24.031  1.00  0.00     0.120 C 
ATOM     13  C   UNL A   1      31.763  22.823  25.823  1.00  0.00     0.026 C 
ATOM     14  C   UNL A   1      31.523  23.721  23.478  1.00  0.00     0.026 C 
BRANCH   8  15
ATOM     15  C   UNL A   1      31.174  27.416  26.163  1.00  0.00     0.107 C 
ATOM     16  C   UNL A   1      32.351  29.301  27.241  1.00  0.00     0.205 C 
ATOM     17  C   UNL A   1      32.226  29.487  25.768  1.00  0.00     0.033 C 
ATOM     18  C   UNL A   1      31.634  27.971  27.515  1.00  0.00     0.087 C 
ATOM     19  C   UNL A   1      31.573  28.479  25.183  1.00  0.00    -0.012 C 
BRANCH  16  20
ATOM     20  N   UNL A   1      33.746  29.257  27.645  1.00  0.00    -0.352 N 
ATOM     21  H   UNL A   1      34.169  30.175  27.508  1.00  0.00     0.345 HD
ATOM     22  H   UNL A   1      34.242  28.566  27.081  1.00  0.00     0.345 HD
ATOM     23  H   UNL A   1      33.806  28.999  28.630  1.00  0.00     0.345 HD
ENDBRANCH  16  20
ENDBRANCH   8  15
ENDBRANCH   6   7
ENDBRANCH   3   6
ENDBRANCH   1   2
BRANCH   1  24
ATOM     24  C   UNL A   1      35.424  22.323  26.008  1.00  0.00     0.042 C 
BRANCH  24  25
ATOM     25  C   UNL A   1      36.690  23.164  25.906  1.00  0.00     0.118 C 
BRANCH  25  26
ATOM     26  N   UNL A   1      37.888  22.354  26.034  1.00  0.00    -0.352 N 
ATOM     27  C   UNL A   1      39.174  22.721  26.349  1.00  0.00     0.251 C 
ATOM     28  H   UNL A   1      37.759  21.392  25.870  1.00  0.00     0.163 HD
ATOM     29  O   UNL A   1      40.087  21.921  26.161  1.00  0.00    -0.269 OA
BRANCH  27  30
ATOM     30  C   UNL A   1      39.489  24.061  26.910  1.00  0.00     0.039 A 
ATOM     31  C   UNL A   1      40.092  25.009  26.074  1.00  0.00     0.014 A 
ATOM     32  C   UNL A   1      39.289  24.367  28.259  1.00  0.00     0.014 A 
ATOM     33  C   UNL A   1      40.467  26.259  26.580  1.00  0.00     0.010 A 
ATOM     34  C   UNL A   1      39.599  25.639  28.746  1.00  0.00     0.010 A 
ATOM     35  C   UNL A   1      40.212  26.592  27.919  1.00  0.00    -0.014 A 
BRANCH  35  36
ATOM     36  C   UNL A   1      40.627  27.908  28.479  1.00  0.00     0.031 A 
ATOM     37  C   UNL A   1      42.069  28.156  28.837  1.00  0.00     0.074 A 
ATOM     38  C   UNL A   1      39.709  28.867  28.708  1.00  0.00     0.049 A 
ATOM     39  N   UNL A   1      42.616  29.205  29.402  1.00  0.00    -0.248 NA
ATOM     40  C   UNL A   1      43.022  27.073  28.545  1.00  0.00     0.031 C 
ATOM     41  C   UNL A   1      38.275  28.748  28.441  1.00  0.00     0.029 A 
ATOM     42  N   UNL A   1      39.846  30.132  29.229  1.00  0.00    -0.354 N 
ATOM     43  C   UNL A   1      43.961  28.895  29.560  1.00  0.00     0.074 A 
ATOM     44  C   UNL A   1      44.146  27.549  29.062  1.00  0.00     0.031 C 
ATOM     45  C   UNL A   1      37.666  29.895  28.787  1.00  0.00     0.029 A 
ATOM     46  C   UNL A   1      38.659  30.819  29.327  1.00  0.00     0.049 A 
ATOM     47  H   UNL A   1      40.710  30.510  29.506  1.00  0.00     0.167 HD
ATOM     48  C   UNL A   1      44.957  29.668  30.056  1.00  0.00     0.037 A 
ATOM     49  C   UNL A   1      38.401  32.052  29.807  1.00  0.00     0.037 A 
ATOM     50  C   UNL A   1      44.791  31.027  30.495  1.00  0.00     0.049 A 
ATOM     51  C   UNL A   1      39.534  32.898  30.325  1.00  0.00     0.074 A 
ATOM     52  C   UNL A   1      45.759  31.915  30.934  1.00  0.00     0.029 A 
ATOM     53  N   UNL A   1      43.581  31.699  30.544  1.00  0.00    -0.354 N 
ATOM     54  N   UNL A   1      40.810  32.615  30.405  1.00  0.00    -0.248 NA
ATOM     55  C   UNL A   1      39.187  34.241  30.815  1.00  0.00     0.031 C 
ATOM     56  C   UNL A   1      45.128  33.114  31.281  1.00  0.00     0.029 A 
ATOM     57  C   UNL A   1      43.774  32.985  31.022  1.00  0.00     0.049 A 
ATOM     58  H   UNL A   1      42.712  31.319  30.279  1.00  0.00     0.167 HD
ATOM     59  C   UNL A   1      41.421  33.750  30.920  1.00  0.00     0.074 A 
ATOM     60  C   UNL A   1      40.379  34.732  31.126  1.00  0.00     0.031 C 
ATOM     61  C   UNL A   1      42.730  33.959  31.200  1.00  0.00     0.037 A 
BRANCH  48  62
ATOM     62  C   UNL A   1      46.331  29.070  30.145  1.00  0.00     0.064 A 
ATOM     63  C   UNL A   1      46.764  28.387  31.290  1.00  0.00     0.173 A 
ATOM     64  C   UNL A   1      47.197  29.121  29.041  1.00  0.00     0.173 A 
ATOM     65  F   UNL A   1      45.975  28.320  32.374  1.00  0.00    -0.203 F 
ATOM     66  C   UNL A   1      48.020  27.789  31.334  1.00  0.00     0.198 A 
ATOM     67  C   UNL A   1      48.442  28.499  29.080  1.00  0.00     0.198 A 
ATOM     68  F   UNL A   1      46.827  29.755  27.919  1.00  0.00    -0.203 F 
ATOM     69  F   UNL A   1      48.425  27.166  32.450  1.00  0.00    -0.200 F 
ATOM     70  C   UNL A   1      48.854  27.837  30.227  1.00  0.00     0.200 A 
ATOM     71  F   UNL A   1      49.241  28.536  28.005  1.00  0.00    -0.200 F 
ATOM     72  F   UNL A   1      50.057  27.247  30.266  1.00  0.00    -0.200 F 
ENDBRANCH  48  62
BRANCH  49  73
ATOM     73  C   UNL A   1      37.011  32.577  29.807  1.00  0.00     0.064 A 
ATOM     74  C   UNL A   1      36.511  33.288  28.705  1.00  0.00     0.173 A 
ATOM     75  C   UNL A   1      36.168  32.412  30.914  1.00  0.00     0.173 A 
ATOM     76  F   UNL A   1      37.290  33.494  27.633  1.00  0.00    -0.203 F 
ATOM     77  C   UNL A   1      35.231  33.836  28.724  1.00  0.00     0.198 A 
ATOM     78  C   UNL A   1      34.877  32.935  30.920  1.00  0.00     0.198 A 
ATOM     79  F   UNL A   1      36.598  31.738  31.991  1.00  0.00    -0.203 F 
ATOM     80  F   UNL A   1      34.799  34.557  27.680  1.00  0.00    -0.200 F 
ATOM     81  C   UNL A   1      34.413  33.656  29.829  1.00  0.00     0.200 A 
ATOM     82  F   UNL A   1      34.086  32.752  31.986  1.00  0.00    -0.200 F 
ATOM     83  F   UNL A   1      33.184  34.187  29.849  1.00  0.00    -0.200 F 
ENDBRANCH  49  73
BRANCH  61  84
ATOM     84  C   UNL A   1      43.119  35.312  31.716  1.00  0.00     0.064 A 
ATOM     85  C   UNL A   1      43.017  35.636  33.077  1.00  0.00     0.173 A 
ATOM     86  C   UNL A   1      43.637  36.282  30.845  1.00  0.00     0.173 A 
ATOM     87  F   UNL A   1      42.513  34.748  33.946  1.00  0.00    -0.203 F 
ATOM     88  C   UNL A   1      43.401  36.891  33.542  1.00  0.00     0.198 A 
ATOM     89  C   UNL A   1      44.043  37.526  31.318  1.00  0.00     0.198 A 
ATOM     90  F   UNL A   1      43.760  36.017  29.535  1.00  0.00    -0.203 F 
ATOM     91  F   UNL A   1      43.256  37.194  34.840  1.00  0.00    -0.200 F 
ATOM     92  C   UNL A   1      43.919  37.831  32.664  1.00  0.00     0.200 A 
ATOM     93  F   UNL A   1      44.554  38.430  30.471  1.00  0.00    -0.200 F 
ATOM     94  F   UNL A   1      44.293  39.036  33.116  1.00  0.00    -0.200 F 
ENDBRANCH  61  84
ENDBRANCH  35  36
ENDBRANCH  27  30
ENDBRANCH  25  26
ENDBRANCH  24  25
ENDBRANCH   1  24
TORSDOF 13
ENDMDL
