MODEL 1
REMARK VINA RESULT:     -12.3      0.000      0.000
REMARK SMILES CC1(C)CCN(C(=O)CC(C)(C)C(=O)NCCCNC(=O)c2ccc(-c3c4nc(c(-c5c(F)c(F)c(F)c(F)c5F)c5ccc([nH]5)c(-c5c(F)c(F)c(F)c(F)c5F)c5nc(c(-c6c(F)c(F)c(F)c(F)c6F)c6ccc3[nH]6)C=C5)C=C4)cc2)C1
REMARK SMILES IDX 16 1 15 2 13 3 14 4 10 6 11 7 12 8 9 9 7 10 8 11 6 12 1 13
REMARK SMILES IDX 2 14 3 15 4 16 85 17 5 18 17 19 18 20 19 21 20 22 21 24
REMARK SMILES IDX 22 25 23 26 84 27 24 28 83 29 25 30 26 31 27 32 77 33 28 34
REMARK SMILES IDX 82 35 76 36 78 37 29 38 81 39 75 40 74 41 30 43 62 44 42 45
REMARK SMILES IDX 61 46 43 47 46 48 60 49 79 50 44 51 45 52 59 54 80 55 47 56
REMARK SMILES IDX 31 57 32 58 40 59 33 60 34 61 38 62 41 63 35 64 36 65 39 66
REMARK SMILES IDX 37 67 63 68 64 69 72 70 65 71 66 72 70 73 73 74 67 75 68 76
REMARK SMILES IDX 71 77 69 78 48 79 49 80 57 81 50 82 51 83 55 84 58 85 52 86
REMARK SMILES IDX 53 87 56 88 54 89
REMARK H PARENT 15 5 19 23 78 42 46 53
REMARK Flexibility Score: inf
ROOT
ATOM      1  C   UNL A   1      32.034  30.177  26.297  1.00  0.00     0.117 C 
ENDROOT
BRANCH   1   2
ATOM      2  N   UNL A   1      32.670  30.053  25.001  1.00  0.00    -0.356 N 
ATOM      3  C   UNL A   1      33.004  28.995  24.218  1.00  0.00     0.226 C 
ATOM      4  O   UNL A   1      33.657  29.288  23.215  1.00  0.00    -0.274 OA
ATOM      5  H   UNL A   1      32.910  30.921  24.602  1.00  0.00     0.163 HD
BRANCH   3   6
ATOM      6  C   UNL A   1      32.722  27.530  24.601  1.00  0.00     0.052 C 
ATOM      7  C   UNL A   1      33.029  27.188  26.060  1.00  0.00     0.022 C 
ATOM      8  C   UNL A   1      33.639  26.648  23.728  1.00  0.00     0.022 C 
BRANCH   6   9
ATOM      9  C   UNL A   1      31.231  27.153  24.287  1.00  0.00     0.116 C 
BRANCH   9  10
ATOM     10  C   UNL A   1      30.507  27.783  23.086  1.00  0.00     0.223 C 
ATOM     11  O   UNL A   1      30.830  27.459  21.939  1.00  0.00    -0.275 OA
BRANCH  10  12
ATOM     12  N   UNL A   1      29.449  28.641  23.278  1.00  0.00    -0.342 N 
ATOM     13  C   UNL A   1      28.438  30.536  21.233  1.00  0.00     0.013 C 
ATOM     14  C   UNL A   1      28.205  30.543  22.759  1.00  0.00    -0.016 C 
ATOM     15  C   UNL A   1      27.784  31.946  23.185  1.00  0.00     0.013 C 
ATOM     16  C   UNL A   1      27.208  29.433  23.140  1.00  0.00     0.030 C 
ATOM     17  C   UNL A   1      29.423  30.060  23.554  1.00  0.00     0.126 C 
ATOM     18  C   UNL A   1      28.075  28.162  23.139  1.00  0.00     0.120 C 
ENDBRANCH  10  12
ENDBRANCH   9  10
ENDBRANCH   6   9
ENDBRANCH   3   6
ENDBRANCH   1   2
BRANCH   1  19
ATOM     19  C   UNL A   1      31.695  31.615  26.645  1.00  0.00     0.042 C 
BRANCH  19  20
ATOM     20  C   UNL A   1      32.858  32.373  27.258  1.00  0.00     0.118 C 
BRANCH  20  21
ATOM     21  N   UNL A   1      32.534  33.769  27.529  1.00  0.00    -0.352 N 
ATOM     22  C   UNL A   1      33.032  34.627  28.484  1.00  0.00     0.251 C 
ATOM     23  H   UNL A   1      31.851  34.159  26.936  1.00  0.00     0.163 HD
ATOM     24  O   UNL A   1      32.489  35.698  28.697  1.00  0.00    -0.269 OA
BRANCH  22  25
ATOM     25  C   UNL A   1      34.217  34.224  29.271  1.00  0.00     0.039 A 
ATOM     26  C   UNL A   1      34.044  33.576  30.497  1.00  0.00     0.014 A 
ATOM     27  C   UNL A   1      35.500  34.468  28.782  1.00  0.00     0.014 A 
ATOM     28  C   UNL A   1      35.160  33.089  31.183  1.00  0.00     0.010 A 
ATOM     29  C   UNL A   1      36.592  33.880  29.399  1.00  0.00     0.010 A 
ATOM     30  C   UNL A   1      36.439  33.192  30.613  1.00  0.00    -0.014 A 
BRANCH  30  31
ATOM     31  C   UNL A   1      37.654  32.644  31.265  1.00  0.00     0.031 A 
ATOM     32  C   UNL A   1      38.394  31.517  30.594  1.00  0.00     0.074 A 
ATOM     33  C   UNL A   1      38.025  33.070  32.488  1.00  0.00     0.049 A 
ATOM     34  N   UNL A   1      39.336  30.742  31.067  1.00  0.00    -0.248 NA
ATOM     35  C   UNL A   1      37.987  31.191  29.215  1.00  0.00     0.031 C 
ATOM     36  C   UNL A   1      37.373  34.134  33.254  1.00  0.00     0.029 A 
ATOM     37  N   UNL A   1      39.032  32.637  33.316  1.00  0.00    -0.354 N 
ATOM     38  C   UNL A   1      39.609  29.827  30.058  1.00  0.00     0.074 A 
ATOM     39  C   UNL A   1      38.695  30.099  28.973  1.00  0.00     0.031 C 
ATOM     40  C   UNL A   1      38.003  34.279  34.431  1.00  0.00     0.029 A 
ATOM     41  C   UNL A   1      39.066  33.283  34.528  1.00  0.00     0.049 A 
ATOM     42  H   UNL A   1      39.669  31.930  33.064  1.00  0.00     0.167 HD
ATOM     43  C   UNL A   1      40.559  28.864  30.029  1.00  0.00     0.037 A 
ATOM     44  C   UNL A   1      39.852  33.077  35.603  1.00  0.00     0.037 A 
ATOM     45  C   UNL A   1      41.492  28.625  31.096  1.00  0.00     0.049 A 
ATOM     46  C   UNL A   1      40.889  31.983  35.549  1.00  0.00     0.074 A 
ATOM     47  C   UNL A   1      42.512  27.693  31.156  1.00  0.00     0.029 A 
ATOM     48  N   UNL A   1      41.524  29.336  32.285  1.00  0.00    -0.354 N 
ATOM     49  N   UNL A   1      41.162  31.147  34.577  1.00  0.00    -0.248 NA
ATOM     50  C   UNL A   1      41.732  31.807  36.741  1.00  0.00     0.031 C 
ATOM     51  C   UNL A   1      43.142  27.818  32.397  1.00  0.00     0.029 A 
ATOM     52  C   UNL A   1      42.548  28.862  33.086  1.00  0.00     0.049 A 
ATOM     53  H   UNL A   1      40.911  30.068  32.524  1.00  0.00     0.167 HD
ATOM     54  C   UNL A   1      42.236  30.385  35.019  1.00  0.00     0.074 A 
ATOM     55  C   UNL A   1      42.566  30.856  36.347  1.00  0.00     0.031 C 
ATOM     56  C   UNL A   1      42.891  29.384  34.383  1.00  0.00     0.037 A 
BRANCH  43  57
ATOM     57  C   UNL A   1      40.656  28.015  28.797  1.00  0.00     0.064 A 
ATOM     58  C   UNL A   1      39.929  26.821  28.673  1.00  0.00     0.173 A 
ATOM     59  C   UNL A   1      41.435  28.425  27.705  1.00  0.00     0.173 A 
ATOM     60  F   UNL A   1      39.180  26.377  29.694  1.00  0.00    -0.203 F 
ATOM     61  C   UNL A   1      39.995  26.059  27.509  1.00  0.00     0.198 A 
ATOM     62  C   UNL A   1      41.473  27.678  26.531  1.00  0.00     0.198 A 
ATOM     63  F   UNL A   1      42.146  29.561  27.770  1.00  0.00    -0.203 F 
ATOM     64  F   UNL A   1      39.324  24.901  27.431  1.00  0.00    -0.200 F 
ATOM     65  C   UNL A   1      40.756  26.493  26.436  1.00  0.00     0.200 A 
ATOM     66  F   UNL A   1      42.197  28.106  25.489  1.00  0.00    -0.200 F 
ATOM     67  F   UNL A   1      40.804  25.769  25.310  1.00  0.00    -0.200 F 
ENDBRANCH  43  57
BRANCH  44  68
ATOM     68  C   UNL A   1      39.705  33.916  36.823  1.00  0.00     0.064 A 
ATOM     69  C   UNL A   1      38.903  33.494  37.894  1.00  0.00     0.173 A 
ATOM     70  C   UNL A   1      40.319  35.173  36.929  1.00  0.00     0.173 A 
ATOM     71  F   UNL A   1      38.280  32.307  37.835  1.00  0.00    -0.203 F 
ATOM     72  C   UNL A   1      38.687  34.310  39.001  1.00  0.00     0.198 A 
ATOM     73  C   UNL A   1      40.129  35.975  38.052  1.00  0.00     0.198 A 
ATOM     74  F   UNL A   1      41.103  35.624  35.939  1.00  0.00    -0.203 F 
ATOM     75  F   UNL A   1      37.860  33.909  39.976  1.00  0.00    -0.200 F 
ATOM     76  C   UNL A   1      39.302  35.550  39.081  1.00  0.00     0.200 A 
ATOM     77  F   UNL A   1      40.739  37.166  38.133  1.00  0.00    -0.200 F 
ATOM     78  F   UNL A   1      39.087  36.340  40.142  1.00  0.00    -0.200 F 
ENDBRANCH  44  68
BRANCH  56  79
ATOM     79  C   UNL A   1      44.089  28.791  35.063  1.00  0.00     0.064 A 
ATOM     80  C   UNL A   1      45.379  29.306  34.878  1.00  0.00     0.173 A 
ATOM     81  C   UNL A   1      43.923  27.740  35.979  1.00  0.00     0.173 A 
ATOM     82  F   UNL A   1      45.590  30.301  34.003  1.00  0.00    -0.203 F 
ATOM     83  C   UNL A   1      46.463  28.779  35.573  1.00  0.00     0.198 A 
ATOM     84  C   UNL A   1      45.004  27.237  36.696  1.00  0.00     0.198 A 
ATOM     85  F   UNL A   1      42.706  27.219  36.197  1.00  0.00    -0.203 F 
ATOM     86  F   UNL A   1      47.694  29.262  35.355  1.00  0.00    -0.200 F 
ATOM     87  C   UNL A   1      46.274  27.754  36.489  1.00  0.00     0.200 A 
ATOM     88  F   UNL A   1      44.815  26.259  37.591  1.00  0.00    -0.200 F 
ATOM     89  F   UNL A   1      47.317  27.262  37.172  1.00  0.00    -0.200 F 
ENDBRANCH  56  79
ENDBRANCH  30  31
ENDBRANCH  22  25
ENDBRANCH  20  21
ENDBRANCH  19  20
ENDBRANCH   1  19
TORSDOF 13
ENDMDL
MODEL 2
REMARK VINA RESULT:     -12.2      6.574     11.505
REMARK SMILES CC1(C)CCN(C(=O)CC(C)(C)C(=O)NCCCNC(=O)c2ccc(-c3c4nc(c(-c5c(F)c(F)c(F)c(F)c5F)c5ccc([nH]5)c(-c5c(F)c(F)c(F)c(F)c5F)c5nc(c(-c6c(F)c(F)c(F)c(F)c6F)c6ccc3[nH]6)C=C5)C=C4)cc2)C1
REMARK SMILES IDX 16 1 15 2 13 3 14 4 10 6 11 7 12 8 9 9 7 10 8 11 6 12 1 13
REMARK SMILES IDX 2 14 3 15 4 16 85 17 5 18 17 19 18 20 19 21 20 22 21 24
REMARK SMILES IDX 22 25 23 26 84 27 24 28 83 29 25 30 26 31 27 32 77 33 28 34
REMARK SMILES IDX 82 35 76 36 78 37 29 38 81 39 75 40 74 41 30 43 62 44 42 45
REMARK SMILES IDX 61 46 43 47 46 48 60 49 79 50 44 51 45 52 59 54 80 55 47 56
REMARK SMILES IDX 31 57 32 58 40 59 33 60 34 61 38 62 41 63 35 64 36 65 39 66
REMARK SMILES IDX 37 67 63 68 64 69 72 70 65 71 66 72 70 73 73 74 67 75 68 76
REMARK SMILES IDX 71 77 69 78 48 79 49 80 57 81 50 82 51 83 55 84 58 85 52 86
REMARK SMILES IDX 53 87 56 88 54 89
REMARK H PARENT 15 5 19 23 78 42 46 53
REMARK Flexibility Score: inf
ROOT
ATOM      1  C   UNL A   1      37.005  21.173  24.932  1.00  0.00     0.117 C 
ENDROOT
BRANCH   1   2
ATOM      2  N   UNL A   1      36.096  21.217  26.060  1.00  0.00    -0.356 N 
ATOM      3  C   UNL A   1      34.851  21.729  26.240  1.00  0.00     0.226 C 
ATOM      4  O   UNL A   1      34.442  21.677  27.401  1.00  0.00    -0.274 OA
ATOM      5  H   UNL A   1      36.457  20.782  26.867  1.00  0.00     0.163 HD
BRANCH   3   6
ATOM      6  C   UNL A   1      34.055  22.443  25.132  1.00  0.00     0.052 C 
ATOM      7  C   UNL A   1      34.828  23.549  24.412  1.00  0.00     0.022 C 
ATOM      8  C   UNL A   1      32.838  23.109  25.806  1.00  0.00     0.022 C 
BRANCH   6   9
ATOM      9  C   UNL A   1      33.529  21.410  24.074  1.00  0.00     0.116 C 
BRANCH   9  10
ATOM     10  C   UNL A   1      32.884  20.091  24.531  1.00  0.00     0.223 C 
ATOM     11  O   UNL A   1      31.783  20.110  25.090  1.00  0.00    -0.275 OA
BRANCH  10  12
ATOM     12  N   UNL A   1      33.482  18.885  24.248  1.00  0.00    -0.342 N 
ATOM     13  C   UNL A   1      32.990  16.378  25.755  1.00  0.00     0.013 C 
ATOM     14  C   UNL A   1      34.162  16.728  24.814  1.00  0.00    -0.016 C 
ATOM     15  C   UNL A   1      35.334  15.801  25.124  1.00  0.00     0.013 C 
ATOM     16  C   UNL A   1      33.686  16.689  23.350  1.00  0.00     0.030 C 
ATOM     17  C   UNL A   1      34.579  18.201  24.896  1.00  0.00     0.126 C 
ATOM     18  C   UNL A   1      32.964  18.037  23.176  1.00  0.00     0.120 C 
ENDBRANCH  10  12
ENDBRANCH   9  10
ENDBRANCH   6   9
ENDBRANCH   3   6
ENDBRANCH   1   2
BRANCH   1  19
ATOM     19  C   UNL A   1      37.998  20.030  25.028  1.00  0.00     0.042 C 
BRANCH  19  20
ATOM     20  C   UNL A   1      39.248  20.385  25.811  1.00  0.00     0.118 C 
BRANCH  20  21
ATOM     21  N   UNL A   1      40.213  19.292  25.850  1.00  0.00    -0.352 N 
ATOM     22  C   UNL A   1      41.577  19.317  26.036  1.00  0.00     0.251 C 
ATOM     23  H   UNL A   1      39.828  18.394  25.722  1.00  0.00     0.163 HD
ATOM     24  O   UNL A   1      42.249  18.321  25.826  1.00  0.00    -0.269 OA
BRANCH  22  25
ATOM     25  C   UNL A   1      42.226  20.574  26.465  1.00  0.00     0.039 A 
ATOM     26  C   UNL A   1      42.840  21.394  25.514  1.00  0.00     0.014 A 
ATOM     27  C   UNL A   1      42.204  20.953  27.807  1.00  0.00     0.014 A 
ATOM     28  C   UNL A   1      43.346  22.638  25.900  1.00  0.00     0.010 A 
ATOM     29  C   UNL A   1      42.594  22.233  28.165  1.00  0.00     0.010 A 
ATOM     30  C   UNL A   1      43.181  23.088  27.220  1.00  0.00    -0.014 A 
BRANCH  30  31
ATOM     31  C   UNL A   1      43.645  24.422  27.676  1.00  0.00     0.031 A 
ATOM     32  C   UNL A   1      42.621  25.468  28.026  1.00  0.00     0.074 A 
ATOM     33  C   UNL A   1      44.958  24.727  27.671  1.00  0.00     0.049 A 
ATOM     34  N   UNL A   1      42.779  26.750  28.235  1.00  0.00    -0.248 NA
ATOM     35  C   UNL A   1      41.220  25.016  28.111  1.00  0.00     0.031 C 
ATOM     36  C   UNL A   1      46.045  23.810  27.324  1.00  0.00     0.029 A 
ATOM     37  N   UNL A   1      45.598  25.912  27.943  1.00  0.00    -0.354 N 
ATOM     38  C   UNL A   1      41.502  27.255  28.445  1.00  0.00     0.074 A 
ATOM     39  C   UNL A   1      40.575  26.160  28.278  1.00  0.00     0.031 C 
ATOM     40  C   UNL A   1      47.216  24.461  27.417  1.00  0.00     0.029 A 
ATOM     41  C   UNL A   1      46.961  25.853  27.774  1.00  0.00     0.049 A 
ATOM     42  H   UNL A   1      45.126  26.725  28.232  1.00  0.00     0.167 HD
ATOM     43  C   UNL A   1      41.139  28.515  28.777  1.00  0.00     0.037 A 
ATOM     44  C   UNL A   1      47.893  26.822  27.872  1.00  0.00     0.037 A 
ATOM     45  C   UNL A   1      42.069  29.591  28.982  1.00  0.00     0.049 A 
ATOM     46  C   UNL A   1      47.456  28.221  28.225  1.00  0.00     0.074 A 
ATOM     47  C   UNL A   1      41.808  30.899  29.349  1.00  0.00     0.029 A 
ATOM     48  N   UNL A   1      43.444  29.476  28.850  1.00  0.00    -0.354 N 
ATOM     49  N   UNL A   1      46.250  28.680  28.456  1.00  0.00    -0.248 NA
ATOM     50  C   UNL A   1      48.512  29.238  28.336  1.00  0.00     0.031 C 
ATOM     51  C   UNL A   1      43.023  31.585  29.405  1.00  0.00     0.029 A 
ATOM     52  C   UNL A   1      44.044  30.691  29.127  1.00  0.00     0.049 A 
ATOM     53  H   UNL A   1      43.922  28.653  28.596  1.00  0.00     0.167 HD
ATOM     54  C   UNL A   1      46.408  30.019  28.788  1.00  0.00     0.074 A 
ATOM     55  C   UNL A   1      47.825  30.302  28.729  1.00  0.00     0.031 C 
ATOM     56  C   UNL A   1      45.463  30.934  29.114  1.00  0.00     0.037 A 
BRANCH  43  57
ATOM     57  C   UNL A   1      39.677  28.794  28.968  1.00  0.00     0.064 A 
ATOM     58  C   UNL A   1      39.063  28.651  30.221  1.00  0.00     0.173 A 
ATOM     59  C   UNL A   1      38.894  29.266  27.904  1.00  0.00     0.173 A 
ATOM     60  F   UNL A   1      39.764  28.189  31.269  1.00  0.00    -0.203 F 
ATOM     61  C   UNL A   1      37.715  28.951  30.398  1.00  0.00     0.198 A 
ATOM     62  C   UNL A   1      37.555  29.595  28.091  1.00  0.00     0.198 A 
ATOM     63  F   UNL A   1      39.433  29.424  26.686  1.00  0.00    -0.203 F 
ATOM     64  F   UNL A   1      37.141  28.766  31.595  1.00  0.00    -0.200 F 
ATOM     65  C   UNL A   1      36.965  29.433  29.337  1.00  0.00     0.200 A 
ATOM     66  F   UNL A   1      36.834  30.076  27.069  1.00  0.00    -0.200 F 
ATOM     67  F   UNL A   1      35.672  29.739  29.512  1.00  0.00    -0.200 F 
ENDBRANCH  43  57
BRANCH  44  68
ATOM     68  C   UNL A   1      49.331  26.516  27.643  1.00  0.00     0.064 A 
ATOM     69  C   UNL A   1      50.196  26.279  28.722  1.00  0.00     0.173 A 
ATOM     70  C   UNL A   1      49.884  26.502  26.354  1.00  0.00     0.173 A 
ATOM     71  F   UNL A   1      49.722  26.299  29.977  1.00  0.00    -0.203 F 
ATOM     72  C   UNL A   1      51.561  26.081  28.524  1.00  0.00     0.198 A 
ATOM     73  C   UNL A   1      51.243  26.269  26.155  1.00  0.00     0.198 A 
ATOM     74  F   UNL A   1      49.102  26.714  25.285  1.00  0.00    -0.203 F 
ATOM     75  F   UNL A   1      52.373  25.926  29.579  1.00  0.00    -0.200 F 
ATOM     76  C   UNL A   1      52.083  26.074  27.240  1.00  0.00     0.200 A 
ATOM     77  F   UNL A   1      51.741  26.248  24.911  1.00  0.00    -0.200 F 
ATOM     78  F   UNL A   1      53.397  25.893  27.050  1.00  0.00    -0.200 F 
ENDBRANCH  44  68
BRANCH  56  79
ATOM     79  C   UNL A   1      45.926  32.300  29.524  1.00  0.00     0.064 A 
ATOM     80  C   UNL A   1      46.262  32.602  30.851  1.00  0.00     0.173 A 
ATOM     81  C   UNL A   1      46.113  33.296  28.553  1.00  0.00     0.173 A 
ATOM     82  F   UNL A   1      46.088  31.688  31.817  1.00  0.00    -0.203 F 
ATOM     83  C   UNL A   1      46.753  33.858  31.193  1.00  0.00     0.198 A 
ATOM     84  C   UNL A   1      46.634  34.539  28.893  1.00  0.00     0.198 A 
ATOM     85  F   UNL A   1      45.814  33.051  27.268  1.00  0.00    -0.203 F 
ATOM     86  F   UNL A   1      47.035  34.139  32.473  1.00  0.00    -0.200 F 
ATOM     87  C   UNL A   1      46.950  34.822  30.213  1.00  0.00     0.200 A 
ATOM     88  F   UNL A   1      46.839  35.461  27.943  1.00  0.00    -0.200 F 
ATOM     89  F   UNL A   1      47.442  36.024  30.543  1.00  0.00    -0.200 F 
ENDBRANCH  56  79
ENDBRANCH  30  31
ENDBRANCH  22  25
ENDBRANCH  20  21
ENDBRANCH  19  20
ENDBRANCH   1  19
TORSDOF 13
ENDMDL
MODEL 3
REMARK VINA RESULT:     -12.1      1.399      2.868
REMARK SMILES CC1(C)CCN(C(=O)CC(C)(C)C(=O)NCCCNC(=O)c2ccc(-c3c4nc(c(-c5c(F)c(F)c(F)c(F)c5F)c5ccc([nH]5)c(-c5c(F)c(F)c(F)c(F)c5F)c5nc(c(-c6c(F)c(F)c(F)c(F)c6F)c6ccc3[nH]6)C=C5)C=C4)cc2)C1
REMARK SMILES IDX 16 1 15 2 13 3 14 4 10 6 11 7 12 8 9 9 7 10 8 11 6 12 1 13
REMARK SMILES IDX 2 14 3 15 4 16 85 17 5 18 17 19 18 20 19 21 20 22 21 24
REMARK SMILES IDX 22 25 23 26 84 27 24 28 83 29 25 30 26 31 27 32 77 33 28 34
REMARK SMILES IDX 82 35 76 36 78 37 29 38 81 39 75 40 74 41 30 43 62 44 42 45
REMARK SMILES IDX 61 46 43 47 46 48 60 49 79 50 44 51 45 52 59 54 80 55 47 56
REMARK SMILES IDX 31 57 32 58 40 59 33 60 34 61 38 62 41 63 35 64 36 65 39 66
REMARK SMILES IDX 37 67 63 68 64 69 72 70 65 71 66 72 70 73 73 74 67 75 68 76
REMARK SMILES IDX 71 77 69 78 48 79 49 80 57 81 50 82 51 83 55 84 58 85 52 86
REMARK SMILES IDX 53 87 56 88 54 89
REMARK H PARENT 15 5 19 23 78 42 46 53
REMARK Flexibility Score: inf
ROOT
ATOM      1  C   UNL A   1      31.963  30.596  26.193  1.00  0.00     0.117 C 
ENDROOT
BRANCH   1   2
ATOM      2  N   UNL A   1      31.775  29.593  27.222  1.00  0.00    -0.356 N 
ATOM      3  C   UNL A   1      31.709  28.236  27.207  1.00  0.00     0.226 C 
ATOM      4  O   UNL A   1      31.411  27.728  28.288  1.00  0.00    -0.274 OA
ATOM      5  H   UNL A   1      31.674  29.975  28.124  1.00  0.00     0.163 HD
BRANCH   3   6
ATOM      6  C   UNL A   1      31.855  27.390  25.927  1.00  0.00     0.052 C 
ATOM      7  C   UNL A   1      30.928  27.810  24.784  1.00  0.00     0.022 C 
ATOM      8  C   UNL A   1      31.485  25.939  26.298  1.00  0.00     0.022 C 
BRANCH   6   9
ATOM      9  C   UNL A   1      33.340  27.407  25.419  1.00  0.00     0.116 C 
BRANCH   9  10
ATOM     10  C   UNL A   1      33.645  27.516  23.917  1.00  0.00     0.223 C 
ATOM     11  O   UNL A   1      34.045  28.587  23.450  1.00  0.00    -0.275 OA
BRANCH  10  12
ATOM     12  N   UNL A   1      33.557  26.410  23.103  1.00  0.00    -0.342 N 
ATOM     13  C   UNL A   1      31.264  24.529  23.077  1.00  0.00     0.013 C 
ATOM     14  C   UNL A   1      32.695  24.320  22.535  1.00  0.00    -0.016 C 
ATOM     15  C   UNL A   1      32.960  22.822  22.414  1.00  0.00     0.013 C 
ATOM     16  C   UNL A   1      32.878  25.110  21.227  1.00  0.00     0.030 C 
ATOM     17  C   UNL A   1      33.766  25.008  23.389  1.00  0.00     0.126 C 
ATOM     18  C   UNL A   1      33.125  26.548  21.713  1.00  0.00     0.120 C 
ENDBRANCH  10  12
ENDBRANCH   9  10
ENDBRANCH   6   9
ENDBRANCH   3   6
ENDBRANCH   1   2
BRANCH   1  19
ATOM     19  C   UNL A   1      31.614  31.993  26.672  1.00  0.00     0.042 C 
BRANCH  19  20
ATOM     20  C   UNL A   1      32.776  32.708  27.334  1.00  0.00     0.118 C 
BRANCH  20  21
ATOM     21  N   UNL A   1      32.474  34.102  27.639  1.00  0.00    -0.352 N 
ATOM     22  C   UNL A   1      32.994  34.932  28.608  1.00  0.00     0.251 C 
ATOM     23  H   UNL A   1      31.790  34.515  27.063  1.00  0.00     0.163 HD
ATOM     24  O   UNL A   1      32.467  36.005  28.850  1.00  0.00    -0.269 OA
BRANCH  22  25
ATOM     25  C   UNL A   1      34.181  34.496  29.373  1.00  0.00     0.039 A 
ATOM     26  C   UNL A   1      34.016  33.912  30.631  1.00  0.00     0.014 A 
ATOM     27  C   UNL A   1      35.458  34.645  28.832  1.00  0.00     0.014 A 
ATOM     28  C   UNL A   1      35.126  33.392  31.301  1.00  0.00     0.010 A 
ATOM     29  C   UNL A   1      36.537  34.022  29.438  1.00  0.00     0.010 A 
ATOM     30  C   UNL A   1      36.388  33.397  30.685  1.00  0.00    -0.014 A 
BRANCH  30  31
ATOM     31  C   UNL A   1      37.593  32.809  31.321  1.00  0.00     0.031 A 
ATOM     32  C   UNL A   1      38.297  31.670  30.631  1.00  0.00     0.074 A 
ATOM     33  C   UNL A   1      37.986  33.211  32.546  1.00  0.00     0.049 A 
ATOM     34  N   UNL A   1      39.221  30.865  31.088  1.00  0.00    -0.248 NA
ATOM     35  C   UNL A   1      37.870  31.372  29.252  1.00  0.00     0.031 C 
ATOM     36  C   UNL A   1      37.368  34.283  33.329  1.00  0.00     0.029 A 
ATOM     37  N   UNL A   1      38.987  32.740  33.360  1.00  0.00    -0.354 N 
ATOM     38  C   UNL A   1      39.461  29.954  30.067  1.00  0.00     0.074 A 
ATOM     39  C   UNL A   1      38.547  30.263  28.992  1.00  0.00     0.031 C 
ATOM     40  C   UNL A   1      38.012  34.397  34.503  1.00  0.00     0.029 A 
ATOM     41  C   UNL A   1      39.049  33.372  34.580  1.00  0.00     0.049 A 
ATOM     42  H   UNL A   1      39.603  32.020  33.096  1.00  0.00     0.167 HD
ATOM     43  C   UNL A   1      40.384  28.966  30.019  1.00  0.00     0.037 A 
ATOM     44  C   UNL A   1      39.837  33.131  35.646  1.00  0.00     0.037 A 
ATOM     45  C   UNL A   1      41.319  28.689  31.075  1.00  0.00     0.049 A 
ATOM     46  C   UNL A   1      40.844  32.011  35.571  1.00  0.00     0.074 A 
ATOM     47  C   UNL A   1      42.314  27.730  31.116  1.00  0.00     0.029 A 
ATOM     48  N   UNL A   1      41.380  29.385  32.272  1.00  0.00    -0.354 N 
ATOM     49  N   UNL A   1      41.086  31.179  34.587  1.00  0.00    -0.248 NA
ATOM     50  C   UNL A   1      41.690  31.799  36.753  1.00  0.00     0.031 C 
ATOM     51  C   UNL A   1      42.956  27.823  32.353  1.00  0.00     0.029 A 
ATOM     52  C   UNL A   1      42.397  28.875  33.059  1.00  0.00     0.049 A 
ATOM     53  H   UNL A   1      40.788  30.131  32.524  1.00  0.00     0.167 HD
ATOM     54  C   UNL A   1      42.142  30.383  35.012  1.00  0.00     0.074 A 
ATOM     55  C   UNL A   1      42.495  30.829  36.341  1.00  0.00     0.031 C 
ATOM     56  C   UNL A   1      42.765  29.373  34.358  1.00  0.00     0.037 A 
BRANCH  43  57
ATOM     57  C   UNL A   1      40.448  28.129  28.776  1.00  0.00     0.064 A 
ATOM     58  C   UNL A   1      41.230  28.513  27.676  1.00  0.00     0.173 A 
ATOM     59  C   UNL A   1      39.772  26.902  28.704  1.00  0.00     0.173 A 
ATOM     60  F   UNL A   1      41.885  29.685  27.688  1.00  0.00    -0.203 F 
ATOM     61  C   UNL A   1      41.315  27.710  26.541  1.00  0.00     0.198 A 
ATOM     62  C   UNL A   1      39.886  26.086  27.582  1.00  0.00     0.198 A 
ATOM     63  F   UNL A   1      39.015  26.486  29.730  1.00  0.00    -0.203 F 
ATOM     64  F   UNL A   1      42.034  28.119  25.486  1.00  0.00    -0.200 F 
ATOM     65  C   UNL A   1      40.654  26.493  26.500  1.00  0.00     0.200 A 
ATOM     66  F   UNL A   1      39.258  24.903  27.548  1.00  0.00    -0.200 F 
ATOM     67  F   UNL A   1      40.752  25.712  25.415  1.00  0.00    -0.200 F 
ENDBRANCH  43  57
BRANCH  44  68
ATOM     68  C   UNL A   1      39.723  33.960  36.876  1.00  0.00     0.064 A 
ATOM     69  C   UNL A   1      38.907  33.554  37.943  1.00  0.00     0.173 A 
ATOM     70  C   UNL A   1      40.382  35.193  36.996  1.00  0.00     0.173 A 
ATOM     71  F   UNL A   1      38.241  32.392  37.871  1.00  0.00    -0.203 F 
ATOM     72  C   UNL A   1      38.723  34.364  39.061  1.00  0.00     0.198 A 
ATOM     73  C   UNL A   1      40.224  35.987  38.130  1.00  0.00     0.198 A 
ATOM     74  F   UNL A   1      41.181  35.627  36.010  1.00  0.00    -0.203 F 
ATOM     75  F   UNL A   1      37.884  33.981  40.033  1.00  0.00    -0.200 F 
ATOM     76  C   UNL A   1      39.383  35.580  39.155  1.00  0.00     0.200 A 
ATOM     77  F   UNL A   1      40.876  37.154  38.224  1.00  0.00    -0.200 F 
ATOM     78  F   UNL A   1      39.199  36.364  40.226  1.00  0.00    -0.200 F 
ENDBRANCH  44  68
BRANCH  56  79
ATOM     79  C   UNL A   1      43.951  28.739  35.022  1.00  0.00     0.064 A 
ATOM     80  C   UNL A   1      43.824  27.625  35.863  1.00  0.00     0.173 A 
ATOM     81  C   UNL A   1      45.243  29.211  34.742  1.00  0.00     0.173 A 
ATOM     82  F   UNL A   1      42.609  27.147  36.171  1.00  0.00    -0.203 F 
ATOM     83  C   UNL A   1      44.947  27.016  36.413  1.00  0.00     0.198 A 
ATOM     84  C   UNL A   1      46.366  28.579  35.268  1.00  0.00     0.198 A 
ATOM     85  F   UNL A   1      45.417  30.268  33.936  1.00  0.00    -0.203 F 
ATOM     86  F   UNL A   1      44.802  25.973  37.243  1.00  0.00    -0.200 F 
ATOM     87  C   UNL A   1      46.217  27.485  36.107  1.00  0.00     0.200 A 
ATOM     88  F   UNL A   1      47.590  29.024  34.957  1.00  0.00    -0.200 F 
ATOM     89  F   UNL A   1      47.298  26.883  36.622  1.00  0.00    -0.200 F 
ENDBRANCH  56  79
ENDBRANCH  30  31
ENDBRANCH  22  25
ENDBRANCH  20  21
ENDBRANCH  19  20
ENDBRANCH   1  19
TORSDOF 13
ENDMDL
