MODEL 1
REMARK VINA RESULT:     -13.0      0.000      0.000
REMARK SMILES Cc1onc2c(=O)n(C)nc(C(=O)NCCCNC(=O)c3ccc(-c4c5nc(c(-c6c(F)c(F)c(F)c(F)c6F)c6ccc([nH]6)c(-c6c(F)c(F)c(F)c(F)c6F)c6nc(c(-c7c(F)c(F)c(F)c(F)c7F)c7ccc4[nH]7)C=C6)C=C5)cc3)c12
REMARK SMILES IDX 17 1 16 2 15 3 14 4 12 5 13 6 11 8 1 9 2 10 3 11 84 12 4 13
REMARK SMILES IDX 5 14 6 15 10 16 7 17 8 18 9 19 18 20 19 21 20 23 21 24 22 25
REMARK SMILES IDX 83 26 23 27 82 28 24 29 25 30 26 31 76 32 27 33 81 34 75 35
REMARK SMILES IDX 77 36 28 37 80 38 74 39 73 40 29 42 61 43 41 44 60 45 42 46
REMARK SMILES IDX 45 47 59 48 78 49 43 50 44 51 58 53 79 54 46 55 30 56 31 57
REMARK SMILES IDX 39 58 32 59 33 60 37 61 40 62 34 63 35 64 38 65 36 66 62 67
REMARK SMILES IDX 63 68 71 69 64 70 65 71 69 72 72 73 66 74 67 75 70 76 68 77
REMARK SMILES IDX 47 78 48 79 56 80 49 81 50 82 54 83 57 84 51 85 52 86 55 87
REMARK SMILES IDX 53 88
REMARK H PARENT 14 7 18 22 77 41 45 52
REMARK Flexibility Score: inf
ROOT
ATOM      1  C   UNL A   1      37.628  22.347  24.892  1.00  0.00     0.118 C 
ENDROOT
BRANCH   1   2
ATOM      2  C   UNL A   1      36.146  22.365  25.324  1.00  0.00     0.042 C 
BRANCH   2   3
ATOM      3  C   UNL A   1      35.673  23.593  26.120  1.00  0.00     0.118 C 
BRANCH   3   4
ATOM      4  N   UNL A   1      34.253  23.578  26.446  1.00  0.00    -0.351 N 
ATOM      5  C   UNL A   1      33.159  24.196  25.869  1.00  0.00     0.272 C 
ATOM      6  O   UNL A   1      32.045  23.809  26.217  1.00  0.00    -0.267 OA
ATOM      7  H   UNL A   1      34.031  23.023  27.228  1.00  0.00     0.163 HD
BRANCH   5   8
ATOM      8  C   UNL A   1      33.255  25.323  24.824  1.00  0.00     0.161 A 
ATOM      9  C   UNL A   1      32.910  22.533  22.739  1.00  0.00     0.091 C 
ATOM     10  C   UNL A   1      33.133  23.983  22.574  1.00  0.00     0.144 A 
ATOM     11  O   UNL A   1      33.246  24.386  21.273  1.00  0.00    -0.360 OA
ATOM     12  C   UNL A   1      33.262  25.083  23.393  1.00  0.00     0.083 A 
ATOM     13  N   UNL A   1      33.425  25.755  21.217  1.00  0.00    -0.074 NA
ATOM     14  C   UNL A   1      33.424  26.157  22.491  1.00  0.00     0.183 A 
ATOM     15  C   UNL A   1      33.551  27.521  22.943  1.00  0.00     0.296 A 
ATOM     16  N   UNL A   1      33.368  26.559  25.236  1.00  0.00    -0.164 NA
ATOM     17  O   UNL A   1      33.686  28.490  22.188  1.00  0.00    -0.265 OA
ATOM     18  N   UNL A   1      33.487  27.631  24.342  1.00  0.00    -0.230 N 
ATOM     19  C   UNL A   1      33.562  28.957  24.923  1.00  0.00     0.178 C 
ENDBRANCH   5   8
ENDBRANCH   3   4
ENDBRANCH   2   3
ENDBRANCH   1   2
BRANCH   1  20
ATOM     20  N   UNL A   1      38.465  21.646  25.853  1.00  0.00    -0.352 N 
ATOM     21  C   UNL A   1      39.514  22.018  26.651  1.00  0.00     0.251 C 
ATOM     22  H   UNL A   1      38.227  20.696  25.952  1.00  0.00     0.163 HD
ATOM     23  O   UNL A   1      40.164  21.111  27.173  1.00  0.00    -0.269 OA
BRANCH  21  24
ATOM     24  C   UNL A   1      39.913  23.418  26.943  1.00  0.00     0.039 A 
ATOM     25  C   UNL A   1      41.287  23.711  26.880  1.00  0.00     0.014 A 
ATOM     26  C   UNL A   1      39.040  24.384  27.446  1.00  0.00     0.014 A 
ATOM     27  C   UNL A   1      41.781  24.958  27.277  1.00  0.00     0.010 A 
ATOM     28  C   UNL A   1      39.540  25.637  27.846  1.00  0.00     0.010 A 
ATOM     29  C   UNL A   1      40.910  25.944  27.748  1.00  0.00    -0.014 A 
BRANCH  29  30
ATOM     30  C   UNL A   1      41.450  27.317  27.903  1.00  0.00     0.031 A 
ATOM     31  C   UNL A   1      40.425  28.393  27.785  1.00  0.00     0.074 A 
ATOM     32  C   UNL A   1      42.561  27.643  28.599  1.00  0.00     0.049 A 
ATOM     33  N   UNL A   1      39.672  28.752  28.783  1.00  0.00    -0.248 NA
ATOM     34  C   UNL A   1      39.989  28.919  26.493  1.00  0.00     0.031 C 
ATOM     35  C   UNL A   1      42.961  27.001  29.854  1.00  0.00     0.029 A 
ATOM     36  N   UNL A   1      43.378  28.754  28.504  1.00  0.00    -0.354 N 
ATOM     37  C   UNL A   1      38.610  29.459  28.255  1.00  0.00     0.074 A 
ATOM     38  C   UNL A   1      38.862  29.561  26.834  1.00  0.00     0.031 C 
ATOM     39  C   UNL A   1      43.830  27.813  30.493  1.00  0.00     0.029 A 
ATOM     40  C   UNL A   1      44.167  28.946  29.632  1.00  0.00     0.049 A 
ATOM     41  H   UNL A   1      43.398  29.348  27.720  1.00  0.00     0.167 HD
ATOM     42  C   UNL A   1      37.589  29.918  29.024  1.00  0.00     0.037 A 
ATOM     43  C   UNL A   1      44.639  30.145  30.068  1.00  0.00     0.037 A 
ATOM     44  C   UNL A   1      37.758  29.750  30.439  1.00  0.00     0.049 A 
ATOM     45  C   UNL A   1      43.398  30.741  30.674  1.00  0.00     0.074 A 
ATOM     46  C   UNL A   1      37.236  29.043  31.496  1.00  0.00     0.029 A 
ATOM     47  N   UNL A   1      38.739  30.537  30.976  1.00  0.00    -0.354 N 
ATOM     48  N   UNL A   1      42.904  30.465  31.853  1.00  0.00    -0.248 NA
ATOM     49  C   UNL A   1      42.504  31.519  29.810  1.00  0.00     0.031 C 
ATOM     50  C   UNL A   1      38.163  29.213  32.582  1.00  0.00     0.029 A 
ATOM     51  C   UNL A   1      39.224  30.000  32.130  1.00  0.00     0.049 A 
ATOM     52  H   UNL A   1      39.054  31.383  30.580  1.00  0.00     0.167 HD
ATOM     53  C   UNL A   1      41.552  30.799  31.767  1.00  0.00     0.074 A 
ATOM     54  C   UNL A   1      41.424  31.604  30.573  1.00  0.00     0.031 C 
ATOM     55  C   UNL A   1      40.598  30.202  32.541  1.00  0.00     0.037 A 
BRANCH  42  56
ATOM     56  C   UNL A   1      36.534  30.826  28.535  1.00  0.00     0.064 A 
ATOM     57  C   UNL A   1      36.756  32.209  28.641  1.00  0.00     0.173 A 
ATOM     58  C   UNL A   1      35.266  30.386  28.155  1.00  0.00     0.173 A 
ATOM     59  F   UNL A   1      37.973  32.671  28.978  1.00  0.00    -0.203 F 
ATOM     60  C   UNL A   1      35.732  33.121  28.436  1.00  0.00     0.198 A 
ATOM     61  C   UNL A   1      34.240  31.306  27.932  1.00  0.00     0.198 A 
ATOM     62  F   UNL A   1      35.009  29.076  28.035  1.00  0.00    -0.203 F 
ATOM     63  F   UNL A   1      35.963  34.430  28.598  1.00  0.00    -0.200 F 
ATOM     64  C   UNL A   1      34.468  32.669  28.091  1.00  0.00     0.200 A 
ATOM     65  F   UNL A   1      33.019  30.875  27.587  1.00  0.00    -0.200 F 
ATOM     66  F   UNL A   1      33.471  33.545  27.919  1.00  0.00    -0.200 F 
ENDBRANCH  42  56
BRANCH  43  67
ATOM     67  C   UNL A   1      45.572  30.872  29.145  1.00  0.00     0.064 A 
ATOM     68  C   UNL A   1      46.906  31.057  29.571  1.00  0.00     0.173 A 
ATOM     69  C   UNL A   1      45.262  31.410  27.887  1.00  0.00     0.173 A 
ATOM     70  F   UNL A   1      47.265  30.717  30.820  1.00  0.00    -0.203 F 
ATOM     71  C   UNL A   1      47.888  31.592  28.736  1.00  0.00     0.198 A 
ATOM     72  C   UNL A   1      46.251  31.907  27.033  1.00  0.00     0.198 A 
ATOM     73  F   UNL A   1      44.000  31.475  27.448  1.00  0.00    -0.203 F 
ATOM     74  F   UNL A   1      49.148  31.715  29.176  1.00  0.00    -0.200 F 
ATOM     75  C   UNL A   1      47.568  31.976  27.448  1.00  0.00     0.200 A 
ATOM     76  F   UNL A   1      45.921  32.300  25.794  1.00  0.00    -0.200 F 
ATOM     77  F   UNL A   1      48.518  32.421  26.615  1.00  0.00    -0.200 F 
ENDBRANCH  43  67
BRANCH  55  78
ATOM     78  C   UNL A   1      41.121  29.546  33.772  1.00  0.00     0.064 A 
ATOM     79  C   UNL A   1      41.370  28.165  33.756  1.00  0.00     0.173 A 
ATOM     80  C   UNL A   1      41.415  30.256  34.942  1.00  0.00     0.173 A 
ATOM     81  F   UNL A   1      41.124  27.446  32.649  1.00  0.00    -0.203 F 
ATOM     82  C   UNL A   1      41.899  27.520  34.867  1.00  0.00     0.198 A 
ATOM     83  C   UNL A   1      41.970  29.611  36.044  1.00  0.00     0.198 A 
ATOM     84  F   UNL A   1      41.185  31.576  35.024  1.00  0.00    -0.203 F 
ATOM     85  F   UNL A   1      42.129  26.201  34.826  1.00  0.00    -0.200 F 
ATOM     86  C   UNL A   1      42.211  28.245  36.005  1.00  0.00     0.200 A 
ATOM     87  F   UNL A   1      42.291  30.314  37.140  1.00  0.00    -0.200 F 
ATOM     88  F   UNL A   1      42.756  27.629  37.064  1.00  0.00    -0.200 F 
ENDBRANCH  55  78
ENDBRANCH  29  30
ENDBRANCH  21  24
ENDBRANCH   1  20
TORSDOF 10
ENDMDL
MODEL 2
REMARK VINA RESULT:     -12.6      0.918      1.469
REMARK SMILES Cc1onc2c(=O)n(C)nc(C(=O)NCCCNC(=O)c3ccc(-c4c5nc(c(-c6c(F)c(F)c(F)c(F)c6F)c6ccc([nH]6)c(-c6c(F)c(F)c(F)c(F)c6F)c6nc(c(-c7c(F)c(F)c(F)c(F)c7F)c7ccc4[nH]7)C=C6)C=C5)cc3)c12
REMARK SMILES IDX 17 1 16 2 15 3 14 4 12 5 13 6 11 8 1 9 2 10 3 11 84 12 4 13
REMARK SMILES IDX 5 14 6 15 10 16 7 17 8 18 9 19 18 20 19 21 20 23 21 24 22 25
REMARK SMILES IDX 83 26 23 27 82 28 24 29 25 30 26 31 76 32 27 33 81 34 75 35
REMARK SMILES IDX 77 36 28 37 80 38 74 39 73 40 29 42 61 43 41 44 60 45 42 46
REMARK SMILES IDX 45 47 59 48 78 49 43 50 44 51 58 53 79 54 46 55 30 56 31 57
REMARK SMILES IDX 39 58 32 59 33 60 37 61 40 62 34 63 35 64 38 65 36 66 62 67
REMARK SMILES IDX 63 68 71 69 64 70 65 71 69 72 72 73 66 74 67 75 70 76 68 77
REMARK SMILES IDX 47 78 48 79 56 80 49 81 50 82 54 83 57 84 51 85 52 86 55 87
REMARK SMILES IDX 53 88
REMARK H PARENT 14 7 18 22 77 41 45 52
REMARK Flexibility Score: inf
ROOT
ATOM      1  C   UNL A   1      37.357  22.611  24.940  1.00  0.00     0.118 C 
ENDROOT
BRANCH   1   2
ATOM      2  C   UNL A   1      36.158  23.213  25.702  1.00  0.00     0.042 C 
BRANCH   2   3
ATOM      3  C   UNL A   1      34.837  22.427  25.647  1.00  0.00     0.118 C 
BRANCH   3   4
ATOM      4  N   UNL A   1      34.201  22.427  24.336  1.00  0.00    -0.351 N 
ATOM      5  C   UNL A   1      33.531  23.406  23.626  1.00  0.00     0.272 C 
ATOM      6  O   UNL A   1      33.306  23.187  22.438  1.00  0.00    -0.267 OA
ATOM      7  H   UNL A   1      34.259  21.564  23.867  1.00  0.00     0.163 HD
BRANCH   5   8
ATOM      8  C   UNL A   1      33.059  24.741  24.232  1.00  0.00     0.161 A 
ATOM      9  C   UNL A   1      30.996  22.489  25.941  1.00  0.00     0.091 C 
ATOM     10  C   UNL A   1      31.159  23.954  25.857  1.00  0.00     0.144 A 
ATOM     11  O   UNL A   1      30.284  24.658  26.636  1.00  0.00    -0.360 OA
ATOM     12  C   UNL A   1      31.974  24.842  25.190  1.00  0.00     0.083 A 
ATOM     13  N   UNL A   1      30.528  26.013  26.513  1.00  0.00    -0.074 NA
ATOM     14  C   UNL A   1      31.546  26.104  25.653  1.00  0.00     0.183 A 
ATOM     15  C   UNL A   1      32.181  27.328  25.228  1.00  0.00     0.296 A 
ATOM     16  N   UNL A   1      33.637  25.849  23.847  1.00  0.00    -0.164 NA
ATOM     17  O   UNL A   1      31.843  28.453  25.614  1.00  0.00    -0.265 OA
ATOM     18  N   UNL A   1      33.242  27.101  24.336  1.00  0.00    -0.230 N 
ATOM     19  C   UNL A   1      33.990  28.249  23.864  1.00  0.00     0.178 C 
ENDBRANCH   5   8
ENDBRANCH   3   4
ENDBRANCH   2   3
ENDBRANCH   1   2
BRANCH   1  20
ATOM     20  N   UNL A   1      38.236  21.856  25.819  1.00  0.00    -0.352 N 
ATOM     21  C   UNL A   1      39.331  22.178  26.576  1.00  0.00     0.251 C 
ATOM     22  H   UNL A   1      37.990  20.904  25.885  1.00  0.00     0.163 HD
ATOM     23  O   UNL A   1      39.996  21.239  27.017  1.00  0.00    -0.269 OA
BRANCH  21  24
ATOM     24  C   UNL A   1      39.763  23.558  26.913  1.00  0.00     0.039 A 
ATOM     25  C   UNL A   1      41.078  23.912  26.563  1.00  0.00     0.014 A 
ATOM     26  C   UNL A   1      39.016  24.433  27.702  1.00  0.00     0.014 A 
ATOM     27  C   UNL A   1      41.630  25.133  26.963  1.00  0.00     0.010 A 
ATOM     28  C   UNL A   1      39.574  25.661  28.104  1.00  0.00     0.010 A 
ATOM     29  C   UNL A   1      40.877  26.032  27.723  1.00  0.00    -0.014 A 
BRANCH  29  30
ATOM     30  C   UNL A   1      41.415  27.404  27.892  1.00  0.00     0.031 A 
ATOM     31  C   UNL A   1      40.388  28.480  27.780  1.00  0.00     0.074 A 
ATOM     32  C   UNL A   1      42.523  27.726  28.595  1.00  0.00     0.049 A 
ATOM     33  N   UNL A   1      39.632  28.830  28.778  1.00  0.00    -0.248 NA
ATOM     34  C   UNL A   1      39.957  29.017  26.491  1.00  0.00     0.031 C 
ATOM     35  C   UNL A   1      42.920  27.074  29.846  1.00  0.00     0.029 A 
ATOM     36  N   UNL A   1      43.339  28.839  28.512  1.00  0.00    -0.354 N 
ATOM     37  C   UNL A   1      38.571  29.540  28.252  1.00  0.00     0.074 A 
ATOM     38  C   UNL A   1      38.827  29.654  26.833  1.00  0.00     0.031 C 
ATOM     39  C   UNL A   1      43.785  27.881  30.495  1.00  0.00     0.029 A 
ATOM     40  C   UNL A   1      44.124  29.023  29.644  1.00  0.00     0.049 A 
ATOM     41  H   UNL A   1      43.361  29.439  27.733  1.00  0.00     0.167 HD
ATOM     42  C   UNL A   1      37.546  29.991  29.022  1.00  0.00     0.037 A 
ATOM     43  C   UNL A   1      44.592  30.218  30.092  1.00  0.00     0.037 A 
ATOM     44  C   UNL A   1      37.711  29.811  30.436  1.00  0.00     0.049 A 
ATOM     45  C   UNL A   1      43.349  30.807  30.698  1.00  0.00     0.074 A 
ATOM     46  C   UNL A   1      37.186  29.095  31.485  1.00  0.00     0.029 A 
ATOM     47  N   UNL A   1      38.689  30.595  30.983  1.00  0.00    -0.354 N 
ATOM     48  N   UNL A   1      42.852  30.521  31.873  1.00  0.00    -0.248 NA
ATOM     49  C   UNL A   1      42.456  31.591  29.839  1.00  0.00     0.031 C 
ATOM     50  C   UNL A   1      38.109  29.257  32.575  1.00  0.00     0.029 A 
ATOM     51  C   UNL A   1      39.170  30.049  32.134  1.00  0.00     0.049 A 
ATOM     52  H   UNL A   1      39.005  31.444  30.595  1.00  0.00     0.167 HD
ATOM     53  C   UNL A   1      41.499  30.854  31.785  1.00  0.00     0.074 A 
ATOM     54  C   UNL A   1      41.374  31.668  30.599  1.00  0.00     0.031 C 
ATOM     55  C   UNL A   1      40.543  30.249  32.551  1.00  0.00     0.037 A 
BRANCH  42  56
ATOM     56  C   UNL A   1      36.492  30.901  28.537  1.00  0.00     0.064 A 
ATOM     57  C   UNL A   1      36.706  32.284  28.669  1.00  0.00     0.173 A 
ATOM     58  C   UNL A   1      35.231  30.462  28.136  1.00  0.00     0.173 A 
ATOM     59  F   UNL A   1      37.917  32.746  29.026  1.00  0.00    -0.203 F 
ATOM     60  C   UNL A   1      35.679  33.193  28.467  1.00  0.00     0.198 A 
ATOM     61  C   UNL A   1      34.202  31.380  27.918  1.00  0.00     0.198 A 
ATOM     62  F   UNL A   1      34.982  29.152  27.992  1.00  0.00    -0.203 F 
ATOM     63  F   UNL A   1      35.902  34.501  28.654  1.00  0.00    -0.200 F 
ATOM     64  C   UNL A   1      34.422  32.741  28.102  1.00  0.00     0.200 A 
ATOM     65  F   UNL A   1      32.987  30.948  27.553  1.00  0.00    -0.200 F 
ATOM     66  F   UNL A   1      33.421  33.615  27.934  1.00  0.00    -0.200 F 
ENDBRANCH  42  56
BRANCH  43  67
ATOM     67  C   UNL A   1      45.527  30.954  29.179  1.00  0.00     0.064 A 
ATOM     68  C   UNL A   1      46.862  31.129  29.607  1.00  0.00     0.173 A 
ATOM     69  C   UNL A   1      45.219  31.510  27.928  1.00  0.00     0.173 A 
ATOM     70  F   UNL A   1      47.221  30.772  30.851  1.00  0.00    -0.203 F 
ATOM     71  C   UNL A   1      47.846  31.672  28.778  1.00  0.00     0.198 A 
ATOM     72  C   UNL A   1      46.210  32.014  27.080  1.00  0.00     0.198 A 
ATOM     73  F   UNL A   1      43.957  31.585  27.489  1.00  0.00    -0.203 F 
ATOM     74  F   UNL A   1      49.107  31.785  29.219  1.00  0.00    -0.200 F 
ATOM     75  C   UNL A   1      47.527  32.073  27.495  1.00  0.00     0.200 A 
ATOM     76  F   UNL A   1      45.881  32.425  25.846  1.00  0.00    -0.200 F 
ATOM     77  F   UNL A   1      48.479  32.527  26.668  1.00  0.00    -0.200 F 
ENDBRANCH  43  67
BRANCH  55  78
ATOM     78  C   UNL A   1      41.063  29.583  33.778  1.00  0.00     0.064 A 
ATOM     79  C   UNL A   1      41.290  28.199  33.759  1.00  0.00     0.173 A 
ATOM     80  C   UNL A   1      41.374  30.287  34.948  1.00  0.00     0.173 A 
ATOM     81  F   UNL A   1      41.026  27.485  32.653  1.00  0.00    -0.203 F 
ATOM     82  C   UNL A   1      41.816  27.544  34.866  1.00  0.00     0.198 A 
ATOM     83  C   UNL A   1      41.925  29.633  36.046  1.00  0.00     0.198 A 
ATOM     84  F   UNL A   1      41.166  31.611  35.032  1.00  0.00    -0.203 F 
ATOM     85  F   UNL A   1      42.024  26.222  34.823  1.00  0.00    -0.200 F 
ATOM     86  C   UNL A   1      42.145  28.263  36.004  1.00  0.00     0.200 A 
ATOM     87  F   UNL A   1      42.264  30.329  37.141  1.00  0.00    -0.200 F 
ATOM     88  F   UNL A   1      42.687  27.637  37.059  1.00  0.00    -0.200 F 
ENDBRANCH  55  78
ENDBRANCH  29  30
ENDBRANCH  21  24
ENDBRANCH   1  20
TORSDOF 10
ENDMDL
MODEL 3
REMARK VINA RESULT:     -12.3      2.768      7.834
REMARK SMILES Cc1onc2c(=O)n(C)nc(C(=O)NCCCNC(=O)c3ccc(-c4c5nc(c(-c6c(F)c(F)c(F)c(F)c6F)c6ccc([nH]6)c(-c6c(F)c(F)c(F)c(F)c6F)c6nc(c(-c7c(F)c(F)c(F)c(F)c7F)c7ccc4[nH]7)C=C6)C=C5)cc3)c12
REMARK SMILES IDX 17 1 16 2 15 3 14 4 12 5 13 6 11 8 1 9 2 10 3 11 84 12 4 13
REMARK SMILES IDX 5 14 6 15 10 16 7 17 8 18 9 19 18 20 19 21 20 23 21 24 22 25
REMARK SMILES IDX 83 26 23 27 82 28 24 29 25 30 26 31 76 32 27 33 81 34 75 35
REMARK SMILES IDX 77 36 28 37 80 38 74 39 73 40 29 42 61 43 41 44 60 45 42 46
REMARK SMILES IDX 45 47 59 48 78 49 43 50 44 51 58 53 79 54 46 55 30 56 31 57
REMARK SMILES IDX 39 58 32 59 33 60 37 61 40 62 34 63 35 64 38 65 36 66 62 67
REMARK SMILES IDX 63 68 71 69 64 70 65 71 69 72 72 73 66 74 67 75 70 76 68 77
REMARK SMILES IDX 47 78 48 79 56 80 49 81 50 82 54 83 57 84 51 85 52 86 55 87
REMARK SMILES IDX 53 88
REMARK H PARENT 14 7 18 22 77 41 45 52
REMARK Flexibility Score: inf
ROOT
ATOM      1  C   UNL A   1      33.212  29.975  27.230  1.00  0.00     0.118 C 
ENDROOT
BRANCH   1   2
ATOM      2  C   UNL A   1      33.571  29.214  25.937  1.00  0.00     0.042 C 
BRANCH   2   3
ATOM      3  C   UNL A   1      32.494  28.278  25.363  1.00  0.00     0.118 C 
BRANCH   3   4
ATOM      4  N   UNL A   1      32.933  27.502  24.211  1.00  0.00    -0.351 N 
ATOM      5  C   UNL A   1      33.035  26.141  23.989  1.00  0.00     0.272 C 
ATOM      6  O   UNL A   1      33.214  25.771  22.831  1.00  0.00    -0.267 OA
ATOM      7  H   UNL A   1      33.212  28.053  23.445  1.00  0.00     0.163 HD
BRANCH   5   8
ATOM      8  C   UNL A   1      32.933  25.076  25.096  1.00  0.00     0.161 A 
ATOM      9  C   UNL A   1      29.588  26.076  24.849  1.00  0.00     0.091 C 
ATOM     10  C   UNL A   1      30.383  25.165  25.696  1.00  0.00     0.144 A 
ATOM     11  O   UNL A   1      29.656  24.523  26.660  1.00  0.00    -0.360 OA
ATOM     12  C   UNL A   1      31.698  24.765  25.791  1.00  0.00     0.083 A 
ATOM     13  N   UNL A   1      30.475  23.676  27.382  1.00  0.00    -0.074 NA
ATOM     14  C   UNL A   1      31.689  23.826  26.845  1.00  0.00     0.183 A 
ATOM     15  C   UNL A   1      32.880  23.119  27.248  1.00  0.00     0.296 A 
ATOM     16  N   UNL A   1      34.014  24.435  25.459  1.00  0.00    -0.164 NA
ATOM     17  O   UNL A   1      32.915  22.285  28.159  1.00  0.00    -0.265 OA
ATOM     18  N   UNL A   1      34.000  23.472  26.477  1.00  0.00    -0.230 N 
ATOM     19  C   UNL A   1      35.255  22.802  26.755  1.00  0.00     0.178 C 
ENDBRANCH   5   8
ENDBRANCH   3   4
ENDBRANCH   2   3
ENDBRANCH   1   2
BRANCH   1  20
ATOM     20  N   UNL A   1      33.746  31.328  27.230  1.00  0.00    -0.352 N 
ATOM     21  C   UNL A   1      34.848  31.917  27.793  1.00  0.00     0.251 C 
ATOM     22  H   UNL A   1      33.196  31.960  26.713  1.00  0.00     0.163 HD
ATOM     23  O   UNL A   1      34.876  33.149  27.801  1.00  0.00    -0.269 OA
BRANCH  21  24
ATOM     24  C   UNL A   1      36.004  31.189  28.373  1.00  0.00     0.039 A 
ATOM     25  C   UNL A   1      36.405  31.568  29.667  1.00  0.00     0.014 A 
ATOM     26  C   UNL A   1      36.807  30.306  27.650  1.00  0.00     0.014 A 
ATOM     27  C   UNL A   1      37.567  31.049  30.247  1.00  0.00     0.010 A 
ATOM     28  C   UNL A   1      37.977  29.786  28.235  1.00  0.00     0.010 A 
ATOM     29  C   UNL A   1      38.358  30.136  29.544  1.00  0.00    -0.014 A 
BRANCH  29  30
ATOM     30  C   UNL A   1      39.421  29.428  30.299  1.00  0.00     0.031 A 
ATOM     31  C   UNL A   1      39.566  27.987  29.942  1.00  0.00     0.074 A 
ATOM     32  C   UNL A   1      40.516  30.010  30.834  1.00  0.00     0.049 A 
ATOM     33  N   UNL A   1      40.258  27.589  28.915  1.00  0.00    -0.248 NA
ATOM     34  C   UNL A   1      38.725  26.948  30.532  1.00  0.00     0.031 C 
ATOM     35  C   UNL A   1      41.254  31.108  30.202  1.00  0.00     0.029 A 
ATOM     36  N   UNL A   1      41.342  29.584  31.857  1.00  0.00    -0.354 N 
ATOM     37  C   UNL A   1      39.876  26.288  28.651  1.00  0.00     0.074 A 
ATOM     38  C   UNL A   1      38.943  25.923  29.694  1.00  0.00     0.031 C 
ATOM     39  C   UNL A   1      42.489  31.163  30.744  1.00  0.00     0.029 A 
ATOM     40  C   UNL A   1      42.579  30.219  31.858  1.00  0.00     0.049 A 
ATOM     41  H   UNL A   1      41.082  28.901  32.516  1.00  0.00     0.167 HD
ATOM     42  C   UNL A   1      40.355  25.593  27.586  1.00  0.00     0.037 A 
ATOM     43  C   UNL A   1      43.734  29.691  32.343  1.00  0.00     0.037 A 
ATOM     44  C   UNL A   1      41.394  26.244  26.841  1.00  0.00     0.049 A 
ATOM     45  C   UNL A   1      44.088  28.718  31.253  1.00  0.00     0.074 A 
ATOM     46  C   UNL A   1      41.623  26.814  25.611  1.00  0.00     0.029 A 
ATOM     47  N   UNL A   1      42.577  26.350  27.518  1.00  0.00    -0.354 N 
ATOM     48  N   UNL A   1      44.657  29.008  30.112  1.00  0.00    -0.248 NA
ATOM     49  C   UNL A   1      43.550  27.356  31.331  1.00  0.00     0.031 C 
ATOM     50  C   UNL A   1      42.863  27.531  25.733  1.00  0.00     0.029 A 
ATOM     51  C   UNL A   1      43.325  27.384  27.042  1.00  0.00     0.049 A 
ATOM     52  H   UNL A   1      42.852  25.756  28.255  1.00  0.00     0.167 HD
ATOM     53  C   UNL A   1      44.303  27.966  29.254  1.00  0.00     0.074 A 
ATOM     54  C   UNL A   1      43.798  26.914  30.107  1.00  0.00     0.031 C 
ATOM     55  C   UNL A   1      44.228  28.124  27.900  1.00  0.00     0.037 A 
BRANCH  42  56
ATOM     56  C   UNL A   1      40.116  24.154  27.369  1.00  0.00     0.064 A 
ATOM     57  C   UNL A   1      41.022  23.244  27.938  1.00  0.00     0.173 A 
ATOM     58  C   UNL A   1      39.158  23.666  26.480  1.00  0.00     0.173 A 
ATOM     59  F   UNL A   1      41.941  23.673  28.821  1.00  0.00    -0.203 F 
ATOM     60  C   UNL A   1      41.013  21.903  27.584  1.00  0.00     0.198 A 
ATOM     61  C   UNL A   1      39.140  22.313  26.137  1.00  0.00     0.198 A 
ATOM     62  F   UNL A   1      38.269  24.497  25.916  1.00  0.00    -0.203 F 
ATOM     63  F   UNL A   1      41.926  21.071  28.104  1.00  0.00    -0.200 F 
ATOM     64  C   UNL A   1      40.078  21.438  26.674  1.00  0.00     0.200 A 
ATOM     65  F   UNL A   1      38.230  21.856  25.266  1.00  0.00    -0.200 F 
ATOM     66  F   UNL A   1      40.085  20.149  26.310  1.00  0.00    -0.200 F 
ENDBRANCH  42  56
BRANCH  43  67
ATOM     67  C   UNL A   1      43.761  29.376  33.810  1.00  0.00     0.064 A 
ATOM     68  C   UNL A   1      44.828  29.899  34.575  1.00  0.00     0.173 A 
ATOM     69  C   UNL A   1      42.837  28.597  34.521  1.00  0.00     0.173 A 
ATOM     70  F   UNL A   1      45.846  30.528  33.965  1.00  0.00    -0.203 F 
ATOM     71  C   UNL A   1      44.874  29.787  35.966  1.00  0.00     0.198 A 
ATOM     72  C   UNL A   1      42.857  28.518  35.917  1.00  0.00     0.198 A 
ATOM     73  F   UNL A   1      41.892  27.887  33.892  1.00  0.00    -0.203 F 
ATOM     74  F   UNL A   1      45.889  30.331  36.650  1.00  0.00    -0.200 F 
ATOM     75  C   UNL A   1      43.861  29.133  36.641  1.00  0.00     0.200 A 
ATOM     76  F   UNL A   1      41.880  27.858  36.558  1.00  0.00    -0.200 F 
ATOM     77  F   UNL A   1      43.857  29.084  37.980  1.00  0.00    -0.200 F 
ENDBRANCH  43  67
BRANCH  55  78
ATOM     78  C   UNL A   1      44.982  29.294  27.370  1.00  0.00     0.064 A 
ATOM     79  C   UNL A   1      44.300  30.499  27.143  1.00  0.00     0.173 A 
ATOM     80  C   UNL A   1      46.360  29.259  27.122  1.00  0.00     0.173 A 
ATOM     81  F   UNL A   1      42.982  30.587  27.386  1.00  0.00    -0.203 F 
ATOM     82  C   UNL A   1      44.972  31.628  26.691  1.00  0.00     0.198 A 
ATOM     83  C   UNL A   1      47.035  30.398  26.695  1.00  0.00     0.198 A 
ATOM     84  F   UNL A   1      47.064  28.131  27.307  1.00  0.00    -0.203 F 
ATOM     85  F   UNL A   1      44.299  32.767  26.483  1.00  0.00    -0.200 F 
ATOM     86  C   UNL A   1      46.341  31.581  26.480  1.00  0.00     0.200 A 
ATOM     87  F   UNL A   1      48.362  30.361  26.510  1.00  0.00    -0.200 F 
ATOM     88  F   UNL A   1      46.995  32.681  26.080  1.00  0.00    -0.200 F 
ENDBRANCH  55  78
ENDBRANCH  29  30
ENDBRANCH  21  24
ENDBRANCH   1  20
TORSDOF 10
ENDMDL
