MODEL 1
REMARK VINA RESULT:     -12.8      0.000      0.000
REMARK SMILES CC1(C)[C@H](C(=O)NCCCNC(=O)c2ccc(-c3c4nc(c(-c5c(F)c(F)c(F)c(F)c5F)c5ccc([nH]5)c(-c5c(F)c(F)c(F)c(F)c5F)c5nc(c(-c6c(F)c(F)c(F)c(F)c6F)c6ccc3[nH]6)C=C5)C=C4)cc2)[C@@H]1C(=O)Nc1ccon1
REMARK SMILES IDX 9 1 8 2 7 3 5 4 6 5 4 7 1 8 2 9 3 10 77 11 78 12 79 13 80 14
REMARK SMILES IDX 81 16 82 17 85 18 83 19 84 20 10 21 11 22 12 23 13 25 14 26
REMARK SMILES IDX 15 27 76 28 16 29 75 30 17 31 18 32 19 33 69 34 20 35 74 36
REMARK SMILES IDX 68 37 70 38 21 39 73 40 67 41 66 42 22 44 54 45 34 46 53 47
REMARK SMILES IDX 35 48 38 49 52 50 71 51 36 52 37 53 51 55 72 56 39 57 23 58
REMARK SMILES IDX 24 59 32 60 25 61 26 62 30 63 33 64 27 65 28 66 31 67 29 68
REMARK SMILES IDX 55 69 56 70 64 71 57 72 58 73 62 74 65 75 59 76 60 77 63 78
REMARK SMILES IDX 61 79 40 80 41 81 49 82 42 83 43 84 47 85 50 86 44 87 45 88
REMARK SMILES IDX 48 89 46 90
REMARK H PARENT 7 6 80 15 11 24 70 43 38 54
REMARK Flexibility Score: inf
ROOT
ATOM      1  C   UNL A   1      31.584  32.205  26.640  1.00  0.00     0.042 C 
ENDROOT
BRANCH   1   2
ATOM      2  C   UNL A   1      31.883  30.776  26.231  1.00  0.00     0.117 C 
BRANCH   2   3
ATOM      3  N   UNL A   1      31.042  30.347  25.135  1.00  0.00    -0.356 N 
ATOM      4  C   UNL A   1      31.018  29.275  24.300  1.00  0.00     0.224 C 
ATOM      5  O   UNL A   1      30.151  29.303  23.424  1.00  0.00    -0.275 OA
ATOM      6  H   UNL A   1      30.314  30.984  24.949  1.00  0.00     0.163 HD
BRANCH   4   7
ATOM      7  C   UNL A   1      31.860  28.053  24.354  1.00  0.00     0.098 C 
ATOM      8  C   UNL A   1      33.724  26.947  25.706  1.00  0.00     0.013 C 
ATOM      9  C   UNL A   1      32.242  27.238  25.571  1.00  0.00    -0.011 C 
ATOM     10  C   UNL A   1      31.603  27.529  26.906  1.00  0.00     0.013 C 
ATOM     11  C   UNL A   1      31.494  26.600  24.372  1.00  0.00     0.098 C 
BRANCH  11  12
ATOM     12  C   UNL A   1      30.141  26.009  24.454  1.00  0.00     0.230 C 
ATOM     13  O   UNL A   1      29.200  26.603  23.929  1.00  0.00    -0.274 OA
ATOM     14  N   UNL A   1      29.917  24.817  25.091  1.00  0.00    -0.308 N 
ATOM     15  H   UNL A   1      28.987  24.497  25.053  1.00  0.00     0.171 HD
BRANCH  14  16
ATOM     16  C   UNL A   1      30.781  23.997  25.776  1.00  0.00     0.175 A 
ATOM     17  C   UNL A   1      31.719  23.058  25.300  1.00  0.00     0.092 A 
ATOM     18  N   UNL A   1      30.778  24.024  27.114  1.00  0.00    -0.062 NA
ATOM     19  C   UNL A   1      32.171  22.424  26.427  1.00  0.00     0.233 A 
ATOM     20  O   UNL A   1      31.613  22.998  27.519  1.00  0.00    -0.363 OA
ENDBRANCH  14  16
ENDBRANCH  11  12
ENDBRANCH   4   7
ENDBRANCH   2   3
ENDBRANCH   1   2
BRANCH   1  21
ATOM     21  C   UNL A   1      32.747  32.844  27.375  1.00  0.00     0.118 C 
BRANCH  21  22
ATOM     22  N   UNL A   1      32.505  34.253  27.669  1.00  0.00    -0.352 N 
ATOM     23  C   UNL A   1      33.040  35.040  28.658  1.00  0.00     0.251 C 
ATOM     24  H   UNL A   1      31.866  34.704  27.072  1.00  0.00     0.163 HD
ATOM     25  O   UNL A   1      32.557  36.141  28.909  1.00  0.00    -0.269 OA
BRANCH  23  26
ATOM     26  C   UNL A   1      34.193  34.544  29.435  1.00  0.00     0.039 A 
ATOM     27  C   UNL A   1      33.979  33.938  30.674  1.00  0.00     0.014 A 
ATOM     28  C   UNL A   1      35.486  34.659  28.920  1.00  0.00     0.014 A 
ATOM     29  C   UNL A   1      35.059  33.378  31.360  1.00  0.00     0.010 A 
ATOM     30  C   UNL A   1      36.535  34.000  29.543  1.00  0.00     0.010 A 
ATOM     31  C   UNL A   1      36.337  33.367  30.779  1.00  0.00    -0.014 A 
BRANCH  31  32
ATOM     32  C   UNL A   1      37.500  32.737  31.451  1.00  0.00     0.031 A 
ATOM     33  C   UNL A   1      38.218  31.600  30.776  1.00  0.00     0.074 A 
ATOM     34  C   UNL A   1      37.860  33.133  32.688  1.00  0.00     0.049 A 
ATOM     35  N   UNL A   1      39.175  30.834  31.234  1.00  0.00    -0.248 NA
ATOM     36  C   UNL A   1      37.777  31.253  29.414  1.00  0.00     0.031 C 
ATOM     37  C   UNL A   1      37.214  34.195  33.462  1.00  0.00     0.029 A 
ATOM     38  N   UNL A   1      38.854  32.677  33.518  1.00  0.00    -0.354 N 
ATOM     39  C   UNL A   1      39.432  29.912  30.227  1.00  0.00     0.074 A 
ATOM     40  C   UNL A   1      38.488  30.165  29.164  1.00  0.00     0.031 C 
ATOM     41  C   UNL A   1      37.844  34.327  34.641  1.00  0.00     0.029 A 
ATOM     42  C   UNL A   1      38.905  33.329  34.726  1.00  0.00     0.049 A 
ATOM     43  H   UNL A   1      39.471  31.951  33.271  1.00  0.00     0.167 HD
ATOM     44  C   UNL A   1      40.395  28.962  30.179  1.00  0.00     0.037 A 
ATOM     45  C   UNL A   1      39.713  33.133  35.786  1.00  0.00     0.037 A 
ATOM     46  C   UNL A   1      41.352  28.735  31.228  1.00  0.00     0.049 A 
ATOM     47  C   UNL A   1      40.759  32.051  35.714  1.00  0.00     0.074 A 
ATOM     48  C   UNL A   1      42.393  27.825  31.262  1.00  0.00     0.029 A 
ATOM     49  N   UNL A   1      41.387  29.432  32.426  1.00  0.00    -0.354 N 
ATOM     50  N   UNL A   1      41.032  31.224  34.733  1.00  0.00    -0.248 NA
ATOM     51  C   UNL A   1      41.616  31.879  36.896  1.00  0.00     0.031 C 
ATOM     52  C   UNL A   1      43.031  27.940  32.501  1.00  0.00     0.029 A 
ATOM     53  C   UNL A   1      42.424  28.961  33.213  1.00  0.00     0.049 A 
ATOM     54  H   UNL A   1      40.767  30.154  32.679  1.00  0.00     0.167 HD
ATOM     55  C   UNL A   1      42.113  30.466  35.161  1.00  0.00     0.074 A 
ATOM     56  C   UNL A   1      42.454  30.939  36.486  1.00  0.00     0.031 C 
ATOM     57  C   UNL A   1      42.765  29.467  34.518  1.00  0.00     0.037 A 
BRANCH  44  58
ATOM     58  C   UNL A   1      40.473  28.110  28.946  1.00  0.00     0.064 A 
ATOM     59  C   UNL A   1      39.748  26.913  28.834  1.00  0.00     0.173 A 
ATOM     60  C   UNL A   1      41.243  28.514  27.844  1.00  0.00     0.173 A 
ATOM     61  F   UNL A   1      39.008  26.473  29.863  1.00  0.00    -0.203 F 
ATOM     62  C   UNL A   1      39.811  26.142  27.677  1.00  0.00     0.198 A 
ATOM     63  C   UNL A   1      41.276  27.757  26.676  1.00  0.00     0.198 A 
ATOM     64  F   UNL A   1      41.953  29.652  27.896  1.00  0.00    -0.203 F 
ATOM     65  F   UNL A   1      39.147  24.979  27.612  1.00  0.00    -0.200 F 
ATOM     66  C   UNL A   1      40.565  26.569  26.595  1.00  0.00     0.200 A 
ATOM     67  F   UNL A   1      41.995  28.179  25.626  1.00  0.00    -0.200 F 
ATOM     68  F   UNL A   1      40.613  25.833  25.476  1.00  0.00    -0.200 F 
ENDBRANCH  44  58
BRANCH  45  69
ATOM     69  C   UNL A   1      39.585  33.982  37.001  1.00  0.00     0.064 A 
ATOM     70  C   UNL A   1      38.814  33.563  38.094  1.00  0.00     0.173 A 
ATOM     71  C   UNL A   1      40.196  35.243  37.081  1.00  0.00     0.173 A 
ATOM     72  F   UNL A   1      38.194  32.373  38.059  1.00  0.00    -0.203 F 
ATOM     73  C   UNL A   1      38.626  34.385  39.203  1.00  0.00     0.198 A 
ATOM     74  C   UNL A   1      40.035  36.050  38.207  1.00  0.00     0.198 A 
ATOM     75  F   UNL A   1      40.949  35.692  36.068  1.00  0.00    -0.203 F 
ATOM     76  F   UNL A   1      37.830  33.985  40.204  1.00  0.00    -0.200 F 
ATOM     77  C   UNL A   1      39.240  35.627  39.260  1.00  0.00     0.200 A 
ATOM     78  F   UNL A   1      40.643  37.244  38.264  1.00  0.00    -0.200 F 
ATOM     79  F   UNL A   1      39.054  36.421  40.323  1.00  0.00    -0.200 F 
ENDBRANCH  45  69
BRANCH  57  80
ATOM     80  C   UNL A   1      43.953  28.860  35.206  1.00  0.00     0.064 A 
ATOM     81  C   UNL A   1      45.250  29.361  35.023  1.00  0.00     0.173 A 
ATOM     82  C   UNL A   1      43.779  27.794  36.102  1.00  0.00     0.173 A 
ATOM     83  F   UNL A   1      45.470  30.369  34.167  1.00  0.00    -0.203 F 
ATOM     84  C   UNL A   1      46.333  28.800  35.693  1.00  0.00     0.198 A 
ATOM     85  C   UNL A   1      44.859  27.258  36.797  1.00  0.00     0.198 A 
ATOM     86  F   UNL A   1      42.557  27.285  36.318  1.00  0.00    -0.203 F 
ATOM     87  F   UNL A   1      47.571  29.262  35.467  1.00  0.00    -0.200 F 
ATOM     88  C   UNL A   1      46.136  27.756  36.586  1.00  0.00     0.200 A 
ATOM     89  F   UNL A   1      44.664  26.263  37.672  1.00  0.00    -0.200 F 
ATOM     90  F   UNL A   1      47.178  27.227  37.240  1.00  0.00    -0.200 F 
ENDBRANCH  57  80
ENDBRANCH  31  32
ENDBRANCH  23  26
ENDBRANCH  21  22
ENDBRANCH   1  21
TORSDOF 12
ENDMDL
MODEL 2
REMARK VINA RESULT:     -12.8      0.195      1.641
REMARK SMILES CC1(C)[C@H](C(=O)NCCCNC(=O)c2ccc(-c3c4nc(c(-c5c(F)c(F)c(F)c(F)c5F)c5ccc([nH]5)c(-c5c(F)c(F)c(F)c(F)c5F)c5nc(c(-c6c(F)c(F)c(F)c(F)c6F)c6ccc3[nH]6)C=C5)C=C4)cc2)[C@@H]1C(=O)Nc1ccon1
REMARK SMILES IDX 9 1 8 2 7 3 5 4 6 5 4 7 1 8 2 9 3 10 77 11 78 12 79 13 80 14
REMARK SMILES IDX 81 16 82 17 85 18 83 19 84 20 10 21 11 22 12 23 13 25 14 26
REMARK SMILES IDX 15 27 76 28 16 29 75 30 17 31 18 32 19 33 69 34 20 35 74 36
REMARK SMILES IDX 68 37 70 38 21 39 73 40 67 41 66 42 22 44 54 45 34 46 53 47
REMARK SMILES IDX 35 48 38 49 52 50 71 51 36 52 37 53 51 55 72 56 39 57 23 58
REMARK SMILES IDX 24 59 32 60 25 61 26 62 30 63 33 64 27 65 28 66 31 67 29 68
REMARK SMILES IDX 55 69 56 70 64 71 57 72 58 73 62 74 65 75 59 76 60 77 63 78
REMARK SMILES IDX 61 79 40 80 41 81 49 82 42 83 43 84 47 85 50 86 44 87 45 88
REMARK SMILES IDX 48 89 46 90
REMARK H PARENT 7 6 80 15 11 24 70 43 38 54
REMARK Flexibility Score: inf
ROOT
ATOM      1  C   UNL A   1      31.562  32.193  26.565  1.00  0.00     0.042 C 
ENDROOT
BRANCH   1   2
ATOM      2  C   UNL A   1      31.829  30.745  26.203  1.00  0.00     0.117 C 
BRANCH   2   3
ATOM      3  N   UNL A   1      31.028  30.321  25.076  1.00  0.00    -0.356 N 
ATOM      4  C   UNL A   1      31.033  29.250  24.237  1.00  0.00     0.224 C 
ATOM      5  O   UNL A   1      30.199  29.282  23.331  1.00  0.00    -0.275 OA
ATOM      6  H   UNL A   1      30.309  30.958  24.865  1.00  0.00     0.163 HD
BRANCH   4   7
ATOM      7  C   UNL A   1      31.870  28.027  24.320  1.00  0.00     0.098 C 
ATOM      8  C   UNL A   1      33.716  26.936  25.709  1.00  0.00     0.013 C 
ATOM      9  C   UNL A   1      32.237  27.229  25.553  1.00  0.00    -0.011 C 
ATOM     10  C   UNL A   1      31.583  27.542  26.876  1.00  0.00     0.013 C 
ATOM     11  C   UNL A   1      31.500  26.575  24.355  1.00  0.00     0.098 C 
BRANCH  11  12
ATOM     12  C   UNL A   1      30.144  25.990  24.431  1.00  0.00     0.230 C 
ATOM     13  O   UNL A   1      29.215  26.566  23.868  1.00  0.00    -0.274 OA
ATOM     14  N   UNL A   1      29.905  24.821  25.104  1.00  0.00    -0.308 N 
ATOM     15  H   UNL A   1      28.975  24.501  25.059  1.00  0.00     0.171 HD
BRANCH  14  16
ATOM     16  C   UNL A   1      30.753  24.024  25.834  1.00  0.00     0.175 A 
ATOM     17  C   UNL A   1      31.739  23.110  25.408  1.00  0.00     0.092 A 
ATOM     18  N   UNL A   1      30.679  24.049  27.170  1.00  0.00    -0.062 NA
ATOM     19  C   UNL A   1      32.149  22.488  26.558  1.00  0.00     0.233 A 
ATOM     20  O   UNL A   1      31.519  23.046  27.618  1.00  0.00    -0.363 OA
ENDBRANCH  14  16
ENDBRANCH  11  12
ENDBRANCH   4   7
ENDBRANCH   2   3
ENDBRANCH   1   2
BRANCH   1  21
ATOM     21  C   UNL A   1      32.730  32.822  27.302  1.00  0.00     0.118 C 
BRANCH  21  22
ATOM     22  N   UNL A   1      32.484  34.224  27.627  1.00  0.00    -0.352 N 
ATOM     23  C   UNL A   1      33.012  34.988  28.638  1.00  0.00     0.251 C 
ATOM     24  H   UNL A   1      31.848  34.688  27.036  1.00  0.00     0.163 HD
ATOM     25  O   UNL A   1      32.526  36.082  28.911  1.00  0.00    -0.269 OA
BRANCH  23  26
ATOM     26  C   UNL A   1      34.160  34.474  29.411  1.00  0.00     0.039 A 
ATOM     27  C   UNL A   1      33.940  33.862  30.646  1.00  0.00     0.014 A 
ATOM     28  C   UNL A   1      35.454  34.579  28.895  1.00  0.00     0.014 A 
ATOM     29  C   UNL A   1      35.015  33.286  31.327  1.00  0.00     0.010 A 
ATOM     30  C   UNL A   1      36.496  33.905  29.514  1.00  0.00     0.010 A 
ATOM     31  C   UNL A   1      36.293  33.266  30.745  1.00  0.00    -0.014 A 
BRANCH  31  32
ATOM     32  C   UNL A   1      37.449  32.619  31.412  1.00  0.00     0.031 A 
ATOM     33  C   UNL A   1      38.151  31.476  30.732  1.00  0.00     0.074 A 
ATOM     34  C   UNL A   1      37.817  33.007  32.650  1.00  0.00     0.049 A 
ATOM     35  N   UNL A   1      39.099  30.696  31.185  1.00  0.00    -0.248 NA
ATOM     36  C   UNL A   1      37.702  31.139  29.370  1.00  0.00     0.031 C 
ATOM     37  C   UNL A   1      37.187  34.074  33.428  1.00  0.00     0.029 A 
ATOM     38  N   UNL A   1      38.807  32.536  33.476  1.00  0.00    -0.354 N 
ATOM     39  C   UNL A   1      39.343  29.774  30.175  1.00  0.00     0.074 A 
ATOM     40  C   UNL A   1      38.399  30.043  29.115  1.00  0.00     0.031 C 
ATOM     41  C   UNL A   1      37.821  34.195  34.606  1.00  0.00     0.029 A 
ATOM     42  C   UNL A   1      38.870  33.183  34.686  1.00  0.00     0.049 A 
ATOM     43  H   UNL A   1      39.414  31.802  33.225  1.00  0.00     0.167 HD
ATOM     44  C   UNL A   1      40.293  28.813  30.121  1.00  0.00     0.037 A 
ATOM     45  C   UNL A   1      39.678  32.974  35.743  1.00  0.00     0.037 A 
ATOM     46  C   UNL A   1      41.250  28.570  31.166  1.00  0.00     0.049 A 
ATOM     47  C   UNL A   1      40.710  31.879  35.665  1.00  0.00     0.074 A 
ATOM     48  C   UNL A   1      42.280  27.647  31.195  1.00  0.00     0.029 A 
ATOM     49  N   UNL A   1      41.297  29.263  32.367  1.00  0.00    -0.354 N 
ATOM     50  N   UNL A   1      40.970  31.052  34.680  1.00  0.00    -0.248 NA
ATOM     51  C   UNL A   1      41.568  31.692  36.844  1.00  0.00     0.031 C 
ATOM     52  C   UNL A   1      42.922  27.750  32.432  1.00  0.00     0.029 A 
ATOM     53  C   UNL A   1      42.329  28.776  33.150  1.00  0.00     0.049 A 
ATOM     54  H   UNL A   1      40.686  29.991  32.624  1.00  0.00     0.167 HD
ATOM     55  C   UNL A   1      42.042  30.279  35.104  1.00  0.00     0.074 A 
ATOM     56  C   UNL A   1      42.394  30.743  36.429  1.00  0.00     0.031 C 
ATOM     57  C   UNL A   1      42.681  29.273  34.456  1.00  0.00     0.037 A 
BRANCH  44  58
ATOM     58  C   UNL A   1      40.358  27.963  28.885  1.00  0.00     0.064 A 
ATOM     59  C   UNL A   1      41.130  28.341  27.775  1.00  0.00     0.173 A 
ATOM     60  C   UNL A   1      39.679  26.737  28.823  1.00  0.00     0.173 A 
ATOM     61  F   UNL A   1      41.788  29.510  27.777  1.00  0.00    -0.203 F 
ATOM     62  C   UNL A   1      41.201  27.535  26.643  1.00  0.00     0.198 A 
ATOM     63  C   UNL A   1      39.778  25.918  27.701  1.00  0.00     0.198 A 
ATOM     64  F   UNL A   1      38.928  26.326  29.856  1.00  0.00    -0.203 F 
ATOM     65  F   UNL A   1      41.907  27.940  25.577  1.00  0.00    -0.200 F 
ATOM     66  C   UNL A   1      40.534  26.320  26.610  1.00  0.00     0.200 A 
ATOM     67  F   UNL A   1      39.145  24.737  27.677  1.00  0.00    -0.200 F 
ATOM     68  F   UNL A   1      40.615  25.538  25.524  1.00  0.00    -0.200 F 
ENDBRANCH  44  58
BRANCH  45  69
ATOM     69  C   UNL A   1      39.564  33.821  36.961  1.00  0.00     0.064 A 
ATOM     70  C   UNL A   1      38.771  33.419  38.045  1.00  0.00     0.173 A 
ATOM     71  C   UNL A   1      40.210  35.063  37.053  1.00  0.00     0.173 A 
ATOM     72  F   UNL A   1      38.117  32.248  37.999  1.00  0.00    -0.203 F 
ATOM     73  C   UNL A   1      38.597  34.241  39.157  1.00  0.00     0.198 A 
ATOM     74  C   UNL A   1      40.063  35.869  38.181  1.00  0.00     0.198 A 
ATOM     75  F   UNL A   1      40.985  35.494  36.048  1.00  0.00    -0.203 F 
ATOM     76  F   UNL A   1      37.781  33.859  40.148  1.00  0.00    -0.200 F 
ATOM     77  C   UNL A   1      39.246  35.465  39.225  1.00  0.00     0.200 A 
ATOM     78  F   UNL A   1      40.704  37.044  38.249  1.00  0.00    -0.200 F 
ATOM     79  F   UNL A   1      39.073  36.258  40.290  1.00  0.00    -0.200 F 
ENDBRANCH  45  69
BRANCH  57  80
ATOM     80  C   UNL A   1      43.863  28.650  35.138  1.00  0.00     0.064 A 
ATOM     81  C   UNL A   1      43.733  27.520  35.959  1.00  0.00     0.173 A 
ATOM     82  C   UNL A   1      45.152  29.162  34.923  1.00  0.00     0.173 A 
ATOM     83  F   UNL A   1      42.521  27.002  36.208  1.00  0.00    -0.203 F 
ATOM     84  C   UNL A   1      44.846  26.942  36.559  1.00  0.00     0.198 A 
ATOM     85  C   UNL A   1      46.267  28.560  35.496  1.00  0.00     0.198 A 
ATOM     86  F   UNL A   1      45.330  30.235  34.138  1.00  0.00    -0.203 F 
ATOM     87  F   UNL A   1      44.694  25.893  37.379  1.00  0.00    -0.200 F 
ATOM     88  C   UNL A   1      46.113  27.455  36.321  1.00  0.00     0.200 A 
ATOM     89  F   UNL A   1      47.491  29.046  35.250  1.00  0.00    -0.200 F 
ATOM     90  F   UNL A   1      47.186  26.888  36.889  1.00  0.00    -0.200 F 
ENDBRANCH  57  80
ENDBRANCH  31  32
ENDBRANCH  23  26
ENDBRANCH  21  22
ENDBRANCH   1  21
TORSDOF 12
ENDMDL
MODEL 3
REMARK VINA RESULT:     -12.8      0.122      1.158
REMARK SMILES CC1(C)[C@H](C(=O)NCCCNC(=O)c2ccc(-c3c4nc(c(-c5c(F)c(F)c(F)c(F)c5F)c5ccc([nH]5)c(-c5c(F)c(F)c(F)c(F)c5F)c5nc(c(-c6c(F)c(F)c(F)c(F)c6F)c6ccc3[nH]6)C=C5)C=C4)cc2)[C@@H]1C(=O)Nc1ccon1
REMARK SMILES IDX 9 1 8 2 7 3 5 4 6 5 4 7 1 8 2 9 3 10 77 11 78 12 79 13 80 14
REMARK SMILES IDX 81 16 82 17 85 18 83 19 84 20 10 21 11 22 12 23 13 25 14 26
REMARK SMILES IDX 15 27 76 28 16 29 75 30 17 31 18 32 19 33 69 34 20 35 74 36
REMARK SMILES IDX 68 37 70 38 21 39 73 40 67 41 66 42 22 44 54 45 34 46 53 47
REMARK SMILES IDX 35 48 38 49 52 50 71 51 36 52 37 53 51 55 72 56 39 57 23 58
REMARK SMILES IDX 24 59 32 60 25 61 26 62 30 63 33 64 27 65 28 66 31 67 29 68
REMARK SMILES IDX 55 69 56 70 64 71 57 72 58 73 62 74 65 75 59 76 60 77 63 78
REMARK SMILES IDX 61 79 40 80 41 81 49 82 42 83 43 84 47 85 50 86 44 87 45 88
REMARK SMILES IDX 48 89 46 90
REMARK H PARENT 7 6 80 15 11 24 70 43 38 54
REMARK Flexibility Score: inf
ROOT
ATOM      1  C   UNL A   1      31.557  32.168  26.629  1.00  0.00     0.042 C 
ENDROOT
BRANCH   1   2
ATOM      2  C   UNL A   1      31.895  30.767  26.159  1.00  0.00     0.117 C 
BRANCH   2   3
ATOM      3  N   UNL A   1      31.021  30.337  25.089  1.00  0.00    -0.356 N 
ATOM      4  C   UNL A   1      30.968  29.261  24.259  1.00  0.00     0.224 C 
ATOM      5  O   UNL A   1      30.077  29.289  23.408  1.00  0.00    -0.275 OA
ATOM      6  H   UNL A   1      30.292  30.976  24.921  1.00  0.00     0.163 HD
BRANCH   4   7
ATOM      7  C   UNL A   1      31.806  28.035  24.296  1.00  0.00     0.098 C 
ATOM      8  C   UNL A   1      33.694  26.921  25.608  1.00  0.00     0.013 C 
ATOM      9  C   UNL A   1      32.211  27.219  25.505  1.00  0.00    -0.011 C 
ATOM     10  C   UNL A   1      31.602  27.512  26.853  1.00  0.00     0.013 C 
ATOM     11  C   UNL A   1      31.433  26.583  24.321  1.00  0.00     0.098 C 
BRANCH  11  12
ATOM     12  C   UNL A   1      30.080  25.999  24.433  1.00  0.00     0.230 C 
ATOM     13  O   UNL A   1      29.134  26.585  23.908  1.00  0.00    -0.274 OA
ATOM     14  N   UNL A   1      29.861  24.821  25.097  1.00  0.00    -0.308 N 
ATOM     15  H   UNL A   1      28.929  24.503  25.077  1.00  0.00     0.171 HD
BRANCH  14  16
ATOM     16  C   UNL A   1      30.730  24.013  25.788  1.00  0.00     0.175 A 
ATOM     17  C   UNL A   1      31.719  23.124  25.318  1.00  0.00     0.092 A 
ATOM     18  N   UNL A   1      30.680  23.997  27.125  1.00  0.00    -0.062 NA
ATOM     19  C   UNL A   1      32.156  22.472  26.441  1.00  0.00     0.233 A 
ATOM     20  O   UNL A   1      31.539  22.990  27.528  1.00  0.00    -0.363 OA
ENDBRANCH  14  16
ENDBRANCH  11  12
ENDBRANCH   4   7
ENDBRANCH   2   3
ENDBRANCH   1   2
BRANCH   1  21
ATOM     21  C   UNL A   1      32.715  32.820  27.359  1.00  0.00     0.118 C 
BRANCH  21  22
ATOM     22  N   UNL A   1      32.463  34.229  27.643  1.00  0.00    -0.352 N 
ATOM     23  C   UNL A   1      32.988  35.026  28.630  1.00  0.00     0.251 C 
ATOM     24  H   UNL A   1      31.825  34.673  27.039  1.00  0.00     0.163 HD
ATOM     25  O   UNL A   1      32.497  36.125  28.871  1.00  0.00    -0.269 OA
BRANCH  23  26
ATOM     26  C   UNL A   1      34.140  34.541  29.416  1.00  0.00     0.039 A 
ATOM     27  C   UNL A   1      33.926  33.980  30.676  1.00  0.00     0.014 A 
ATOM     28  C   UNL A   1      35.431  34.623  28.890  1.00  0.00     0.014 A 
ATOM     29  C   UNL A   1      35.003  33.430  31.374  1.00  0.00     0.010 A 
ATOM     30  C   UNL A   1      36.475  33.972  29.529  1.00  0.00     0.010 A 
ATOM     31  C   UNL A   1      36.278  33.384  30.786  1.00  0.00    -0.014 A 
BRANCH  31  32
ATOM     32  C   UNL A   1      37.437  32.762  31.472  1.00  0.00     0.031 A 
ATOM     33  C   UNL A   1      38.156  31.614  30.817  1.00  0.00     0.074 A 
ATOM     34  C   UNL A   1      37.792  33.175  32.705  1.00  0.00     0.049 A 
ATOM     35  N   UNL A   1      39.110  30.853  31.290  1.00  0.00    -0.248 NA
ATOM     36  C   UNL A   1      37.720  31.248  29.458  1.00  0.00     0.031 C 
ATOM     37  C   UNL A   1      37.144  34.249  33.460  1.00  0.00     0.029 A 
ATOM     38  N   UNL A   1      38.782  32.730  33.546  1.00  0.00    -0.354 N 
ATOM     39  C   UNL A   1      39.370  29.917  30.298  1.00  0.00     0.074 A 
ATOM     40  C   UNL A   1      38.431  30.156  29.227  1.00  0.00     0.031 C 
ATOM     41  C   UNL A   1      37.769  34.397  34.640  1.00  0.00     0.029 A 
ATOM     42  C   UNL A   1      38.829  33.399  34.745  1.00  0.00     0.049 A 
ATOM     43  H   UNL A   1      39.399  31.999  33.312  1.00  0.00     0.167 HD
ATOM     44  C   UNL A   1      40.332  28.965  30.267  1.00  0.00     0.037 A 
ATOM     45  C   UNL A   1      39.632  33.217  35.810  1.00  0.00     0.037 A 
ATOM     46  C   UNL A   1      41.284  28.751  31.323  1.00  0.00     0.049 A 
ATOM     47  C   UNL A   1      40.677  32.133  35.759  1.00  0.00     0.074 A 
ATOM     48  C   UNL A   1      42.324  27.841  31.375  1.00  0.00     0.029 A 
ATOM     49  N   UNL A   1      41.315  29.466  32.512  1.00  0.00    -0.354 N 
ATOM     50  N   UNL A   1      40.952  31.292  34.790  1.00  0.00    -0.248 NA
ATOM     51  C   UNL A   1      41.528  31.977  36.946  1.00  0.00     0.031 C 
ATOM     52  C   UNL A   1      42.957  27.973  32.615  1.00  0.00     0.029 A 
ATOM     53  C   UNL A   1      42.348  29.005  33.310  1.00  0.00     0.049 A 
ATOM     54  H   UNL A   1      40.695  30.192  32.751  1.00  0.00     0.167 HD
ATOM     55  C   UNL A   1      42.030  30.539  35.235  1.00  0.00     0.074 A 
ATOM     56  C   UNL A   1      42.367  31.030  36.554  1.00  0.00     0.031 C 
ATOM     57  C   UNL A   1      42.685  29.529  34.609  1.00  0.00     0.037 A 
BRANCH  44  58
ATOM     58  C   UNL A   1      40.414  28.095  29.047  1.00  0.00     0.064 A 
ATOM     59  C   UNL A   1      39.695  26.893  28.953  1.00  0.00     0.173 A 
ATOM     60  C   UNL A   1      41.182  28.487  27.940  1.00  0.00     0.173 A 
ATOM     61  F   UNL A   1      38.957  26.465  29.988  1.00  0.00    -0.203 F 
ATOM     62  C   UNL A   1      39.761  26.105  27.807  1.00  0.00     0.198 A 
ATOM     63  C   UNL A   1      41.219  27.713  26.783  1.00  0.00     0.198 A 
ATOM     64  F   UNL A   1      41.886  29.628  27.974  1.00  0.00    -0.203 F 
ATOM     65  F   UNL A   1      39.103  24.938  27.760  1.00  0.00    -0.200 F 
ATOM     66  C   UNL A   1      40.514  26.520  26.719  1.00  0.00     0.200 A 
ATOM     67  F   UNL A   1      41.935  28.122  25.726  1.00  0.00    -0.200 F 
ATOM     68  F   UNL A   1      40.564  25.767  25.612  1.00  0.00    -0.200 F 
ENDBRANCH  44  58
BRANCH  45  69
ATOM     69  C   UNL A   1      39.500  34.085  37.012  1.00  0.00     0.064 A 
ATOM     70  C   UNL A   1      40.163  35.318  37.086  1.00  0.00     0.173 A 
ATOM     71  C   UNL A   1      38.744  33.686  38.125  1.00  0.00     0.173 A 
ATOM     72  F   UNL A   1      40.915  35.736  36.055  1.00  0.00    -0.203 F 
ATOM     73  C   UNL A   1      40.108  36.100  38.237  1.00  0.00     0.198 A 
ATOM     74  C   UNL A   1      38.661  34.486  39.264  1.00  0.00     0.198 A 
ATOM     75  F   UNL A   1      38.084  32.519  38.107  1.00  0.00    -0.203 F 
ATOM     76  F   UNL A   1      40.806  37.242  38.303  1.00  0.00    -0.200 F 
ATOM     77  C   UNL A   1      39.354  35.685  39.325  1.00  0.00     0.200 A 
ATOM     78  F   UNL A   1      37.919  34.088  40.306  1.00  0.00    -0.200 F 
ATOM     79  F   UNL A   1      39.306  36.434  40.435  1.00  0.00    -0.200 F 
ENDBRANCH  45  69
BRANCH  57  80
ATOM     80  C   UNL A   1      43.869  28.931  35.310  1.00  0.00     0.064 A 
ATOM     81  C   UNL A   1      45.171  29.406  35.101  1.00  0.00     0.173 A 
ATOM     82  C   UNL A   1      43.686  27.901  36.246  1.00  0.00     0.173 A 
ATOM     83  F   UNL A   1      45.400  30.379  34.206  1.00  0.00    -0.203 F 
ATOM     84  C   UNL A   1      46.251  28.855  35.783  1.00  0.00     0.198 A 
ATOM     85  C   UNL A   1      44.763  27.376  36.953  1.00  0.00     0.198 A 
ATOM     86  F   UNL A   1      42.459  27.418  36.489  1.00  0.00    -0.203 F 
ATOM     87  F   UNL A   1      47.493  29.290  35.532  1.00  0.00    -0.200 F 
ATOM     88  C   UNL A   1      46.046  27.847  36.715  1.00  0.00     0.200 A 
ATOM     89  F   UNL A   1      44.561  26.416  37.865  1.00  0.00    -0.200 F 
ATOM     90  F   UNL A   1      47.085  27.327  37.381  1.00  0.00    -0.200 F 
ENDBRANCH  57  80
ENDBRANCH  31  32
ENDBRANCH  23  26
ENDBRANCH  21  22
ENDBRANCH   1  21
TORSDOF 12
ENDMDL
