MODEL 1
REMARK VINA RESULT:     -10.5      0.000      0.000
REMARK SMILES C[C@H](CC(=O)NCCCNC(=O)c1ccc(-c2c3nc(c(-c4c(F)c(F)c(F)c(F)c4F)c4ccc([nH]4)c(-c4c(F)c(F)c(F)c(F)c4F)c4nc(c(-c5c(F)c(F)c(F)c(F)c5F)c5ccc2[nH]5)C=C4)C=C3)cc1)[NH2+][C@H](C)c1ccccc1
REMARK SMILES IDX 7 1 6 2 4 3 5 4 3 6 2 7 1 8 76 9 77 12 78 13 79 14 80 15
REMARK SMILES IDX 84 16 81 17 83 18 82 19 8 20 9 21 10 22 11 23 12 25 13 26
REMARK SMILES IDX 14 27 75 28 15 29 74 30 16 31 17 32 18 33 68 34 19 35 73 36
REMARK SMILES IDX 67 37 69 38 20 39 72 40 66 41 65 42 21 44 53 45 33 46 52 47
REMARK SMILES IDX 34 48 37 49 51 50 70 51 35 52 36 53 50 55 71 56 38 57 22 58
REMARK SMILES IDX 23 59 31 60 24 61 25 62 29 63 32 64 26 65 27 66 30 67 28 68
REMARK SMILES IDX 54 69 55 70 63 71 56 72 57 73 61 74 64 75 58 76 59 77 62 78
REMARK SMILES IDX 60 79 39 80 40 81 48 82 41 83 42 84 46 85 49 86 43 87 44 88
REMARK SMILES IDX 47 89 45 90
REMARK H PARENT 6 5 76 10 76 11 10 24 69 43 37 54
REMARK Flexibility Score: inf
ROOT
ATOM      1  C   UNL A   1      34.458  35.292  28.571  1.00  0.00     0.117 C 
ENDROOT
BRANCH   1   2
ATOM      2  N   UNL A   1      33.448  36.034  29.298  1.00  0.00    -0.356 N 
ATOM      3  C   UNL A   1      33.054  35.960  30.600  1.00  0.00     0.225 C 
ATOM      4  O   UNL A   1      32.142  36.713  30.949  1.00  0.00    -0.275 OA
ATOM      5  H   UNL A   1      32.967  36.704  28.761  1.00  0.00     0.163 HD
BRANCH   3   6
ATOM      6  C   UNL A   1      33.753  35.057  31.608  1.00  0.00     0.164 C 
BRANCH   6   7
ATOM      7  C   UNL A   1      34.783  35.749  32.528  1.00  0.00     0.189 C 
ATOM      8  C   UNL A   1      34.036  36.497  33.646  1.00  0.00     0.075 C 
BRANCH   7   9
ATOM      9  N   UNL A   1      35.687  34.755  33.151  1.00  0.00    -0.338 N 
ATOM     10  H   UNL A   1      35.266  34.448  34.028  1.00  0.00     0.347 HD
ATOM     11  H   UNL A   1      36.585  35.220  33.283  1.00  0.00     0.347 HD
BRANCH   9  12
ATOM     12  C   UNL A   1      35.949  33.558  32.319  1.00  0.00     0.210 C 
ATOM     13  C   UNL A   1      36.100  32.327  33.228  1.00  0.00     0.081 C 
BRANCH  12  14
ATOM     14  C   UNL A   1      37.143  33.732  31.386  1.00  0.00     0.009 A 
ATOM     15  C   UNL A   1      38.247  34.532  31.738  1.00  0.00     0.010 A 
ATOM     16  C   UNL A   1      37.090  33.209  30.082  1.00  0.00     0.010 A 
ATOM     17  C   UNL A   1      39.225  34.855  30.794  1.00  0.00     0.001 A 
ATOM     18  C   UNL A   1      38.071  33.530  29.141  1.00  0.00     0.001 A 
ATOM     19  C   UNL A   1      39.129  34.367  29.493  1.00  0.00     0.000 A 
ENDBRANCH  12  14
ENDBRANCH   9  12
ENDBRANCH   7   9
ENDBRANCH   6   7
ENDBRANCH   3   6
ENDBRANCH   1   2
BRANCH   1  20
ATOM     20  C   UNL A   1      33.870  34.047  27.904  1.00  0.00     0.042 C 
BRANCH  20  21
ATOM     21  C   UNL A   1      34.343  32.742  28.536  1.00  0.00     0.118 C 
BRANCH  21  22
ATOM     22  N   UNL A   1      33.724  31.581  27.916  1.00  0.00    -0.352 N 
ATOM     23  C   UNL A   1      34.265  30.359  27.603  1.00  0.00     0.251 C 
ATOM     24  H   UNL A   1      32.773  31.689  27.685  1.00  0.00     0.163 HD
ATOM     25  O   UNL A   1      33.622  29.575  26.912  1.00  0.00    -0.269 OA
BRANCH  23  26
ATOM     26  C   UNL A   1      35.618  29.979  28.073  1.00  0.00     0.039 A 
ATOM     27  C   UNL A   1      35.763  29.525  29.389  1.00  0.00     0.014 A 
ATOM     28  C   UNL A   1      36.746  30.115  27.258  1.00  0.00     0.014 A 
ATOM     29  C   UNL A   1      37.025  29.171  29.873  1.00  0.00     0.010 A 
ATOM     30  C   UNL A   1      37.995  29.704  27.721  1.00  0.00     0.010 A 
ATOM     31  C   UNL A   1      38.149  29.235  29.034  1.00  0.00    -0.014 A 
BRANCH  31  32
ATOM     32  C   UNL A   1      39.491  28.827  29.521  1.00  0.00     0.031 A 
ATOM     33  C   UNL A   1      40.223  29.674  30.524  1.00  0.00     0.074 A 
ATOM     34  C   UNL A   1      40.071  27.719  29.023  1.00  0.00     0.049 A 
ATOM     35  N   UNL A   1      41.422  29.516  31.026  1.00  0.00    -0.248 NA
ATOM     36  C   UNL A   1      39.523  30.873  31.010  1.00  0.00     0.031 C 
ATOM     37  C   UNL A   1      39.475  26.830  28.027  1.00  0.00     0.029 A 
ATOM     38  N   UNL A   1      41.295  27.155  29.283  1.00  0.00    -0.354 N 
ATOM     39  C   UNL A   1      41.622  30.595  31.877  1.00  0.00     0.074 A 
ATOM     40  C   UNL A   1      40.443  31.429  31.783  1.00  0.00     0.031 C 
ATOM     41  C   UNL A   1      40.321  25.818  27.779  1.00  0.00     0.029 A 
ATOM     42  C   UNL A   1      41.534  26.007  28.569  1.00  0.00     0.049 A 
ATOM     43  H   UNL A   1      41.941  27.538  29.920  1.00  0.00     0.167 HD
ATOM     44  C   UNL A   1      42.683  30.856  32.679  1.00  0.00     0.037 A 
ATOM     45  C   UNL A   1      42.612  25.201  28.552  1.00  0.00     0.037 A 
ATOM     46  C   UNL A   1      43.848  30.016  32.781  1.00  0.00     0.049 A 
ATOM     47  C   UNL A   1      43.790  25.530  29.427  1.00  0.00     0.074 A 
ATOM     48  C   UNL A   1      44.955  30.166  33.599  1.00  0.00     0.029 A 
ATOM     49  N   UNL A   1      44.057  28.865  32.035  1.00  0.00    -0.354 N 
ATOM     50  N   UNL A   1      43.945  26.522  30.269  1.00  0.00    -0.248 NA
ATOM     51  C   UNL A   1      44.944  24.623  29.349  1.00  0.00     0.031 C 
ATOM     52  C   UNL A   1      45.853  29.131  33.316  1.00  0.00     0.029 A 
ATOM     53  C   UNL A   1      45.285  28.308  32.357  1.00  0.00     0.049 A 
ATOM     54  H   UNL A   1      43.427  28.498  31.374  1.00  0.00     0.167 HD
ATOM     55  C   UNL A   1      45.196  26.343  30.844  1.00  0.00     0.074 A 
ATOM     56  C   UNL A   1      45.755  25.141  30.261  1.00  0.00     0.031 C 
ATOM     57  C   UNL A   1      45.823  27.106  31.773  1.00  0.00     0.037 A 
BRANCH  44  58
ATOM     58  C   UNL A   1      42.628  32.108  33.508  1.00  0.00     0.064 A 
ATOM     59  C   UNL A   1      43.109  33.333  33.022  1.00  0.00     0.173 A 
ATOM     60  C   UNL A   1      42.077  32.086  34.798  1.00  0.00     0.173 A 
ATOM     61  F   UNL A   1      43.657  33.406  31.799  1.00  0.00    -0.203 F 
ATOM     62  C   UNL A   1      43.075  34.481  33.810  1.00  0.00     0.198 A 
ATOM     63  C   UNL A   1      42.015  33.243  35.571  1.00  0.00     0.198 A 
ATOM     64  F   UNL A   1      41.594  30.943  35.309  1.00  0.00    -0.203 F 
ATOM     65  F   UNL A   1      43.594  35.626  33.345  1.00  0.00    -0.200 F 
ATOM     66  C   UNL A   1      42.524  34.437  35.081  1.00  0.00     0.200 A 
ATOM     67  F   UNL A   1      41.470  33.202  36.795  1.00  0.00    -0.200 F 
ATOM     68  F   UNL A   1      42.492  35.541  35.839  1.00  0.00    -0.200 F 
ENDBRANCH  44  58
BRANCH  45  69
ATOM     69  C   UNL A   1      42.611  23.982  27.703  1.00  0.00     0.064 A 
ATOM     70  C   UNL A   1      42.242  22.740  28.238  1.00  0.00     0.173 A 
ATOM     71  C   UNL A   1      42.969  24.029  26.349  1.00  0.00     0.173 A 
ATOM     72  F   UNL A   1      41.912  22.642  29.535  1.00  0.00    -0.203 F 
ATOM     73  C   UNL A   1      42.243  21.589  27.455  1.00  0.00     0.198 A 
ATOM     74  C   UNL A   1      42.946  22.882  25.559  1.00  0.00     0.198 A 
ATOM     75  F   UNL A   1      43.326  25.195  25.789  1.00  0.00    -0.203 F 
ATOM     76  F   UNL A   1      41.923  20.408  28.001  1.00  0.00    -0.200 F 
ATOM     77  C   UNL A   1      42.590  21.662  26.114  1.00  0.00     0.200 A 
ATOM     78  F   UNL A   1      43.269  22.957  24.261  1.00  0.00    -0.200 F 
ATOM     79  F   UNL A   1      42.586  20.555  25.358  1.00  0.00    -0.200 F 
ENDBRANCH  45  69
BRANCH  57  80
ATOM     80  C   UNL A   1      47.171  26.641  32.244  1.00  0.00     0.064 A 
ATOM     81  C   UNL A   1      47.308  25.698  33.271  1.00  0.00     0.173 A 
ATOM     82  C   UNL A   1      48.340  27.125  31.634  1.00  0.00     0.173 A 
ATOM     83  F   UNL A   1      46.221  25.219  33.896  1.00  0.00    -0.203 F 
ATOM     84  C   UNL A   1      48.566  25.271  33.688  1.00  0.00     0.198 A 
ATOM     85  C   UNL A   1      49.595  26.675  32.034  1.00  0.00     0.198 A 
ATOM     86  F   UNL A   1      48.262  28.026  30.644  1.00  0.00    -0.203 F 
ATOM     87  F   UNL A   1      48.675  24.403  34.702  1.00  0.00    -0.200 F 
ATOM     88  C   UNL A   1      49.707  25.754  33.065  1.00  0.00     0.200 A 
ATOM     89  F   UNL A   1      50.695  27.135  31.423  1.00  0.00    -0.200 F 
ATOM     90  F   UNL A   1      50.917  25.338  33.464  1.00  0.00    -0.200 F 
ENDBRANCH  57  80
ENDBRANCH  31  32
ENDBRANCH  23  26
ENDBRANCH  21  22
ENDBRANCH  20  21
ENDBRANCH   1  20
TORSDOF 14
ENDMDL
MODEL 2
REMARK VINA RESULT:     -10.5      0.837      2.249
REMARK SMILES C[C@H](CC(=O)NCCCNC(=O)c1ccc(-c2c3nc(c(-c4c(F)c(F)c(F)c(F)c4F)c4ccc([nH]4)c(-c4c(F)c(F)c(F)c(F)c4F)c4nc(c(-c5c(F)c(F)c(F)c(F)c5F)c5ccc2[nH]5)C=C4)C=C3)cc1)[NH2+][C@H](C)c1ccccc1
REMARK SMILES IDX 7 1 6 2 4 3 5 4 3 6 2 7 1 8 76 9 77 12 78 13 79 14 80 15
REMARK SMILES IDX 84 16 81 17 83 18 82 19 8 20 9 21 10 22 11 23 12 25 13 26
REMARK SMILES IDX 14 27 75 28 15 29 74 30 16 31 17 32 18 33 68 34 19 35 73 36
REMARK SMILES IDX 67 37 69 38 20 39 72 40 66 41 65 42 21 44 53 45 33 46 52 47
REMARK SMILES IDX 34 48 37 49 51 50 70 51 35 52 36 53 50 55 71 56 38 57 22 58
REMARK SMILES IDX 23 59 31 60 24 61 25 62 29 63 32 64 26 65 27 66 30 67 28 68
REMARK SMILES IDX 54 69 55 70 63 71 56 72 57 73 61 74 64 75 58 76 59 77 62 78
REMARK SMILES IDX 60 79 39 80 40 81 48 82 41 83 42 84 46 85 49 86 43 87 44 88
REMARK SMILES IDX 47 89 45 90
REMARK H PARENT 6 5 76 10 76 11 10 24 69 43 37 54
REMARK Flexibility Score: inf
ROOT
ATOM      1  C   UNL A   1      34.699  35.363  28.642  1.00  0.00     0.117 C 
ENDROOT
BRANCH   1   2
ATOM      2  N   UNL A   1      33.624  36.083  29.295  1.00  0.00    -0.356 N 
ATOM      3  C   UNL A   1      33.121  35.979  30.556  1.00  0.00     0.225 C 
ATOM      4  O   UNL A   1      32.176  36.719  30.842  1.00  0.00    -0.275 OA
ATOM      5  H   UNL A   1      33.185  36.761  28.732  1.00  0.00     0.163 HD
BRANCH   3   6
ATOM      6  C   UNL A   1      33.738  35.059  31.602  1.00  0.00     0.164 C 
BRANCH   6   7
ATOM      7  C   UNL A   1      34.788  35.707  32.531  1.00  0.00     0.189 C 
ATOM      8  C   UNL A   1      34.063  36.420  33.688  1.00  0.00     0.075 C 
BRANCH   7   9
ATOM      9  N   UNL A   1      35.692  34.684  33.103  1.00  0.00    -0.338 N 
ATOM     10  H   UNL A   1      35.291  34.362  33.985  1.00  0.00     0.347 HD
ATOM     11  H   UNL A   1      36.601  35.131  33.220  1.00  0.00     0.347 HD
BRANCH   9  12
ATOM     12  C   UNL A   1      35.909  33.504  32.235  1.00  0.00     0.210 C 
ATOM     13  C   UNL A   1      36.023  32.242  33.106  1.00  0.00     0.081 C 
BRANCH  12  14
ATOM     14  C   UNL A   1      37.104  33.664  31.301  1.00  0.00     0.009 A 
ATOM     15  C   UNL A   1      38.198  34.486  31.632  1.00  0.00     0.010 A 
ATOM     16  C   UNL A   1      37.059  33.105  30.012  1.00  0.00     0.010 A 
ATOM     17  C   UNL A   1      39.175  34.793  30.683  1.00  0.00     0.001 A 
ATOM     18  C   UNL A   1      38.040  33.410  29.065  1.00  0.00     0.001 A 
ATOM     19  C   UNL A   1      39.088  34.268  29.395  1.00  0.00     0.000 A 
ENDBRANCH  12  14
ENDBRANCH   9  12
ENDBRANCH   7   9
ENDBRANCH   6   7
ENDBRANCH   3   6
ENDBRANCH   1   2
BRANCH   1  20
ATOM     20  C   UNL A   1      34.171  34.171  27.841  1.00  0.00     0.042 C 
BRANCH  20  21
ATOM     21  C   UNL A   1      34.307  32.841  28.575  1.00  0.00     0.118 C 
BRANCH  21  22
ATOM     22  N   UNL A   1      33.774  31.734  27.797  1.00  0.00    -0.352 N 
ATOM     23  C   UNL A   1      34.351  30.531  27.473  1.00  0.00     0.251 C 
ATOM     24  H   UNL A   1      32.862  31.867  27.451  1.00  0.00     0.163 HD
ATOM     25  O   UNL A   1      33.805  29.805  26.648  1.00  0.00    -0.269 OA
BRANCH  23  26
ATOM     26  C   UNL A   1      35.630  30.105  28.090  1.00  0.00     0.039 A 
ATOM     27  C   UNL A   1      36.791  30.143  27.308  1.00  0.00     0.014 A 
ATOM     28  C   UNL A   1      35.691  29.619  29.399  1.00  0.00     0.014 A 
ATOM     29  C   UNL A   1      38.013  29.736  27.849  1.00  0.00     0.010 A 
ATOM     30  C   UNL A   1      36.920  29.271  29.957  1.00  0.00     0.010 A 
ATOM     31  C   UNL A   1      38.091  29.319  29.186  1.00  0.00    -0.014 A 
BRANCH  31  32
ATOM     32  C   UNL A   1      39.388  28.917  29.788  1.00  0.00     0.031 A 
ATOM     33  C   UNL A   1      39.945  29.672  30.962  1.00  0.00     0.074 A 
ATOM     34  C   UNL A   1      40.087  27.902  29.248  1.00  0.00     0.049 A 
ATOM     35  N   UNL A   1      41.083  29.509  31.590  1.00  0.00    -0.248 NA
ATOM     36  C   UNL A   1      39.123  30.773  31.488  1.00  0.00     0.031 C 
ATOM     37  C   UNL A   1      39.666  27.110  28.092  1.00  0.00     0.029 A 
ATOM     38  N   UNL A   1      41.302  27.366  29.593  1.00  0.00    -0.354 N 
ATOM     39  C   UNL A   1      41.117  30.489  32.573  1.00  0.00     0.074 A 
ATOM     40  C   UNL A   1      39.911  31.276  32.426  1.00  0.00     0.031 C 
ATOM     41  C   UNL A   1      40.593  26.172  27.841  1.00  0.00     0.029 A 
ATOM     42  C   UNL A   1      41.691  26.321  28.792  1.00  0.00     0.049 A 
ATOM     43  H   UNL A   1      41.844  27.700  30.344  1.00  0.00     0.167 HD
ATOM     44  C   UNL A   1      42.058  30.701  33.525  1.00  0.00     0.037 A 
ATOM     45  C   UNL A   1      42.808  25.571  28.820  1.00  0.00     0.037 A 
ATOM     46  C   UNL A   1      43.249  29.908  33.678  1.00  0.00     0.049 A 
ATOM     47  C   UNL A   1      43.853  25.848  29.867  1.00  0.00     0.074 A 
ATOM     48  C   UNL A   1      44.240  30.011  34.640  1.00  0.00     0.029 A 
ATOM     49  N   UNL A   1      43.613  28.863  32.841  1.00  0.00    -0.354 N 
ATOM     50  N   UNL A   1      43.848  26.740  30.826  1.00  0.00    -0.248 NA
ATOM     51  C   UNL A   1      45.059  25.008  29.833  1.00  0.00     0.031 C 
ATOM     52  C   UNL A   1      45.225  29.057  34.358  1.00  0.00     0.029 A 
ATOM     53  C   UNL A   1      44.825  28.328  33.250  1.00  0.00     0.049 A 
ATOM     54  H   UNL A   1      43.088  28.548  32.070  1.00  0.00     0.167 HD
ATOM     55  C   UNL A   1      45.031  26.551  31.530  1.00  0.00     0.074 A 
ATOM     56  C   UNL A   1      45.724  25.451  30.891  1.00  0.00     0.031 C 
ATOM     57  C   UNL A   1      45.498  27.227  32.608  1.00  0.00     0.037 A 
BRANCH  44  58
ATOM     58  C   UNL A   1      41.832  31.844  34.475  1.00  0.00     0.064 A 
ATOM     59  C   UNL A   1      41.131  31.673  35.678  1.00  0.00     0.173 A 
ATOM     60  C   UNL A   1      42.334  33.122  34.186  1.00  0.00     0.173 A 
ATOM     61  F   UNL A   1      40.621  30.473  35.997  1.00  0.00    -0.203 F 
ATOM     62  C   UNL A   1      40.908  32.746  36.538  1.00  0.00     0.198 A 
ATOM     63  C   UNL A   1      42.136  34.185  35.063  1.00  0.00     0.198 A 
ATOM     64  F   UNL A   1      43.019  33.340  33.053  1.00  0.00    -0.203 F 
ATOM     65  F   UNL A   1      40.185  32.568  37.653  1.00  0.00    -0.200 F 
ATOM     66  C   UNL A   1      41.414  33.999  36.233  1.00  0.00     0.200 A 
ATOM     67  F   UNL A   1      42.637  35.395  34.773  1.00  0.00    -0.200 F 
ATOM     68  F   UNL A   1      41.198  35.031  37.060  1.00  0.00    -0.200 F 
ENDBRANCH  44  58
BRANCH  45  69
ATOM     69  C   UNL A   1      42.980  24.462  27.849  1.00  0.00     0.064 A 
ATOM     70  C   UNL A   1      43.522  24.703  26.579  1.00  0.00     0.173 A 
ATOM     71  C   UNL A   1      42.616  23.145  28.164  1.00  0.00     0.173 A 
ATOM     72  F   UNL A   1      43.865  25.951  26.224  1.00  0.00    -0.203 F 
ATOM     73  C   UNL A   1      43.682  23.673  25.656  1.00  0.00     0.198 A 
ATOM     74  C   UNL A   1      42.800  22.110  27.249  1.00  0.00     0.198 A 
ATOM     75  F   UNL A   1      42.097  22.862  29.368  1.00  0.00    -0.203 F 
ATOM     76  F   UNL A   1      44.167  23.938  24.435  1.00  0.00    -0.200 F 
ATOM     77  C   UNL A   1      43.326  22.376  25.994  1.00  0.00     0.200 A 
ATOM     78  F   UNL A   1      42.468  20.856  27.583  1.00  0.00    -0.200 F 
ATOM     79  F   UNL A   1      43.486  21.383  25.108  1.00  0.00    -0.200 F 
ENDBRANCH  45  69
BRANCH  57  80
ATOM     80  C   UNL A   1      46.805  26.771  33.189  1.00  0.00     0.064 A 
ATOM     81  C   UNL A   1      48.024  27.338  32.793  1.00  0.00     0.173 A 
ATOM     82  C   UNL A   1      46.831  25.776  34.179  1.00  0.00     0.173 A 
ATOM     83  F   UNL A   1      48.053  28.280  31.838  1.00  0.00    -0.203 F 
ATOM     84  C   UNL A   1      49.226  26.909  33.350  1.00  0.00     0.198 A 
ATOM     85  C   UNL A   1      48.032  25.370  34.754  1.00  0.00     0.198 A 
ATOM     86  F   UNL A   1      45.691  25.205  34.594  1.00  0.00    -0.203 F 
ATOM     87  F   UNL A   1      50.384  27.432  32.925  1.00  0.00    -0.200 F 
ATOM     88  C   UNL A   1      49.229  25.932  34.334  1.00  0.00     0.200 A 
ATOM     89  F   UNL A   1      48.031  24.434  35.712  1.00  0.00    -0.200 F 
ATOM     90  F   UNL A   1      50.386  25.524  34.873  1.00  0.00    -0.200 F 
ENDBRANCH  57  80
ENDBRANCH  31  32
ENDBRANCH  23  26
ENDBRANCH  21  22
ENDBRANCH  20  21
ENDBRANCH   1  20
TORSDOF 14
ENDMDL
MODEL 3
REMARK VINA RESULT:     -10.4      5.832     10.589
REMARK SMILES C[C@H](CC(=O)NCCCNC(=O)c1ccc(-c2c3nc(c(-c4c(F)c(F)c(F)c(F)c4F)c4ccc([nH]4)c(-c4c(F)c(F)c(F)c(F)c4F)c4nc(c(-c5c(F)c(F)c(F)c(F)c5F)c5ccc2[nH]5)C=C4)C=C3)cc1)[NH2+][C@H](C)c1ccccc1
REMARK SMILES IDX 7 1 6 2 4 3 5 4 3 6 2 7 1 8 76 9 77 12 78 13 79 14 80 15
REMARK SMILES IDX 84 16 81 17 83 18 82 19 8 20 9 21 10 22 11 23 12 25 13 26
REMARK SMILES IDX 14 27 75 28 15 29 74 30 16 31 17 32 18 33 68 34 19 35 73 36
REMARK SMILES IDX 67 37 69 38 20 39 72 40 66 41 65 42 21 44 53 45 33 46 52 47
REMARK SMILES IDX 34 48 37 49 51 50 70 51 35 52 36 53 50 55 71 56 38 57 22 58
REMARK SMILES IDX 23 59 31 60 24 61 25 62 29 63 32 64 26 65 27 66 30 67 28 68
REMARK SMILES IDX 54 69 55 70 63 71 56 72 57 73 61 74 64 75 58 76 59 77 62 78
REMARK SMILES IDX 60 79 39 80 40 81 48 82 41 83 42 84 46 85 49 86 43 87 44 88
REMARK SMILES IDX 47 89 45 90
REMARK H PARENT 6 5 76 10 76 11 10 24 69 43 37 54
REMARK Flexibility Score: inf
ROOT
ATOM      1  C   UNL A   1      37.143  20.283  24.626  1.00  0.00     0.117 C 
ENDROOT
BRANCH   1   2
ATOM      2  N   UNL A   1      37.421  21.572  25.224  1.00  0.00    -0.356 N 
ATOM      3  C   UNL A   1      36.579  22.542  25.679  1.00  0.00     0.225 C 
ATOM      4  O   UNL A   1      37.101  23.565  26.131  1.00  0.00    -0.275 OA
ATOM      5  H   UNL A   1      38.378  21.783  25.316  1.00  0.00     0.163 HD
BRANCH   3   6
ATOM      6  C   UNL A   1      35.069  22.353  25.715  1.00  0.00     0.164 C 
BRANCH   6   7
ATOM      7  C   UNL A   1      34.516  21.579  26.932  1.00  0.00     0.189 C 
ATOM      8  C   UNL A   1      33.729  22.552  27.830  1.00  0.00     0.075 C 
BRANCH   7   9
ATOM      9  N   UNL A   1      33.604  20.496  26.502  1.00  0.00    -0.338 N 
ATOM     10  H   UNL A   1      32.767  20.534  27.084  1.00  0.00     0.347 HD
ATOM     11  H   UNL A   1      34.119  19.622  26.605  1.00  0.00     0.347 HD
BRANCH   9  12
ATOM     12  C   UNL A   1      33.185  20.575  25.083  1.00  0.00     0.210 C 
ATOM     13  C   UNL A   1      31.779  21.193  24.999  1.00  0.00     0.081 C 
BRANCH  12  14
ATOM     14  C   UNL A   1      33.265  19.233  24.363  1.00  0.00     0.009 A 
ATOM     15  C   UNL A   1      34.249  18.280  24.682  1.00  0.00     0.010 A 
ATOM     16  C   UNL A   1      32.438  18.989  23.253  1.00  0.00     0.010 A 
ATOM     17  C   UNL A   1      34.446  17.157  23.875  1.00  0.00     0.001 A 
ATOM     18  C   UNL A   1      32.633  17.863  22.449  1.00  0.00     0.001 A 
ATOM     19  C   UNL A   1      33.648  16.957  22.751  1.00  0.00     0.000 A 
ENDBRANCH  12  14
ENDBRANCH   9  12
ENDBRANCH   7   9
ENDBRANCH   6   7
ENDBRANCH   3   6
ENDBRANCH   1   2
BRANCH   1  20
ATOM     20  C   UNL A   1      38.199  19.245  25.011  1.00  0.00     0.042 C 
BRANCH  20  21
ATOM     21  C   UNL A   1      39.319  19.814  25.875  1.00  0.00     0.118 C 
BRANCH  21  22
ATOM     22  N   UNL A   1      40.456  18.911  25.956  1.00  0.00    -0.352 N 
ATOM     23  C   UNL A   1      41.794  19.193  26.089  1.00  0.00     0.251 C 
ATOM     24  H   UNL A   1      40.234  17.954  25.909  1.00  0.00     0.163 HD
ATOM     25  O   UNL A   1      42.614  18.291  25.951  1.00  0.00    -0.269 OA
BRANCH  23  26
ATOM     26  C   UNL A   1      42.261  20.569  26.378  1.00  0.00     0.039 A 
ATOM     27  C   UNL A   1      42.571  21.407  25.299  1.00  0.00     0.014 A 
ATOM     28  C   UNL A   1      42.448  21.025  27.686  1.00  0.00     0.014 A 
ATOM     29  C   UNL A   1      43.028  22.706  25.531  1.00  0.00     0.010 A 
ATOM     30  C   UNL A   1      42.846  22.341  27.916  1.00  0.00     0.010 A 
ATOM     31  C   UNL A   1      43.146  23.192  26.842  1.00  0.00    -0.014 A 
BRANCH  31  32
ATOM     32  C   UNL A   1      43.596  24.583  27.106  1.00  0.00     0.031 A 
ATOM     33  C   UNL A   1      42.627  25.606  27.629  1.00  0.00     0.074 A 
ATOM     34  C   UNL A   1      44.864  24.936  26.829  1.00  0.00     0.049 A 
ATOM     35  N   UNL A   1      42.814  26.880  27.869  1.00  0.00    -0.248 NA
ATOM     36  C   UNL A   1      41.258  25.140  27.898  1.00  0.00     0.031 C 
ATOM     37  C   UNL A   1      45.891  24.042  26.293  1.00  0.00     0.029 A 
ATOM     38  N   UNL A   1      45.506  26.143  26.953  1.00  0.00    -0.354 N 
ATOM     39  C   UNL A   1      41.590  27.367  28.305  1.00  0.00     0.074 A 
ATOM     40  C   UNL A   1      40.652  26.265  28.247  1.00  0.00     0.031 C 
ATOM     41  C   UNL A   1      47.040  24.723  26.160  1.00  0.00     0.029 A 
ATOM     42  C   UNL A   1      46.822  26.109  26.564  1.00  0.00     0.049 A 
ATOM     43  H   UNL A   1      45.064  26.956  27.289  1.00  0.00     0.167 HD
ATOM     44  C   UNL A   1      41.279  28.614  28.735  1.00  0.00     0.037 A 
ATOM     45  C   UNL A   1      47.747  27.087  26.534  1.00  0.00     0.037 A 
ATOM     46  C   UNL A   1      42.217  29.704  28.806  1.00  0.00     0.049 A 
ATOM     47  C   UNL A   1      47.368  28.471  26.986  1.00  0.00     0.074 A 
ATOM     48  C   UNL A   1      42.013  30.992  29.272  1.00  0.00     0.029 A 
ATOM     49  N   UNL A   1      43.540  29.633  28.394  1.00  0.00    -0.354 N 
ATOM     50  N   UNL A   1      46.222  28.906  27.449  1.00  0.00    -0.248 NA
ATOM     51  C   UNL A   1      48.416  29.499  26.911  1.00  0.00     0.031 C 
ATOM     52  C   UNL A   1      43.201  31.713  29.101  1.00  0.00     0.029 A 
ATOM     53  C   UNL A   1      44.158  30.861  28.573  1.00  0.00     0.049 A 
ATOM     54  H   UNL A   1      43.975  28.830  28.029  1.00  0.00     0.167 HD
ATOM     55  C   UNL A   1      46.418  30.248  27.751  1.00  0.00     0.074 A 
ATOM     56  C   UNL A   1      47.796  30.552  27.426  1.00  0.00     0.031 C 
ATOM     57  C   UNL A   1      45.534  31.145  28.253  1.00  0.00     0.037 A 
BRANCH  44  58
ATOM     58  C   UNL A   1      39.859  28.863  29.160  1.00  0.00     0.064 A 
ATOM     59  C   UNL A   1      39.441  28.664  30.485  1.00  0.00     0.173 A 
ATOM     60  C   UNL A   1      38.907  29.319  28.235  1.00  0.00     0.173 A 
ATOM     61  F   UNL A   1      40.310  28.217  31.405  1.00  0.00    -0.203 F 
ATOM     62  C   UNL A   1      38.117  28.874  30.859  1.00  0.00     0.198 A 
ATOM     63  C   UNL A   1      37.591  29.560  28.621  1.00  0.00     0.198 A 
ATOM     64  F   UNL A   1      39.253  29.535  26.957  1.00  0.00    -0.203 F 
ATOM     65  F   UNL A   1      37.731  28.620  32.118  1.00  0.00    -0.200 F 
ATOM     66  C   UNL A   1      37.194  29.327  29.930  1.00  0.00     0.200 A 
ATOM     67  F   UNL A   1      36.702  30.010  27.724  1.00  0.00    -0.200 F 
ATOM     68  F   UNL A   1      35.920  29.529  30.291  1.00  0.00    -0.200 F 
ENDBRANCH  44  58
BRANCH  45  69
ATOM     69  C   UNL A   1      49.132  26.782  26.094  1.00  0.00     0.064 A 
ATOM     70  C   UNL A   1      50.080  26.298  27.007  1.00  0.00     0.173 A 
ATOM     71  C   UNL A   1      49.537  26.959  24.764  1.00  0.00     0.173 A 
ATOM     72  F   UNL A   1      49.745  26.133  28.295  1.00  0.00    -0.203 F 
ATOM     73  C   UNL A   1      51.384  26.015  26.608  1.00  0.00     0.198 A 
ATOM     74  C   UNL A   1      50.834  26.651  24.361  1.00  0.00     0.198 A 
ATOM     75  F   UNL A   1      48.665  27.415  23.852  1.00  0.00    -0.203 F 
ATOM     76  F   UNL A   1      52.281  25.591  27.509  1.00  0.00    -0.200 F 
ATOM     77  C   UNL A   1      51.759  26.187  25.284  1.00  0.00     0.200 A 
ATOM     78  F   UNL A   1      51.190  26.805  23.078  1.00  0.00    -0.200 F 
ATOM     79  F   UNL A   1      53.012  25.908  24.899  1.00  0.00    -0.200 F 
ENDBRANCH  45  69
BRANCH  57  80
ATOM     80  C   UNL A   1      46.043  32.533  28.517  1.00  0.00     0.064 A 
ATOM     81  C   UNL A   1      45.962  33.543  27.549  1.00  0.00     0.173 A 
ATOM     82  C   UNL A   1      46.587  32.861  29.768  1.00  0.00     0.173 A 
ATOM     83  F   UNL A   1      45.465  33.275  26.332  1.00  0.00    -0.203 F 
ATOM     84  C   UNL A   1      46.430  34.828  27.816  1.00  0.00     0.198 A 
ATOM     85  C   UNL A   1      47.028  34.153  30.041  1.00  0.00     0.198 A 
ATOM     86  F   UNL A   1      46.683  31.930  30.729  1.00  0.00    -0.203 F 
ATOM     87  F   UNL A   1      46.385  35.767  26.861  1.00  0.00    -0.200 F 
ATOM     88  C   UNL A   1      46.955  35.133  29.062  1.00  0.00     0.200 A 
ATOM     89  F   UNL A   1      47.525  34.448  31.249  1.00  0.00    -0.200 F 
ATOM     90  F   UNL A   1      47.400  36.371  29.319  1.00  0.00    -0.200 F 
ENDBRANCH  57  80
ENDBRANCH  31  32
ENDBRANCH  23  26
ENDBRANCH  21  22
ENDBRANCH  20  21
ENDBRANCH   1  20
TORSDOF 14
ENDMDL
