MODEL 1
REMARK VINA RESULT:     -14.0      0.000      0.000
REMARK SMILES Cc1nnc(SCC(=O)Nc2cccc(C(=O)NCCCNC(=O)c3ccc(-c4c5nc(c(-c6c(F)c(F)c(F)c(F)c6F)c6ccc([nH]6)c(-c6c(F)c(F)c(F)c(F)c6F)c6nc(c(-c7c(F)c(F)c(F)c(F)c7F)c7ccc4[nH]7)C=C6)C=C5)cc3)c2)n1-c1ccccc1
REMARK SMILES IDX 16 1 17 2 18 3 15 5 11 6 12 7 88 8 13 9 14 10 10 11 8 12
REMARK SMILES IDX 9 13 7 15 6 16 5 17 1 18 2 19 3 20 89 21 4 22 90 23 91 24
REMARK SMILES IDX 95 25 92 26 94 27 93 28 19 29 20 30 21 31 22 32 23 33 24 35
REMARK SMILES IDX 25 36 26 37 87 38 27 39 86 40 28 41 29 42 30 43 80 44 31 45
REMARK SMILES IDX 85 46 79 47 81 48 32 49 84 50 78 51 77 52 33 54 65 55 45 56
REMARK SMILES IDX 64 57 46 58 49 59 63 60 82 61 47 62 48 63 62 65 83 66 50 67
REMARK SMILES IDX 34 68 35 69 43 70 36 71 37 72 41 73 44 74 38 75 39 76 42 77
REMARK SMILES IDX 40 78 66 79 67 80 75 81 68 82 69 83 73 84 76 85 70 86 71 87
REMARK SMILES IDX 74 88 72 89 51 90 52 91 60 92 53 93 54 94 58 95 61 96 55 97
REMARK SMILES IDX 56 98 59 99 57 100
REMARK H PARENT 18 4 10 14 22 34 81 53 49 64
REMARK Flexibility Score: inf
ROOT
ATOM      1  C   UNL A   1      32.671  28.866  25.178  1.00  0.00     0.251 C 
ATOM      2  O   UNL A   1      33.718  28.693  24.551  1.00  0.00    -0.269 OA
ATOM      3  N   UNL A   1      32.638  29.958  25.997  1.00  0.00    -0.352 N 
ATOM      4  H   UNL A   1      33.481  30.468  25.995  1.00  0.00     0.163 HD
ENDROOT
BRANCH   1   5
ATOM      5  C   UNL A   1      31.550  27.895  24.992  1.00  0.00     0.041 A 
ATOM      6  C   UNL A   1      30.150  25.992  25.548  1.00  0.00     0.041 A 
ATOM      7  C   UNL A   1      29.503  26.091  24.316  1.00  0.00     0.026 A 
ATOM      8  C   UNL A   1      31.186  26.868  25.870  1.00  0.00     0.040 A 
ATOM      9  C   UNL A   1      29.827  27.120  23.443  1.00  0.00     0.003 A 
ATOM     10  C   UNL A   1      30.838  28.016  23.784  1.00  0.00     0.014 A 
BRANCH   6  11
ATOM     11  N   UNL A   1      29.759  24.941  26.371  1.00  0.00    -0.325 N 
ATOM     12  C   UNL A   1      30.283  23.707  26.593  1.00  0.00     0.234 C 
ATOM     13  O   UNL A   1      29.722  23.087  27.503  1.00  0.00    -0.274 OA
ATOM     14  H   UNL A   1      28.946  25.126  26.894  1.00  0.00     0.169 HD
BRANCH  12  15
ATOM     15  C   UNL A   1      31.595  23.229  26.020  1.00  0.00     0.178 C 
BRANCH  15  16
ATOM     16  S   UNL A   1      32.949  22.692  27.060  1.00  0.00    -0.076 SA
BRANCH  16  17
ATOM     17  C   UNL A   1      34.478  22.695  26.256  1.00  0.00     0.196 A 
ATOM     18  C   UNL A   1      36.693  22.574  23.376  1.00  0.00     0.090 C 
ATOM     19  C   UNL A   1      35.960  22.449  24.651  1.00  0.00     0.135 A 
ATOM     20  N   UNL A   1      36.408  21.823  25.716  1.00  0.00    -0.134 NA
ATOM     21  N   UNL A   1      34.733  23.012  24.941  1.00  0.00    -0.274 N 
ATOM     22  N   UNL A   1      35.480  21.977  26.698  1.00  0.00    -0.123 NA
BRANCH  21  23
ATOM     23  C   UNL A   1      33.901  23.745  24.101  1.00  0.00     0.049 A 
ATOM     24  C   UNL A   1      33.206  23.042  23.123  1.00  0.00     0.027 A 
ATOM     25  C   UNL A   1      34.057  25.128  24.047  1.00  0.00     0.027 A 
ATOM     26  C   UNL A   1      32.760  23.720  21.996  1.00  0.00     0.002 A 
ATOM     27  C   UNL A   1      33.565  25.804  22.936  1.00  0.00     0.002 A 
ATOM     28  C   UNL A   1      32.954  25.096  21.896  1.00  0.00     0.000 A 
ENDBRANCH  21  23
ENDBRANCH  16  17
ENDBRANCH  15  16
ENDBRANCH  12  15
ENDBRANCH   6  11
ENDBRANCH   1   5
BRANCH   3  29
ATOM     29  C   UNL A   1      31.633  30.527  26.865  1.00  0.00     0.118 C 
BRANCH  29  30
ATOM     30  C   UNL A   1      31.559  32.042  26.698  1.00  0.00     0.042 C 
BRANCH  30  31
ATOM     31  C   UNL A   1      32.728  32.751  27.366  1.00  0.00     0.118 C 
BRANCH  31  32
ATOM     32  N   UNL A   1      32.578  34.199  27.644  1.00  0.00    -0.352 N 
ATOM     33  C   UNL A   1      33.060  34.950  28.727  1.00  0.00     0.251 C 
ATOM     34  H   UNL A   1      32.068  34.707  26.973  1.00  0.00     0.163 HD
ATOM     35  O   UNL A   1      32.609  36.040  29.025  1.00  0.00    -0.269 OA
BRANCH  33  36
ATOM     36  C   UNL A   1      34.181  34.379  29.491  1.00  0.00     0.039 A 
ATOM     37  C   UNL A   1      34.132  33.634  30.679  1.00  0.00     0.014 A 
ATOM     38  C   UNL A   1      35.387  34.525  28.877  1.00  0.00     0.014 A 
ATOM     39  C   UNL A   1      35.305  32.969  31.084  1.00  0.00     0.010 A 
ATOM     40  C   UNL A   1      36.089  33.377  28.895  1.00  0.00     0.010 A 
ATOM     41  C   UNL A   1      36.335  32.907  30.154  1.00  0.00    -0.014 A 
BRANCH  41  42
ATOM     42  C   UNL A   1      37.663  32.333  30.208  1.00  0.00     0.031 A 
ATOM     43  C   UNL A   1      37.807  31.015  29.539  1.00  0.00     0.074 A 
ATOM     44  C   UNL A   1      38.710  33.187  30.365  1.00  0.00     0.049 A 
ATOM     45  N   UNL A   1      38.075  29.878  30.090  1.00  0.00    -0.248 NA
ATOM     46  C   UNL A   1      37.465  30.904  28.107  1.00  0.00     0.031 C 
ATOM     47  C   UNL A   1      38.701  34.648  30.592  1.00  0.00     0.029 A 
ATOM     48  N   UNL A   1      40.036  32.939  30.218  1.00  0.00    -0.354 N 
ATOM     49  C   UNL A   1      38.141  28.960  29.046  1.00  0.00     0.074 A 
ATOM     50  C   UNL A   1      37.503  29.583  27.921  1.00  0.00     0.031 C 
ATOM     51  C   UNL A   1      39.923  35.169  30.344  1.00  0.00     0.029 A 
ATOM     52  C   UNL A   1      40.842  34.074  30.132  1.00  0.00     0.049 A 
ATOM     53  H   UNL A   1      40.403  32.026  30.176  1.00  0.00     0.167 HD
ATOM     54  C   UNL A   1      38.974  27.882  29.101  1.00  0.00     0.037 A 
ATOM     55  C   UNL A   1      42.174  34.077  29.879  1.00  0.00     0.037 A 
ATOM     56  C   UNL A   1      39.509  27.721  30.431  1.00  0.00     0.049 A 
ATOM     57  C   UNL A   1      42.655  32.692  30.146  1.00  0.00     0.074 A 
ATOM     58  C   UNL A   1      38.947  27.511  31.676  1.00  0.00     0.029 A 
ATOM     59  N   UNL A   1      40.767  28.221  30.673  1.00  0.00    -0.354 N 
ATOM     60  N   UNL A   1      42.628  32.137  31.331  1.00  0.00    -0.248 NA
ATOM     61  C   UNL A   1      42.656  31.765  29.023  1.00  0.00     0.031 C 
ATOM     62  C   UNL A   1      39.682  28.361  32.557  1.00  0.00     0.029 A 
ATOM     63  C   UNL A   1      40.706  28.967  31.825  1.00  0.00     0.049 A 
ATOM     64  H   UNL A   1      41.569  28.071  30.119  1.00  0.00     0.167 HD
ATOM     65  C   UNL A   1      42.200  30.834  31.109  1.00  0.00     0.074 A 
ATOM     66  C   UNL A   1      42.286  30.648  29.660  1.00  0.00     0.031 C 
ATOM     67  C   UNL A   1      41.520  30.137  32.071  1.00  0.00     0.037 A 
BRANCH  54  68
ATOM     68  C   UNL A   1      39.595  27.200  27.907  1.00  0.00     0.064 A 
ATOM     69  C   UNL A   1      39.589  25.791  27.852  1.00  0.00     0.173 A 
ATOM     70  C   UNL A   1      40.423  27.838  26.958  1.00  0.00     0.173 A 
ATOM     71  F   UNL A   1      38.847  25.079  28.714  1.00  0.00    -0.203 F 
ATOM     72  C   UNL A   1      40.406  25.081  26.968  1.00  0.00     0.198 A 
ATOM     73  C   UNL A   1      41.192  27.127  26.037  1.00  0.00     0.198 A 
ATOM     74  F   UNL A   1      40.614  29.162  26.950  1.00  0.00    -0.203 F 
ATOM     75  F   UNL A   1      40.458  23.744  27.039  1.00  0.00    -0.200 F 
ATOM     76  C   UNL A   1      41.210  25.750  26.064  1.00  0.00     0.200 A 
ATOM     77  F   UNL A   1      41.976  27.795  25.178  1.00  0.00    -0.200 F 
ATOM     78  F   UNL A   1      42.036  25.074  25.256  1.00  0.00    -0.200 F 
ENDBRANCH  54  68
BRANCH  55  79
ATOM     79  C   UNL A   1      42.950  35.076  29.107  1.00  0.00     0.064 A 
ATOM     80  C   UNL A   1      42.415  35.700  27.970  1.00  0.00     0.173 A 
ATOM     81  C   UNL A   1      44.138  35.631  29.625  1.00  0.00     0.173 A 
ATOM     82  F   UNL A   1      41.264  35.259  27.441  1.00  0.00    -0.203 F 
ATOM     83  C   UNL A   1      43.020  36.825  27.397  1.00  0.00     0.198 A 
ATOM     84  C   UNL A   1      44.742  36.752  29.052  1.00  0.00     0.198 A 
ATOM     85  F   UNL A   1      44.683  35.152  30.752  1.00  0.00    -0.203 F 
ATOM     86  F   UNL A   1      42.451  37.428  26.343  1.00  0.00    -0.200 F 
ATOM     87  C   UNL A   1      44.177  37.357  27.945  1.00  0.00     0.200 A 
ATOM     88  F   UNL A   1      45.837  37.281  29.617  1.00  0.00    -0.200 F 
ATOM     89  F   UNL A   1      44.722  38.470  27.434  1.00  0.00    -0.200 F 
ENDBRANCH  55  79
BRANCH  67  90
ATOM     90  C   UNL A   1      41.421  30.749  33.448  1.00  0.00     0.064 A 
ATOM     91  C   UNL A   1      40.324  31.505  33.900  1.00  0.00     0.173 A 
ATOM     92  C   UNL A   1      42.390  30.416  34.399  1.00  0.00     0.173 A 
ATOM     93  F   UNL A   1      39.301  31.785  33.092  1.00  0.00    -0.203 F 
ATOM     94  C   UNL A   1      40.221  31.938  35.222  1.00  0.00     0.198 A 
ATOM     95  C   UNL A   1      42.273  30.820  35.728  1.00  0.00     0.198 A 
ATOM     96  F   UNL A   1      43.431  29.645  34.050  1.00  0.00    -0.203 F 
ATOM     97  F   UNL A   1      39.160  32.658  35.616  1.00  0.00    -0.200 F 
ATOM     98  C   UNL A   1      41.194  31.588  36.138  1.00  0.00     0.200 A 
ATOM     99  F   UNL A   1      43.195  30.436  36.622  1.00  0.00    -0.200 F 
ATOM    100  F   UNL A   1      41.081  31.964  37.420  1.00  0.00    -0.200 F 
ENDBRANCH  67  90
ENDBRANCH  41  42
ENDBRANCH  33  36
ENDBRANCH  31  32
ENDBRANCH  30  31
ENDBRANCH  29  30
ENDBRANCH   3  29
TORSDOF 15
ENDMDL
MODEL 2
REMARK VINA RESULT:     -13.3      2.855      7.513
REMARK SMILES Cc1nnc(SCC(=O)Nc2cccc(C(=O)NCCCNC(=O)c3ccc(-c4c5nc(c(-c6c(F)c(F)c(F)c(F)c6F)c6ccc([nH]6)c(-c6c(F)c(F)c(F)c(F)c6F)c6nc(c(-c7c(F)c(F)c(F)c(F)c7F)c7ccc4[nH]7)C=C6)C=C5)cc3)c2)n1-c1ccccc1
REMARK SMILES IDX 16 1 17 2 18 3 15 5 11 6 12 7 88 8 13 9 14 10 10 11 8 12
REMARK SMILES IDX 9 13 7 15 6 16 5 17 1 18 2 19 3 20 89 21 4 22 90 23 91 24
REMARK SMILES IDX 95 25 92 26 94 27 93 28 19 29 20 30 21 31 22 32 23 33 24 35
REMARK SMILES IDX 25 36 26 37 87 38 27 39 86 40 28 41 29 42 30 43 80 44 31 45
REMARK SMILES IDX 85 46 79 47 81 48 32 49 84 50 78 51 77 52 33 54 65 55 45 56
REMARK SMILES IDX 64 57 46 58 49 59 63 60 82 61 47 62 48 63 62 65 83 66 50 67
REMARK SMILES IDX 34 68 35 69 43 70 36 71 37 72 41 73 44 74 38 75 39 76 42 77
REMARK SMILES IDX 40 78 66 79 67 80 75 81 68 82 69 83 73 84 76 85 70 86 71 87
REMARK SMILES IDX 74 88 72 89 51 90 52 91 60 92 53 93 54 94 58 95 61 96 55 97
REMARK SMILES IDX 56 98 59 99 57 100
REMARK H PARENT 18 4 10 14 22 34 81 53 49 64
REMARK Flexibility Score: inf
ROOT
ATOM      1  C   UNL A   1      32.631  29.163  24.263  1.00  0.00     0.251 C 
ATOM      2  O   UNL A   1      33.331  29.094  23.250  1.00  0.00    -0.269 OA
ATOM      3  N   UNL A   1      32.973  30.132  25.162  1.00  0.00    -0.352 N 
ATOM      4  H   UNL A   1      33.765  30.650  24.889  1.00  0.00     0.163 HD
ENDROOT
BRANCH   1   5
ATOM      5  C   UNL A   1      31.491  28.209  24.418  1.00  0.00     0.041 A 
ATOM      6  C   UNL A   1      30.274  26.347  25.388  1.00  0.00     0.041 A 
ATOM      7  C   UNL A   1      29.316  26.428  24.377  1.00  0.00     0.026 A 
ATOM      8  C   UNL A   1      31.368  27.210  25.390  1.00  0.00     0.040 A 
ATOM      9  C   UNL A   1      29.402  27.429  23.420  1.00  0.00     0.003 A 
ATOM     10  C   UNL A   1      30.477  28.314  23.447  1.00  0.00     0.014 A 
BRANCH   6  11
ATOM     11  N   UNL A   1      30.111  25.323  26.316  1.00  0.00    -0.325 N 
ATOM     12  C   UNL A   1      30.419  24.001  26.286  1.00  0.00     0.234 C 
ATOM     13  O   UNL A   1      30.236  23.424  27.363  1.00  0.00    -0.274 OA
ATOM     14  H   UNL A   1      29.690  25.613  27.158  1.00  0.00     0.169 HD
BRANCH  12  15
ATOM     15  C   UNL A   1      31.189  23.337  25.169  1.00  0.00     0.178 C 
BRANCH  15  16
ATOM     16  S   UNL A   1      32.039  21.779  25.394  1.00  0.00    -0.076 SA
BRANCH  16  17
ATOM     17  C   UNL A   1      33.754  21.943  25.526  1.00  0.00     0.196 A 
ATOM     18  C   UNL A   1      37.133  22.383  24.259  1.00  0.00     0.090 C 
ATOM     19  C   UNL A   1      35.867  22.014  24.921  1.00  0.00     0.135 A 
ATOM     20  N   UNL A   1      35.766  21.199  25.947  1.00  0.00    -0.134 NA
ATOM     21  N   UNL A   1      34.614  22.505  24.609  1.00  0.00    -0.274 N 
ATOM     22  N   UNL A   1      34.454  21.158  26.306  1.00  0.00    -0.123 NA
BRANCH  21  23
ATOM     23  C   UNL A   1      34.261  23.381  23.587  1.00  0.00     0.049 A 
ATOM     24  C   UNL A   1      34.287  24.740  23.877  1.00  0.00     0.027 A 
ATOM     25  C   UNL A   1      33.591  22.874  22.477  1.00  0.00     0.027 A 
ATOM     26  C   UNL A   1      33.522  25.606  23.108  1.00  0.00     0.002 A 
ATOM     27  C   UNL A   1      32.865  23.758  21.685  1.00  0.00     0.002 A 
ATOM     28  C   UNL A   1      32.799  25.114  22.024  1.00  0.00     0.000 A 
ENDBRANCH  21  23
ENDBRANCH  16  17
ENDBRANCH  15  16
ENDBRANCH  12  15
ENDBRANCH   6  11
ENDBRANCH   1   5
BRANCH   3  29
ATOM     29  C   UNL A   1      32.424  30.561  26.428  1.00  0.00     0.118 C 
BRANCH  29  30
ATOM     30  C   UNL A   1      33.337  30.164  27.584  1.00  0.00     0.042 C 
BRANCH  30  31
ATOM     31  C   UNL A   1      34.758  30.677  27.395  1.00  0.00     0.118 C 
BRANCH  31  32
ATOM     32  N   UNL A   1      35.080  32.013  27.952  1.00  0.00    -0.352 N 
ATOM     33  C   UNL A   1      35.820  32.342  29.097  1.00  0.00     0.251 C 
ATOM     34  H   UNL A   1      34.723  32.778  27.446  1.00  0.00     0.163 HD
ATOM     35  O   UNL A   1      35.745  33.429  29.639  1.00  0.00    -0.269 OA
BRANCH  33  36
ATOM     36  C   UNL A   1      36.741  31.318  29.617  1.00  0.00     0.039 A 
ATOM     37  C   UNL A   1      36.460  29.983  29.944  1.00  0.00     0.014 A 
ATOM     38  C   UNL A   1      38.038  31.730  29.670  1.00  0.00     0.014 A 
ATOM     39  C   UNL A   1      37.550  29.121  30.169  1.00  0.00     0.010 A 
ATOM     40  C   UNL A   1      38.869  30.801  29.164  1.00  0.00     0.010 A 
ATOM     41  C   UNL A   1      38.804  29.600  29.813  1.00  0.00    -0.014 A 
BRANCH  41  42
ATOM     42  C   UNL A   1      40.129  29.024  29.904  1.00  0.00     0.031 A 
ATOM     43  C   UNL A   1      40.623  28.794  31.286  1.00  0.00     0.074 A 
ATOM     44  C   UNL A   1      40.571  28.296  28.844  1.00  0.00     0.049 A 
ATOM     45  N   UNL A   1      41.617  29.374  31.873  1.00  0.00    -0.248 NA
ATOM     46  C   UNL A   1      39.833  27.932  32.189  1.00  0.00     0.031 C 
ATOM     47  C   UNL A   1      39.931  28.070  27.531  1.00  0.00     0.029 A 
ATOM     48  N   UNL A   1      41.652  27.478  28.768  1.00  0.00    -0.354 N 
ATOM     49  C   UNL A   1      41.700  28.793  33.135  1.00  0.00     0.074 A 
ATOM     50  C   UNL A   1      40.443  28.134  33.358  1.00  0.00     0.031 C 
ATOM     51  C   UNL A   1      40.508  27.023  26.901  1.00  0.00     0.029 A 
ATOM     52  C   UNL A   1      41.671  26.628  27.663  1.00  0.00     0.049 A 
ATOM     53  H   UNL A   1      42.369  27.485  29.443  1.00  0.00     0.167 HD
ATOM     54  C   UNL A   1      42.896  28.647  33.772  1.00  0.00     0.037 A 
ATOM     55  C   UNL A   1      42.588  25.656  27.433  1.00  0.00     0.037 A 
ATOM     56  C   UNL A   1      43.927  29.394  33.093  1.00  0.00     0.049 A 
ATOM     57  C   UNL A   1      43.753  25.962  28.310  1.00  0.00     0.074 A 
ATOM     58  C   UNL A   1      44.107  30.730  32.790  1.00  0.00     0.029 A 
ATOM     59  N   UNL A   1      44.742  28.705  32.225  1.00  0.00    -0.354 N 
ATOM     60  N   UNL A   1      44.489  27.036  28.178  1.00  0.00    -0.248 NA
ATOM     61  C   UNL A   1      43.758  25.362  29.636  1.00  0.00     0.031 C 
ATOM     62  C   UNL A   1      44.606  30.737  31.453  1.00  0.00     0.029 A 
ATOM     63  C   UNL A   1      44.792  29.413  31.049  1.00  0.00     0.049 A 
ATOM     64  H   UNL A   1      45.206  27.856  32.413  1.00  0.00     0.167 HD
ATOM     65  C   UNL A   1      44.719  27.477  29.475  1.00  0.00     0.074 A 
ATOM     66  C   UNL A   1      44.288  26.373  30.333  1.00  0.00     0.031 C 
ATOM     67  C   UNL A   1      44.935  28.801  29.746  1.00  0.00     0.037 A 
BRANCH  54  68
ATOM     68  C   UNL A   1      43.227  27.562  34.767  1.00  0.00     0.064 A 
ATOM     69  C   UNL A   1      43.514  27.927  36.098  1.00  0.00     0.173 A 
ATOM     70  C   UNL A   1      43.535  26.226  34.428  1.00  0.00     0.173 A 
ATOM     71  F   UNL A   1      43.272  29.175  36.529  1.00  0.00    -0.203 F 
ATOM     72  C   UNL A   1      44.132  27.047  36.990  1.00  0.00     0.198 A 
ATOM     73  C   UNL A   1      44.096  25.333  35.339  1.00  0.00     0.198 A 
ATOM     74  F   UNL A   1      43.415  25.759  33.180  1.00  0.00    -0.203 F 
ATOM     75  F   UNL A   1      44.498  27.480  38.205  1.00  0.00    -0.200 F 
ATOM     76  C   UNL A   1      44.426  25.752  36.609  1.00  0.00     0.200 A 
ATOM     77  F   UNL A   1      44.387  24.085  34.943  1.00  0.00    -0.200 F 
ATOM     78  F   UNL A   1      45.070  24.925  37.442  1.00  0.00    -0.200 F 
ENDBRANCH  54  68
BRANCH  55  79
ATOM     79  C   UNL A   1      42.372  24.336  26.793  1.00  0.00     0.064 A 
ATOM     80  C   UNL A   1      43.255  23.841  25.821  1.00  0.00     0.173 A 
ATOM     81  C   UNL A   1      41.439  23.419  27.316  1.00  0.00     0.173 A 
ATOM     82  F   UNL A   1      44.201  24.638  25.305  1.00  0.00    -0.203 F 
ATOM     83  C   UNL A   1      43.218  22.502  25.410  1.00  0.00     0.198 A 
ATOM     84  C   UNL A   1      41.402  22.085  26.906  1.00  0.00     0.198 A 
ATOM     85  F   UNL A   1      40.605  23.779  28.303  1.00  0.00    -0.203 F 
ATOM     86  F   UNL A   1      44.112  22.051  24.519  1.00  0.00    -0.200 F 
ATOM     87  C   UNL A   1      42.299  21.623  25.961  1.00  0.00     0.200 A 
ATOM     88  F   UNL A   1      40.534  21.236  27.476  1.00  0.00    -0.200 F 
ATOM     89  F   UNL A   1      42.305  20.329  25.614  1.00  0.00    -0.200 F 
ENDBRANCH  55  79
BRANCH  67  90
ATOM     90  C   UNL A   1      45.115  29.740  28.577  1.00  0.00     0.064 A 
ATOM     91  C   UNL A   1      44.082  30.516  28.020  1.00  0.00     0.173 A 
ATOM     92  C   UNL A   1      46.410  29.992  28.115  1.00  0.00     0.173 A 
ATOM     93  F   UNL A   1      42.829  30.419  28.469  1.00  0.00    -0.203 F 
ATOM     94  C   UNL A   1      44.325  31.466  27.028  1.00  0.00     0.198 A 
ATOM     95  C   UNL A   1      46.660  30.963  27.146  1.00  0.00     0.198 A 
ATOM     96  F   UNL A   1      47.449  29.332  28.647  1.00  0.00    -0.203 F 
ATOM     97  F   UNL A   1      43.313  32.186  26.520  1.00  0.00    -0.200 F 
ATOM     98  C   UNL A   1      45.617  31.693  26.595  1.00  0.00     0.200 A 
ATOM     99  F   UNL A   1      47.920  31.214  26.767  1.00  0.00    -0.200 F 
ATOM    100  F   UNL A   1      45.864  32.633  25.672  1.00  0.00    -0.200 F 
ENDBRANCH  67  90
ENDBRANCH  41  42
ENDBRANCH  33  36
ENDBRANCH  31  32
ENDBRANCH  30  31
ENDBRANCH  29  30
ENDBRANCH   3  29
TORSDOF 15
ENDMDL
MODEL 3
REMARK VINA RESULT:     -13.2      2.977      7.841
REMARK SMILES Cc1nnc(SCC(=O)Nc2cccc(C(=O)NCCCNC(=O)c3ccc(-c4c5nc(c(-c6c(F)c(F)c(F)c(F)c6F)c6ccc([nH]6)c(-c6c(F)c(F)c(F)c(F)c6F)c6nc(c(-c7c(F)c(F)c(F)c(F)c7F)c7ccc4[nH]7)C=C6)C=C5)cc3)c2)n1-c1ccccc1
REMARK SMILES IDX 16 1 17 2 18 3 15 5 11 6 12 7 88 8 13 9 14 10 10 11 8 12
REMARK SMILES IDX 9 13 7 15 6 16 5 17 1 18 2 19 3 20 89 21 4 22 90 23 91 24
REMARK SMILES IDX 95 25 92 26 94 27 93 28 19 29 20 30 21 31 22 32 23 33 24 35
REMARK SMILES IDX 25 36 26 37 87 38 27 39 86 40 28 41 29 42 30 43 80 44 31 45
REMARK SMILES IDX 85 46 79 47 81 48 32 49 84 50 78 51 77 52 33 54 65 55 45 56
REMARK SMILES IDX 64 57 46 58 49 59 63 60 82 61 47 62 48 63 62 65 83 66 50 67
REMARK SMILES IDX 34 68 35 69 43 70 36 71 37 72 41 73 44 74 38 75 39 76 42 77
REMARK SMILES IDX 40 78 66 79 67 80 75 81 68 82 69 83 73 84 76 85 70 86 71 87
REMARK SMILES IDX 74 88 72 89 51 90 52 91 60 92 53 93 54 94 58 95 61 96 55 97
REMARK SMILES IDX 56 98 59 99 57 100
REMARK H PARENT 18 4 10 14 22 34 81 53 49 64
REMARK Flexibility Score: inf
ROOT
ATOM      1  C   UNL A   1      36.801  22.885  24.210  1.00  0.00     0.251 C 
ATOM      2  O   UNL A   1      36.813  23.192  23.016  1.00  0.00    -0.269 OA
ATOM      3  N   UNL A   1      37.958  23.110  24.898  1.00  0.00    -0.352 N 
ATOM      4  H   UNL A   1      38.677  23.478  24.334  1.00  0.00     0.163 HD
ENDROOT
BRANCH   1   5
ATOM      5  C   UNL A   1      35.549  22.313  24.794  1.00  0.00     0.041 A 
ATOM      6  C   UNL A   1      33.432  22.360  25.981  1.00  0.00     0.041 A 
ATOM      7  C   UNL A   1      33.377  20.967  25.966  1.00  0.00     0.026 A 
ATOM      8  C   UNL A   1      34.525  23.027  25.427  1.00  0.00     0.040 A 
ATOM      9  C   UNL A   1      34.367  20.240  25.320  1.00  0.00     0.003 A 
ATOM     10  C   UNL A   1      35.438  20.911  24.734  1.00  0.00     0.014 A 
BRANCH   6  11
ATOM     11  N   UNL A   1      32.397  23.016  26.639  1.00  0.00    -0.325 N 
ATOM     12  C   UNL A   1      31.266  23.621  26.195  1.00  0.00     0.234 C 
ATOM     13  O   UNL A   1      30.511  23.991  27.101  1.00  0.00    -0.274 OA
ATOM     14  H   UNL A   1      32.505  23.048  27.618  1.00  0.00     0.169 HD
BRANCH  12  15
ATOM     15  C   UNL A   1      30.801  23.595  24.758  1.00  0.00     0.178 C 
BRANCH  15  16
ATOM     16  S   UNL A   1      30.543  25.093  23.814  1.00  0.00    -0.076 SA
BRANCH  16  17
ATOM     17  C   UNL A   1      32.001  25.764  23.174  1.00  0.00     0.196 A 
ATOM     18  C   UNL A   1      34.318  28.441  22.351  1.00  0.00     0.090 C 
ATOM     19  C   UNL A   1      33.425  27.270  22.441  1.00  0.00     0.135 A 
ATOM     20  N   UNL A   1      33.359  26.306  21.550  1.00  0.00    -0.134 NA
ATOM     21  N   UNL A   1      32.573  26.976  23.488  1.00  0.00    -0.274 N 
ATOM     22  N   UNL A   1      32.471  25.386  22.012  1.00  0.00    -0.123 NA
BRANCH  21  23
ATOM     23  C   UNL A   1      32.319  27.729  24.630  1.00  0.00     0.049 A 
ATOM     24  C   UNL A   1      31.476  28.825  24.494  1.00  0.00     0.027 A 
ATOM     25  C   UNL A   1      33.155  27.571  25.732  1.00  0.00     0.027 A 
ATOM     26  C   UNL A   1      31.556  29.855  25.422  1.00  0.00     0.002 A 
ATOM     27  C   UNL A   1      33.194  28.588  26.681  1.00  0.00     0.002 A 
ATOM     28  C   UNL A   1      32.425  29.743  26.505  1.00  0.00     0.000 A 
ENDBRANCH  21  23
ENDBRANCH  16  17
ENDBRANCH  15  16
ENDBRANCH  12  15
ENDBRANCH   6  11
ENDBRANCH   1   5
BRANCH   3  29
ATOM     29  C   UNL A   1      38.356  22.923  26.274  1.00  0.00     0.118 C 
BRANCH  29  30
ATOM     30  C   UNL A   1      39.529  21.953  26.379  1.00  0.00     0.042 C 
BRANCH  30  31
ATOM     31  C   UNL A   1      40.492  22.335  27.494  1.00  0.00     0.118 C 
BRANCH  31  32
ATOM     32  N   UNL A   1      41.942  22.187  27.224  1.00  0.00    -0.352 N 
ATOM     33  C   UNL A   1      42.858  23.136  26.748  1.00  0.00     0.251 C 
ATOM     34  H   UNL A   1      42.316  21.294  27.405  1.00  0.00     0.163 HD
ATOM     35  O   UNL A   1      43.927  22.830  26.255  1.00  0.00    -0.269 OA
BRANCH  33  36
ATOM     36  C   UNL A   1      42.492  24.555  26.898  1.00  0.00     0.039 A 
ATOM     37  C   UNL A   1      41.371  25.222  26.380  1.00  0.00     0.014 A 
ATOM     38  C   UNL A   1      43.312  25.241  27.741  1.00  0.00     0.014 A 
ATOM     39  C   UNL A   1      41.091  26.510  26.872  1.00  0.00     0.010 A 
ATOM     40  C   UNL A   1      42.608  25.994  28.606  1.00  0.00     0.010 A 
ATOM     41  C   UNL A   1      41.799  26.912  27.997  1.00  0.00    -0.014 A 
BRANCH  41  42
ATOM     42  C   UNL A   1      41.795  28.140  28.765  1.00  0.00     0.031 A 
ATOM     43  C   UNL A   1      42.793  29.153  28.339  1.00  0.00     0.074 A 
ATOM     44  C   UNL A   1      40.641  28.479  29.400  1.00  0.00     0.049 A 
ATOM     45  N   UNL A   1      43.812  29.584  29.007  1.00  0.00    -0.248 NA
ATOM     46  C   UNL A   1      42.759  29.643  26.946  1.00  0.00     0.031 C 
ATOM     47  C   UNL A   1      39.377  27.721  29.513  1.00  0.00     0.029 A 
ATOM     48  N   UNL A   1      40.307  29.660  29.979  1.00  0.00    -0.354 N 
ATOM     49  C   UNL A   1      44.411  30.546  28.200  1.00  0.00     0.074 A 
ATOM     50  C   UNL A   1      43.894  30.341  26.876  1.00  0.00     0.031 C 
ATOM     51  C   UNL A   1      38.375  28.536  29.911  1.00  0.00     0.029 A 
ATOM     52  C   UNL A   1      38.951  29.813  30.267  1.00  0.00     0.049 A 
ATOM     53  H   UNL A   1      40.972  30.358  30.181  1.00  0.00     0.167 HD
ATOM     54  C   UNL A   1      45.058  31.620  28.736  1.00  0.00     0.037 A 
ATOM     55  C   UNL A   1      38.370  30.940  30.746  1.00  0.00     0.037 A 
ATOM     56  C   UNL A   1      45.240  31.445  30.157  1.00  0.00     0.049 A 
ATOM     57  C   UNL A   1      39.471  31.780  31.295  1.00  0.00     0.074 A 
ATOM     58  C   UNL A   1      45.888  30.505  30.936  1.00  0.00     0.029 A 
ATOM     59  N   UNL A   1      44.335  32.058  30.993  1.00  0.00    -0.354 N 
ATOM     60  N   UNL A   1      40.204  31.423  32.319  1.00  0.00    -0.248 NA
ATOM     61  C   UNL A   1      40.090  32.735  30.388  1.00  0.00     0.031 C 
ATOM     62  C   UNL A   1      44.999  30.257  32.025  1.00  0.00     0.029 A 
ATOM     63  C   UNL A   1      43.909  31.121  31.903  1.00  0.00     0.049 A 
ATOM     64  H   UNL A   1      44.045  32.998  30.946  1.00  0.00     0.167 HD
ATOM     65  C   UNL A   1      41.502  31.780  31.975  1.00  0.00     0.074 A 
ATOM     66  C   UNL A   1      41.360  32.634  30.795  1.00  0.00     0.031 C 
ATOM     67  C   UNL A   1      42.580  31.103  32.476  1.00  0.00     0.037 A 
BRANCH  54  68
ATOM     68  C   UNL A   1      45.196  32.971  28.079  1.00  0.00     0.064 A 
ATOM     69  C   UNL A   1      46.482  33.420  27.716  1.00  0.00     0.173 A 
ATOM     70  C   UNL A   1      44.179  33.950  28.031  1.00  0.00     0.173 A 
ATOM     71  F   UNL A   1      47.527  32.579  27.736  1.00  0.00    -0.203 F 
ATOM     72  C   UNL A   1      46.739  34.759  27.407  1.00  0.00     0.198 A 
ATOM     73  C   UNL A   1      44.428  35.271  27.662  1.00  0.00     0.198 A 
ATOM     74  F   UNL A   1      42.930  33.705  28.442  1.00  0.00    -0.203 F 
ATOM     75  F   UNL A   1      47.999  35.160  27.190  1.00  0.00    -0.200 F 
ATOM     76  C   UNL A   1      45.712  35.684  27.384  1.00  0.00     0.200 A 
ATOM     77  F   UNL A   1      43.420  36.156  27.662  1.00  0.00    -0.200 F 
ATOM     78  F   UNL A   1      45.965  36.976  27.144  1.00  0.00    -0.200 F 
ENDBRANCH  54  68
BRANCH  55  79
ATOM     79  C   UNL A   1      37.017  31.466  30.440  1.00  0.00     0.064 A 
ATOM     80  C   UNL A   1      36.107  31.781  31.459  1.00  0.00     0.173 A 
ATOM     81  C   UNL A   1      36.690  31.917  29.145  1.00  0.00     0.173 A 
ATOM     82  F   UNL A   1      36.366  31.425  32.725  1.00  0.00    -0.203 F 
ATOM     83  C   UNL A   1      34.945  32.521  31.203  1.00  0.00     0.198 A 
ATOM     84  C   UNL A   1      35.531  32.654  28.890  1.00  0.00     0.198 A 
ATOM     85  F   UNL A   1      37.534  31.731  28.121  1.00  0.00    -0.203 F 
ATOM     86  F   UNL A   1      34.125  32.850  32.211  1.00  0.00    -0.200 F 
ATOM     87  C   UNL A   1      34.664  32.967  29.921  1.00  0.00     0.200 A 
ATOM     88  F   UNL A   1      35.292  33.113  27.653  1.00  0.00    -0.200 F 
ATOM     89  F   UNL A   1      33.586  33.727  29.687  1.00  0.00    -0.200 F 
ENDBRANCH  55  79
BRANCH  67  90
ATOM     90  C   UNL A   1      42.331  30.087  33.566  1.00  0.00     0.064 A 
ATOM     91  C   UNL A   1      42.211  28.703  33.345  1.00  0.00     0.173 A 
ATOM     92  C   UNL A   1      42.387  30.509  34.898  1.00  0.00     0.173 A 
ATOM     93  F   UNL A   1      42.252  28.198  32.111  1.00  0.00    -0.203 F 
ATOM     94  C   UNL A   1      42.113  27.793  34.397  1.00  0.00     0.198 A 
ATOM     95  C   UNL A   1      42.320  29.598  35.951  1.00  0.00     0.198 A 
ATOM     96  F   UNL A   1      42.563  31.808  35.181  1.00  0.00    -0.203 F 
ATOM     97  F   UNL A   1      41.998  26.480  34.145  1.00  0.00    -0.200 F 
ATOM     98  C   UNL A   1      42.174  28.242  35.702  1.00  0.00     0.200 A 
ATOM     99  F   UNL A   1      42.431  30.034  37.213  1.00  0.00    -0.200 F 
ATOM    100  F   UNL A   1      42.123  27.370  36.718  1.00  0.00    -0.200 F 
ENDBRANCH  67  90
ENDBRANCH  41  42
ENDBRANCH  33  36
ENDBRANCH  31  32
ENDBRANCH  30  31
ENDBRANCH  29  30
ENDBRANCH   3  29
TORSDOF 15
ENDMDL
