MODEL 1
REMARK VINA RESULT:     -14.4      0.000      0.000
REMARK SMILES C[NH+]1CCC(C(=O)N2C[C@@H](C(=O)NCCCNC(=O)c3ccc(-c4c5nc(c(-c6c(F)c(F)c(F)c(F)c6F)c6ccc([nH]6)c(-c6c(F)c(F)c(F)c(F)c6F)c6nc(c(-c7c(F)c(F)c(F)c(F)c7F)c7ccc4[nH]7)C=C6)C=C5)cc3)[C@H](c3ccc4c(c3)OCO4)C2)CC1
REMARK SMILES IDX 15 1 14 2 13 3 11 4 12 5 10 7 8 8 9 9 93 10 83 11 6 12 7 13
REMARK SMILES IDX 5 14 1 15 2 16 3 17 95 18 4 20 94 21 84 22 85 23 89 24 86 25
REMARK SMILES IDX 88 26 87 27 90 28 92 29 91 30 16 31 17 32 18 33 19 35 20 36
REMARK SMILES IDX 21 37 82 38 22 39 81 40 23 41 24 42 25 43 75 44 26 45 80 46
REMARK SMILES IDX 74 47 76 48 27 49 79 50 73 51 72 52 28 54 60 55 40 56 59 57
REMARK SMILES IDX 41 58 44 59 58 60 77 61 42 62 43 63 57 65 78 66 45 67 29 68
REMARK SMILES IDX 30 69 38 70 31 71 32 72 36 73 39 74 33 75 34 76 37 77 35 78
REMARK SMILES IDX 61 79 62 80 70 81 63 82 64 83 68 84 71 85 65 86 66 87 69 88
REMARK SMILES IDX 67 89 46 90 47 91 55 92 48 93 49 94 53 95 56 96 50 97 51 98
REMARK SMILES IDX 54 99 52 100
REMARK H PARENT 13 6 2 19 17 34 76 53 44 64
REMARK Flexibility Score: inf
ROOT
ATOM      1  C   UNL A   1      32.058  31.739  27.012  1.00  0.00     0.042 C 
ENDROOT
BRANCH   1   2
ATOM      2  C   UNL A   1      32.540  30.309  26.867  1.00  0.00     0.117 C 
BRANCH   2   3
ATOM      3  N   UNL A   1      33.177  30.031  25.591  1.00  0.00    -0.356 N 
ATOM      4  C   UNL A   1      32.722  29.275  24.551  1.00  0.00     0.225 C 
ATOM      5  O   UNL A   1      33.332  29.327  23.484  1.00  0.00    -0.275 OA
ATOM      6  H   UNL A   1      34.059  30.446  25.457  1.00  0.00     0.163 HD
BRANCH   4   7
ATOM      7  C   UNL A   1      31.509  28.399  24.744  1.00  0.00     0.107 C 
ATOM      8  N   UNL A   1      30.706  26.250  24.879  1.00  0.00    -0.341 N 
ATOM      9  C   UNL A   1      31.940  26.979  25.047  1.00  0.00     0.133 C 
ATOM     10  C   UNL A   1      29.983  26.806  23.734  1.00  0.00     0.128 C 
ATOM     11  C   UNL A   1      30.628  28.198  23.485  1.00  0.00     0.053 C 
BRANCH   8  12
ATOM     12  C   UNL A   1      30.194  25.196  25.589  1.00  0.00     0.226 C 
ATOM     13  O   UNL A   1      29.358  25.407  26.477  1.00  0.00    -0.275 OA
BRANCH  12  14
ATOM     14  C   UNL A   1      30.843  23.803  25.526  1.00  0.00     0.090 C 
ATOM     15  C   UNL A   1      33.722  20.610  25.632  1.00  0.00     0.332 C 
ATOM     16  N   UNL A   1      33.054  21.902  25.494  1.00  0.00    -0.337 N 
ATOM     17  C   UNL A   1      32.476  22.324  26.776  1.00  0.00     0.262 C 
ATOM     18  C   UNL A   1      32.020  21.852  24.447  1.00  0.00     0.262 C 
ATOM     19  H   UNL A   1      33.751  22.592  25.215  1.00  0.00     0.347 HD
ATOM     20  C   UNL A   1      31.878  23.725  26.658  1.00  0.00     0.075 C 
ATOM     21  C   UNL A   1      31.440  23.255  24.233  1.00  0.00     0.075 C 
ENDBRANCH  12  14
ENDBRANCH   8  12
BRANCH  11  22
ATOM     22  C   UNL A   1      29.718  29.397  23.276  1.00  0.00    -0.038 A 
ATOM     23  C   UNL A   1      29.719  30.521  24.136  1.00  0.00     0.008 A 
ATOM     24  C   UNL A   1      28.992  29.468  22.068  1.00  0.00     0.054 A 
ATOM     25  C   UNL A   1      29.074  31.712  23.775  1.00  0.00     0.051 A 
ATOM     26  C   UNL A   1      28.417  30.674  21.716  1.00  0.00     0.166 A 
ATOM     27  C   UNL A   1      28.471  31.770  22.539  1.00  0.00     0.165 A 
ATOM     28  O   UNL A   1      27.885  30.968  20.497  1.00  0.00    -0.454 OA
ATOM     29  O   UNL A   1      27.954  32.884  21.951  1.00  0.00    -0.454 OA
ATOM     30  C   UNL A   1      27.760  32.404  20.602  1.00  0.00     0.468 C 
ENDBRANCH  11  22
ENDBRANCH   4   7
ENDBRANCH   2   3
ENDBRANCH   1   2
BRANCH   1  31
ATOM     31  C   UNL A   1      33.179  32.726  27.309  1.00  0.00     0.118 C 
BRANCH  31  32
ATOM     32  N   UNL A   1      32.695  34.056  27.676  1.00  0.00    -0.352 N 
ATOM     33  C   UNL A   1      33.092  34.896  28.690  1.00  0.00     0.251 C 
ATOM     34  H   UNL A   1      31.972  34.405  27.107  1.00  0.00     0.163 HD
ATOM     35  O   UNL A   1      32.438  35.901  28.954  1.00  0.00    -0.269 OA
BRANCH  33  36
ATOM     36  C   UNL A   1      34.289  34.564  29.487  1.00  0.00     0.039 A 
ATOM     37  C   UNL A   1      34.135  34.009  30.761  1.00  0.00     0.014 A 
ATOM     38  C   UNL A   1      35.563  34.762  28.957  1.00  0.00     0.014 A 
ATOM     39  C   UNL A   1      35.258  33.546  31.453  1.00  0.00     0.010 A 
ATOM     40  C   UNL A   1      36.663  34.211  29.598  1.00  0.00     0.010 A 
ATOM     41  C   UNL A   1      36.522  33.589  30.849  1.00  0.00    -0.014 A 
BRANCH  41  42
ATOM     42  C   UNL A   1      37.736  33.005  31.476  1.00  0.00     0.031 A 
ATOM     43  C   UNL A   1      38.416  31.845  30.806  1.00  0.00     0.074 A 
ATOM     44  C   UNL A   1      38.129  33.410  32.699  1.00  0.00     0.049 A 
ATOM     45  N   UNL A   1      39.298  31.008  31.287  1.00  0.00    -0.248 NA
ATOM     46  C   UNL A   1      38.008  31.561  29.421  1.00  0.00     0.031 C 
ATOM     47  C   UNL A   1      37.533  34.503  33.468  1.00  0.00     0.029 A 
ATOM     48  N   UNL A   1      39.107  32.918  33.529  1.00  0.00    -0.354 N 
ATOM     49  C   UNL A   1      39.508  30.070  30.286  1.00  0.00     0.074 A 
ATOM     50  C   UNL A   1      38.639  30.421  29.184  1.00  0.00     0.031 C 
ATOM     51  C   UNL A   1      38.159  34.603  34.651  1.00  0.00     0.029 A 
ATOM     52  C   UNL A   1      39.161  33.548  34.749  1.00  0.00     0.049 A 
ATOM     53  H   UNL A   1      39.712  32.184  33.273  1.00  0.00     0.167 HD
ATOM     54  C   UNL A   1      40.361  29.018  30.282  1.00  0.00     0.037 A 
ATOM     55  C   UNL A   1      39.915  33.282  35.834  1.00  0.00     0.037 A 
ATOM     56  C   UNL A   1      41.263  28.712  31.359  1.00  0.00     0.049 A 
ATOM     57  C   UNL A   1      40.875  32.123  35.796  1.00  0.00     0.074 A 
ATOM     58  C   UNL A   1      42.213  27.709  31.429  1.00  0.00     0.029 A 
ATOM     59  N   UNL A   1      41.333  29.418  32.551  1.00  0.00    -0.354 N 
ATOM     60  N   UNL A   1      41.088  31.259  34.834  1.00  0.00    -0.248 NA
ATOM     61  C   UNL A   1      41.696  31.901  36.995  1.00  0.00     0.031 C 
ATOM     62  C   UNL A   1      42.841  27.791  32.675  1.00  0.00     0.029 A 
ATOM     63  C   UNL A   1      42.310  28.870  33.365  1.00  0.00     0.049 A 
ATOM     64  H   UNL A   1      40.773  30.193  32.782  1.00  0.00     0.167 HD
ATOM     65  C   UNL A   1      42.090  30.416  35.294  1.00  0.00     0.074 A 
ATOM     66  C   UNL A   1      42.441  30.870  36.623  1.00  0.00     0.031 C 
ATOM     67  C   UNL A   1      42.667  29.360  34.671  1.00  0.00     0.037 A 
BRANCH  54  68
ATOM     68  C   UNL A   1      40.357  28.124  29.078  1.00  0.00     0.064 A 
ATOM     69  C   UNL A   1      41.107  28.430  27.932  1.00  0.00     0.173 A 
ATOM     70  C   UNL A   1      39.617  26.933  29.079  1.00  0.00     0.173 A 
ATOM     71  F   UNL A   1      41.821  29.565  27.875  1.00  0.00    -0.203 F 
ATOM     72  C   UNL A   1      41.090  27.592  26.820  1.00  0.00     0.198 A 
ATOM     73  C   UNL A   1      39.627  26.081  27.977  1.00  0.00     0.198 A 
ATOM     74  F   UNL A   1      38.886  26.591  30.150  1.00  0.00    -0.203 F 
ATOM     75  F   UNL A   1      41.772  27.932  25.717  1.00  0.00    -0.200 F 
ATOM     76  C   UNL A   1      40.356  26.415  26.847  1.00  0.00     0.200 A 
ATOM     77  F   UNL A   1      38.927  24.939  28.009  1.00  0.00    -0.200 F 
ATOM     78  F   UNL A   1      40.346  25.607  25.778  1.00  0.00    -0.200 F 
ENDBRANCH  54  68
BRANCH  55  79
ATOM     79  C   UNL A   1      39.802  34.138  37.043  1.00  0.00     0.064 A 
ATOM     80  C   UNL A   1      38.962  33.769  38.102  1.00  0.00     0.173 A 
ATOM     81  C   UNL A   1      40.525  35.332  37.168  1.00  0.00     0.173 A 
ATOM     82  F   UNL A   1      38.234  32.645  38.019  1.00  0.00    -0.203 F 
ATOM     83  C   UNL A   1      38.837  34.570  39.236  1.00  0.00     0.198 A 
ATOM     84  C   UNL A   1      40.419  36.120  38.314  1.00  0.00     0.198 A 
ATOM     85  F   UNL A   1      41.347  35.728  36.185  1.00  0.00    -0.203 F 
ATOM     86  F   UNL A   1      37.996  34.213  40.216  1.00  0.00    -0.200 F 
ATOM     87  C   UNL A   1      39.569  35.742  39.342  1.00  0.00     0.200 A 
ATOM     88  F   UNL A   1      41.139  37.245  38.420  1.00  0.00    -0.200 F 
ATOM     89  F   UNL A   1      39.452  36.510  40.435  1.00  0.00    -0.200 F 
ENDBRANCH  55  79
BRANCH  67  90
ATOM     90  C   UNL A   1      43.783  28.659  35.383  1.00  0.00     0.064 A 
ATOM     91  C   UNL A   1      45.121  29.027  35.197  1.00  0.00     0.173 A 
ATOM     92  C   UNL A   1      43.496  27.661  36.327  1.00  0.00     0.173 A 
ATOM     93  F   UNL A   1      45.444  29.968  34.295  1.00  0.00    -0.203 F 
ATOM     94  C   UNL A   1      46.137  28.415  35.926  1.00  0.00     0.198 A 
ATOM     95  C   UNL A   1      44.511  27.067  37.070  1.00  0.00     0.198 A 
ATOM     96  F   UNL A   1      42.228  27.279  36.543  1.00  0.00    -0.203 F 
ATOM     97  F   UNL A   1      47.413  28.763  35.716  1.00  0.00    -0.200 F 
ATOM     98  C   UNL A   1      45.830  27.443  36.869  1.00  0.00     0.200 A 
ATOM     99  F   UNL A   1      44.212  26.137  37.988  1.00  0.00    -0.200 F 
ATOM    100  F   UNL A   1      46.808  26.867  37.581  1.00  0.00    -0.200 F 
ENDBRANCH  67  90
ENDBRANCH  41  42
ENDBRANCH  33  36
ENDBRANCH  31  32
ENDBRANCH   1  31
TORSDOF 13
ENDMDL
MODEL 2
REMARK VINA RESULT:     -14.3      0.068      1.091
REMARK SMILES C[NH+]1CCC(C(=O)N2C[C@@H](C(=O)NCCCNC(=O)c3ccc(-c4c5nc(c(-c6c(F)c(F)c(F)c(F)c6F)c6ccc([nH]6)c(-c6c(F)c(F)c(F)c(F)c6F)c6nc(c(-c7c(F)c(F)c(F)c(F)c7F)c7ccc4[nH]7)C=C6)C=C5)cc3)[C@H](c3ccc4c(c3)OCO4)C2)CC1
REMARK SMILES IDX 15 1 14 2 13 3 11 4 12 5 10 7 8 8 9 9 93 10 83 11 6 12 7 13
REMARK SMILES IDX 5 14 1 15 2 16 3 17 95 18 4 20 94 21 84 22 85 23 89 24 86 25
REMARK SMILES IDX 88 26 87 27 90 28 92 29 91 30 16 31 17 32 18 33 19 35 20 36
REMARK SMILES IDX 21 37 82 38 22 39 81 40 23 41 24 42 25 43 75 44 26 45 80 46
REMARK SMILES IDX 74 47 76 48 27 49 79 50 73 51 72 52 28 54 60 55 40 56 59 57
REMARK SMILES IDX 41 58 44 59 58 60 77 61 42 62 43 63 57 65 78 66 45 67 29 68
REMARK SMILES IDX 30 69 38 70 31 71 32 72 36 73 39 74 33 75 34 76 37 77 35 78
REMARK SMILES IDX 61 79 62 80 70 81 63 82 64 83 68 84 71 85 65 86 66 87 69 88
REMARK SMILES IDX 67 89 46 90 47 91 55 92 48 93 49 94 53 95 56 96 50 97 51 98
REMARK SMILES IDX 54 99 52 100
REMARK H PARENT 13 6 2 19 17 34 76 53 44 64
REMARK Flexibility Score: inf
ROOT
ATOM      1  C   UNL A   1      32.063  31.740  26.987  1.00  0.00     0.042 C 
ENDROOT
BRANCH   1   2
ATOM      2  C   UNL A   1      32.532  30.306  26.837  1.00  0.00     0.117 C 
BRANCH   2   3
ATOM      3  N   UNL A   1      33.182  30.031  25.567  1.00  0.00    -0.356 N 
ATOM      4  C   UNL A   1      32.743  29.266  24.527  1.00  0.00     0.225 C 
ATOM      5  O   UNL A   1      33.361  29.320  23.465  1.00  0.00    -0.275 OA
ATOM      6  H   UNL A   1      34.060  30.455  25.439  1.00  0.00     0.163 HD
BRANCH   4   7
ATOM      7  C   UNL A   1      31.539  28.376  24.714  1.00  0.00     0.107 C 
ATOM      8  N   UNL A   1      30.756  26.219  24.823  1.00  0.00    -0.341 N 
ATOM      9  C   UNL A   1      31.984  26.956  24.995  1.00  0.00     0.133 C 
ATOM     10  C   UNL A   1      30.022  26.784  23.690  1.00  0.00     0.128 C 
ATOM     11  C   UNL A   1      30.654  28.185  23.457  1.00  0.00     0.053 C 
BRANCH   8  12
ATOM     12  C   UNL A   1      30.256  25.151  25.521  1.00  0.00     0.226 C 
ATOM     13  O   UNL A   1      29.442  25.345  26.433  1.00  0.00    -0.275 OA
BRANCH  12  14
ATOM     14  C   UNL A   1      30.898  23.758  25.413  1.00  0.00     0.090 C 
ATOM     15  C   UNL A   1      33.761  20.549  25.422  1.00  0.00     0.332 C 
ATOM     16  N   UNL A   1      33.100  21.848  25.327  1.00  0.00    -0.337 N 
ATOM     17  C   UNL A   1      32.517  22.228  26.619  1.00  0.00     0.262 C 
ATOM     18  C   UNL A   1      32.072  21.840  24.273  1.00  0.00     0.262 C 
ATOM     19  H   UNL A   1      33.803  22.544  25.076  1.00  0.00     0.347 HD
ATOM     20  C   UNL A   1      31.927  23.635  26.547  1.00  0.00     0.075 C 
ATOM     21  C   UNL A   1      31.501  23.253  24.105  1.00  0.00     0.075 C 
ENDBRANCH  12  14
ENDBRANCH   8  12
BRANCH  11  22
ATOM     22  C   UNL A   1      29.732  29.379  23.268  1.00  0.00    -0.038 A 
ATOM     23  C   UNL A   1      29.719  30.485  24.151  1.00  0.00     0.008 A 
ATOM     24  C   UNL A   1      29.011  29.468  22.058  1.00  0.00     0.054 A 
ATOM     25  C   UNL A   1      29.063  31.677  23.812  1.00  0.00     0.051 A 
ATOM     26  C   UNL A   1      28.425  30.674  21.729  1.00  0.00     0.166 A 
ATOM     27  C   UNL A   1      28.465  31.754  22.575  1.00  0.00     0.165 A 
ATOM     28  O   UNL A   1      27.895  30.988  20.514  1.00  0.00    -0.454 OA
ATOM     29  O   UNL A   1      27.939  32.874  22.007  1.00  0.00    -0.454 OA
ATOM     30  C   UNL A   1      27.755  32.420  20.648  1.00  0.00     0.468 C 
ENDBRANCH  11  22
ENDBRANCH   4   7
ENDBRANCH   2   3
ENDBRANCH   1   2
BRANCH   1  31
ATOM     31  C   UNL A   1      33.187  32.710  27.326  1.00  0.00     0.118 C 
BRANCH  31  32
ATOM     32  N   UNL A   1      32.709  34.044  27.688  1.00  0.00    -0.352 N 
ATOM     33  C   UNL A   1      33.112  34.886  28.698  1.00  0.00     0.251 C 
ATOM     34  H   UNL A   1      31.986  34.393  27.120  1.00  0.00     0.163 HD
ATOM     35  O   UNL A   1      32.462  35.894  28.960  1.00  0.00    -0.269 OA
BRANCH  33  36
ATOM     36  C   UNL A   1      34.309  34.552  29.494  1.00  0.00     0.039 A 
ATOM     37  C   UNL A   1      34.156  33.984  30.762  1.00  0.00     0.014 A 
ATOM     38  C   UNL A   1      35.583  34.762  28.968  1.00  0.00     0.014 A 
ATOM     39  C   UNL A   1      35.280  33.520  31.451  1.00  0.00     0.010 A 
ATOM     40  C   UNL A   1      36.685  34.211  29.605  1.00  0.00     0.010 A 
ATOM     41  C   UNL A   1      36.545  33.576  30.850  1.00  0.00    -0.014 A 
BRANCH  41  42
ATOM     42  C   UNL A   1      37.761  32.992  31.472  1.00  0.00     0.031 A 
ATOM     43  C   UNL A   1      38.440  31.833  30.800  1.00  0.00     0.074 A 
ATOM     44  C   UNL A   1      38.157  33.396  32.695  1.00  0.00     0.049 A 
ATOM     45  N   UNL A   1      39.323  30.996  31.278  1.00  0.00    -0.248 NA
ATOM     46  C   UNL A   1      38.028  31.549  29.416  1.00  0.00     0.031 C 
ATOM     47  C   UNL A   1      37.562  34.488  33.467  1.00  0.00     0.029 A 
ATOM     48  N   UNL A   1      39.138  32.904  33.522  1.00  0.00    -0.354 N 
ATOM     49  C   UNL A   1      39.532  30.059  30.275  1.00  0.00     0.074 A 
ATOM     50  C   UNL A   1      38.659  30.410  29.176  1.00  0.00     0.031 C 
ATOM     51  C   UNL A   1      38.192  34.587  34.648  1.00  0.00     0.029 A 
ATOM     52  C   UNL A   1      39.195  33.532  34.742  1.00  0.00     0.049 A 
ATOM     53  H   UNL A   1      39.742  32.170  33.264  1.00  0.00     0.167 HD
ATOM     54  C   UNL A   1      40.385  29.008  30.268  1.00  0.00     0.037 A 
ATOM     55  C   UNL A   1      39.951  33.266  35.825  1.00  0.00     0.037 A 
ATOM     56  C   UNL A   1      41.290  28.701  31.342  1.00  0.00     0.049 A 
ATOM     57  C   UNL A   1      40.912  32.108  35.783  1.00  0.00     0.074 A 
ATOM     58  C   UNL A   1      42.241  27.699  31.409  1.00  0.00     0.029 A 
ATOM     59  N   UNL A   1      41.363  29.406  32.534  1.00  0.00    -0.354 N 
ATOM     60  N   UNL A   1      41.124  31.245  34.820  1.00  0.00    -0.248 NA
ATOM     61  C   UNL A   1      41.736  31.885  36.980  1.00  0.00     0.031 C 
ATOM     62  C   UNL A   1      42.873  27.780  32.653  1.00  0.00     0.029 A 
ATOM     63  C   UNL A   1      42.343  28.857  33.345  1.00  0.00     0.049 A 
ATOM     64  H   UNL A   1      40.803  30.181  32.768  1.00  0.00     0.167 HD
ATOM     65  C   UNL A   1      42.127  30.402  35.277  1.00  0.00     0.074 A 
ATOM     66  C   UNL A   1      42.482  30.855  36.605  1.00  0.00     0.031 C 
ATOM     67  C   UNL A   1      42.703  29.347  34.651  1.00  0.00     0.037 A 
BRANCH  54  68
ATOM     68  C   UNL A   1      40.379  28.115  29.063  1.00  0.00     0.064 A 
ATOM     69  C   UNL A   1      41.132  28.418  27.918  1.00  0.00     0.173 A 
ATOM     70  C   UNL A   1      39.632  26.927  29.062  1.00  0.00     0.173 A 
ATOM     71  F   UNL A   1      41.852  29.549  27.864  1.00  0.00    -0.203 F 
ATOM     72  C   UNL A   1      41.112  27.581  26.806  1.00  0.00     0.198 A 
ATOM     73  C   UNL A   1      39.639  26.077  27.960  1.00  0.00     0.198 A 
ATOM     74  F   UNL A   1      38.897  26.588  30.132  1.00  0.00    -0.203 F 
ATOM     75  F   UNL A   1      41.798  27.918  25.704  1.00  0.00    -0.200 F 
ATOM     76  C   UNL A   1      40.372  26.408  26.830  1.00  0.00     0.200 A 
ATOM     77  F   UNL A   1      38.934  24.938  27.989  1.00  0.00    -0.200 F 
ATOM     78  F   UNL A   1      40.359  25.601  25.760  1.00  0.00    -0.200 F 
ENDBRANCH  54  68
BRANCH  55  79
ATOM     79  C   UNL A   1      39.841  34.121  37.035  1.00  0.00     0.064 A 
ATOM     80  C   UNL A   1      40.591  35.301  37.145  1.00  0.00     0.173 A 
ATOM     81  C   UNL A   1      38.992  33.785  38.098  1.00  0.00     0.173 A 
ATOM     82  F   UNL A   1      41.434  35.653  36.163  1.00  0.00    -0.203 F 
ATOM     83  C   UNL A   1      40.507  36.104  38.281  1.00  0.00     0.198 A 
ATOM     84  C   UNL A   1      38.889  34.603  39.223  1.00  0.00     0.198 A 
ATOM     85  F   UNL A   1      38.249  32.670  38.039  1.00  0.00    -0.203 F 
ATOM     86  F   UNL A   1      41.265  37.204  38.377  1.00  0.00    -0.200 F 
ATOM     87  C   UNL A   1      39.653  35.757  39.316  1.00  0.00     0.200 A 
ATOM     88  F   UNL A   1      38.052  34.273  40.215  1.00  0.00    -0.200 F 
ATOM     89  F   UNL A   1      39.569  36.532  40.406  1.00  0.00    -0.200 F 
ENDBRANCH  55  79
BRANCH  67  90
ATOM     90  C   UNL A   1      43.821  28.646  35.359  1.00  0.00     0.064 A 
ATOM     91  C   UNL A   1      45.157  29.026  35.182  1.00  0.00     0.173 A 
ATOM     92  C   UNL A   1      43.538  27.635  36.291  1.00  0.00     0.173 A 
ATOM     93  F   UNL A   1      45.477  29.979  34.293  1.00  0.00    -0.203 F 
ATOM     94  C   UNL A   1      46.175  28.413  35.908  1.00  0.00     0.198 A 
ATOM     95  C   UNL A   1      44.555  27.040  37.031  1.00  0.00     0.198 A 
ATOM     96  F   UNL A   1      42.272  27.242  36.498  1.00  0.00    -0.203 F 
ATOM     97  F   UNL A   1      47.449  28.772  35.706  1.00  0.00    -0.200 F 
ATOM     98  C   UNL A   1      45.872  27.428  36.839  1.00  0.00     0.200 A 
ATOM     99  F   UNL A   1      44.259  26.098  37.938  1.00  0.00    -0.200 F 
ATOM    100  F   UNL A   1      46.852  26.851  37.548  1.00  0.00    -0.200 F 
ENDBRANCH  67  90
ENDBRANCH  41  42
ENDBRANCH  33  36
ENDBRANCH  31  32
ENDBRANCH   1  31
TORSDOF 13
ENDMDL
MODEL 3
REMARK VINA RESULT:     -14.3      5.851     11.771
REMARK SMILES C[NH+]1CCC(C(=O)N2C[C@@H](C(=O)NCCCNC(=O)c3ccc(-c4c5nc(c(-c6c(F)c(F)c(F)c(F)c6F)c6ccc([nH]6)c(-c6c(F)c(F)c(F)c(F)c6F)c6nc(c(-c7c(F)c(F)c(F)c(F)c7F)c7ccc4[nH]7)C=C6)C=C5)cc3)[C@H](c3ccc4c(c3)OCO4)C2)CC1
REMARK SMILES IDX 15 1 14 2 13 3 11 4 12 5 10 7 8 8 9 9 93 10 83 11 6 12 7 13
REMARK SMILES IDX 5 14 1 15 2 16 3 17 95 18 4 20 94 21 84 22 85 23 89 24 86 25
REMARK SMILES IDX 88 26 87 27 90 28 92 29 91 30 16 31 17 32 18 33 19 35 20 36
REMARK SMILES IDX 21 37 82 38 22 39 81 40 23 41 24 42 25 43 75 44 26 45 80 46
REMARK SMILES IDX 74 47 76 48 27 49 79 50 73 51 72 52 28 54 60 55 40 56 59 57
REMARK SMILES IDX 41 58 44 59 58 60 77 61 42 62 43 63 57 65 78 66 45 67 29 68
REMARK SMILES IDX 30 69 38 70 31 71 32 72 36 73 39 74 33 75 34 76 37 77 35 78
REMARK SMILES IDX 61 79 62 80 70 81 63 82 64 83 68 84 71 85 65 86 66 87 69 88
REMARK SMILES IDX 67 89 46 90 47 91 55 92 48 93 49 94 53 95 56 96 50 97 51 98
REMARK SMILES IDX 54 99 52 100
REMARK H PARENT 13 6 2 19 17 34 76 53 44 64
REMARK Flexibility Score: inf
ROOT
ATOM      1  C   UNL A   1      37.861  20.347  25.000  1.00  0.00     0.042 C 
ENDROOT
BRANCH   1   2
ATOM      2  C   UNL A   1      36.924  21.538  24.987  1.00  0.00     0.117 C 
BRANCH   2   3
ATOM      3  N   UNL A   1      36.009  21.577  26.116  1.00  0.00    -0.356 N 
ATOM      4  C   UNL A   1      34.646  21.628  26.115  1.00  0.00     0.225 C 
ATOM      5  O   UNL A   1      34.058  21.459  27.181  1.00  0.00    -0.275 OA
ATOM      6  H   UNL A   1      36.432  21.565  27.004  1.00  0.00     0.163 HD
BRANCH   4   7
ATOM      7  C   UNL A   1      33.914  21.901  24.824  1.00  0.00     0.107 C 
ATOM      8  N   UNL A   1      32.723  23.429  23.590  1.00  0.00    -0.341 N 
ATOM      9  C   UNL A   1      33.684  23.389  24.665  1.00  0.00     0.133 C 
ATOM     10  C   UNL A   1      31.773  22.329  23.766  1.00  0.00     0.128 C 
ATOM     11  C   UNL A   1      32.467  21.350  24.754  1.00  0.00     0.053 C 
BRANCH   8  12
ATOM     12  C   UNL A   1      32.603  24.300  22.538  1.00  0.00     0.226 C 
ATOM     13  O   UNL A   1      33.374  24.203  21.576  1.00  0.00    -0.275 OA
BRANCH  12  14
ATOM     14  C   UNL A   1      31.746  25.572  22.651  1.00  0.00     0.090 C 
ATOM     15  C   UNL A   1      30.302  29.456  23.801  1.00  0.00     0.332 C 
ATOM     16  N   UNL A   1      30.950  28.147  23.763  1.00  0.00    -0.337 N 
ATOM     17  C   UNL A   1      31.950  28.096  22.690  1.00  0.00     0.262 C 
ATOM     18  C   UNL A   1      29.957  27.072  23.602  1.00  0.00     0.262 C 
ATOM     19  H   UNL A   1      31.427  28.004  24.653  1.00  0.00     0.347 HD
ATOM     20  C   UNL A   1      32.705  26.769  22.726  1.00  0.00     0.075 C 
ATOM     21  C   UNL A   1      30.654  25.711  23.709  1.00  0.00     0.075 C 
ENDBRANCH  12  14
ENDBRANCH   8  12
BRANCH  11  22
ATOM     22  C   UNL A   1      32.477  19.866  24.425  1.00  0.00    -0.038 A 
ATOM     23  C   UNL A   1      32.542  19.375  23.100  1.00  0.00     0.008 A 
ATOM     24  C   UNL A   1      32.627  18.957  25.494  1.00  0.00     0.054 A 
ATOM     25  C   UNL A   1      32.817  18.026  22.838  1.00  0.00     0.051 A 
ATOM     26  C   UNL A   1      32.955  17.648  25.202  1.00  0.00     0.166 A 
ATOM     27  C   UNL A   1      33.063  17.198  23.910  1.00  0.00     0.165 A 
ATOM     28  O   UNL A   1      33.352  16.712  26.110  1.00  0.00    -0.454 OA
ATOM     29  O   UNL A   1      33.516  15.916  23.845  1.00  0.00    -0.454 OA
ATOM     30  C   UNL A   1      33.867  15.690  25.229  1.00  0.00     0.468 C 
ENDBRANCH  11  22
ENDBRANCH   4   7
ENDBRANCH   2   3
ENDBRANCH   1   2
BRANCH   1  31
ATOM     31  C   UNL A   1      39.146  20.598  25.778  1.00  0.00     0.118 C 
BRANCH  31  32
ATOM     32  N   UNL A   1      40.010  19.422  25.862  1.00  0.00    -0.352 N 
ATOM     33  C   UNL A   1      41.368  19.331  26.061  1.00  0.00     0.251 C 
ATOM     34  H   UNL A   1      39.547  18.559  25.761  1.00  0.00     0.163 HD
ATOM     35  O   UNL A   1      41.945  18.258  25.915  1.00  0.00    -0.269 OA
BRANCH  33  36
ATOM     36  C   UNL A   1      42.137  20.542  26.411  1.00  0.00     0.039 A 
ATOM     37  C   UNL A   1      42.665  21.340  25.393  1.00  0.00     0.014 A 
ATOM     38  C   UNL A   1      42.300  20.908  27.747  1.00  0.00     0.014 A 
ATOM     39  C   UNL A   1      43.254  22.567  25.713  1.00  0.00     0.010 A 
ATOM     40  C   UNL A   1      42.791  22.168  28.055  1.00  0.00     0.010 A 
ATOM     41  C   UNL A   1      43.266  23.015  27.042  1.00  0.00    -0.014 A 
BRANCH  41  42
ATOM     42  C   UNL A   1      43.764  24.358  27.435  1.00  0.00     0.031 A 
ATOM     43  C   UNL A   1      42.789  25.373  27.960  1.00  0.00     0.074 A 
ATOM     44  C   UNL A   1      45.040  24.709  27.183  1.00  0.00     0.049 A 
ATOM     45  N   UNL A   1      42.929  26.666  28.100  1.00  0.00    -0.248 NA
ATOM     46  C   UNL A   1      41.457  24.868  28.330  1.00  0.00     0.031 C 
ATOM     47  C   UNL A   1      46.077  23.826  26.645  1.00  0.00     0.029 A 
ATOM     48  N   UNL A   1      45.673  25.921  27.312  1.00  0.00    -0.354 N 
ATOM     49  C   UNL A   1      41.691  27.133  28.521  1.00  0.00     0.074 A 
ATOM     50  C   UNL A   1      40.804  25.992  28.581  1.00  0.00     0.031 C 
ATOM     51  C   UNL A   1      47.215  24.522  26.497  1.00  0.00     0.029 A 
ATOM     52  C   UNL A   1      46.976  25.911  26.873  1.00  0.00     0.049 A 
ATOM     53  H   UNL A   1      45.236  26.721  27.684  1.00  0.00     0.167 HD
ATOM     54  C   UNL A   1      41.332  28.398  28.840  1.00  0.00     0.037 A 
ATOM     55  C   UNL A   1      47.865  26.916  26.760  1.00  0.00     0.037 A 
ATOM     56  C   UNL A   1      42.237  29.515  28.833  1.00  0.00     0.049 A 
ATOM     57  C   UNL A   1      47.450  28.311  27.147  1.00  0.00     0.074 A 
ATOM     58  C   UNL A   1      41.992  30.826  29.202  1.00  0.00     0.029 A 
ATOM     59  N   UNL A   1      43.567  29.448  28.447  1.00  0.00    -0.354 N 
ATOM     60  N   UNL A   1      46.287  28.738  27.572  1.00  0.00    -0.248 NA
ATOM     61  C   UNL A   1      48.471  29.362  27.036  1.00  0.00     0.031 C 
ATOM     62  C   UNL A   1      43.168  31.558  29.014  1.00  0.00     0.029 A 
ATOM     63  C   UNL A   1      44.156  30.696  28.566  1.00  0.00     0.049 A 
ATOM     64  H   UNL A   1      44.025  28.634  28.136  1.00  0.00     0.167 HD
ATOM     65  C   UNL A   1      46.444  30.096  27.813  1.00  0.00     0.074 A 
ATOM     66  C   UNL A   1      47.815  30.423  27.486  1.00  0.00     0.031 C 
ATOM     67  C   UNL A   1      45.533  30.991  28.267  1.00  0.00     0.037 A 
BRANCH  54  68
ATOM     68  C   UNL A   1      39.903  28.640  29.225  1.00  0.00     0.064 A 
ATOM     69  C   UNL A   1      39.449  28.436  30.537  1.00  0.00     0.173 A 
ATOM     70  C   UNL A   1      38.981  29.107  28.276  1.00  0.00     0.173 A 
ATOM     71  F   UNL A   1      40.288  27.977  31.479  1.00  0.00    -0.203 F 
ATOM     72  C   UNL A   1      38.118  28.661  30.877  1.00  0.00     0.198 A 
ATOM     73  C   UNL A   1      37.657  29.360  28.627  1.00  0.00     0.198 A 
ATOM     74  F   UNL A   1      39.363  29.321  27.009  1.00  0.00    -0.203 F 
ATOM     75  F   UNL A   1      37.695  28.409  32.124  1.00  0.00    -0.200 F 
ATOM     76  C   UNL A   1      37.225  29.130  29.924  1.00  0.00     0.200 A 
ATOM     77  F   UNL A   1      36.800  29.825  27.709  1.00  0.00    -0.200 F 
ATOM     78  F   UNL A   1      35.946  29.351  30.255  1.00  0.00    -0.200 F 
ENDBRANCH  54  68
BRANCH  55  79
ATOM     79  C   UNL A   1      49.241  26.639  26.272  1.00  0.00     0.064 A 
ATOM     80  C   UNL A   1      49.581  26.865  24.931  1.00  0.00     0.173 A 
ATOM     81  C   UNL A   1      50.239  26.148  27.125  1.00  0.00     0.173 A 
ATOM     82  F   UNL A   1      48.654  27.315  24.072  1.00  0.00    -0.203 F 
ATOM     83  C   UNL A   1      50.863  26.596  24.458  1.00  0.00     0.198 A 
ATOM     84  C   UNL A   1      51.529  25.903  26.657  1.00  0.00     0.198 A 
ATOM     85  F   UNL A   1      49.966  25.920  28.418  1.00  0.00    -0.203 F 
ATOM     86  F   UNL A   1      51.150  26.784  23.163  1.00  0.00    -0.200 F 
ATOM     87  C   UNL A   1      51.837  26.120  25.322  1.00  0.00     0.200 A 
ATOM     88  F   UNL A   1      52.472  25.457  27.498  1.00  0.00    -0.200 F 
ATOM     89  F   UNL A   1      53.072  25.866  24.868  1.00  0.00    -0.200 F 
ENDBRANCH  55  79
BRANCH  67  90
ATOM     90  C   UNL A   1      45.998  32.395  28.501  1.00  0.00     0.064 A 
ATOM     91  C   UNL A   1      46.571  32.788  29.716  1.00  0.00     0.173 A 
ATOM     92  C   UNL A   1      45.941  33.336  27.460  1.00  0.00     0.173 A 
ATOM     93  F   UNL A   1      46.634  31.927  30.743  1.00  0.00    -0.203 F 
ATOM     94  C   UNL A   1      47.066  34.078  29.887  1.00  0.00     0.198 A 
ATOM     95  C   UNL A   1      46.458  34.617  27.627  1.00  0.00     0.198 A 
ATOM     96  F   UNL A   1      45.406  33.003  26.276  1.00  0.00    -0.203 F 
ATOM     97  F   UNL A   1      47.588  34.443  31.065  1.00  0.00    -0.200 F 
ATOM     98  C   UNL A   1      47.019  34.988  28.839  1.00  0.00     0.200 A 
ATOM     99  F   UNL A   1      46.422  35.490  26.610  1.00  0.00    -0.200 F 
ATOM    100  F   UNL A   1      47.512  36.223  29.001  1.00  0.00    -0.200 F 
ENDBRANCH  67  90
ENDBRANCH  41  42
ENDBRANCH  33  36
ENDBRANCH  31  32
ENDBRANCH   1  31
TORSDOF 13
ENDMDL
