MODEL 1
REMARK VINA RESULT:     -12.1      0.000      0.000
REMARK SMILES CC(C)C[C@H](Nc1ncnc2scc(-c3ccccc3)c12)C(=O)NCCCNC(=O)c1ccc(-c2c3nc(c(-c4c(F)c(F)c(F)c(F)c4F)c4ccc([nH]4)c(-c4c(F)c(F)c(F)c(F)c4F)c4nc(c(-c5c(F)c(F)c(F)c(F)c5F)c5ccc2[nH]5)C=C4)C=C3)cc1
REMARK SMILES IDX 25 1 24 2 22 3 23 4 5 6 4 7 2 8 1 9 3 10 6 11 7 13 8 14
REMARK SMILES IDX 21 15 9 16 11 17 14 18 10 19 12 20 13 21 15 22 16 23 20 24
REMARK SMILES IDX 17 25 19 26 18 27 26 28 27 29 28 30 29 31 30 33 31 34 32 35
REMARK SMILES IDX 93 36 33 37 92 38 34 39 35 40 36 41 86 42 37 43 91 44 85 45
REMARK SMILES IDX 87 46 38 47 90 48 84 49 83 50 39 52 71 53 51 54 70 55 52 56
REMARK SMILES IDX 55 57 69 58 88 59 53 60 54 61 68 63 89 64 56 65 40 66 41 67
REMARK SMILES IDX 49 68 42 69 43 70 47 71 50 72 44 73 45 74 48 75 46 76 72 77
REMARK SMILES IDX 73 78 81 79 74 80 75 81 79 82 82 83 76 84 77 85 80 86 78 87
REMARK SMILES IDX 57 88 58 89 66 90 59 91 60 92 64 93 67 94 61 95 62 96 65 97
REMARK SMILES IDX 63 98
REMARK H PARENT 24 5 6 12 28 32 87 51 55 62
REMARK Flexibility Score: inf
ROOT
ATOM      1  C   UNL A   1      31.466  30.188  25.455  1.00  0.00     0.117 C 
ENDROOT
BRANCH   1   2
ATOM      2  N   UNL A   1      32.752  30.090  24.782  1.00  0.00    -0.354 N 
ATOM      3  C   UNL A   1      33.259  29.154  23.927  1.00  0.00     0.242 C 
ATOM      4  O   UNL A   1      34.382  29.394  23.466  1.00  0.00    -0.273 OA
ATOM      5  H   UNL A   1      33.367  30.833  24.978  1.00  0.00     0.163 HD
BRANCH   3   6
ATOM      6  C   UNL A   1      32.530  27.840  23.564  1.00  0.00     0.170 C 
BRANCH   6   7
ATOM      7  C   UNL A   1      33.336  26.528  23.740  1.00  0.00     0.038 C 
BRANCH   7   8
ATOM      8  C   UNL A   1      34.069  26.239  25.071  1.00  0.00    -0.015 C 
ATOM      9  C   UNL A   1      33.246  26.624  26.309  1.00  0.00     0.007 C 
ATOM     10  C   UNL A   1      34.445  24.760  25.195  1.00  0.00     0.007 C 
ENDBRANCH   7   8
ENDBRANCH   6   7
BRANCH   6  11
ATOM     11  N   UNL A   1      31.668  28.040  22.376  1.00  0.00    -0.358 N 
ATOM     12  H   UNL A   1      32.037  27.734  21.516  1.00  0.00     0.162 HD
BRANCH  11  13
ATOM     13  C   UNL A   1      30.422  28.603  22.333  1.00  0.00     0.139 A 
ATOM     14  N   UNL A   1      30.310  29.795  21.708  1.00  0.00    -0.219 NA
ATOM     15  C   UNL A   1      29.255  28.023  22.915  1.00  0.00     0.062 A 
ATOM     16  C   UNL A   1      29.122  30.388  21.601  1.00  0.00     0.225 A 
ATOM     17  C   UNL A   1      28.105  28.802  22.773  1.00  0.00     0.129 A 
ATOM     18  C   UNL A   1      28.938  26.806  23.690  1.00  0.00     0.006 A 
ATOM     19  N   UNL A   1      27.979  29.966  22.118  1.00  0.00    -0.225 NA
ATOM     20  S   UNL A   1      26.744  28.181  23.574  1.00  0.00    -0.123 S 
ATOM     21  C   UNL A   1      27.627  26.853  24.147  1.00  0.00     0.076 A 
BRANCH  18  22
ATOM     22  C   UNL A   1      29.759  25.664  24.152  1.00  0.00    -0.017 A 
ATOM     23  C   UNL A   1      30.274  24.732  23.233  1.00  0.00     0.009 A 
ATOM     24  C   UNL A   1      29.950  25.386  25.505  1.00  0.00     0.009 A 
ATOM     25  C   UNL A   1      30.917  23.564  23.662  1.00  0.00     0.001 A 
ATOM     26  C   UNL A   1      30.616  24.237  25.945  1.00  0.00     0.001 A 
ATOM     27  C   UNL A   1      31.087  23.317  25.020  1.00  0.00     0.000 A 
ENDBRANCH  18  22
ENDBRANCH  11  13
ENDBRANCH   6  11
ENDBRANCH   3   6
ENDBRANCH   1   2
BRANCH   1  28
ATOM     28  C   UNL A   1      31.218  31.516  26.151  1.00  0.00     0.042 C 
BRANCH  28  29
ATOM     29  C   UNL A   1      32.418  32.047  26.909  1.00  0.00     0.118 C 
BRANCH  29  30
ATOM     30  N   UNL A   1      32.277  33.460  27.217  1.00  0.00    -0.352 N 
ATOM     31  C   UNL A   1      32.937  34.214  28.153  1.00  0.00     0.251 C 
ATOM     32  H   UNL A   1      31.612  33.947  26.677  1.00  0.00     0.163 HD
ATOM     33  O   UNL A   1      32.503  35.329  28.458  1.00  0.00    -0.269 OA
BRANCH  31  34
ATOM     34  C   UNL A   1      34.154  33.696  28.814  1.00  0.00     0.039 A 
ATOM     35  C   UNL A   1      35.375  34.345  28.604  1.00  0.00     0.014 A 
ATOM     36  C   UNL A   1      34.107  32.551  29.612  1.00  0.00     0.014 A 
ATOM     37  C   UNL A   1      36.530  33.871  29.233  1.00  0.00     0.010 A 
ATOM     38  C   UNL A   1      35.231  32.150  30.325  1.00  0.00     0.010 A 
ATOM     39  C   UNL A   1      36.462  32.786  30.121  1.00  0.00    -0.014 A 
BRANCH  39  40
ATOM     40  C   UNL A   1      37.672  32.255  30.801  1.00  0.00     0.031 A 
ATOM     41  C   UNL A   1      38.507  31.200  30.123  1.00  0.00     0.074 A 
ATOM     42  C   UNL A   1      37.986  32.667  32.044  1.00  0.00     0.049 A 
ATOM     43  N   UNL A   1      39.539  30.535  30.580  1.00  0.00    -0.248 NA
ATOM     44  C   UNL A   1      38.104  30.810  28.762  1.00  0.00     0.031 C 
ATOM     45  C   UNL A   1      37.232  33.644  32.829  1.00  0.00     0.029 A 
ATOM     46  N   UNL A   1      39.021  32.305  32.870  1.00  0.00    -0.354 N 
ATOM     47  C   UNL A   1      39.883  29.636  29.579  1.00  0.00     0.074 A 
ATOM     48  C   UNL A   1      38.917  29.795  28.514  1.00  0.00     0.031 C 
ATOM     49  C   UNL A   1      37.844  33.827  34.010  1.00  0.00     0.029 A 
ATOM     50  C   UNL A   1      39.010  32.951  34.082  1.00  0.00     0.049 A 
ATOM     51  H   UNL A   1      39.705  31.644  32.619  1.00  0.00     0.167 HD
ATOM     52  C   UNL A   1      40.928  28.775  29.534  1.00  0.00     0.037 A 
ATOM     53  C   UNL A   1      39.846  32.846  35.133  1.00  0.00     0.037 A 
ATOM     54  C   UNL A   1      41.919  28.657  30.570  1.00  0.00     0.049 A 
ATOM     55  C   UNL A   1      41.014  31.900  35.050  1.00  0.00     0.074 A 
ATOM     56  C   UNL A   1      43.056  27.869  30.591  1.00  0.00     0.029 A 
ATOM     57  N   UNL A   1      41.892  29.355  31.768  1.00  0.00    -0.354 N 
ATOM     58  N   UNL A   1      41.364  31.100  34.072  1.00  0.00    -0.248 NA
ATOM     59  C   UNL A   1      41.908  31.850  36.215  1.00  0.00     0.031 C 
ATOM     60  C   UNL A   1      43.698  28.062  31.819  1.00  0.00     0.029 A 
ATOM     61  C   UNL A   1      42.985  29.005  32.543  1.00  0.00     0.049 A 
ATOM     62  H   UNL A   1      41.199  30.005  32.029  1.00  0.00     0.167 HD
ATOM     63  C   UNL A   1      42.529  30.473  34.491  1.00  0.00     0.074 A 
ATOM     64  C   UNL A   1      42.836  30.996  35.805  1.00  0.00     0.031 C 
ATOM     65  C   UNL A   1      43.278  29.545  33.845  1.00  0.00     0.037 A 
BRANCH  52  66
ATOM     66  C   UNL A   1      41.059  27.903  28.319  1.00  0.00     0.064 A 
ATOM     67  C   UNL A   1      41.811  28.303  27.203  1.00  0.00     0.173 A 
ATOM     68  C   UNL A   1      40.450  26.640  28.280  1.00  0.00     0.173 A 
ATOM     69  F   UNL A   1      42.402  29.507  27.184  1.00  0.00    -0.203 F 
ATOM     70  C   UNL A   1      41.919  27.485  26.081  1.00  0.00     0.198 A 
ATOM     71  C   UNL A   1      40.588  25.811  27.169  1.00  0.00     0.198 A 
ATOM     72  F   UNL A   1      39.724  26.206  29.322  1.00  0.00    -0.203 F 
ATOM     73  F   UNL A   1      42.597  27.912  25.007  1.00  0.00    -0.200 F 
ATOM     74  C   UNL A   1      41.315  26.238  26.068  1.00  0.00     0.200 A 
ATOM     75  F   UNL A   1      40.013  24.601  27.163  1.00  0.00    -0.200 F 
ATOM     76  F   UNL A   1      41.425  25.449  24.990  1.00  0.00    -0.200 F 
ENDBRANCH  52  66
BRANCH  53  77
ATOM     77  C   UNL A   1      39.628  33.682  36.341  1.00  0.00     0.064 A 
ATOM     78  C   UNL A   1      38.831  33.220  37.399  1.00  0.00     0.173 A 
ATOM     79  C   UNL A   1      40.205  34.953  36.465  1.00  0.00     0.173 A 
ATOM     80  F   UNL A   1      38.242  32.018  37.318  1.00  0.00    -0.203 F 
ATOM     81  C   UNL A   1      38.603  34.008  38.525  1.00  0.00     0.198 A 
ATOM     82  C   UNL A   1      39.997  35.729  37.605  1.00  0.00     0.198 A 
ATOM     83  F   UNL A   1      40.979  35.439  35.484  1.00  0.00    -0.203 F 
ATOM     84  F   UNL A   1      37.801  33.560  39.501  1.00  0.00    -0.200 F 
ATOM     85  C   UNL A   1      39.190  35.259  38.630  1.00  0.00     0.200 A 
ATOM     86  F   UNL A   1      40.577  36.933  37.707  1.00  0.00    -0.200 F 
ATOM     87  F   UNL A   1      38.972  36.015  39.714  1.00  0.00    -0.200 F 
ENDBRANCH  53  77
BRANCH  65  88
ATOM     88  C   UNL A   1      44.520  29.063  34.534  1.00  0.00     0.064 A 
ATOM     89  C   UNL A   1      45.746  29.726  34.387  1.00  0.00     0.173 A 
ATOM     90  C   UNL A   1      44.472  27.949  35.386  1.00  0.00     0.173 A 
ATOM     91  F   UNL A   1      45.848  30.787  33.572  1.00  0.00    -0.203 F 
ATOM     92  C   UNL A   1      46.886  29.278  35.051  1.00  0.00     0.198 A 
ATOM     93  C   UNL A   1      45.605  27.521  36.071  1.00  0.00     0.198 A 
ATOM     94  F   UNL A   1      43.320  27.285  35.566  1.00  0.00    -0.203 F 
ATOM     95  F   UNL A   1      48.057  29.900  34.862  1.00  0.00    -0.200 F 
ATOM     96  C   UNL A   1      46.812  28.181  35.897  1.00  0.00     0.200 A 
ATOM     97  F   UNL A   1      45.530  26.470  36.898  1.00  0.00    -0.200 F 
ATOM     98  F   UNL A   1      47.907  27.756  36.541  1.00  0.00    -0.200 F 
ENDBRANCH  65  88
ENDBRANCH  39  40
ENDBRANCH  31  34
ENDBRANCH  29  30
ENDBRANCH  28  29
ENDBRANCH   1  28
TORSDOF 15
ENDMDL
MODEL 2
REMARK VINA RESULT:     -11.7      3.457      8.819
REMARK SMILES CC(C)C[C@H](Nc1ncnc2scc(-c3ccccc3)c12)C(=O)NCCCNC(=O)c1ccc(-c2c3nc(c(-c4c(F)c(F)c(F)c(F)c4F)c4ccc([nH]4)c(-c4c(F)c(F)c(F)c(F)c4F)c4nc(c(-c5c(F)c(F)c(F)c(F)c5F)c5ccc2[nH]5)C=C4)C=C3)cc1
REMARK SMILES IDX 25 1 24 2 22 3 23 4 5 6 4 7 2 8 1 9 3 10 6 11 7 13 8 14
REMARK SMILES IDX 21 15 9 16 11 17 14 18 10 19 12 20 13 21 15 22 16 23 20 24
REMARK SMILES IDX 17 25 19 26 18 27 26 28 27 29 28 30 29 31 30 33 31 34 32 35
REMARK SMILES IDX 93 36 33 37 92 38 34 39 35 40 36 41 86 42 37 43 91 44 85 45
REMARK SMILES IDX 87 46 38 47 90 48 84 49 83 50 39 52 71 53 51 54 70 55 52 56
REMARK SMILES IDX 55 57 69 58 88 59 53 60 54 61 68 63 89 64 56 65 40 66 41 67
REMARK SMILES IDX 49 68 42 69 43 70 47 71 50 72 44 73 45 74 48 75 46 76 72 77
REMARK SMILES IDX 73 78 81 79 74 80 75 81 79 82 82 83 76 84 77 85 80 86 78 87
REMARK SMILES IDX 57 88 58 89 66 90 59 91 60 92 64 93 67 94 61 95 62 96 65 97
REMARK SMILES IDX 63 98
REMARK H PARENT 24 5 6 12 28 32 87 51 55 62
REMARK Flexibility Score: inf
ROOT
ATOM      1  C   UNL A   1      32.829  26.148  26.484  1.00  0.00     0.117 C 
ENDROOT
BRANCH   1   2
ATOM      2  N   UNL A   1      31.666  25.358  26.856  1.00  0.00    -0.354 N 
ATOM      3  C   UNL A   1      30.857  24.534  26.126  1.00  0.00     0.242 C 
ATOM      4  O   UNL A   1      29.972  23.945  26.759  1.00  0.00    -0.273 OA
ATOM      5  H   UNL A   1      31.416  25.431  27.805  1.00  0.00     0.163 HD
BRANCH   3   6
ATOM      6  C   UNL A   1      30.975  24.354  24.595  1.00  0.00     0.170 C 
BRANCH   6   7
ATOM      7  C   UNL A   1      30.085  25.271  23.718  1.00  0.00     0.038 C 
BRANCH   7   8
ATOM      8  C   UNL A   1      29.472  26.559  24.314  1.00  0.00    -0.015 C 
ATOM      9  C   UNL A   1      30.235  27.830  23.917  1.00  0.00     0.007 C 
ATOM     10  C   UNL A   1      28.010  26.733  23.890  1.00  0.00     0.007 C 
ENDBRANCH   7   8
ENDBRANCH   6   7
BRANCH   6  11
ATOM     11  N   UNL A   1      31.144  22.922  24.257  1.00  0.00    -0.358 N 
ATOM     12  H   UNL A   1      30.426  22.515  23.719  1.00  0.00     0.162 HD
BRANCH  11  13
ATOM     13  C   UNL A   1      32.178  22.097  24.607  1.00  0.00     0.139 A 
ATOM     14  N   UNL A   1      31.868  21.002  25.334  1.00  0.00    -0.219 NA
ATOM     15  C   UNL A   1      33.545  22.330  24.269  1.00  0.00     0.062 A 
ATOM     16  C   UNL A   1      32.819  20.137  25.685  1.00  0.00     0.225 A 
ATOM     17  C   UNL A   1      34.423  21.367  24.769  1.00  0.00     0.129 A 
ATOM     18  C   UNL A   1      34.306  23.372  23.551  1.00  0.00     0.006 A 
ATOM     19  N   UNL A   1      34.117  20.256  25.456  1.00  0.00    -0.225 NA
ATOM     20  S   UNL A   1      36.060  21.707  24.483  1.00  0.00    -0.123 S 
ATOM     21  C   UNL A   1      35.672  23.151  23.686  1.00  0.00     0.076 A 
BRANCH  18  22
ATOM     22  C   UNL A   1      33.904  24.617  22.857  1.00  0.00    -0.017 A 
ATOM     23  C   UNL A   1      34.141  25.873  23.443  1.00  0.00     0.009 A 
ATOM     24  C   UNL A   1      33.167  24.602  21.674  1.00  0.00     0.009 A 
ATOM     25  C   UNL A   1      33.629  27.049  22.878  1.00  0.00     0.001 A 
ATOM     26  C   UNL A   1      32.675  25.772  21.085  1.00  0.00     0.001 A 
ATOM     27  C   UNL A   1      32.895  26.997  21.698  1.00  0.00     0.000 A 
ENDBRANCH  18  22
ENDBRANCH  11  13
ENDBRANCH   6  11
ENDBRANCH   3   6
ENDBRANCH   1   2
BRANCH   1  28
ATOM     28  C   UNL A   1      32.658  27.647  26.663  1.00  0.00     0.042 C 
BRANCH  28  29
ATOM     29  C   UNL A   1      33.924  28.444  26.421  1.00  0.00     0.118 C 
BRANCH  29  30
ATOM     30  N   UNL A   1      33.740  29.852  26.734  1.00  0.00    -0.352 N 
ATOM     31  C   UNL A   1      34.470  30.655  27.573  1.00  0.00     0.251 C 
ATOM     32  H   UNL A   1      32.985  30.291  26.280  1.00  0.00     0.163 HD
ATOM     33  O   UNL A   1      34.014  31.747  27.923  1.00  0.00    -0.269 OA
BRANCH  31  34
ATOM     34  C   UNL A   1      35.790  30.217  28.075  1.00  0.00     0.039 A 
ATOM     35  C   UNL A   1      35.888  29.675  29.361  1.00  0.00     0.014 A 
ATOM     36  C   UNL A   1      36.941  30.370  27.299  1.00  0.00     0.014 A 
ATOM     37  C   UNL A   1      37.127  29.247  29.842  1.00  0.00     0.010 A 
ATOM     38  C   UNL A   1      38.151  29.840  27.734  1.00  0.00     0.010 A 
ATOM     39  C   UNL A   1      38.266  29.300  29.021  1.00  0.00    -0.014 A 
BRANCH  39  40
ATOM     40  C   UNL A   1      39.599  28.857  29.504  1.00  0.00     0.031 A 
ATOM     41  C   UNL A   1      40.350  29.702  30.500  1.00  0.00     0.074 A 
ATOM     42  C   UNL A   1      40.163  27.741  29.006  1.00  0.00     0.049 A 
ATOM     43  N   UNL A   1      41.563  29.550  30.973  1.00  0.00    -0.248 NA
ATOM     44  C   UNL A   1      39.662  30.903  31.003  1.00  0.00     0.031 C 
ATOM     45  C   UNL A   1      39.563  26.863  28.001  1.00  0.00     0.029 A 
ATOM     46  N   UNL A   1      41.377  27.157  29.273  1.00  0.00    -0.354 N 
ATOM     47  C   UNL A   1      41.786  30.644  31.798  1.00  0.00     0.074 A 
ATOM     48  C   UNL A   1      40.612  31.485  31.718  1.00  0.00     0.031 C 
ATOM     49  C   UNL A   1      40.396  25.839  27.758  1.00  0.00     0.029 A 
ATOM     50  C   UNL A   1      41.605  26.007  28.559  1.00  0.00     0.049 A 
ATOM     51  H   UNL A   1      42.024  27.529  29.916  1.00  0.00     0.167 HD
ATOM     52  C   UNL A   1      42.860  30.913  32.579  1.00  0.00     0.037 A 
ATOM     53  C   UNL A   1      42.671  25.183  28.551  1.00  0.00     0.037 A 
ATOM     54  C   UNL A   1      44.004  30.049  32.699  1.00  0.00     0.049 A 
ATOM     55  C   UNL A   1      43.842  25.490  29.445  1.00  0.00     0.074 A 
ATOM     56  C   UNL A   1      45.112  30.192  33.516  1.00  0.00     0.029 A 
ATOM     57  N   UNL A   1      44.181  28.874  31.984  1.00  0.00    -0.354 N 
ATOM     58  N   UNL A   1      44.016  26.495  30.267  1.00  0.00    -0.248 NA
ATOM     59  C   UNL A   1      44.963  24.540  29.415  1.00  0.00     0.031 C 
ATOM     60  C   UNL A   1      45.978  29.122  33.268  1.00  0.00     0.029 A 
ATOM     61  C   UNL A   1      45.388  28.289  32.330  1.00  0.00     0.049 A 
ATOM     62  H   UNL A   1      43.544  28.509  31.329  1.00  0.00     0.167 HD
ATOM     63  C   UNL A   1      45.248  26.287  30.871  1.00  0.00     0.074 A 
ATOM     64  C   UNL A   1      45.773  25.051  30.331  1.00  0.00     0.031 C 
ATOM     65  C   UNL A   1      45.889  27.052  31.789  1.00  0.00     0.037 A 
BRANCH  52  66
ATOM     66  C   UNL A   1      42.842  32.187  33.373  1.00  0.00     0.064 A 
ATOM     67  C   UNL A   1      42.299  32.241  34.667  1.00  0.00     0.173 A 
ATOM     68  C   UNL A   1      43.400  33.362  32.847  1.00  0.00     0.173 A 
ATOM     69  F   UNL A   1      41.742  31.149  35.210  1.00  0.00    -0.203 F 
ATOM     70  C   UNL A   1      42.285  33.431  35.389  1.00  0.00     0.198 A 
ATOM     71  C   UNL A   1      43.412  34.543  33.586  1.00  0.00     0.198 A 
ATOM     72  F   UNL A   1      43.937  33.365  31.617  1.00  0.00    -0.203 F 
ATOM     73  F   UNL A   1      41.712  33.471  36.600  1.00  0.00    -0.200 F 
ATOM     74  C   UNL A   1      42.848  34.578  34.852  1.00  0.00     0.200 A 
ATOM     75  F   UNL A   1      43.968  35.647  33.070  1.00  0.00    -0.200 F 
ATOM     76  F   UNL A   1      42.839  35.722  35.551  1.00  0.00    -0.200 F 
ENDBRANCH  52  66
BRANCH  53  77
ATOM     77  C   UNL A   1      42.666  23.973  27.690  1.00  0.00     0.064 A 
ATOM     78  C   UNL A   1      43.025  24.053  26.337  1.00  0.00     0.173 A 
ATOM     79  C   UNL A   1      42.303  22.717  28.196  1.00  0.00     0.173 A 
ATOM     80  F   UNL A   1      43.361  25.236  25.803  1.00  0.00    -0.203 F 
ATOM     81  C   UNL A   1      43.001  22.926  25.518  1.00  0.00     0.198 A 
ATOM     82  C   UNL A   1      42.305  21.586  27.381  1.00  0.00     0.198 A 
ATOM     83  F   UNL A   1      41.957  22.585  29.485  1.00  0.00    -0.203 F 
ATOM     84  F   UNL A   1      43.305  23.040  24.218  1.00  0.00    -0.200 F 
ATOM     85  C   UNL A   1      42.646  21.693  26.041  1.00  0.00     0.200 A 
ATOM     86  F   UNL A   1      41.974  20.393  27.896  1.00  0.00    -0.200 F 
ATOM     87  F   UNL A   1      42.625  20.609  25.254  1.00  0.00    -0.200 F 
ENDBRANCH  53  77
BRANCH  65  88
ATOM     88  C   UNL A   1      47.211  26.557  32.295  1.00  0.00     0.064 A 
ATOM     89  C   UNL A   1      47.298  25.669  33.376  1.00  0.00     0.173 A 
ATOM     90  C   UNL A   1      48.402  26.941  31.662  1.00  0.00     0.173 A 
ATOM     91  F   UNL A   1      46.188  25.283  34.025  1.00  0.00    -0.203 F 
ATOM     92  C   UNL A   1      48.532  25.201  33.820  1.00  0.00     0.198 A 
ATOM     93  C   UNL A   1      49.632  26.450  32.088  1.00  0.00     0.198 A 
ATOM     94  F   UNL A   1      48.371  27.783  30.617  1.00  0.00    -0.203 F 
ATOM     95  F   UNL A   1      48.596  24.388  34.883  1.00  0.00    -0.200 F 
ATOM     96  C   UNL A   1      49.697  25.586  33.172  1.00  0.00     0.200 A 
ATOM     97  F   UNL A   1      50.754  26.811  31.453  1.00  0.00    -0.200 F 
ATOM     98  F   UNL A   1      50.883  25.129  33.595  1.00  0.00    -0.200 F 
ENDBRANCH  65  88
ENDBRANCH  39  40
ENDBRANCH  31  34
ENDBRANCH  29  30
ENDBRANCH  28  29
ENDBRANCH   1  28
TORSDOF 15
ENDMDL
MODEL 3
REMARK VINA RESULT:     -11.7      2.677      8.271
REMARK SMILES CC(C)C[C@H](Nc1ncnc2scc(-c3ccccc3)c12)C(=O)NCCCNC(=O)c1ccc(-c2c3nc(c(-c4c(F)c(F)c(F)c(F)c4F)c4ccc([nH]4)c(-c4c(F)c(F)c(F)c(F)c4F)c4nc(c(-c5c(F)c(F)c(F)c(F)c5F)c5ccc2[nH]5)C=C4)C=C3)cc1
REMARK SMILES IDX 25 1 24 2 22 3 23 4 5 6 4 7 2 8 1 9 3 10 6 11 7 13 8 14
REMARK SMILES IDX 21 15 9 16 11 17 14 18 10 19 12 20 13 21 15 22 16 23 20 24
REMARK SMILES IDX 17 25 19 26 18 27 26 28 27 29 28 30 29 31 30 33 31 34 32 35
REMARK SMILES IDX 93 36 33 37 92 38 34 39 35 40 36 41 86 42 37 43 91 44 85 45
REMARK SMILES IDX 87 46 38 47 90 48 84 49 83 50 39 52 71 53 51 54 70 55 52 56
REMARK SMILES IDX 55 57 69 58 88 59 53 60 54 61 68 63 89 64 56 65 40 66 41 67
REMARK SMILES IDX 49 68 42 69 43 70 47 71 50 72 44 73 45 74 48 75 46 76 72 77
REMARK SMILES IDX 73 78 81 79 74 80 75 81 79 82 82 83 76 84 77 85 80 86 78 87
REMARK SMILES IDX 57 88 58 89 66 90 59 91 60 92 64 93 67 94 61 95 62 96 65 97
REMARK SMILES IDX 63 98
REMARK H PARENT 24 5 6 12 28 32 87 51 55 62
REMARK Flexibility Score: inf
ROOT
ATOM      1  C   UNL A   1      32.498  26.689  26.433  1.00  0.00     0.117 C 
ENDROOT
BRANCH   1   2
ATOM      2  N   UNL A   1      31.418  25.794  26.817  1.00  0.00    -0.354 N 
ATOM      3  C   UNL A   1      30.748  24.829  26.120  1.00  0.00     0.242 C 
ATOM      4  O   UNL A   1      29.907  24.184  26.759  1.00  0.00    -0.273 OA
ATOM      5  H   UNL A   1      31.116  25.903  27.747  1.00  0.00     0.163 HD
BRANCH   3   6
ATOM      6  C   UNL A   1      30.961  24.557  24.612  1.00  0.00     0.170 C 
BRANCH   6   7
ATOM      7  C   UNL A   1      30.175  25.458  23.627  1.00  0.00     0.038 C 
BRANCH   7   8
ATOM      8  C   UNL A   1      29.475  26.741  24.136  1.00  0.00    -0.015 C 
ATOM      9  C   UNL A   1      30.028  28.023  23.498  1.00  0.00     0.007 C 
ATOM     10  C   UNL A   1      27.966  26.696  23.877  1.00  0.00     0.007 C 
ENDBRANCH   7   8
ENDBRANCH   6   7
BRANCH   6  11
ATOM     11  N   UNL A   1      31.086  23.103  24.365  1.00  0.00    -0.358 N 
ATOM     12  H   UNL A   1      30.334  22.675  23.895  1.00  0.00     0.162 HD
BRANCH  11  13
ATOM     13  C   UNL A   1      32.124  22.282  24.716  1.00  0.00     0.139 A 
ATOM     14  N   UNL A   1      31.831  21.233  25.515  1.00  0.00    -0.219 NA
ATOM     15  C   UNL A   1      33.477  22.474  24.306  1.00  0.00     0.062 A 
ATOM     16  C   UNL A   1      32.785  20.375  25.873  1.00  0.00     0.225 A 
ATOM     17  C   UNL A   1      34.364  21.526  24.821  1.00  0.00     0.129 A 
ATOM     18  C   UNL A   1      34.220  23.463  23.499  1.00  0.00     0.006 A 
ATOM     19  N   UNL A   1      34.073  20.460  25.582  1.00  0.00    -0.225 NA
ATOM     20  S   UNL A   1      35.991  21.824  24.446  1.00  0.00    -0.123 S 
ATOM     21  C   UNL A   1      35.588  23.228  23.587  1.00  0.00     0.076 A 
BRANCH  18  22
ATOM     22  C   UNL A   1      33.804  24.673  22.755  1.00  0.00    -0.017 A 
ATOM     23  C   UNL A   1      34.033  25.955  23.285  1.00  0.00     0.009 A 
ATOM     24  C   UNL A   1      33.063  24.602  21.576  1.00  0.00     0.009 A 
ATOM     25  C   UNL A   1      33.509  27.101  22.673  1.00  0.00     0.001 A 
ATOM     26  C   UNL A   1      32.559  25.741  20.940  1.00  0.00     0.001 A 
ATOM     27  C   UNL A   1      32.771  26.993  21.499  1.00  0.00     0.000 A 
ENDBRANCH  18  22
ENDBRANCH  11  13
ENDBRANCH   6  11
ENDBRANCH   3   6
ENDBRANCH   1   2
BRANCH   1  28
ATOM     28  C   UNL A   1      32.120  28.161  26.410  1.00  0.00     0.042 C 
BRANCH  28  29
ATOM     29  C   UNL A   1      33.191  29.062  25.830  1.00  0.00     0.118 C 
BRANCH  29  30
ATOM     30  N   UNL A   1      32.917  30.464  26.099  1.00  0.00    -0.352 N 
ATOM     31  C   UNL A   1      33.466  31.289  27.046  1.00  0.00     0.251 C 
ATOM     32  H   UNL A   1      32.240  30.881  25.518  1.00  0.00     0.163 HD
ATOM     33  O   UNL A   1      32.926  32.367  27.306  1.00  0.00    -0.269 OA
BRANCH  31  34
ATOM     34  C   UNL A   1      34.691  30.889  27.773  1.00  0.00     0.039 A 
ATOM     35  C   UNL A   1      35.779  31.766  27.815  1.00  0.00     0.014 A 
ATOM     36  C   UNL A   1      34.787  29.637  28.385  1.00  0.00     0.014 A 
ATOM     37  C   UNL A   1      36.937  31.404  28.508  1.00  0.00     0.010 A 
ATOM     38  C   UNL A   1      35.893  29.326  29.168  1.00  0.00     0.010 A 
ATOM     39  C   UNL A   1      36.993  30.191  29.214  1.00  0.00    -0.014 A 
BRANCH  39  40
ATOM     40  C   UNL A   1      38.211  29.775  29.957  1.00  0.00     0.031 A 
ATOM     41  C   UNL A   1      38.468  30.324  31.337  1.00  0.00     0.074 A 
ATOM     42  C   UNL A   1      39.113  28.962  29.377  1.00  0.00     0.049 A 
ATOM     43  N   UNL A   1      39.512  30.169  32.113  1.00  0.00    -0.248 NA
ATOM     44  C   UNL A   1      37.429  31.199  31.906  1.00  0.00     0.031 C 
ATOM     45  C   UNL A   1      39.008  28.404  28.028  1.00  0.00     0.029 A 
ATOM     46  N   UNL A   1      40.306  28.472  29.846  1.00  0.00    -0.354 N 
ATOM     47  C   UNL A   1      39.265  30.945  33.238  1.00  0.00     0.074 A 
ATOM     48  C   UNL A   1      38.004  31.619  33.021  1.00  0.00     0.031 C 
ATOM     49  C   UNL A   1      40.076  27.625  27.790  1.00  0.00     0.029 A 
ATOM     50  C   UNL A   1      40.959  27.660  28.952  1.00  0.00     0.049 A 
ATOM     51  H   UNL A   1      40.662  28.683  30.740  1.00  0.00     0.167 HD
ATOM     52  C   UNL A   1      40.007  31.064  34.365  1.00  0.00     0.037 A 
ATOM     53  C   UNL A   1      42.139  27.018  29.057  1.00  0.00     0.037 A 
ATOM     54  C   UNL A   1      41.234  30.352  34.601  1.00  0.00     0.049 A 
ATOM     55  C   UNL A   1      42.933  27.147  30.329  1.00  0.00     0.074 A 
ATOM     56  C   UNL A   1      42.024  30.346  35.737  1.00  0.00     0.029 A 
ATOM     57  N   UNL A   1      41.844  29.510  33.682  1.00  0.00    -0.354 N 
ATOM     58  N   UNL A   1      42.660  27.836  31.410  1.00  0.00    -0.248 NA
ATOM     59  C   UNL A   1      44.198  26.401  30.398  1.00  0.00     0.031 C 
ATOM     60  C   UNL A   1      43.133  29.529  35.492  1.00  0.00     0.029 A 
ATOM     61  C   UNL A   1      43.010  28.992  34.221  1.00  0.00     0.049 A 
ATOM     62  H   UNL A   1      41.500  29.311  32.782  1.00  0.00     0.167 HD
ATOM     63  C   UNL A   1      43.699  27.586  32.296  1.00  0.00     0.074 A 
ATOM     64  C   UNL A   1      44.603  26.672  31.630  1.00  0.00     0.031 C 
ATOM     65  C   UNL A   1      43.891  28.073  33.546  1.00  0.00     0.037 A 
BRANCH  52  66
ATOM     66  C   UNL A   1      39.503  31.991  35.434  1.00  0.00     0.064 A 
ATOM     67  C   UNL A   1      38.610  31.555  36.426  1.00  0.00     0.173 A 
ATOM     68  C   UNL A   1      39.940  33.323  35.485  1.00  0.00     0.173 A 
ATOM     69  F   UNL A   1      38.152  30.294  36.414  1.00  0.00    -0.203 F 
ATOM     70  C   UNL A   1      38.148  32.427  37.407  1.00  0.00     0.198 A 
ATOM     71  C   UNL A   1      39.500  34.184  36.488  1.00  0.00     0.198 A 
ATOM     72  F   UNL A   1      40.797  33.791  34.565  1.00  0.00    -0.203 F 
ATOM     73  F   UNL A   1      37.254  32.002  38.311  1.00  0.00    -0.200 F 
ATOM     74  C   UNL A   1      38.599  33.737  37.443  1.00  0.00     0.200 A 
ATOM     75  F   UNL A   1      39.946  35.446  36.529  1.00  0.00    -0.200 F 
ATOM     76  F   UNL A   1      38.158  34.574  38.393  1.00  0.00    -0.200 F 
ENDBRANCH  52  66
BRANCH  53  77
ATOM     77  C   UNL A   1      42.625  26.171  27.938  1.00  0.00     0.064 A 
ATOM     78  C   UNL A   1      43.492  26.692  26.967  1.00  0.00     0.173 A 
ATOM     79  C   UNL A   1      42.237  24.830  27.814  1.00  0.00     0.173 A 
ATOM     80  F   UNL A   1      43.876  27.975  27.033  1.00  0.00    -0.203 F 
ATOM     81  C   UNL A   1      43.934  25.910  25.902  1.00  0.00     0.198 A 
ATOM     82  C   UNL A   1      42.701  24.041  26.763  1.00  0.00     0.198 A 
ATOM     83  F   UNL A   1      41.413  24.281  28.719  1.00  0.00    -0.203 F 
ATOM     84  F   UNL A   1      44.725  26.447  24.964  1.00  0.00    -0.200 F 
ATOM     85  C   UNL A   1      43.543  24.584  25.804  1.00  0.00     0.200 A 
ATOM     86  F   UNL A   1      42.330  22.756  26.679  1.00  0.00    -0.200 F 
ATOM     87  F   UNL A   1      43.970  23.832  24.781  1.00  0.00    -0.200 F 
ENDBRANCH  53  77
BRANCH  65  88
ATOM     88  C   UNL A   1      45.103  27.599  34.292  1.00  0.00     0.064 A 
ATOM     89  C   UNL A   1      46.309  28.312  34.261  1.00  0.00     0.173 A 
ATOM     90  C   UNL A   1      45.042  26.441  35.082  1.00  0.00     0.173 A 
ATOM     91  F   UNL A   1      46.422  29.417  33.508  1.00  0.00    -0.203 F 
ATOM     92  C   UNL A   1      47.419  27.870  34.976  1.00  0.00     0.198 A 
ATOM     93  C   UNL A   1      46.144  26.018  35.818  1.00  0.00     0.198 A 
ATOM     94  F   UNL A   1      43.908  25.728  35.150  1.00  0.00    -0.203 F 
ATOM     95  F   UNL A   1      48.576  28.542  34.897  1.00  0.00    -0.200 F 
ATOM     96  C   UNL A   1      47.334  26.729  35.759  1.00  0.00     0.200 A 
ATOM     97  F   UNL A   1      46.056  24.923  36.585  1.00  0.00    -0.200 F 
ATOM     98  F   UNL A   1      48.400  26.310  36.453  1.00  0.00    -0.200 F 
ENDBRANCH  65  88
ENDBRANCH  39  40
ENDBRANCH  31  34
ENDBRANCH  29  30
ENDBRANCH  28  29
ENDBRANCH   1  28
TORSDOF 15
ENDMDL
