MODEL 1
REMARK VINA RESULT:     -13.1      0.000      0.000
REMARK SMILES O=C(NCCCNC(=O)c1cc(Cl)cc(S(=O)(=O)N[C@@H]2CONC2=O)c1F)c1ccc(-c2c3nc(c(-c4c(F)c(F)c(F)c(F)c4F)c4ccc([nH]4)c(-c4c(F)c(F)c(F)c(F)c4F)c4nc(c(-c5c(F)c(F)c(F)c(F)c5F)c5ccc2[nH]5)C=C4)C=C3)cc1
REMARK SMILES IDX 5 1 4 2 3 3 1 4 2 5 28 7 29 8 90 9 30 10 89 11 31 12 32 13
REMARK SMILES IDX 33 14 83 15 34 16 88 17 82 18 84 19 35 20 87 21 81 22 80 23
REMARK SMILES IDX 36 25 68 26 48 27 67 28 49 29 52 30 66 31 85 32 50 33 51 34
REMARK SMILES IDX 65 36 86 37 53 38 37 39 38 40 46 41 39 42 40 43 44 44 47 45
REMARK SMILES IDX 41 46 42 47 45 48 43 49 69 50 70 51 78 52 71 53 72 54 76 55
REMARK SMILES IDX 79 56 73 57 74 58 77 59 75 60 54 61 55 62 63 63 56 64 57 65
REMARK SMILES IDX 61 66 64 67 58 68 59 69 62 70 60 71 6 72 7 73 8 74 9 76
REMARK SMILES IDX 10 77 11 78 26 79 12 80 15 81 27 82 13 83 14 84 16 85 17 86
REMARK SMILES IDX 18 87 19 88 20 90 21 91 24 92 22 93 23 94 25 95
REMARK H PARENT 3 6 84 24 52 35 7 75 19 89 23 96
REMARK Flexibility Score: inf
ROOT
ATOM      1  C   UNL A   1      32.200  27.990  25.729  1.00  0.00     0.042 C 
ENDROOT
BRANCH   1   2
ATOM      2  C   UNL A   1      33.129  29.144  25.387  1.00  0.00     0.118 C 
BRANCH   2   3
ATOM      3  N   UNL A   1      32.678  30.425  25.917  1.00  0.00    -0.352 N 
ATOM      4  O   UNL A   1      32.562  32.205  27.293  1.00  0.00    -0.269 OA
ATOM      5  C   UNL A   1      33.200  31.233  26.901  1.00  0.00     0.251 C 
ATOM      6  H   UNL A   1      31.857  30.773  25.499  1.00  0.00     0.163 HD
BRANCH   5   7
ATOM      7  C   UNL A   1      34.503  30.911  27.524  1.00  0.00     0.039 A 
ATOM      8  C   UNL A   1      34.794  29.616  27.941  1.00  0.00     0.014 A 
ATOM      9  C   UNL A   1      35.458  31.918  27.695  1.00  0.00     0.014 A 
ATOM     10  C   UNL A   1      35.897  29.381  28.745  1.00  0.00     0.010 A 
ATOM     11  C   UNL A   1      36.654  31.640  28.368  1.00  0.00     0.010 A 
ATOM     12  C   UNL A   1      36.859  30.380  28.950  1.00  0.00    -0.014 A 
BRANCH  12  13
ATOM     13  C   UNL A   1      38.079  30.043  29.731  1.00  0.00     0.031 A 
ATOM     14  C   UNL A   1      38.248  30.493  31.155  1.00  0.00     0.074 A 
ATOM     15  C   UNL A   1      39.012  29.256  29.157  1.00  0.00     0.049 A 
ATOM     16  N   UNL A   1      39.225  30.235  31.991  1.00  0.00    -0.248 NA
ATOM     17  C   UNL A   1      37.198  31.355  31.718  1.00  0.00     0.031 C 
ATOM     18  C   UNL A   1      38.964  28.764  27.776  1.00  0.00     0.029 A 
ATOM     19  N   UNL A   1      40.154  28.692  29.665  1.00  0.00    -0.354 N 
ATOM     20  C   UNL A   1      38.927  30.929  33.156  1.00  0.00     0.074 A 
ATOM     21  C   UNL A   1      37.686  31.635  32.918  1.00  0.00     0.031 C 
ATOM     22  C   UNL A   1      39.971  27.904  27.577  1.00  0.00     0.029 A 
ATOM     23  C   UNL A   1      40.787  27.851  28.783  1.00  0.00     0.049 A 
ATOM     24  H   UNL A   1      40.487  28.872  30.573  1.00  0.00     0.167 HD
ATOM     25  C   UNL A   1      39.624  30.968  34.317  1.00  0.00     0.037 A 
ATOM     26  C   UNL A   1      41.911  27.124  28.920  1.00  0.00     0.037 A 
ATOM     27  C   UNL A   1      40.838  30.231  34.561  1.00  0.00     0.049 A 
ATOM     28  C   UNL A   1      42.662  27.190  30.216  1.00  0.00     0.074 A 
ATOM     29  C   UNL A   1      41.593  30.167  35.719  1.00  0.00     0.029 A 
ATOM     30  N   UNL A   1      41.477  29.428  33.625  1.00  0.00    -0.354 N 
ATOM     31  N   UNL A   1      42.354  27.832  31.317  1.00  0.00    -0.248 NA
ATOM     32  C   UNL A   1      43.921  26.440  30.285  1.00  0.00     0.031 C 
ATOM     33  C   UNL A   1      42.712  29.365  35.470  1.00  0.00     0.029 A 
ATOM     34  C   UNL A   1      42.629  28.886  34.173  1.00  0.00     0.049 A 
ATOM     35  H   UNL A   1      41.159  29.268  32.707  1.00  0.00     0.167 HD
ATOM     36  C   UNL A   1      43.373  27.554  32.215  1.00  0.00     0.074 A 
ATOM     37  C   UNL A   1      44.295  26.665  31.538  1.00  0.00     0.031 C 
ATOM     38  C   UNL A   1      43.533  28.001  33.484  1.00  0.00     0.037 A 
BRANCH  25  39
ATOM     39  C   UNL A   1      39.108  31.858  35.413  1.00  0.00     0.064 A 
ATOM     40  C   UNL A   1      38.305  31.368  36.454  1.00  0.00     0.173 A 
ATOM     41  C   UNL A   1      39.455  33.218  35.439  1.00  0.00     0.173 A 
ATOM     42  F   UNL A   1      37.933  30.079  36.470  1.00  0.00    -0.203 F 
ATOM     43  C   UNL A   1      37.849  32.211  37.465  1.00  0.00     0.198 A 
ATOM     44  C   UNL A   1      39.021  34.052  36.467  1.00  0.00     0.198 A 
ATOM     45  F   UNL A   1      40.226  33.738  34.472  1.00  0.00    -0.203 F 
ATOM     46  F   UNL A   1      37.045  31.730  38.424  1.00  0.00    -0.200 F 
ATOM     47  C   UNL A   1      38.212  33.549  37.475  1.00  0.00     0.200 A 
ATOM     48  F   UNL A   1      39.384  35.342  36.480  1.00  0.00    -0.200 F 
ATOM     49  F   UNL A   1      37.777  34.357  38.452  1.00  0.00    -0.200 F 
ENDBRANCH  25  39
BRANCH  26  50
ATOM     50  C   UNL A   1      42.385  26.277  27.796  1.00  0.00     0.064 A 
ATOM     51  C   UNL A   1      41.842  25.004  27.575  1.00  0.00     0.173 A 
ATOM     52  C   UNL A   1      43.374  26.727  26.908  1.00  0.00     0.173 A 
ATOM     53  F   UNL A   1      40.906  24.522  28.406  1.00  0.00    -0.203 F 
ATOM     54  C   UNL A   1      42.277  24.210  26.515  1.00  0.00     0.198 A 
ATOM     55  C   UNL A   1      43.785  25.948  25.831  1.00  0.00     0.198 A 
ATOM     56  F   UNL A   1      43.920  27.941  27.072  1.00  0.00    -0.203 F 
ATOM     57  F   UNL A   1      41.768  22.983  26.347  1.00  0.00    -0.200 F 
ATOM     58  C   UNL A   1      43.242  24.687  25.639  1.00  0.00     0.200 A 
ATOM     59  F   UNL A   1      44.702  26.420  24.975  1.00  0.00    -0.200 F 
ATOM     60  F   UNL A   1      43.650  23.928  24.613  1.00  0.00    -0.200 F 
ENDBRANCH  26  50
BRANCH  38  61
ATOM     61  C   UNL A   1      44.737  27.504  34.228  1.00  0.00     0.064 A 
ATOM     62  C   UNL A   1      45.950  28.209  34.220  1.00  0.00     0.173 A 
ATOM     63  C   UNL A   1      44.673  26.312  34.966  1.00  0.00     0.173 A 
ATOM     64  F   UNL A   1      46.066  29.343  33.513  1.00  0.00    -0.203 F 
ATOM     65  C   UNL A   1      47.064  27.722  34.898  1.00  0.00     0.198 A 
ATOM     66  C   UNL A   1      45.779  25.845  35.667  1.00  0.00     0.198 A 
ATOM     67  F   UNL A   1      43.534  25.604  35.008  1.00  0.00    -0.203 F 
ATOM     68  F   UNL A   1      48.228  28.383  34.830  1.00  0.00    -0.200 F 
ATOM     69  C   UNL A   1      46.976  26.544  35.625  1.00  0.00     0.200 A 
ATOM     70  F   UNL A   1      45.691  24.711  36.377  1.00  0.00    -0.200 F 
ATOM     71  F   UNL A   1      48.050  26.077  36.276  1.00  0.00    -0.200 F 
ENDBRANCH  38  61
ENDBRANCH  12  13
ENDBRANCH   5   7
ENDBRANCH   2   3
ENDBRANCH   1   2
BRANCH   1  72
ATOM     72  C   UNL A   1      32.766  26.642  25.327  1.00  0.00     0.118 C 
BRANCH  72  73
ATOM     73  N   UNL A   1      33.081  26.585  23.904  1.00  0.00    -0.352 N 
ATOM     74  C   UNL A   1      33.741  25.640  23.171  1.00  0.00     0.254 C 
ATOM     75  H   UNL A   1      32.765  27.359  23.383  1.00  0.00     0.163 HD
ATOM     76  O   UNL A   1      34.023  25.881  21.999  1.00  0.00    -0.269 OA
BRANCH  74  77
ATOM     77  C   UNL A   1      34.093  24.321  23.725  1.00  0.00     0.078 A 
ATOM     78  C   UNL A   1      35.419  24.073  24.089  1.00  0.00     0.037 A 
ATOM     79  C   UNL A   1      33.169  23.280  23.731  1.00  0.00     0.156 A 
ATOM     80  C   UNL A   1      35.794  22.788  24.479  1.00  0.00     0.043 A 
ATOM     81  C   UNL A   1      33.550  21.998  24.078  1.00  0.00     0.120 A 
ATOM     82  F   UNL A   1      31.909  23.528  23.374  1.00  0.00    -0.205 F 
ATOM     83  Cl  UNL A   1      37.420  22.485  24.948  1.00  0.00    -0.084 Cl
ATOM     84  C   UNL A   1      34.869  21.743  24.469  1.00  0.00     0.045 A 
BRANCH  81  85
ATOM     85  S   UNL A   1      32.411  20.660  23.971  1.00  0.00     0.244 S 
ATOM     86  O   UNL A   1      31.437  20.851  25.024  1.00  0.00    -0.207 OA
ATOM     87  O   UNL A   1      32.033  20.578  22.581  1.00  0.00    -0.207 OA
BRANCH  85  88
ATOM     88  N   UNL A   1      33.255  19.254  24.305  1.00  0.00    -0.196 NA
ATOM     89  H   UNL A   1      33.755  19.416  25.179  1.00  0.00     0.142 HD
BRANCH  88  90
ATOM     90  C   UNL A   1      32.550  17.967  24.455  1.00  0.00     0.189 C 
ATOM     91  C   UNL A   1      32.578  17.416  25.876  1.00  0.00     0.224 C 
ATOM     92  C   UNL A   1      33.300  16.853  23.777  1.00  0.00     0.264 C 
ATOM     93  O   UNL A   1      32.481  15.991  25.748  1.00  0.00    -0.271 OA
ATOM     94  N   UNL A   1      33.127  15.713  24.523  1.00  0.00    -0.233 N 
ATOM     95  O   UNL A   1      33.962  16.946  22.755  1.00  0.00    -0.271 OA
ATOM     96  H   UNL A   1      33.418  14.816  24.241  1.00  0.00     0.199 HD
ENDBRANCH  88  90
ENDBRANCH  85  88
ENDBRANCH  81  85
ENDBRANCH  74  77
ENDBRANCH  72  73
ENDBRANCH   1  72
TORSDOF 13
ENDMDL
MODEL 2
REMARK VINA RESULT:     -13.0      0.162      1.592
REMARK SMILES O=C(NCCCNC(=O)c1cc(Cl)cc(S(=O)(=O)N[C@@H]2CONC2=O)c1F)c1ccc(-c2c3nc(c(-c4c(F)c(F)c(F)c(F)c4F)c4ccc([nH]4)c(-c4c(F)c(F)c(F)c(F)c4F)c4nc(c(-c5c(F)c(F)c(F)c(F)c5F)c5ccc2[nH]5)C=C4)C=C3)cc1
REMARK SMILES IDX 5 1 4 2 3 3 1 4 2 5 28 7 29 8 90 9 30 10 89 11 31 12 32 13
REMARK SMILES IDX 33 14 83 15 34 16 88 17 82 18 84 19 35 20 87 21 81 22 80 23
REMARK SMILES IDX 36 25 68 26 48 27 67 28 49 29 52 30 66 31 85 32 50 33 51 34
REMARK SMILES IDX 65 36 86 37 53 38 37 39 38 40 46 41 39 42 40 43 44 44 47 45
REMARK SMILES IDX 41 46 42 47 45 48 43 49 69 50 70 51 78 52 71 53 72 54 76 55
REMARK SMILES IDX 79 56 73 57 74 58 77 59 75 60 54 61 55 62 63 63 56 64 57 65
REMARK SMILES IDX 61 66 64 67 58 68 59 69 62 70 60 71 6 72 7 73 8 74 9 76
REMARK SMILES IDX 10 77 11 78 26 79 12 80 15 81 27 82 13 83 14 84 16 85 17 86
REMARK SMILES IDX 18 87 19 88 20 90 21 91 24 92 22 93 23 94 25 95
REMARK H PARENT 3 6 84 24 52 35 7 75 19 89 23 96
REMARK Flexibility Score: inf
ROOT
ATOM      1  C   UNL A   1      32.288  28.200  25.518  1.00  0.00     0.042 C 
ENDROOT
BRANCH   1   2
ATOM      2  C   UNL A   1      33.232  29.373  25.309  1.00  0.00     0.118 C 
BRANCH   2   3
ATOM      3  N   UNL A   1      32.762  30.609  25.922  1.00  0.00    -0.352 N 
ATOM      4  O   UNL A   1      32.613  32.287  27.417  1.00  0.00    -0.269 OA
ATOM      5  C   UNL A   1      33.266  31.352  26.965  1.00  0.00     0.251 C 
ATOM      6  H   UNL A   1      31.942  30.977  25.520  1.00  0.00     0.163 HD
BRANCH   5   7
ATOM      7  C   UNL A   1      34.567  31.001  27.578  1.00  0.00     0.039 A 
ATOM      8  C   UNL A   1      34.816  29.709  28.029  1.00  0.00     0.014 A 
ATOM      9  C   UNL A   1      35.560  31.977  27.702  1.00  0.00     0.014 A 
ATOM     10  C   UNL A   1      35.923  29.457  28.823  1.00  0.00     0.010 A 
ATOM     11  C   UNL A   1      36.756  31.674  28.365  1.00  0.00     0.010 A 
ATOM     12  C   UNL A   1      36.925  30.426  28.982  1.00  0.00    -0.014 A 
BRANCH  12  13
ATOM     13  C   UNL A   1      38.144  30.068  29.754  1.00  0.00     0.031 A 
ATOM     14  C   UNL A   1      38.327  30.506  31.181  1.00  0.00     0.074 A 
ATOM     15  C   UNL A   1      39.065  29.273  29.170  1.00  0.00     0.049 A 
ATOM     16  N   UNL A   1      39.305  30.229  32.009  1.00  0.00    -0.248 NA
ATOM     17  C   UNL A   1      37.290  31.376  31.755  1.00  0.00     0.031 C 
ATOM     18  C   UNL A   1      39.002  28.792  27.786  1.00  0.00     0.029 A 
ATOM     19  N   UNL A   1      40.201  28.690  29.668  1.00  0.00    -0.354 N 
ATOM     20  C   UNL A   1      39.022  30.918  33.181  1.00  0.00     0.074 A 
ATOM     21  C   UNL A   1      37.789  31.642  32.955  1.00  0.00     0.031 C 
ATOM     22  C   UNL A   1      39.997  27.920  27.575  1.00  0.00     0.029 A 
ATOM     23  C   UNL A   1      40.819  27.848  28.776  1.00  0.00     0.049 A 
ATOM     24  H   UNL A   1      40.541  28.860  30.575  1.00  0.00     0.167 HD
ATOM     25  C   UNL A   1      39.725  30.940  34.339  1.00  0.00     0.037 A 
ATOM     26  C   UNL A   1      41.934  27.106  28.902  1.00  0.00     0.037 A 
ATOM     27  C   UNL A   1      40.931  30.186  34.570  1.00  0.00     0.049 A 
ATOM     28  C   UNL A   1      42.692  27.153  30.195  1.00  0.00     0.074 A 
ATOM     29  C   UNL A   1      41.691  30.103  35.724  1.00  0.00     0.029 A 
ATOM     30  N   UNL A   1      41.555  29.381  33.625  1.00  0.00    -0.354 N 
ATOM     31  N   UNL A   1      42.399  27.791  31.302  1.00  0.00    -0.248 NA
ATOM     32  C   UNL A   1      43.942  26.386  30.251  1.00  0.00     0.031 C 
ATOM     33  C   UNL A   1      42.798  29.289  35.464  1.00  0.00     0.029 A 
ATOM     34  C   UNL A   1      42.702  28.821  34.164  1.00  0.00     0.049 A 
ATOM     35  H   UNL A   1      41.229  29.232  32.708  1.00  0.00     0.167 HD
ATOM     36  C   UNL A   1      43.419  27.493  32.192  1.00  0.00     0.074 A 
ATOM     37  C   UNL A   1      44.325  26.597  31.503  1.00  0.00     0.031 C 
ATOM     38  C   UNL A   1      43.592  27.929  33.464  1.00  0.00     0.037 A 
BRANCH  25  39
ATOM     39  C   UNL A   1      39.226  31.829  35.443  1.00  0.00     0.064 A 
ATOM     40  C   UNL A   1      38.388  31.351  36.461  1.00  0.00     0.173 A 
ATOM     41  C   UNL A   1      39.627  33.173  35.502  1.00  0.00     0.173 A 
ATOM     42  F   UNL A   1      37.964  30.078  36.445  1.00  0.00    -0.203 F 
ATOM     43  C   UNL A   1      37.947  32.193  37.481  1.00  0.00     0.198 A 
ATOM     44  C   UNL A   1      39.209  34.004  36.540  1.00  0.00     0.198 A 
ATOM     45  F   UNL A   1      40.435  33.680  34.558  1.00  0.00    -0.203 F 
ATOM     46  F   UNL A   1      37.109  31.725  38.417  1.00  0.00    -0.200 F 
ATOM     47  C   UNL A   1      38.363  33.514  37.524  1.00  0.00     0.200 A 
ATOM     48  F   UNL A   1      39.623  35.277  36.585  1.00  0.00    -0.200 F 
ATOM     49  F   UNL A   1      37.944  34.320  38.510  1.00  0.00    -0.200 F 
ENDBRANCH  25  39
BRANCH  26  50
ATOM     50  C   UNL A   1      42.391  26.260  27.770  1.00  0.00     0.064 A 
ATOM     51  C   UNL A   1      43.379  26.714  26.885  1.00  0.00     0.173 A 
ATOM     52  C   UNL A   1      41.868  24.975  27.560  1.00  0.00     0.173 A 
ATOM     53  F   UNL A   1      43.897  27.942  27.034  1.00  0.00    -0.203 F 
ATOM     54  C   UNL A   1      43.818  25.919  25.828  1.00  0.00     0.198 A 
ATOM     55  C   UNL A   1      42.330  24.169  26.523  1.00  0.00     0.198 A 
ATOM     56  F   UNL A   1      40.926  24.492  28.383  1.00  0.00    -0.203 F 
ATOM     57  F   UNL A   1      44.736  26.391  24.974  1.00  0.00    -0.200 F 
ATOM     58  C   UNL A   1      43.299  24.645  25.653  1.00  0.00     0.200 A 
ATOM     59  F   UNL A   1      41.841  22.931  26.371  1.00  0.00    -0.200 F 
ATOM     60  F   UNL A   1      43.731  23.877  24.644  1.00  0.00    -0.200 F 
ENDBRANCH  26  50
BRANCH  38  61
ATOM     61  C   UNL A   1      44.793  27.411  34.197  1.00  0.00     0.064 A 
ATOM     62  C   UNL A   1      44.752  26.209  34.920  1.00  0.00     0.173 A 
ATOM     63  C   UNL A   1      46.002  28.123  34.169  1.00  0.00     0.173 A 
ATOM     64  F   UNL A   1      43.613  25.504  34.993  1.00  0.00    -0.203 F 
ATOM     65  C   UNL A   1      45.870  25.755  35.614  1.00  0.00     0.198 A 
ATOM     66  C   UNL A   1      47.125  27.650  34.839  1.00  0.00     0.198 A 
ATOM     67  F   UNL A   1      46.092  29.276  33.489  1.00  0.00    -0.203 F 
ATOM     68  F   UNL A   1      45.792  24.634  36.344  1.00  0.00    -0.200 F 
ATOM     69  C   UNL A   1      47.057  26.471  35.568  1.00  0.00     0.200 A 
ATOM     70  F   UNL A   1      48.274  28.338  34.786  1.00  0.00    -0.200 F 
ATOM     71  F   UNL A   1      48.131  26.033  36.237  1.00  0.00    -0.200 F 
ENDBRANCH  38  61
ENDBRANCH  12  13
ENDBRANCH   5   7
ENDBRANCH   2   3
ENDBRANCH   1   2
BRANCH   1  72
ATOM     72  C   UNL A   1      32.935  26.863  25.209  1.00  0.00     0.118 C 
BRANCH  72  73
ATOM     73  N   UNL A   1      33.128  26.669  23.776  1.00  0.00    -0.352 N 
ATOM     74  C   UNL A   1      33.686  25.633  23.081  1.00  0.00     0.254 C 
ATOM     75  H   UNL A   1      32.803  27.410  23.215  1.00  0.00     0.163 HD
ATOM     76  O   UNL A   1      33.879  25.759  21.874  1.00  0.00    -0.269 OA
BRANCH  74  77
ATOM     77  C   UNL A   1      34.027  24.352  23.722  1.00  0.00     0.078 A 
ATOM     78  C   UNL A   1      35.317  24.172  24.228  1.00  0.00     0.037 A 
ATOM     79  C   UNL A   1      33.146  23.275  23.677  1.00  0.00     0.156 A 
ATOM     80  C   UNL A   1      35.697  22.918  24.707  1.00  0.00     0.043 A 
ATOM     81  C   UNL A   1      33.537  22.023  24.113  1.00  0.00     0.120 A 
ATOM     82  F   UNL A   1      31.922  23.457  23.184  1.00  0.00    -0.205 F 
ATOM     83  Cl  UNL A   1      37.276  22.700  25.349  1.00  0.00    -0.084 Cl
ATOM     84  C   UNL A   1      34.818  21.836  24.646  1.00  0.00     0.045 A 
BRANCH  81  85
ATOM     85  S   UNL A   1      32.465  20.636  23.946  1.00  0.00     0.244 S 
ATOM     86  O   UNL A   1      31.543  20.681  25.060  1.00  0.00    -0.207 OA
ATOM     87  O   UNL A   1      32.016  20.651  22.575  1.00  0.00    -0.207 OA
BRANCH  85  88
ATOM     88  N   UNL A   1      33.400  19.257  24.112  1.00  0.00    -0.196 NA
ATOM     89  H   UNL A   1      34.050  19.437  24.877  1.00  0.00     0.142 HD
BRANCH  88  90
ATOM     90  C   UNL A   1      32.774  17.950  24.390  1.00  0.00     0.189 C 
ATOM     91  C   UNL A   1      32.992  17.458  25.816  1.00  0.00     0.224 C 
ATOM     92  C   UNL A   1      33.489  16.840  23.668  1.00  0.00     0.264 C 
ATOM     93  O   UNL A   1      32.943  16.026  25.752  1.00  0.00    -0.271 OA
ATOM     94  N   UNL A   1      33.455  15.725  24.470  1.00  0.00    -0.233 N 
ATOM     95  O   UNL A   1      34.023  16.918  22.573  1.00  0.00    -0.271 OA
ATOM     96  H   UNL A   1      33.749  14.830  24.187  1.00  0.00     0.199 HD
ENDBRANCH  88  90
ENDBRANCH  85  88
ENDBRANCH  81  85
ENDBRANCH  74  77
ENDBRANCH  72  73
ENDBRANCH   1  72
TORSDOF 13
ENDMDL
MODEL 3
REMARK VINA RESULT:     -12.9      3.393      4.443
REMARK SMILES O=C(NCCCNC(=O)c1cc(Cl)cc(S(=O)(=O)N[C@@H]2CONC2=O)c1F)c1ccc(-c2c3nc(c(-c4c(F)c(F)c(F)c(F)c4F)c4ccc([nH]4)c(-c4c(F)c(F)c(F)c(F)c4F)c4nc(c(-c5c(F)c(F)c(F)c(F)c5F)c5ccc2[nH]5)C=C4)C=C3)cc1
REMARK SMILES IDX 5 1 4 2 3 3 1 4 2 5 28 7 29 8 90 9 30 10 89 11 31 12 32 13
REMARK SMILES IDX 33 14 83 15 34 16 88 17 82 18 84 19 35 20 87 21 81 22 80 23
REMARK SMILES IDX 36 25 68 26 48 27 67 28 49 29 52 30 66 31 85 32 50 33 51 34
REMARK SMILES IDX 65 36 86 37 53 38 37 39 38 40 46 41 39 42 40 43 44 44 47 45
REMARK SMILES IDX 41 46 42 47 45 48 43 49 69 50 70 51 78 52 71 53 72 54 76 55
REMARK SMILES IDX 79 56 73 57 74 58 77 59 75 60 54 61 55 62 63 63 56 64 57 65
REMARK SMILES IDX 61 66 64 67 58 68 59 69 62 70 60 71 6 72 7 73 8 74 9 76
REMARK SMILES IDX 10 77 11 78 26 79 12 80 15 81 27 82 13 83 14 84 16 85 17 86
REMARK SMILES IDX 18 87 19 88 20 90 21 91 24 92 22 93 23 94 25 95
REMARK H PARENT 3 6 84 24 52 35 7 75 19 89 23 96
REMARK Flexibility Score: inf
ROOT
ATOM      1  C   UNL A   1      31.315  31.626  26.779  1.00  0.00     0.042 C 
ENDROOT
BRANCH   1   2
ATOM      2  C   UNL A   1      32.450  32.618  26.577  1.00  0.00     0.118 C 
BRANCH   2   3
ATOM      3  N   UNL A   1      32.266  33.863  27.312  1.00  0.00    -0.352 N 
ATOM      4  O   UNL A   1      32.525  35.400  28.938  1.00  0.00    -0.269 OA
ATOM      5  C   UNL A   1      32.956  34.398  28.375  1.00  0.00     0.251 C 
ATOM      6  H   UNL A   1      31.517  34.418  26.992  1.00  0.00     0.163 HD
BRANCH   5   7
ATOM      7  C   UNL A   1      34.187  33.747  28.875  1.00  0.00     0.039 A 
ATOM      8  C   UNL A   1      34.133  32.507  29.502  1.00  0.00     0.014 A 
ATOM      9  C   UNL A   1      35.422  34.382  28.714  1.00  0.00     0.014 A 
ATOM     10  C   UNL A   1      35.239  32.030  30.187  1.00  0.00     0.010 A 
ATOM     11  C   UNL A   1      36.576  33.815  29.268  1.00  0.00     0.010 A 
ATOM     12  C   UNL A   1      36.486  32.661  30.060  1.00  0.00    -0.014 A 
BRANCH  12  13
ATOM     13  C   UNL A   1      37.664  32.047  30.727  1.00  0.00     0.031 A 
ATOM     14  C   UNL A   1      38.018  32.373  32.151  1.00  0.00     0.074 A 
ATOM     15  C   UNL A   1      38.379  31.126  30.048  1.00  0.00     0.049 A 
ATOM     16  N   UNL A   1      38.979  31.881  32.895  1.00  0.00    -0.248 NA
ATOM     17  C   UNL A   1      37.202  33.391  32.831  1.00  0.00     0.031 C 
ATOM     18  C   UNL A   1      38.138  30.733  28.656  1.00  0.00     0.029 A 
ATOM     19  N   UNL A   1      39.417  30.320  30.441  1.00  0.00    -0.354 N 
ATOM     20  C   UNL A   1      38.906  32.552  34.109  1.00  0.00     0.074 A 
ATOM     21  C   UNL A   1      37.819  33.501  34.000  1.00  0.00     0.031 C 
ATOM     22  C   UNL A   1      38.937  29.704  28.342  1.00  0.00     0.029 A 
ATOM     23  C   UNL A   1      39.807  29.424  29.476  1.00  0.00     0.049 A 
ATOM     24  H   UNL A   1      39.841  30.380  31.326  1.00  0.00     0.167 HD
ATOM     25  C   UNL A   1      39.675  32.388  35.212  1.00  0.00     0.037 A 
ATOM     26  C   UNL A   1      40.769  28.484  29.494  1.00  0.00     0.037 A 
ATOM     27  C   UNL A   1      40.732  31.414  35.328  1.00  0.00     0.049 A 
ATOM     28  C   UNL A   1      41.606  28.327  30.729  1.00  0.00     0.074 A 
ATOM     29  C   UNL A   1      41.537  31.137  36.419  1.00  0.00     0.029 A 
ATOM     30  N   UNL A   1      41.131  30.556  34.311  1.00  0.00    -0.354 N 
ATOM     31  N   UNL A   1      41.509  28.953  31.876  1.00  0.00    -0.248 NA
ATOM     32  C   UNL A   1      42.691  27.341  30.666  1.00  0.00     0.031 C 
ATOM     33  C   UNL A   1      42.452  30.146  36.049  1.00  0.00     0.029 A 
ATOM     34  C   UNL A   1      42.186  29.768  34.744  1.00  0.00     0.049 A 
ATOM     35  H   UNL A   1      40.724  30.514  33.416  1.00  0.00     0.167 HD
ATOM     36  C   UNL A   1      42.512  28.429  32.678  1.00  0.00     0.074 A 
ATOM     37  C   UNL A   1      43.188  27.416  31.893  1.00  0.00     0.031 C 
ATOM     38  C   UNL A   1      42.845  28.763  33.949  1.00  0.00     0.037 A 
BRANCH  25  39
ATOM     39  C   UNL A   1      39.424  33.298  36.381  1.00  0.00     0.064 A 
ATOM     40  C   UNL A   1      38.567  32.940  37.432  1.00  0.00     0.173 A 
ATOM     41  C   UNL A   1      40.085  34.534  36.468  1.00  0.00     0.173 A 
ATOM     42  F   UNL A   1      37.901  31.776  37.393  1.00  0.00    -0.203 F 
ATOM     43  C   UNL A   1      38.360  33.797  38.512  1.00  0.00     0.198 A 
ATOM     44  C   UNL A   1      39.898  35.375  37.562  1.00  0.00     0.198 A 
ATOM     45  F   UNL A   1      40.922  34.923  35.493  1.00  0.00    -0.203 F 
ATOM     46  F   UNL A   1      37.500  33.453  39.481  1.00  0.00    -0.200 F 
ATOM     47  C   UNL A   1      39.029  35.009  38.579  1.00  0.00     0.200 A 
ATOM     48  F   UNL A   1      40.556  36.540  37.631  1.00  0.00    -0.200 F 
ATOM     49  F   UNL A   1      38.834  35.828  39.622  1.00  0.00    -0.200 F 
ENDBRANCH  25  39
BRANCH  26  50
ATOM     50  C   UNL A   1      40.986  27.625  28.301  1.00  0.00     0.064 A 
ATOM     51  C   UNL A   1      41.853  28.023  27.275  1.00  0.00     0.173 A 
ATOM     52  C   UNL A   1      40.349  26.381  28.172  1.00  0.00     0.173 A 
ATOM     53  F   UNL A   1      42.472  29.211  27.345  1.00  0.00    -0.203 F 
ATOM     54  C   UNL A   1      42.067  27.215  26.160  1.00  0.00     0.198 A 
ATOM     55  C   UNL A   1      40.587  25.560  27.073  1.00  0.00     0.198 A 
ATOM     56  F   UNL A   1      39.515  25.951  29.130  1.00  0.00    -0.203 F 
ATOM     57  F   UNL A   1      42.872  27.635  25.175  1.00  0.00    -0.200 F 
ATOM     58  C   UNL A   1      41.440  25.981  26.064  1.00  0.00     0.200 A 
ATOM     59  F   UNL A   1      39.996  24.360  26.995  1.00  0.00    -0.200 F 
ATOM     60  F   UNL A   1      41.656  25.200  24.998  1.00  0.00    -0.200 F 
ENDBRANCH  26  50
BRANCH  38  61
ATOM     61  C   UNL A   1      43.973  27.998  34.574  1.00  0.00     0.064 A 
ATOM     62  C   UNL A   1      45.297  28.461  34.517  1.00  0.00     0.173 A 
ATOM     63  C   UNL A   1      43.726  26.791  35.246  1.00  0.00     0.173 A 
ATOM     64  F   UNL A   1      45.586  29.599  33.868  1.00  0.00    -0.203 F 
ATOM     65  C   UNL A   1      46.335  27.727  35.084  1.00  0.00     0.198 A 
ATOM     66  C   UNL A   1      44.762  26.076  35.837  1.00  0.00     0.198 A 
ATOM     67  F   UNL A   1      42.477  26.309  35.330  1.00  0.00    -0.203 F 
ATOM     68  F   UNL A   1      47.599  28.159  34.968  1.00  0.00    -0.200 F 
ATOM     69  C   UNL A   1      46.067  26.539  35.747  1.00  0.00     0.200 A 
ATOM     70  F   UNL A   1      44.500  24.933  36.487  1.00  0.00    -0.200 F 
ATOM     71  F   UNL A   1      47.068  25.834  36.291  1.00  0.00    -0.200 F 
ENDBRANCH  38  61
ENDBRANCH  12  13
ENDBRANCH   5   7
ENDBRANCH   2   3
ENDBRANCH   1   2
BRANCH   1  72
ATOM     72  C   UNL A   1      31.800  30.192  26.877  1.00  0.00     0.118 C 
BRANCH  72  73
ATOM     73  N   UNL A   1      33.246  30.116  27.054  1.00  0.00    -0.352 N 
ATOM     74  C   UNL A   1      34.135  29.125  26.745  1.00  0.00     0.254 C 
ATOM     75  H   UNL A   1      33.650  30.913  27.467  1.00  0.00     0.163 HD
ATOM     76  O   UNL A   1      35.298  29.223  27.130  1.00  0.00    -0.269 OA
BRANCH  74  77
ATOM     77  C   UNL A   1      33.756  27.958  25.931  1.00  0.00     0.078 A 
ATOM     78  C   UNL A   1      33.812  26.685  26.505  1.00  0.00     0.037 A 
ATOM     79  C   UNL A   1      33.511  28.089  24.566  1.00  0.00     0.156 A 
ATOM     80  C   UNL A   1      33.596  25.562  25.708  1.00  0.00     0.043 A 
ATOM     81  C   UNL A   1      33.339  26.974  23.768  1.00  0.00     0.120 A 
ATOM     82  F   UNL A   1      33.469  29.307  24.029  1.00  0.00    -0.205 F 
ATOM     83  Cl  UNL A   1      33.643  23.997  26.417  1.00  0.00    -0.084 Cl
ATOM     84  C   UNL A   1      33.367  25.696  24.337  1.00  0.00     0.045 A 
BRANCH  81  85
ATOM     85  S   UNL A   1      33.148  27.135  22.025  1.00  0.00     0.244 S 
ATOM     86  O   UNL A   1      34.028  28.203  21.602  1.00  0.00    -0.207 OA
ATOM     87  O   UNL A   1      33.253  25.798  21.495  1.00  0.00    -0.207 OA
BRANCH  85  88
ATOM     88  N   UNL A   1      31.574  27.626  21.736  1.00  0.00    -0.196 NA
ATOM     89  H   UNL A   1      31.152  26.912  21.142  1.00  0.00     0.142 HD
BRANCH  88  90
ATOM     90  C   UNL A   1      30.636  27.852  22.852  1.00  0.00     0.189 C 
ATOM     91  C   UNL A   1      29.836  26.613  23.240  1.00  0.00     0.224 C 
ATOM     92  C   UNL A   1      29.487  28.726  22.430  1.00  0.00     0.264 C 
ATOM     93  O   UNL A   1      28.606  27.096  23.796  1.00  0.00    -0.271 OA
ATOM     94  N   UNL A   1      28.365  28.300  23.097  1.00  0.00    -0.233 N 
ATOM     95  O   UNL A   1      29.536  29.641  21.622  1.00  0.00    -0.271 OA
ATOM     96  H   UNL A   1      27.502  28.773  23.089  1.00  0.00     0.199 HD
ENDBRANCH  88  90
ENDBRANCH  85  88
ENDBRANCH  81  85
ENDBRANCH  74  77
ENDBRANCH  72  73
ENDBRANCH   1  72
TORSDOF 13
ENDMDL
