MODEL 1
REMARK VINA RESULT:     -12.5      0.000      0.000
REMARK SMILES O=C(CCN1C(=O)/C(=C\c2ccc(-c3cccc(Cl)c3)o2)SC1=S)NCCCNC(=O)c1ccc(-c2c3nc(c(-c4c(F)c(F)c(F)c(F)c4F)c4ccc([nH]4)c(-c4c(F)c(F)c(F)c(F)c4F)c4nc(c(-c5c(F)c(F)c(F)c(F)c5F)c5ccc2[nH]5)C=C4)C=C3)cc1
REMARK SMILES IDX 26 1 25 2 1 3 2 4 3 6 4 7 5 8 6 9 23 10 7 11 8 12 22 13
REMARK SMILES IDX 24 14 9 15 10 16 11 17 21 18 12 19 13 20 14 21 15 22 20 23
REMARK SMILES IDX 16 24 18 25 17 26 19 27 27 28 28 29 29 30 30 31 31 33 32 34
REMARK SMILES IDX 33 35 94 36 34 37 93 38 35 39 36 40 37 41 87 42 38 43 92 44
REMARK SMILES IDX 86 45 88 46 39 47 91 48 85 49 84 50 40 52 72 53 52 54 71 55
REMARK SMILES IDX 53 56 56 57 70 58 89 59 54 60 55 61 69 63 90 64 57 65 41 66
REMARK SMILES IDX 42 67 50 68 43 69 44 70 48 71 51 72 45 73 46 74 49 75 47 76
REMARK SMILES IDX 73 77 74 78 82 79 75 80 76 81 80 82 83 83 77 84 78 85 81 86
REMARK SMILES IDX 79 87 58 88 59 89 67 90 60 91 61 92 65 93 68 94 62 95 63 96
REMARK SMILES IDX 66 97 64 98
REMARK H PARENT 25 5 29 32 88 51 56 62
REMARK Flexibility Score: inf
ROOT
ATOM      1  C   UNL A   1      37.185  21.016  24.844  1.00  0.00     0.117 C 
ENDROOT
BRANCH   1   2
ATOM      2  N   UNL A   1      36.176  21.040  25.882  1.00  0.00    -0.356 N 
ATOM      3  O   UNL A   1      35.536  23.223  25.556  1.00  0.00    -0.275 OA
ATOM      4  C   UNL A   1      35.406  22.154  26.138  1.00  0.00     0.221 C 
ATOM      5  H   UNL A   1      36.035  20.230  26.425  1.00  0.00     0.163 HD
BRANCH   4   6
ATOM      6  C   UNL A   1      34.398  21.949  27.246  1.00  0.00     0.122 C 
BRANCH   6   7
ATOM      7  C   UNL A   1      33.169  21.155  26.803  1.00  0.00     0.137 C 
BRANCH   7   8
ATOM      8  N   UNL A   1      32.734  21.419  25.422  1.00  0.00    -0.292 N 
ATOM      9  C   UNL A   1      32.031  22.591  25.171  1.00  0.00     0.266 C 
ATOM     10  C   UNL A   1      32.914  20.569  24.352  1.00  0.00     0.148 C 
ATOM     11  O   UNL A   1      31.709  23.400  26.022  1.00  0.00    -0.268 OA
ATOM     12  C   UNL A   1      31.729  22.719  23.715  1.00  0.00     0.084 C 
ATOM     13  S   UNL A   1      32.224  21.280  22.899  1.00  0.00    -0.054 SA
ATOM     14  S   UNL A   1      33.705  19.103  24.326  1.00  0.00    -0.052 S 
ATOM     15  C   UNL A   1      31.189  23.768  23.080  1.00  0.00     0.068 C 
BRANCH  15  16
ATOM     16  C   UNL A   1      30.895  24.995  23.731  1.00  0.00     0.128 A 
ATOM     17  C   UNL A   1      29.660  25.605  23.915  1.00  0.00     0.051 A 
ATOM     18  O   UNL A   1      31.846  25.794  24.328  1.00  0.00    -0.457 OA
ATOM     19  C   UNL A   1      29.863  26.817  24.597  1.00  0.00     0.051 A 
ATOM     20  C   UNL A   1      31.214  26.892  24.828  1.00  0.00     0.134 A 
BRANCH  20  21
ATOM     21  C   UNL A   1      32.027  27.901  25.473  1.00  0.00     0.019 A 
ATOM     22  C   UNL A   1      33.260  27.538  26.037  1.00  0.00     0.012 A 
ATOM     23  C   UNL A   1      31.550  29.204  25.643  1.00  0.00     0.032 A 
ATOM     24  C   UNL A   1      33.999  28.458  26.779  1.00  0.00     0.002 A 
ATOM     25  C   UNL A   1      32.286  30.116  26.399  1.00  0.00     0.041 A 
ATOM     26  C   UNL A   1      33.505  29.747  26.969  1.00  0.00     0.020 A 
ATOM     27  Cl  UNL A   1      31.670  31.700  26.663  1.00  0.00    -0.084 Cl
ENDBRANCH  20  21
ENDBRANCH  15  16
ENDBRANCH   7   8
ENDBRANCH   6   7
ENDBRANCH   4   6
ENDBRANCH   1   2
BRANCH   1  28
ATOM     28  C   UNL A   1      38.157  19.854  24.990  1.00  0.00     0.042 C 
BRANCH  28  29
ATOM     29  C   UNL A   1      39.272  20.054  26.013  1.00  0.00     0.118 C 
BRANCH  29  30
ATOM     30  N   UNL A   1      40.387  19.132  25.870  1.00  0.00    -0.352 N 
ATOM     31  C   UNL A   1      41.736  19.348  26.032  1.00  0.00     0.251 C 
ATOM     32  H   UNL A   1      40.139  18.213  25.618  1.00  0.00     0.163 HD
ATOM     33  O   UNL A   1      42.523  18.438  25.792  1.00  0.00    -0.269 OA
BRANCH  31  34
ATOM     34  C   UNL A   1      42.251  20.673  26.451  1.00  0.00     0.039 A 
ATOM     35  C   UNL A   1      42.647  21.579  25.462  1.00  0.00     0.014 A 
ATOM     36  C   UNL A   1      42.355  21.033  27.797  1.00  0.00     0.014 A 
ATOM     37  C   UNL A   1      43.076  22.861  25.819  1.00  0.00     0.010 A 
ATOM     38  C   UNL A   1      42.700  22.339  28.147  1.00  0.00     0.010 A 
ATOM     39  C   UNL A   1      43.068  23.269  27.163  1.00  0.00    -0.014 A 
BRANCH  39  40
ATOM     40  C   UNL A   1      43.435  24.662  27.540  1.00  0.00     0.031 A 
ATOM     41  C   UNL A   1      44.876  25.097  27.573  1.00  0.00     0.074 A 
ATOM     42  C   UNL A   1      42.468  25.532  27.894  1.00  0.00     0.049 A 
ATOM     43  N   UNL A   1      45.382  26.266  27.882  1.00  0.00    -0.248 NA
ATOM     44  C   UNL A   1      45.884  24.079  27.239  1.00  0.00     0.031 C 
ATOM     45  C   UNL A   1      41.038  25.226  27.961  1.00  0.00     0.029 A 
ATOM     46  N   UNL A   1      42.539  26.854  28.264  1.00  0.00    -0.354 N 
ATOM     47  C   UNL A   1      46.760  26.120  27.784  1.00  0.00     0.074 A 
ATOM     48  C   UNL A   1      47.015  24.735  27.452  1.00  0.00     0.031 C 
ATOM     49  C   UNL A   1      40.365  26.333  28.312  1.00  0.00     0.029 A 
ATOM     50  C   UNL A   1      41.316  27.418  28.534  1.00  0.00     0.049 A 
ATOM     51  H   UNL A   1      43.387  27.350  28.329  1.00  0.00     0.167 HD
ATOM     52  C   UNL A   1      47.726  27.060  27.932  1.00  0.00     0.037 A 
ATOM     53  C   UNL A   1      40.994  28.668  28.920  1.00  0.00     0.037 A 
ATOM     54  C   UNL A   1      47.472  28.442  28.249  1.00  0.00     0.049 A 
ATOM     55  C   UNL A   1      42.087  29.691  29.086  1.00  0.00     0.074 A 
ATOM     56  C   UNL A   1      48.379  29.481  28.365  1.00  0.00     0.029 A 
ATOM     57  N   UNL A   1      46.219  28.977  28.511  1.00  0.00    -0.354 N 
ATOM     58  N   UNL A   1      43.380  29.560  28.911  1.00  0.00    -0.248 NA
ATOM     59  C   UNL A   1      41.671  31.041  29.493  1.00  0.00     0.031 C 
ATOM     60  C   UNL A   1      47.682  30.630  28.753  1.00  0.00     0.029 A 
ATOM     61  C   UNL A   1      46.333  30.325  28.814  1.00  0.00     0.049 A 
ATOM     62  H   UNL A   1      45.373  28.472  28.484  1.00  0.00     0.167 HD
ATOM     63  C   UNL A   1      43.927  30.812  29.155  1.00  0.00     0.074 A 
ATOM     64  C   UNL A   1      42.823  31.695  29.469  1.00  0.00     0.031 C 
ATOM     65  C   UNL A   1      45.227  31.197  29.121  1.00  0.00     0.037 A 
BRANCH  52  66
ATOM     66  C   UNL A   1      49.153  26.626  27.748  1.00  0.00     0.064 A 
ATOM     67  C   UNL A   1      49.993  26.363  28.842  1.00  0.00     0.173 A 
ATOM     68  C   UNL A   1      49.679  26.428  26.461  1.00  0.00     0.173 A 
ATOM     69  F   UNL A   1      49.545  26.544  30.095  1.00  0.00    -0.203 F 
ATOM     70  C   UNL A   1      51.310  25.953  28.656  1.00  0.00     0.198 A 
ATOM     71  C   UNL A   1      50.986  25.984  26.279  1.00  0.00     0.198 A 
ATOM     72  F   UNL A   1      48.921  26.655  25.378  1.00  0.00    -0.203 F 
ATOM     73  F   UNL A   1      52.108  25.763  29.717  1.00  0.00    -0.200 F 
ATOM     74  C   UNL A   1      51.803  25.756  27.375  1.00  0.00     0.200 A 
ATOM     75  F   UNL A   1      51.456  25.777  25.040  1.00  0.00    -0.200 F 
ATOM     76  F   UNL A   1      53.069  25.351  27.197  1.00  0.00    -0.200 F 
ENDBRANCH  52  66
BRANCH  53  77
ATOM     77  C   UNL A   1      39.570  29.035  29.150  1.00  0.00     0.064 A 
ATOM     78  C   UNL A   1      38.989  28.912  30.420  1.00  0.00     0.173 A 
ATOM     79  C   UNL A   1      38.759  29.501  28.105  1.00  0.00     0.173 A 
ATOM     80  F   UNL A   1      39.718  28.452  31.448  1.00  0.00    -0.203 F 
ATOM     81  C   UNL A   1      37.645  29.213  30.630  1.00  0.00     0.198 A 
ATOM     82  C   UNL A   1      37.424  29.834  28.324  1.00  0.00     0.198 A 
ATOM     83  F   UNL A   1      39.266  29.643  26.872  1.00  0.00    -0.203 F 
ATOM     84  F   UNL A   1      37.102  29.032  31.842  1.00  0.00    -0.200 F 
ATOM     85  C   UNL A   1      36.865  29.679  29.583  1.00  0.00     0.200 A 
ATOM     86  F   UNL A   1      36.678  30.301  27.313  1.00  0.00    -0.200 F 
ATOM     87  F   UNL A   1      35.573  29.972  29.785  1.00  0.00    -0.200 F 
ENDBRANCH  53  77
BRANCH  65  88
ATOM     88  C   UNL A   1      45.524  32.646  29.392  1.00  0.00     0.064 A 
ATOM     89  C   UNL A   1      45.514  33.609  28.372  1.00  0.00     0.173 A 
ATOM     90  C   UNL A   1      45.807  33.078  30.697  1.00  0.00     0.173 A 
ATOM     91  F   UNL A   1      45.263  33.248  27.104  1.00  0.00    -0.203 F 
ATOM     92  C   UNL A   1      45.814  34.942  28.642  1.00  0.00     0.198 A 
ATOM     93  C   UNL A   1      46.069  34.418  30.969  1.00  0.00     0.198 A 
ATOM     94  F   UNL A   1      45.822  32.202  31.713  1.00  0.00    -0.203 F 
ATOM     95  F   UNL A   1      45.860  35.832  27.640  1.00  0.00    -0.200 F 
ATOM     96  C   UNL A   1      46.084  35.347  29.940  1.00  0.00     0.200 A 
ATOM     97  F   UNL A   1      46.313  34.810  32.228  1.00  0.00    -0.200 F 
ATOM     98  F   UNL A   1      46.369  36.631  30.198  1.00  0.00    -0.200 F 
ENDBRANCH  65  88
ENDBRANCH  39  40
ENDBRANCH  31  34
ENDBRANCH  29  30
ENDBRANCH  28  29
ENDBRANCH   1  28
TORSDOF 14
ENDMDL
MODEL 2
REMARK VINA RESULT:     -12.5      0.752      7.285
REMARK SMILES O=C(CCN1C(=O)/C(=C\c2ccc(-c3cccc(Cl)c3)o2)SC1=S)NCCCNC(=O)c1ccc(-c2c3nc(c(-c4c(F)c(F)c(F)c(F)c4F)c4ccc([nH]4)c(-c4c(F)c(F)c(F)c(F)c4F)c4nc(c(-c5c(F)c(F)c(F)c(F)c5F)c5ccc2[nH]5)C=C4)C=C3)cc1
REMARK SMILES IDX 26 1 25 2 1 3 2 4 3 6 4 7 5 8 6 9 23 10 7 11 8 12 22 13
REMARK SMILES IDX 24 14 9 15 10 16 11 17 21 18 12 19 13 20 14 21 15 22 20 23
REMARK SMILES IDX 16 24 18 25 17 26 19 27 27 28 28 29 29 30 30 31 31 33 32 34
REMARK SMILES IDX 33 35 94 36 34 37 93 38 35 39 36 40 37 41 87 42 38 43 92 44
REMARK SMILES IDX 86 45 88 46 39 47 91 48 85 49 84 50 40 52 72 53 52 54 71 55
REMARK SMILES IDX 53 56 56 57 70 58 89 59 54 60 55 61 69 63 90 64 57 65 41 66
REMARK SMILES IDX 42 67 50 68 43 69 44 70 48 71 51 72 45 73 46 74 49 75 47 76
REMARK SMILES IDX 73 77 74 78 82 79 75 80 76 81 80 82 83 83 77 84 78 85 81 86
REMARK SMILES IDX 79 87 58 88 59 89 67 90 60 91 61 92 65 93 68 94 62 95 63 96
REMARK SMILES IDX 66 97 64 98
REMARK H PARENT 25 5 29 32 88 51 56 62
REMARK Flexibility Score: inf
ROOT
ATOM      1  C   UNL A   1      37.161  21.010  24.839  1.00  0.00     0.117 C 
ENDROOT
BRANCH   1   2
ATOM      2  N   UNL A   1      36.166  21.061  25.889  1.00  0.00    -0.356 N 
ATOM      3  O   UNL A   1      35.511  23.231  25.504  1.00  0.00    -0.275 OA
ATOM      4  C   UNL A   1      35.395  22.180  26.121  1.00  0.00     0.221 C 
ATOM      5  H   UNL A   1      36.036  20.268  26.459  1.00  0.00     0.163 HD
BRANCH   4   6
ATOM      6  C   UNL A   1      34.402  22.006  27.248  1.00  0.00     0.122 C 
BRANCH   6   7
ATOM      7  C   UNL A   1      33.165  21.203  26.844  1.00  0.00     0.137 C 
BRANCH   7   8
ATOM      8  N   UNL A   1      32.707  21.438  25.464  1.00  0.00    -0.292 N 
ATOM      9  C   UNL A   1      32.000  22.604  25.201  1.00  0.00     0.266 C 
ATOM     10  C   UNL A   1      32.870  20.566  24.410  1.00  0.00     0.148 C 
ATOM     11  O   UNL A   1      31.691  23.431  26.040  1.00  0.00    -0.268 OA
ATOM     12  C   UNL A   1      31.673  22.701  23.748  1.00  0.00     0.084 C 
ATOM     13  S   UNL A   1      32.155  21.246  22.954  1.00  0.00    -0.054 SA
ATOM     14  S   UNL A   1      33.661  19.100  24.401  1.00  0.00    -0.052 S 
ATOM     15  C   UNL A   1      31.121  23.737  23.100  1.00  0.00     0.068 C 
BRANCH  15  16
ATOM     16  C   UNL A   1      30.837  24.977  23.730  1.00  0.00     0.128 A 
ATOM     17  C   UNL A   1      29.603  25.575  23.951  1.00  0.00     0.051 A 
ATOM     18  O   UNL A   1      31.801  25.806  24.264  1.00  0.00    -0.457 OA
ATOM     19  C   UNL A   1      29.817  26.808  24.591  1.00  0.00     0.051 A 
ATOM     20  C   UNL A   1      31.176  26.908  24.762  1.00  0.00     0.134 A 
BRANCH  20  21
ATOM     21  C   UNL A   1      32.001  27.945  25.343  1.00  0.00     0.019 A 
ATOM     22  C   UNL A   1      33.273  27.620  25.837  1.00  0.00     0.012 A 
ATOM     23  C   UNL A   1      31.502  29.239  25.524  1.00  0.00     0.032 A 
ATOM     24  C   UNL A   1      34.032  28.567  26.521  1.00  0.00     0.002 A 
ATOM     25  C   UNL A   1      32.259  30.179  26.222  1.00  0.00     0.041 A 
ATOM     26  C   UNL A   1      33.519  29.847  26.724  1.00  0.00     0.020 A 
ATOM     27  Cl  UNL A   1      31.622  31.752  26.502  1.00  0.00    -0.084 Cl
ENDBRANCH  20  21
ENDBRANCH  15  16
ENDBRANCH   7   8
ENDBRANCH   6   7
ENDBRANCH   4   6
ENDBRANCH   1   2
BRANCH   1  28
ATOM     28  C   UNL A   1      38.133  19.850  25.002  1.00  0.00     0.042 C 
BRANCH  28  29
ATOM     29  C   UNL A   1      39.250  20.067  26.021  1.00  0.00     0.118 C 
BRANCH  29  30
ATOM     30  N   UNL A   1      40.320  19.085  25.952  1.00  0.00    -0.352 N 
ATOM     31  C   UNL A   1      41.679  19.253  26.088  1.00  0.00     0.251 C 
ATOM     32  H   UNL A   1      40.029  18.161  25.783  1.00  0.00     0.163 HD
ATOM     33  O   UNL A   1      42.422  18.290  25.923  1.00  0.00    -0.269 OA
BRANCH  31  34
ATOM     34  C   UNL A   1      42.257  20.584  26.387  1.00  0.00     0.039 A 
ATOM     35  C   UNL A   1      42.696  21.376  25.321  1.00  0.00     0.014 A 
ATOM     36  C   UNL A   1      42.378  21.060  27.694  1.00  0.00     0.014 A 
ATOM     37  C   UNL A   1      43.187  22.664  25.562  1.00  0.00     0.010 A 
ATOM     38  C   UNL A   1      42.786  22.374  27.926  1.00  0.00     0.010 A 
ATOM     39  C   UNL A   1      43.198  23.192  26.863  1.00  0.00    -0.014 A 
BRANCH  39  40
ATOM     40  C   UNL A   1      43.632  24.595  27.114  1.00  0.00     0.031 A 
ATOM     41  C   UNL A   1      42.652  25.626  27.606  1.00  0.00     0.074 A 
ATOM     42  C   UNL A   1      44.906  24.954  26.860  1.00  0.00     0.049 A 
ATOM     43  N   UNL A   1      42.848  26.894  27.873  1.00  0.00    -0.248 NA
ATOM     44  C   UNL A   1      41.263  25.184  27.798  1.00  0.00     0.031 C 
ATOM     45  C   UNL A   1      45.944  24.068  26.328  1.00  0.00     0.029 A 
ATOM     46  N   UNL A   1      45.550  26.158  27.018  1.00  0.00    -0.354 N 
ATOM     47  C   UNL A   1      41.611  27.397  28.259  1.00  0.00     0.074 A 
ATOM     48  C   UNL A   1      40.658  26.316  28.128  1.00  0.00     0.031 C 
ATOM     49  C   UNL A   1      47.098  24.747  26.236  1.00  0.00     0.029 A 
ATOM     50  C   UNL A   1      46.877  26.125  26.666  1.00  0.00     0.049 A 
ATOM     51  H   UNL A   1      45.101  26.968  27.351  1.00  0.00     0.167 HD
ATOM     52  C   UNL A   1      41.301  28.638  28.707  1.00  0.00     0.037 A 
ATOM     53  C   UNL A   1      47.812  27.094  26.683  1.00  0.00     0.037 A 
ATOM     54  C   UNL A   1      42.252  29.710  28.851  1.00  0.00     0.049 A 
ATOM     55  C   UNL A   1      47.439  28.467  27.176  1.00  0.00     0.074 A 
ATOM     56  C   UNL A   1      42.045  30.985  29.348  1.00  0.00     0.029 A 
ATOM     57  N   UNL A   1      43.589  29.636  28.488  1.00  0.00    -0.354 N 
ATOM     58  N   UNL A   1      46.284  28.906  27.615  1.00  0.00    -0.248 NA
ATOM     59  C   UNL A   1      48.507  29.477  27.186  1.00  0.00     0.031 C 
ATOM     60  C   UNL A   1      43.242  31.701  29.231  1.00  0.00     0.029 A 
ATOM     61  C   UNL A   1      44.212  30.852  28.725  1.00  0.00     0.049 A 
ATOM     62  H   UNL A   1      44.030  28.837  28.117  1.00  0.00     0.167 HD
ATOM     63  C   UNL A   1      46.493  30.228  27.981  1.00  0.00     0.074 A 
ATOM     64  C   UNL A   1      47.890  30.514  27.734  1.00  0.00     0.031 C 
ATOM     65  C   UNL A   1      45.606  31.126  28.480  1.00  0.00     0.037 A 
BRANCH  52  66
ATOM     66  C   UNL A   1      39.869  28.905  29.080  1.00  0.00     0.064 A 
ATOM     67  C   UNL A   1      38.935  29.368  28.140  1.00  0.00     0.173 A 
ATOM     68  C   UNL A   1      39.414  28.656  30.384  1.00  0.00     0.173 A 
ATOM     69  F   UNL A   1      39.318  29.631  26.880  1.00  0.00    -0.203 F 
ATOM     70  C   UNL A   1      37.610  29.603  28.498  1.00  0.00     0.198 A 
ATOM     71  C   UNL A   1      38.079  28.858  30.730  1.00  0.00     0.198 A 
ATOM     72  F   UNL A   1      40.259  28.205  31.323  1.00  0.00    -0.203 F 
ATOM     73  F   UNL A   1      36.751  30.097  27.595  1.00  0.00    -0.200 F 
ATOM     74  C   UNL A   1      37.182  29.340  29.790  1.00  0.00     0.200 A 
ATOM     75  F   UNL A   1      37.663  28.587  31.975  1.00  0.00    -0.200 F 
ATOM     76  F   UNL A   1      35.904  29.557  30.131  1.00  0.00    -0.200 F 
ENDBRANCH  52  66
BRANCH  53  77
ATOM     77  C   UNL A   1      49.204  26.797  26.246  1.00  0.00     0.064 A 
ATOM     78  C   UNL A   1      49.597  26.982  24.913  1.00  0.00     0.173 A 
ATOM     79  C   UNL A   1      50.163  26.309  27.145  1.00  0.00     0.173 A 
ATOM     80  F   UNL A   1      48.711  27.428  24.009  1.00  0.00    -0.203 F 
ATOM     81  C   UNL A   1      50.886  26.664  24.490  1.00  0.00     0.198 A 
ATOM     82  C   UNL A   1      51.461  26.023  26.728  1.00  0.00     0.198 A 
ATOM     83  F   UNL A   1      49.841  26.118  28.433  1.00  0.00    -0.203 F 
ATOM     84  F   UNL A   1      51.217  26.799  23.198  1.00  0.00    -0.200 F 
ATOM     85  C   UNL A   1      51.818  26.190  25.399  1.00  0.00     0.200 A 
ATOM     86  F   UNL A   1      52.365  25.582  27.614  1.00  0.00    -0.200 F 
ATOM     87  F   UNL A   1      53.059  25.888  24.993  1.00  0.00    -0.200 F 
ENDBRANCH  53  77
BRANCH  65  88
ATOM     88  C   UNL A   1      46.130  32.491  28.828  1.00  0.00     0.064 A 
ATOM     89  C   UNL A   1      46.657  32.782  30.096  1.00  0.00     0.173 A 
ATOM     90  C   UNL A   1      46.119  33.519  27.872  1.00  0.00     0.173 A 
ATOM     91  F   UNL A   1      46.679  31.840  31.051  1.00  0.00    -0.203 F 
ATOM     92  C   UNL A   1      47.117  34.061  30.404  1.00  0.00     0.198 A 
ATOM     93  C   UNL A   1      46.615  34.785  28.173  1.00  0.00     0.198 A 
ATOM     94  F   UNL A   1      45.634  33.295  26.642  1.00  0.00    -0.203 F 
ATOM     95  F   UNL A   1      47.556  34.331  31.641  1.00  0.00    -0.200 F 
ATOM     96  C   UNL A   1      47.102  35.058  29.442  1.00  0.00     0.200 A 
ATOM     97  F   UNL A   1      46.615  35.743  27.235  1.00  0.00    -0.200 F 
ATOM     98  F   UNL A   1      47.548  36.287  29.739  1.00  0.00    -0.200 F 
ENDBRANCH  65  88
ENDBRANCH  39  40
ENDBRANCH  31  34
ENDBRANCH  29  30
ENDBRANCH  28  29
ENDBRANCH   1  28
TORSDOF 14
ENDMDL
MODEL 3
REMARK VINA RESULT:     -12.4      1.420      2.305
REMARK SMILES O=C(CCN1C(=O)/C(=C\c2ccc(-c3cccc(Cl)c3)o2)SC1=S)NCCCNC(=O)c1ccc(-c2c3nc(c(-c4c(F)c(F)c(F)c(F)c4F)c4ccc([nH]4)c(-c4c(F)c(F)c(F)c(F)c4F)c4nc(c(-c5c(F)c(F)c(F)c(F)c5F)c5ccc2[nH]5)C=C4)C=C3)cc1
REMARK SMILES IDX 26 1 25 2 1 3 2 4 3 6 4 7 5 8 6 9 23 10 7 11 8 12 22 13
REMARK SMILES IDX 24 14 9 15 10 16 11 17 21 18 12 19 13 20 14 21 15 22 20 23
REMARK SMILES IDX 16 24 18 25 17 26 19 27 27 28 28 29 29 30 30 31 31 33 32 34
REMARK SMILES IDX 33 35 94 36 34 37 93 38 35 39 36 40 37 41 87 42 38 43 92 44
REMARK SMILES IDX 86 45 88 46 39 47 91 48 85 49 84 50 40 52 72 53 52 54 71 55
REMARK SMILES IDX 53 56 56 57 70 58 89 59 54 60 55 61 69 63 90 64 57 65 41 66
REMARK SMILES IDX 42 67 50 68 43 69 44 70 48 71 51 72 45 73 46 74 49 75 47 76
REMARK SMILES IDX 73 77 74 78 82 79 75 80 76 81 80 82 83 83 77 84 78 85 81 86
REMARK SMILES IDX 79 87 58 88 59 89 67 90 60 91 61 92 65 93 68 94 62 95 63 96
REMARK SMILES IDX 66 97 64 98
REMARK H PARENT 25 5 29 32 88 51 56 62
REMARK Flexibility Score: inf
ROOT
ATOM      1  C   UNL A   1      36.813  20.814  24.731  1.00  0.00     0.117 C 
ENDROOT
BRANCH   1   2
ATOM      2  N   UNL A   1      35.739  20.764  25.699  1.00  0.00    -0.356 N 
ATOM      3  O   UNL A   1      35.673  23.024  26.115  1.00  0.00    -0.275 OA
ATOM      4  C   UNL A   1      35.234  21.896  26.302  1.00  0.00     0.221 C 
ATOM      5  H   UNL A   1      35.354  19.889  25.936  1.00  0.00     0.163 HD
BRANCH   4   6
ATOM      6  C   UNL A   1      34.099  21.615  27.259  1.00  0.00     0.122 C 
BRANCH   6   7
ATOM      7  C   UNL A   1      32.755  22.163  26.779  1.00  0.00     0.137 C 
BRANCH   7   8
ATOM      8  N   UNL A   1      32.581  22.163  25.316  1.00  0.00    -0.292 N 
ATOM      9  C   UNL A   1      32.479  23.388  24.670  1.00  0.00     0.266 C 
ATOM     10  C   UNL A   1      32.452  21.039  24.529  1.00  0.00     0.148 C 
ATOM     11  O   UNL A   1      32.479  24.469  25.232  1.00  0.00    -0.268 OA
ATOM     12  C   UNL A   1      32.371  23.194  23.194  1.00  0.00     0.084 C 
ATOM     13  S   UNL A   1      32.249  21.509  22.846  1.00  0.00    -0.054 SA
ATOM     14  S   UNL A   1      32.526  19.442  24.996  1.00  0.00    -0.052 S 
ATOM     15  C   UNL A   1      32.389  24.137  22.242  1.00  0.00     0.068 C 
BRANCH  15  16
ATOM     16  C   UNL A   1      32.611  25.511  22.521  1.00  0.00     0.128 A 
ATOM     17  C   UNL A   1      33.818  26.181  22.680  1.00  0.00     0.051 A 
ATOM     18  O   UNL A   1      31.600  26.438  22.663  1.00  0.00    -0.457 OA
ATOM     19  C   UNL A   1      33.541  27.528  22.966  1.00  0.00     0.051 A 
ATOM     20  C   UNL A   1      32.173  27.640  22.946  1.00  0.00     0.134 A 
BRANCH  20  21
ATOM     21  C   UNL A   1      31.295  28.767  23.176  1.00  0.00     0.019 A 
ATOM     22  C   UNL A   1      31.407  29.498  24.368  1.00  0.00     0.012 A 
ATOM     23  C   UNL A   1      30.262  29.065  22.280  1.00  0.00     0.032 A 
ATOM     24  C   UNL A   1      30.489  30.501  24.675  1.00  0.00     0.002 A 
ATOM     25  C   UNL A   1      29.338  30.058  22.600  1.00  0.00     0.041 A 
ATOM     26  C   UNL A   1      29.445  30.774  23.793  1.00  0.00     0.020 A 
ATOM     27  Cl  UNL A   1      28.029  30.382  21.530  1.00  0.00    -0.084 Cl
ENDBRANCH  20  21
ENDBRANCH  15  16
ENDBRANCH   7   8
ENDBRANCH   6   7
ENDBRANCH   4   6
ENDBRANCH   1   2
BRANCH   1  28
ATOM     28  C   UNL A   1      37.868  19.742  24.961  1.00  0.00     0.042 C 
BRANCH  28  29
ATOM     29  C   UNL A   1      39.064  20.167  25.810  1.00  0.00     0.118 C 
BRANCH  29  30
ATOM     30  N   UNL A   1      40.140  19.191  25.858  1.00  0.00    -0.352 N 
ATOM     31  C   UNL A   1      41.480  19.369  26.112  1.00  0.00     0.251 C 
ATOM     32  H   UNL A   1      39.868  18.261  25.683  1.00  0.00     0.163 HD
ATOM     33  O   UNL A   1      42.239  18.407  26.035  1.00  0.00    -0.269 OA
BRANCH  31  34
ATOM     34  C   UNL A   1      42.024  20.709  26.434  1.00  0.00     0.039 A 
ATOM     35  C   UNL A   1      42.277  21.597  25.384  1.00  0.00     0.014 A 
ATOM     36  C   UNL A   1      42.293  21.101  27.747  1.00  0.00     0.014 A 
ATOM     37  C   UNL A   1      42.728  22.893  25.656  1.00  0.00     0.010 A 
ATOM     38  C   UNL A   1      42.660  22.419  28.023  1.00  0.00     0.010 A 
ATOM     39  C   UNL A   1      42.885  23.331  26.981  1.00  0.00    -0.014 A 
BRANCH  39  40
ATOM     40  C   UNL A   1      43.275  24.737  27.279  1.00  0.00     0.031 A 
ATOM     41  C   UNL A   1      44.672  25.223  27.001  1.00  0.00     0.074 A 
ATOM     42  C   UNL A   1      42.378  25.572  27.841  1.00  0.00     0.049 A 
ATOM     43  N   UNL A   1      45.192  26.410  27.201  1.00  0.00    -0.248 NA
ATOM     44  C   UNL A   1      45.620  24.242  26.450  1.00  0.00     0.031 C 
ATOM     45  C   UNL A   1      41.008  25.214  28.214  1.00  0.00     0.029 A 
ATOM     46  N   UNL A   1      42.481  26.896  28.195  1.00  0.00    -0.354 N 
ATOM     47  C   UNL A   1      46.520  26.314  26.806  1.00  0.00     0.074 A 
ATOM     48  C   UNL A   1      46.746  24.939  26.417  1.00  0.00     0.031 C 
ATOM     49  C   UNL A   1      40.389  26.296  28.711  1.00  0.00     0.029 A 
ATOM     50  C   UNL A   1      41.326  27.416  28.729  1.00  0.00     0.049 A 
ATOM     51  H   UNL A   1      43.305  27.422  28.079  1.00  0.00     0.167 HD
ATOM     52  C   UNL A   1      47.461  27.288  26.747  1.00  0.00     0.037 A 
ATOM     53  C   UNL A   1      41.052  28.653  29.183  1.00  0.00     0.037 A 
ATOM     54  C   UNL A   1      47.233  28.661  27.121  1.00  0.00     0.049 A 
ATOM     55  C   UNL A   1      42.118  29.715  29.116  1.00  0.00     0.074 A 
ATOM     56  C   UNL A   1      48.106  29.732  27.044  1.00  0.00     0.029 A 
ATOM     57  N   UNL A   1      46.049  29.150  27.652  1.00  0.00    -0.354 N 
ATOM     58  N   UNL A   1      43.346  29.630  28.664  1.00  0.00    -0.248 NA
ATOM     59  C   UNL A   1      41.753  31.049  29.612  1.00  0.00     0.031 C 
ATOM     60  C   UNL A   1      47.470  30.855  27.583  1.00  0.00     0.029 A 
ATOM     61  C   UNL A   1      46.178  30.502  27.933  1.00  0.00     0.049 A 
ATOM     62  H   UNL A   1      45.236  28.615  27.806  1.00  0.00     0.167 HD
ATOM     63  C   UNL A   1      43.888  30.902  28.791  1.00  0.00     0.074 A 
ATOM     64  C   UNL A   1      42.848  31.745  29.343  1.00  0.00     0.031 C 
ATOM     65  C   UNL A   1      45.135  31.334  28.479  1.00  0.00     0.037 A 
BRANCH  52  66
ATOM     66  C   UNL A   1      48.829  26.906  26.254  1.00  0.00     0.064 A 
ATOM     67  C   UNL A   1      49.193  27.041  24.905  1.00  0.00     0.173 A 
ATOM     68  C   UNL A   1      49.804  26.437  27.149  1.00  0.00     0.173 A 
ATOM     69  F   UNL A   1      48.298  27.476  24.005  1.00  0.00    -0.203 F 
ATOM     70  C   UNL A   1      50.467  26.691  24.465  1.00  0.00     0.198 A 
ATOM     71  C   UNL A   1      51.089  26.121  26.712  1.00  0.00     0.198 A 
ATOM     72  F   UNL A   1      49.516  26.295  28.451  1.00  0.00    -0.203 F 
ATOM     73  F   UNL A   1      50.772  26.778  23.162  1.00  0.00    -0.200 F 
ATOM     74  C   UNL A   1      51.416  26.240  25.370  1.00  0.00     0.200 A 
ATOM     75  F   UNL A   1      52.010  25.702  27.590  1.00  0.00    -0.200 F 
ATOM     76  F   UNL A   1      52.645  25.912  24.947  1.00  0.00    -0.200 F 
ENDBRANCH  52  66
BRANCH  53  77
ATOM     77  C   UNL A   1      39.700  28.969  29.719  1.00  0.00     0.064 A 
ATOM     78  C   UNL A   1      39.389  28.750  31.069  1.00  0.00     0.173 A 
ATOM     79  C   UNL A   1      38.688  29.480  28.894  1.00  0.00     0.173 A 
ATOM     80  F   UNL A   1      40.316  28.244  31.896  1.00  0.00    -0.203 F 
ATOM     81  C   UNL A   1      38.112  29.004  31.565  1.00  0.00     0.198 A 
ATOM     82  C   UNL A   1      37.421  29.765  29.399  1.00  0.00     0.198 A 
ATOM     83  F   UNL A   1      38.934  29.713  27.596  1.00  0.00    -0.203 F 
ATOM     84  F   UNL A   1      37.827  28.732  32.847  1.00  0.00    -0.200 F 
ATOM     85  C   UNL A   1      37.131  29.516  30.731  1.00  0.00     0.200 A 
ATOM     86  F   UNL A   1      36.481  30.277  28.592  1.00  0.00    -0.200 F 
ATOM     87  F   UNL A   1      35.903  29.763  31.208  1.00  0.00    -0.200 F 
ENDBRANCH  53  77
BRANCH  65  88
ATOM     88  C   UNL A   1      45.433  32.792  28.688  1.00  0.00     0.064 A 
ATOM     89  C   UNL A   1      45.993  33.271  29.882  1.00  0.00     0.173 A 
ATOM     90  C   UNL A   1      45.169  33.722  27.670  1.00  0.00     0.173 A 
ATOM     91  F   UNL A   1      46.252  32.428  30.893  1.00  0.00    -0.203 F 
ATOM     92  C   UNL A   1      46.240  34.630  30.063  1.00  0.00     0.198 A 
ATOM     93  C   UNL A   1      45.453  35.074  27.841  1.00  0.00     0.198 A 
ATOM     94  F   UNL A   1      44.641  33.319  26.504  1.00  0.00    -0.203 F 
ATOM     95  F   UNL A   1      46.715  35.072  31.236  1.00  0.00    -0.200 F 
ATOM     96  C   UNL A   1      45.976  35.529  29.041  1.00  0.00     0.200 A 
ATOM     97  F   UNL A   1      45.213  35.939  26.845  1.00  0.00    -0.200 F 
ATOM     98  F   UNL A   1      46.218  36.836  29.216  1.00  0.00    -0.200 F 
ENDBRANCH  65  88
ENDBRANCH  39  40
ENDBRANCH  31  34
ENDBRANCH  29  30
ENDBRANCH  28  29
ENDBRANCH   1  28
TORSDOF 14
ENDMDL
