MODEL 1
REMARK VINA RESULT:     -11.8      0.000      0.000
REMARK SMILES O=C(NCCCNC(=O)c1ccc(-n2cc(CSc3nc4ccccc4c(=O)n3-c3ccccc3)nn2)cc1)c1ccc(-c2c3nc(c(-c4c(F)c(F)c(F)c(F)c4F)c4ccc([nH]4)c(-c4c(F)c(F)c(F)c(F)c4F)c4nc(c(-c5c(F)c(F)c(F)c(F)c5F)c5ccc2[nH]5)C=C4)C=C3)cc1
REMARK SMILES IDX 7 1 8 2 9 3 6 5 5 6 4 7 3 8 1 9 2 10 40 12 41 13 102 14
REMARK SMILES IDX 42 15 101 16 43 17 44 18 45 19 95 20 46 21 100 22 94 23
REMARK SMILES IDX 96 24 47 25 99 26 93 27 92 28 48 30 80 31 60 32 79 33 61 34
REMARK SMILES IDX 64 35 78 36 97 37 62 38 63 39 77 41 98 42 65 43 49 44 50 45
REMARK SMILES IDX 58 46 51 47 52 48 56 49 59 50 53 51 54 52 57 53 55 54 81 55
REMARK SMILES IDX 82 56 90 57 83 58 84 59 88 60 91 61 85 62 86 63 89 64 87 65
REMARK SMILES IDX 66 66 67 67 75 68 68 69 69 70 73 71 76 72 70 73 71 74 74 75
REMARK SMILES IDX 72 76 10 77 11 78 39 79 12 80 38 81 13 82 14 83 15 84 37 85
REMARK SMILES IDX 16 86 36 87 17 88 18 89 19 90 20 91 29 92 21 93 27 94 22 95
REMARK SMILES IDX 26 96 28 97 23 98 25 99 24 100 30 101 31 102 35 103 32 104
REMARK SMILES IDX 34 105 33 106
REMARK H PARENT 7 4 3 11 96 29 64 40
REMARK Flexibility Score: inf
ROOT
ATOM      1  N   UNL A   1      32.543  36.024  30.281  1.00  0.00    -0.352 N 
ATOM      2  C   UNL A   1      32.808  36.190  31.618  1.00  0.00     0.251 C 
ATOM      3  O   UNL A   1      32.175  37.016  32.258  1.00  0.00    -0.269 OA
ATOM      4  H   UNL A   1      31.917  36.683  29.905  1.00  0.00     0.163 HD
ENDROOT
BRANCH   1   5
ATOM      5  C   UNL A   1      33.029  35.043  29.325  1.00  0.00     0.118 C 
BRANCH   5   6
ATOM      6  C   UNL A   1      34.367  35.428  28.697  1.00  0.00     0.042 C 
BRANCH   6   7
ATOM      7  C   UNL A   1      35.287  34.256  28.363  1.00  0.00     0.118 C 
BRANCH   7   8
ATOM      8  N   UNL A   1      34.620  33.019  28.010  1.00  0.00    -0.352 N 
ATOM      9  O   UNL A   1      34.000  30.904  27.869  1.00  0.00    -0.269 OA
ATOM     10  C   UNL A   1      34.922  31.689  28.105  1.00  0.00     0.251 C 
ATOM     11  H   UNL A   1      33.736  33.173  27.603  1.00  0.00     0.163 HD
BRANCH  10  12
ATOM     12  C   UNL A   1      36.272  31.131  28.387  1.00  0.00     0.039 A 
ATOM     13  C   UNL A   1      37.323  31.796  29.019  1.00  0.00     0.014 A 
ATOM     14  C   UNL A   1      36.480  29.808  27.948  1.00  0.00     0.014 A 
ATOM     15  C   UNL A   1      38.574  31.186  29.132  1.00  0.00     0.010 A 
ATOM     16  C   UNL A   1      37.720  29.192  28.066  1.00  0.00     0.010 A 
ATOM     17  C   UNL A   1      38.778  29.895  28.631  1.00  0.00    -0.014 A 
BRANCH  17  18
ATOM     18  C   UNL A   1      40.067  29.244  28.860  1.00  0.00     0.031 A 
ATOM     19  C   UNL A   1      40.424  29.041  30.294  1.00  0.00     0.074 A 
ATOM     20  C   UNL A   1      40.816  28.697  27.879  1.00  0.00     0.049 A 
ATOM     21  N   UNL A   1      41.461  29.480  30.933  1.00  0.00    -0.248 NA
ATOM     22  C   UNL A   1      39.464  28.319  31.144  1.00  0.00     0.031 C 
ATOM     23  C   UNL A   1      40.464  28.526  26.467  1.00  0.00     0.029 A 
ATOM     24  N   UNL A   1      42.030  28.077  27.968  1.00  0.00    -0.354 N 
ATOM     25  C   UNL A   1      41.366  28.970  32.227  1.00  0.00     0.074 A 
ATOM     26  C   UNL A   1      40.064  28.367  32.335  1.00  0.00     0.031 C 
ATOM     27  C   UNL A   1      41.335  27.668  25.890  1.00  0.00     0.029 A 
ATOM     28  C   UNL A   1      42.374  27.328  26.849  1.00  0.00     0.049 A 
ATOM     29  H   UNL A   1      42.611  28.154  28.759  1.00  0.00     0.167 HD
ATOM     30  C   UNL A   1      42.445  28.913  33.056  1.00  0.00     0.037 A 
ATOM     31  C   UNL A   1      43.402  26.448  26.742  1.00  0.00     0.037 A 
ATOM     32  C   UNL A   1      43.502  29.777  32.606  1.00  0.00     0.049 A 
ATOM     33  C   UNL A   1      44.369  26.746  27.827  1.00  0.00     0.074 A 
ATOM     34  C   UNL A   1      43.638  31.138  32.420  1.00  0.00     0.029 A 
ATOM     35  N   UNL A   1      44.565  29.207  31.954  1.00  0.00    -0.354 N 
ATOM     36  N   UNL A   1      45.111  27.814  27.873  1.00  0.00    -0.248 NA
ATOM     37  C   UNL A   1      44.210  26.037  29.087  1.00  0.00     0.031 C 
ATOM     38  C   UNL A   1      44.473  31.271  31.273  1.00  0.00     0.029 A 
ATOM     39  C   UNL A   1      44.834  29.987  30.862  1.00  0.00     0.049 A 
ATOM     40  H   UNL A   1      45.045  28.390  32.221  1.00  0.00     0.167 HD
ATOM     41  C   UNL A   1      45.140  28.158  29.215  1.00  0.00     0.074 A 
ATOM     42  C   UNL A   1      44.658  26.976  29.924  1.00  0.00     0.031 C 
ATOM     43  C   UNL A   1      45.282  29.459  29.599  1.00  0.00     0.037 A 
BRANCH  30  44
ATOM     44  C   UNL A   1      42.696  27.825  34.072  1.00  0.00     0.064 A 
ATOM     45  C   UNL A   1      43.222  26.587  33.643  1.00  0.00     0.173 A 
ATOM     46  C   UNL A   1      42.144  27.833  35.371  1.00  0.00     0.173 A 
ATOM     47  F   UNL A   1      43.758  26.461  32.419  1.00  0.00    -0.203 F 
ATOM     48  C   UNL A   1      43.117  25.430  34.418  1.00  0.00     0.198 A 
ATOM     49  C   UNL A   1      42.090  26.686  36.164  1.00  0.00     0.198 A 
ATOM     50  F   UNL A   1      41.532  28.910  35.876  1.00  0.00    -0.203 F 
ATOM     51  F   UNL A   1      43.506  24.252  33.912  1.00  0.00    -0.200 F 
ATOM     52  C   UNL A   1      42.543  25.479  35.675  1.00  0.00     0.200 A 
ATOM     53  F   UNL A   1      41.513  26.749  37.372  1.00  0.00    -0.200 F 
ATOM     54  F   UNL A   1      42.377  24.360  36.392  1.00  0.00    -0.200 F 
ENDBRANCH  30  44
BRANCH  31  55
ATOM     55  C   UNL A   1      43.481  25.192  25.957  1.00  0.00     0.064 A 
ATOM     56  C   UNL A   1      44.583  24.916  25.128  1.00  0.00     0.173 A 
ATOM     57  C   UNL A   1      42.621  24.110  26.228  1.00  0.00     0.173 A 
ATOM     58  F   UNL A   1      45.479  25.877  24.855  1.00  0.00    -0.203 F 
ATOM     59  C   UNL A   1      44.824  23.632  24.627  1.00  0.00     0.198 A 
ATOM     60  C   UNL A   1      42.858  22.832  25.722  1.00  0.00     0.198 A 
ATOM     61  F   UNL A   1      41.589  24.251  27.072  1.00  0.00    -0.203 F 
ATOM     62  F   UNL A   1      45.923  23.394  23.896  1.00  0.00    -0.200 F 
ATOM     63  C   UNL A   1      43.968  22.589  24.934  1.00  0.00     0.200 A 
ATOM     64  F   UNL A   1      42.042  21.823  26.058  1.00  0.00    -0.200 F 
ATOM     65  F   UNL A   1      44.231  21.345  24.509  1.00  0.00    -0.200 F 
ENDBRANCH  31  55
BRANCH  43  66
ATOM     66  C   UNL A   1      45.702  30.456  28.558  1.00  0.00     0.064 A 
ATOM     67  C   UNL A   1      44.810  31.137  27.713  1.00  0.00     0.173 A 
ATOM     68  C   UNL A   1      47.051  30.832  28.514  1.00  0.00     0.173 A 
ATOM     69  F   UNL A   1      43.492  30.908  27.768  1.00  0.00    -0.203 F 
ATOM     70  C   UNL A   1      45.260  32.119  26.832  1.00  0.00     0.198 A 
ATOM     71  C   UNL A   1      47.492  31.840  27.662  1.00  0.00     0.198 A 
ATOM     72  F   UNL A   1      47.939  30.253  29.339  1.00  0.00    -0.203 F 
ATOM     73  F   UNL A   1      44.392  32.747  26.025  1.00  0.00    -0.200 F 
ATOM     74  C   UNL A   1      46.599  32.475  26.814  1.00  0.00     0.200 A 
ATOM     75  F   UNL A   1      48.778  32.215  27.685  1.00  0.00    -0.200 F 
ATOM     76  F   UNL A   1      47.026  33.449  25.997  1.00  0.00    -0.200 F 
ENDBRANCH  43  66
ENDBRANCH  17  18
ENDBRANCH  10  12
ENDBRANCH   7   8
ENDBRANCH   6   7
ENDBRANCH   5   6
ENDBRANCH   1   5
BRANCH   2  77
ATOM     77  C   UNL A   1      33.838  35.376  32.301  1.00  0.00     0.039 A 
ATOM     78  C   UNL A   1      33.439  34.187  32.921  1.00  0.00     0.016 A 
ATOM     79  C   UNL A   1      35.157  35.821  32.427  1.00  0.00     0.016 A 
ATOM     80  C   UNL A   1      34.366  33.416  33.628  1.00  0.00     0.029 A 
ATOM     81  C   UNL A   1      36.085  35.060  33.145  1.00  0.00     0.029 A 
ATOM     82  C   UNL A   1      35.687  33.861  33.759  1.00  0.00     0.066 A 
BRANCH  82  83
ATOM     83  N   UNL A   1      36.581  33.138  34.587  1.00  0.00    -0.220 N 
ATOM     84  C   UNL A   1      37.162  33.553  35.758  1.00  0.00     0.141 A 
ATOM     85  N   UNL A   1      36.956  31.861  34.337  1.00  0.00    -0.062 NA
ATOM     86  C   UNL A   1      37.771  32.432  36.280  1.00  0.00     0.093 A 
ATOM     87  N   UNL A   1      37.685  31.426  35.360  1.00  0.00    -0.134 NA
BRANCH  86  88
ATOM     88  C   UNL A   1      38.564  32.311  37.519  1.00  0.00     0.138 C 
BRANCH  88  89
ATOM     89  S   UNL A   1      40.042  33.289  37.798  1.00  0.00    -0.081 SA
BRANCH  89  90
ATOM     90  C   UNL A   1      41.434  32.677  36.938  1.00  0.00     0.176 A 
ATOM     91  N   UNL A   1      42.123  31.851  37.673  1.00  0.00    -0.223 NA
ATOM     92  N   UNL A   1      41.797  32.964  35.628  1.00  0.00    -0.255 N 
ATOM     93  C   UNL A   1      43.306  31.315  37.157  1.00  0.00     0.079 A 
ATOM     94  C   UNL A   1      43.183  32.979  35.403  1.00  0.00     0.266 A 
ATOM     95  C   UNL A   1      43.898  30.192  37.736  1.00  0.00     0.029 A 
ATOM     96  C   UNL A   1      43.955  31.946  36.109  1.00  0.00     0.066 A 
ATOM     97  O   UNL A   1      43.794  33.765  34.681  1.00  0.00    -0.268 OA
ATOM     98  C   UNL A   1      45.154  29.752  37.301  1.00  0.00     0.002 A 
ATOM     99  C   UNL A   1      45.234  31.553  35.697  1.00  0.00     0.016 A 
ATOM    100  C   UNL A   1      45.837  30.452  36.305  1.00  0.00     0.001 A 
BRANCH  92 101
ATOM    101  C   UNL A   1      40.915  33.223  34.501  1.00  0.00     0.051 A 
ATOM    102  C   UNL A   1      40.548  32.174  33.630  1.00  0.00     0.027 A 
ATOM    103  C   UNL A   1      40.320  34.459  34.227  1.00  0.00     0.027 A 
ATOM    104  C   UNL A   1      39.801  32.388  32.466  1.00  0.00     0.002 A 
ATOM    105  C   UNL A   1      39.625  34.700  33.031  1.00  0.00     0.002 A 
ATOM    106  C   UNL A   1      39.389  33.667  32.135  1.00  0.00     0.000 A 
ENDBRANCH  92 101
ENDBRANCH  89  90
ENDBRANCH  88  89
ENDBRANCH  86  88
ENDBRANCH  82  83
ENDBRANCH   2  77
TORSDOF 15
ENDMDL
MODEL 2
REMARK VINA RESULT:     -11.6      5.404      9.217
REMARK SMILES O=C(NCCCNC(=O)c1ccc(-n2cc(CSc3nc4ccccc4c(=O)n3-c3ccccc3)nn2)cc1)c1ccc(-c2c3nc(c(-c4c(F)c(F)c(F)c(F)c4F)c4ccc([nH]4)c(-c4c(F)c(F)c(F)c(F)c4F)c4nc(c(-c5c(F)c(F)c(F)c(F)c5F)c5ccc2[nH]5)C=C4)C=C3)cc1
REMARK SMILES IDX 7 1 8 2 9 3 6 5 5 6 4 7 3 8 1 9 2 10 40 12 41 13 102 14
REMARK SMILES IDX 42 15 101 16 43 17 44 18 45 19 95 20 46 21 100 22 94 23
REMARK SMILES IDX 96 24 47 25 99 26 93 27 92 28 48 30 80 31 60 32 79 33 61 34
REMARK SMILES IDX 64 35 78 36 97 37 62 38 63 39 77 41 98 42 65 43 49 44 50 45
REMARK SMILES IDX 58 46 51 47 52 48 56 49 59 50 53 51 54 52 57 53 55 54 81 55
REMARK SMILES IDX 82 56 90 57 83 58 84 59 88 60 91 61 85 62 86 63 89 64 87 65
REMARK SMILES IDX 66 66 67 67 75 68 68 69 69 70 73 71 76 72 70 73 71 74 74 75
REMARK SMILES IDX 72 76 10 77 11 78 39 79 12 80 38 81 13 82 14 83 15 84 37 85
REMARK SMILES IDX 16 86 36 87 17 88 18 89 19 90 20 91 29 92 21 93 27 94 22 95
REMARK SMILES IDX 26 96 28 97 23 98 25 99 24 100 30 101 31 102 35 103 32 104
REMARK SMILES IDX 34 105 33 106
REMARK H PARENT 7 4 3 11 96 29 64 40
REMARK Flexibility Score: inf
ROOT
ATOM      1  N   UNL A   1      33.211  31.883  27.401  1.00  0.00    -0.352 N 
ATOM      2  C   UNL A   1      32.041  31.402  26.866  1.00  0.00     0.251 C 
ATOM      3  O   UNL A   1      31.109  32.169  26.672  1.00  0.00    -0.269 OA
ATOM      4  H   UNL A   1      33.168  32.821  27.697  1.00  0.00     0.163 HD
ENDROOT
BRANCH   1   5
ATOM      5  C   UNL A   1      34.501  31.247  27.605  1.00  0.00     0.118 C 
BRANCH   5   6
ATOM      6  C   UNL A   1      35.374  31.974  28.626  1.00  0.00     0.042 C 
BRANCH   6   7
ATOM      7  C   UNL A   1      34.665  33.064  29.427  1.00  0.00     0.118 C 
BRANCH   7   8
ATOM      8  N   UNL A   1      34.533  32.810  30.848  1.00  0.00    -0.352 N 
ATOM      9  O   UNL A   1      34.940  32.450  32.988  1.00  0.00    -0.269 OA
ATOM     10  C   UNL A   1      35.358  32.343  31.832  1.00  0.00     0.251 C 
ATOM     11  H   UNL A   1      33.633  33.026  31.185  1.00  0.00     0.163 HD
BRANCH  10  12
ATOM     12  C   UNL A   1      36.660  31.657  31.612  1.00  0.00     0.039 A 
ATOM     13  C   UNL A   1      37.897  32.275  31.429  1.00  0.00     0.014 A 
ATOM     14  C   UNL A   1      36.599  30.249  31.577  1.00  0.00     0.014 A 
ATOM     15  C   UNL A   1      39.027  31.511  31.132  1.00  0.00     0.010 A 
ATOM     16  C   UNL A   1      37.723  29.483  31.291  1.00  0.00     0.010 A 
ATOM     17  C   UNL A   1      38.934  30.118  31.037  1.00  0.00    -0.014 A 
BRANCH  17  18
ATOM     18  C   UNL A   1      40.154  29.340  30.831  1.00  0.00     0.031 A 
ATOM     19  C   UNL A   1      40.947  29.074  32.067  1.00  0.00     0.074 A 
ATOM     20  C   UNL A   1      40.475  28.742  29.665  1.00  0.00     0.049 A 
ATOM     21  N   UNL A   1      42.175  29.397  32.317  1.00  0.00    -0.248 NA
ATOM     22  C   UNL A   1      40.259  28.433  33.199  1.00  0.00     0.031 C 
ATOM     23  C   UNL A   1      39.658  28.634  28.454  1.00  0.00     0.029 A 
ATOM     24  N   UNL A   1      41.582  28.005  29.353  1.00  0.00    -0.354 N 
ATOM     25  C   UNL A   1      42.468  28.873  33.576  1.00  0.00     0.074 A 
ATOM     26  C   UNL A   1      41.223  28.398  34.120  1.00  0.00     0.031 C 
ATOM     27  C   UNL A   1      40.197  27.707  27.631  1.00  0.00     0.029 A 
ATOM     28  C   UNL A   1      41.458  27.248  28.193  1.00  0.00     0.049 A 
ATOM     29  H   UNL A   1      42.398  28.008  29.903  1.00  0.00     0.167 HD
ATOM     30  C   UNL A   1      43.750  28.694  33.998  1.00  0.00     0.037 A 
ATOM     31  C   UNL A   1      42.299  26.274  27.761  1.00  0.00     0.037 A 
ATOM     32  C   UNL A   1      44.677  29.460  33.210  1.00  0.00     0.049 A 
ATOM     33  C   UNL A   1      43.596  26.455  28.457  1.00  0.00     0.074 A 
ATOM     34  C   UNL A   1      44.876  30.805  32.970  1.00  0.00     0.029 A 
ATOM     35  N   UNL A   1      45.399  28.801  32.248  1.00  0.00    -0.354 N 
ATOM     36  N   UNL A   1      44.413  27.444  28.239  1.00  0.00    -0.248 NA
ATOM     37  C   UNL A   1      43.797  25.740  29.708  1.00  0.00     0.031 C 
ATOM     38  C   UNL A   1      45.290  30.878  31.608  1.00  0.00     0.029 A 
ATOM     39  C   UNL A   1      45.364  29.574  31.119  1.00  0.00     0.049 A 
ATOM     40  H   UNL A   1      45.857  27.937  32.351  1.00  0.00     0.167 HD
ATOM     41  C   UNL A   1      44.921  27.756  29.489  1.00  0.00     0.074 A 
ATOM     42  C   UNL A   1      44.589  26.613  30.334  1.00  0.00     0.031 C 
ATOM     43  C   UNL A   1      45.311  29.030  29.785  1.00  0.00     0.037 A 
BRANCH  30  44
ATOM     44  C   UNL A   1      44.217  27.567  34.887  1.00  0.00     0.064 A 
ATOM     45  C   UNL A   1      43.970  26.233  34.497  1.00  0.00     0.173 A 
ATOM     46  C   UNL A   1      44.594  27.746  36.235  1.00  0.00     0.173 A 
ATOM     47  F   UNL A   1      43.590  25.947  33.243  1.00  0.00    -0.203 F 
ATOM     48  C   UNL A   1      44.007  25.176  35.411  1.00  0.00     0.198 A 
ATOM     49  C   UNL A   1      44.683  26.680  37.132  1.00  0.00     0.198 A 
ATOM     50  F   UNL A   1      44.774  28.961  36.767  1.00  0.00    -0.203 F 
ATOM     51  F   UNL A   1      43.631  23.949  35.025  1.00  0.00    -0.200 F 
ATOM     52  C   UNL A   1      44.355  25.402  36.730  1.00  0.00     0.200 A 
ATOM     53  F   UNL A   1      45.004  26.922  38.410  1.00  0.00    -0.200 F 
ATOM     54  F   UNL A   1      44.325  24.405  37.623  1.00  0.00    -0.200 F 
ENDBRANCH  30  44
BRANCH  31  55
ATOM     55  C   UNL A   1      41.987  25.032  27.013  1.00  0.00     0.064 A 
ATOM     56  C   UNL A   1      42.844  24.551  26.007  1.00  0.00     0.173 A 
ATOM     57  C   UNL A   1      40.997  24.139  27.467  1.00  0.00     0.173 A 
ATOM     58  F   UNL A   1      43.845  25.318  25.548  1.00  0.00    -0.203 F 
ATOM     59  C   UNL A   1      42.735  23.247  25.509  1.00  0.00     0.198 A 
ATOM     60  C   UNL A   1      40.885  22.842  26.963  1.00  0.00     0.198 A 
ATOM     61  F   UNL A   1      40.183  24.474  28.477  1.00  0.00    -0.203 F 
ATOM     62  F   UNL A   1      43.614  22.803  24.599  1.00  0.00    -0.200 F 
ATOM     63  C   UNL A   1      41.763  22.391  25.996  1.00  0.00     0.200 A 
ATOM     64  F   UNL A   1      39.963  22.012  27.471  1.00  0.00    -0.200 F 
ATOM     65  F   UNL A   1      41.697  21.123  25.567  1.00  0.00    -0.200 F 
ENDBRANCH  31  55
BRANCH  43  66
ATOM     66  C   UNL A   1      45.457  30.001  28.650  1.00  0.00     0.064 A 
ATOM     67  C   UNL A   1      44.399  30.760  28.122  1.00  0.00     0.173 A 
ATOM     68  C   UNL A   1      46.747  30.269  28.175  1.00  0.00     0.173 A 
ATOM     69  F   UNL A   1      43.153  30.636  28.595  1.00  0.00    -0.203 F 
ATOM     70  C   UNL A   1      44.622  31.713  27.129  1.00  0.00     0.198 A 
ATOM     71  C   UNL A   1      46.972  31.248  27.212  1.00  0.00     0.198 A 
ATOM     72  F   UNL A   1      47.802  29.613  28.684  1.00  0.00    -0.203 F 
ATOM     73  F   UNL A   1      43.596  32.417  26.630  1.00  0.00    -0.200 F 
ATOM     74  C   UNL A   1      45.910  31.961  26.682  1.00  0.00     0.200 A 
ATOM     75  F   UNL A   1      48.225  31.520  26.821  1.00  0.00    -0.200 F 
ATOM     76  F   UNL A   1      46.131  32.907  25.758  1.00  0.00    -0.200 F 
ENDBRANCH  43  66
ENDBRANCH  17  18
ENDBRANCH  10  12
ENDBRANCH   7   8
ENDBRANCH   6   7
ENDBRANCH   5   6
ENDBRANCH   1   5
BRANCH   2  77
ATOM     77  C   UNL A   1      31.894  29.974  26.510  1.00  0.00     0.039 A 
ATOM     78  C   UNL A   1      31.785  29.636  25.157  1.00  0.00     0.016 A 
ATOM     79  C   UNL A   1      31.755  28.986  27.489  1.00  0.00     0.016 A 
ATOM     80  C   UNL A   1      31.585  28.306  24.777  1.00  0.00     0.029 A 
ATOM     81  C   UNL A   1      31.541  27.656  27.114  1.00  0.00     0.029 A 
ATOM     82  C   UNL A   1      31.441  27.316  25.755  1.00  0.00     0.066 A 
BRANCH  82  83
ATOM     83  N   UNL A   1      31.109  25.996  25.360  1.00  0.00    -0.220 N 
ATOM     84  C   UNL A   1      31.081  25.483  24.089  1.00  0.00     0.141 A 
ATOM     85  N   UNL A   1      30.811  25.010  26.240  1.00  0.00    -0.062 NA
ATOM     86  C   UNL A   1      30.908  24.125  24.247  1.00  0.00     0.093 A 
ATOM     87  N   UNL A   1      30.681  23.870  25.570  1.00  0.00    -0.134 NA
BRANCH  86  88
ATOM     88  C   UNL A   1      30.784  23.087  23.204  1.00  0.00     0.138 C 
BRANCH  88  89
ATOM     89  S   UNL A   1      32.218  22.257  22.517  1.00  0.00    -0.081 SA
BRANCH  89  90
ATOM     90  C   UNL A   1      32.803  20.961  23.531  1.00  0.00     0.176 A 
ATOM     91  N   UNL A   1      32.488  19.795  23.044  1.00  0.00    -0.223 NA
ATOM     92  N   UNL A   1      33.545  21.087  24.700  1.00  0.00    -0.255 N 
ATOM     93  C   UNL A   1      32.830  18.648  23.766  1.00  0.00     0.079 A 
ATOM     94  C   UNL A   1      33.292  20.090  25.655  1.00  0.00     0.266 A 
ATOM     95  C   UNL A   1      32.830  17.391  23.159  1.00  0.00     0.029 A 
ATOM     96  C   UNL A   1      33.091  18.733  25.123  1.00  0.00     0.066 A 
ATOM     97  O   UNL A   1      33.226  20.249  26.872  1.00  0.00    -0.268 OA
ATOM     98  C   UNL A   1      33.033  16.236  23.925  1.00  0.00     0.002 A 
ATOM     99  C   UNL A   1      33.243  17.588  25.913  1.00  0.00     0.016 A 
ATOM    100  C   UNL A   1      33.205  16.333  25.307  1.00  0.00     0.001 A 
BRANCH  92 101
ATOM    101  C   UNL A   1      34.538  22.102  25.013  1.00  0.00     0.051 A 
ATOM    102  C   UNL A   1      34.158  23.285  25.683  1.00  0.00     0.027 A 
ATOM    103  C   UNL A   1      35.908  21.979  24.754  1.00  0.00     0.027 A 
ATOM    104  C   UNL A   1      35.045  24.345  25.904  1.00  0.00     0.002 A 
ATOM    105  C   UNL A   1      36.792  23.058  24.910  1.00  0.00     0.002 A 
ATOM    106  C   UNL A   1      36.353  24.253  25.461  1.00  0.00     0.000 A 
ENDBRANCH  92 101
ENDBRANCH  89  90
ENDBRANCH  88  89
ENDBRANCH  86  88
ENDBRANCH  82  83
ENDBRANCH   2  77
TORSDOF 15
ENDMDL
MODEL 3
REMARK VINA RESULT:     -11.4      3.943      8.203
REMARK SMILES O=C(NCCCNC(=O)c1ccc(-n2cc(CSc3nc4ccccc4c(=O)n3-c3ccccc3)nn2)cc1)c1ccc(-c2c3nc(c(-c4c(F)c(F)c(F)c(F)c4F)c4ccc([nH]4)c(-c4c(F)c(F)c(F)c(F)c4F)c4nc(c(-c5c(F)c(F)c(F)c(F)c5F)c5ccc2[nH]5)C=C4)C=C3)cc1
REMARK SMILES IDX 7 1 8 2 9 3 6 5 5 6 4 7 3 8 1 9 2 10 40 12 41 13 102 14
REMARK SMILES IDX 42 15 101 16 43 17 44 18 45 19 95 20 46 21 100 22 94 23
REMARK SMILES IDX 96 24 47 25 99 26 93 27 92 28 48 30 80 31 60 32 79 33 61 34
REMARK SMILES IDX 64 35 78 36 97 37 62 38 63 39 77 41 98 42 65 43 49 44 50 45
REMARK SMILES IDX 58 46 51 47 52 48 56 49 59 50 53 51 54 52 57 53 55 54 81 55
REMARK SMILES IDX 82 56 90 57 83 58 84 59 88 60 91 61 85 62 86 63 89 64 87 65
REMARK SMILES IDX 66 66 67 67 75 68 68 69 69 70 73 71 76 72 70 73 71 74 74 75
REMARK SMILES IDX 72 76 10 77 11 78 39 79 12 80 38 81 13 82 14 83 15 84 37 85
REMARK SMILES IDX 16 86 36 87 17 88 18 89 19 90 20 91 29 92 21 93 27 94 22 95
REMARK SMILES IDX 26 96 28 97 23 98 25 99 24 100 30 101 31 102 35 103 32 104
REMARK SMILES IDX 34 105 33 106
REMARK H PARENT 7 4 3 11 96 29 64 40
REMARK Flexibility Score: inf
ROOT
ATOM      1  N   UNL A   1      38.216  33.423  35.288  1.00  0.00    -0.352 N 
ATOM      2  C   UNL A   1      36.851  33.492  35.153  1.00  0.00     0.251 C 
ATOM      3  O   UNL A   1      36.161  33.722  36.135  1.00  0.00    -0.269 OA
ATOM      4  H   UNL A   1      38.536  33.459  36.218  1.00  0.00     0.163 HD
ENDROOT
BRANCH   1   5
ATOM      5  C   UNL A   1      39.270  33.307  34.295  1.00  0.00     0.118 C 
BRANCH   5   6
ATOM      6  C   UNL A   1      39.617  34.637  33.628  1.00  0.00     0.042 C 
BRANCH   6   7
ATOM      7  C   UNL A   1      40.297  34.521  32.266  1.00  0.00     0.118 C 
BRANCH   7   8
ATOM      8  N   UNL A   1      39.403  34.440  31.127  1.00  0.00    -0.352 N 
ATOM      9  O   UNL A   1      38.016  33.735  29.562  1.00  0.00    -0.269 OA
ATOM     10  C   UNL A   1      38.933  33.434  30.330  1.00  0.00     0.251 C 
ATOM     11  H   UNL A   1      39.051  35.322  30.863  1.00  0.00     0.163 HD
BRANCH  10  12
ATOM     12  C   UNL A   1      39.488  32.056  30.265  1.00  0.00     0.039 A 
ATOM     13  C   UNL A   1      38.765  30.870  30.398  1.00  0.00     0.014 A 
ATOM     14  C   UNL A   1      40.880  31.976  30.062  1.00  0.00     0.014 A 
ATOM     15  C   UNL A   1      39.429  29.641  30.414  1.00  0.00     0.010 A 
ATOM     16  C   UNL A   1      41.545  30.756  30.068  1.00  0.00     0.010 A 
ATOM     17  C   UNL A   1      40.820  29.587  30.276  1.00  0.00    -0.014 A 
BRANCH  17  18
ATOM     18  C   UNL A   1      41.472  28.281  30.190  1.00  0.00     0.031 A 
ATOM     19  C   UNL A   1      42.180  27.849  31.431  1.00  0.00     0.074 A 
ATOM     20  C   UNL A   1      41.316  27.431  29.154  1.00  0.00     0.049 A 
ATOM     21  N   UNL A   1      43.431  27.549  31.577  1.00  0.00    -0.248 NA
ATOM     22  C   UNL A   1      41.412  27.823  32.686  1.00  0.00     0.031 C 
ATOM     23  C   UNL A   1      40.408  27.561  28.012  1.00  0.00     0.029 A 
ATOM     24  N   UNL A   1      41.877  26.201  28.960  1.00  0.00    -0.354 N 
ATOM     25  C   UNL A   1      43.583  27.150  32.905  1.00  0.00     0.074 A 
ATOM     26  C   UNL A   1      42.342  27.453  33.567  1.00  0.00     0.031 C 
ATOM     27  C   UNL A   1      40.323  26.374  27.371  1.00  0.00     0.029 A 
ATOM     28  C   UNL A   1      41.260  25.439  27.975  1.00  0.00     0.049 A 
ATOM     29  H   UNL A   1      42.653  25.880  29.475  1.00  0.00     0.167 HD
ATOM     30  C   UNL A   1      44.658  26.422  33.316  1.00  0.00     0.037 A 
ATOM     31  C   UNL A   1      41.461  24.122  27.717  1.00  0.00     0.037 A 
ATOM     32  C   UNL A   1      45.735  26.488  32.366  1.00  0.00     0.049 A 
ATOM     33  C   UNL A   1      42.757  23.734  28.326  1.00  0.00     0.074 A 
ATOM     34  C   UNL A   1      46.532  27.497  31.863  1.00  0.00     0.029 A 
ATOM     35  N   UNL A   1      45.922  25.417  31.531  1.00  0.00    -0.354 N 
ATOM     36  N   UNL A   1      43.918  24.134  27.895  1.00  0.00    -0.248 NA
ATOM     37  C   UNL A   1      42.736  23.218  29.686  1.00  0.00     0.031 C 
ATOM     38  C   UNL A   1      46.759  27.141  30.502  1.00  0.00     0.029 A 
ATOM     39  C   UNL A   1      46.129  25.918  30.274  1.00  0.00     0.049 A 
ATOM     40  H   UNL A   1      45.911  24.467  31.788  1.00  0.00     0.167 HD
ATOM     41  C   UNL A   1      44.663  24.339  29.045  1.00  0.00     0.074 A 
ATOM     42  C   UNL A   1      43.923  23.662  30.106  1.00  0.00     0.031 C 
ATOM     43  C   UNL A   1      45.655  25.274  29.075  1.00  0.00     0.037 A 
BRANCH  30  44
ATOM     44  C   UNL A   1      44.623  25.365  34.394  1.00  0.00     0.064 A 
ATOM     45  C   UNL A   1      45.309  25.594  35.606  1.00  0.00     0.173 A 
ATOM     46  C   UNL A   1      44.227  24.031  34.162  1.00  0.00     0.173 A 
ATOM     47  F   UNL A   1      45.745  26.823  35.923  1.00  0.00    -0.203 F 
ATOM     48  C   UNL A   1      45.652  24.550  36.470  1.00  0.00     0.198 A 
ATOM     49  C   UNL A   1      44.525  23.000  35.054  1.00  0.00     0.198 A 
ATOM     50  F   UNL A   1      43.646  23.651  33.018  1.00  0.00    -0.203 F 
ATOM     51  F   UNL A   1      46.423  24.797  37.538  1.00  0.00    -0.200 F 
ATOM     52  C   UNL A   1      45.268  23.253  36.188  1.00  0.00     0.200 A 
ATOM     53  F   UNL A   1      44.159  21.746  34.754  1.00  0.00    -0.200 F 
ATOM     54  F   UNL A   1      45.654  22.241  36.976  1.00  0.00    -0.200 F 
ENDBRANCH  30  44
BRANCH  31  55
ATOM     55  C   UNL A   1      40.496  23.104  27.235  1.00  0.00     0.064 A 
ATOM     56  C   UNL A   1      39.188  23.459  26.858  1.00  0.00     0.173 A 
ATOM     57  C   UNL A   1      40.924  21.816  26.858  1.00  0.00     0.173 A 
ATOM     58  F   UNL A   1      38.714  24.683  27.135  1.00  0.00    -0.203 F 
ATOM     59  C   UNL A   1      38.372  22.590  26.124  1.00  0.00     0.198 A 
ATOM     60  C   UNL A   1      40.106  20.948  26.134  1.00  0.00     0.198 A 
ATOM     61  F   UNL A   1      42.179  21.414  27.099  1.00  0.00    -0.203 F 
ATOM     62  F   UNL A   1      37.156  22.990  25.726  1.00  0.00    -0.200 F 
ATOM     63  C   UNL A   1      38.837  21.340  25.754  1.00  0.00     0.200 A 
ATOM     64  F   UNL A   1      40.582  19.756  25.749  1.00  0.00    -0.200 F 
ATOM     65  F   UNL A   1      38.081  20.531  24.997  1.00  0.00    -0.200 F 
ENDBRANCH  31  55
BRANCH  43  66
ATOM     66  C   UNL A   1      46.114  25.853  27.769  1.00  0.00     0.064 A 
ATOM     67  C   UNL A   1      47.060  25.245  26.925  1.00  0.00     0.173 A 
ATOM     68  C   UNL A   1      45.466  27.000  27.293  1.00  0.00     0.173 A 
ATOM     69  F   UNL A   1      47.648  24.090  27.263  1.00  0.00    -0.203 F 
ATOM     70  C   UNL A   1      47.372  25.790  25.681  1.00  0.00     0.198 A 
ATOM     71  C   UNL A   1      45.750  27.520  26.034  1.00  0.00     0.198 A 
ATOM     72  F   UNL A   1      44.513  27.590  28.032  1.00  0.00    -0.203 F 
ATOM     73  F   UNL A   1      48.287  25.200  24.899  1.00  0.00    -0.200 F 
ATOM     74  C   UNL A   1      46.710  26.922  25.234  1.00  0.00     0.200 A 
ATOM     75  F   UNL A   1      45.071  28.584  25.585  1.00  0.00    -0.200 F 
ATOM     76  F   UNL A   1      46.978  27.422  24.019  1.00  0.00    -0.200 F 
ENDBRANCH  43  66
ENDBRANCH  17  18
ENDBRANCH  10  12
ENDBRANCH   7   8
ENDBRANCH   6   7
ENDBRANCH   5   6
ENDBRANCH   1   5
BRANCH   2  77
ATOM     77  C   UNL A   1      36.203  33.303  33.836  1.00  0.00     0.039 A 
ATOM     78  C   UNL A   1      36.221  32.026  33.265  1.00  0.00     0.016 A 
ATOM     79  C   UNL A   1      35.679  34.382  33.118  1.00  0.00     0.016 A 
ATOM     80  C   UNL A   1      35.675  31.814  31.997  1.00  0.00     0.029 A 
ATOM     81  C   UNL A   1      35.143  34.177  31.843  1.00  0.00     0.029 A 
ATOM     82  C   UNL A   1      35.153  32.893  31.274  1.00  0.00     0.066 A 
BRANCH  82  83
ATOM     83  N   UNL A   1      34.721  32.687  29.939  1.00  0.00    -0.220 N 
ATOM     84  C   UNL A   1      34.868  31.558  29.175  1.00  0.00     0.141 A 
ATOM     85  N   UNL A   1      34.030  33.612  29.232  1.00  0.00    -0.062 NA
ATOM     86  C   UNL A   1      34.109  31.781  28.047  1.00  0.00     0.093 A 
ATOM     87  N   UNL A   1      33.659  33.070  28.077  1.00  0.00    -0.134 NA
BRANCH  86  88
ATOM     88  C   UNL A   1      33.925  30.900  26.875  1.00  0.00     0.138 C 
BRANCH  88  89
ATOM     89  S   UNL A   1      32.310  30.281  26.399  1.00  0.00    -0.081 SA
BRANCH  89  90
ATOM     90  C   UNL A   1      32.399  28.874  25.369  1.00  0.00     0.176 A 
ATOM     91  N   UNL A   1      33.199  27.972  25.861  1.00  0.00    -0.223 NA
ATOM     92  N   UNL A   1      31.705  28.664  24.182  1.00  0.00    -0.255 N 
ATOM     93  C   UNL A   1      33.431  26.804  25.129  1.00  0.00     0.079 A 
ATOM     94  C   UNL A   1      32.403  27.903  23.232  1.00  0.00     0.266 A 
ATOM     95  C   UNL A   1      33.988  25.676  25.733  1.00  0.00     0.029 A 
ATOM     96  C   UNL A   1      33.188  26.779  23.766  1.00  0.00     0.066 A 
ATOM     97  O   UNL A   1      32.416  28.091  22.017  1.00  0.00    -0.268 OA
ATOM     98  C   UNL A   1      34.349  24.566  24.960  1.00  0.00     0.002 A 
ATOM     99  C   UNL A   1      33.590  25.700  22.970  1.00  0.00     0.016 A 
ATOM    100  C   UNL A   1      34.180  24.592  23.574  1.00  0.00     0.001 A 
BRANCH  92 101
ATOM    101  C   UNL A   1      30.367  29.122  23.847  1.00  0.00     0.051 A 
ATOM    102  C   UNL A   1      29.382  28.200  23.430  1.00  0.00     0.027 A 
ATOM    103  C   UNL A   1      29.928  30.446  23.966  1.00  0.00     0.027 A 
ATOM    104  C   UNL A   1      28.118  28.598  22.983  1.00  0.00     0.002 A 
ATOM    105  C   UNL A   1      28.688  30.866  23.460  1.00  0.00     0.002 A 
ATOM    106  C   UNL A   1      27.791  29.942  22.942  1.00  0.00     0.000 A 
ENDBRANCH  92 101
ENDBRANCH  89  90
ENDBRANCH  88  89
ENDBRANCH  86  88
ENDBRANCH  82  83
ENDBRANCH   2  77
TORSDOF 15
ENDMDL
