MODEL 1
REMARK VINA RESULT:     -11.6      0.000      0.000
REMARK SMILES CC(C)[NH2+][C@]1(C(=O)NCCCNC(=O)c2ccc(-c3c4nc(c(-c5c(F)c(F)c(F)c(F)c5F)c5ccc([nH]5)c(-c5c(F)c(F)c(F)c(F)c5F)c5nc(c(-c6c(F)c(F)c(F)c(F)c6F)c6ccc3[nH]6)C=C5)C=C4)cc2)CC[C@@H](Oc2cc(F)ccc2F)C1
REMARK SMILES IDX 10 1 9 2 8 3 6 4 7 5 5 7 78 8 90 9 79 10 80 11 4 12 2 15
REMARK SMILES IDX 1 16 3 17 81 18 82 19 83 20 88 21 84 22 87 23 89 24 85 25
REMARK SMILES IDX 86 26 11 27 12 28 13 29 14 31 15 32 16 33 77 34 17 35 76 36
REMARK SMILES IDX 18 37 19 38 20 39 70 40 21 41 75 42 69 43 71 44 22 45 74 46
REMARK SMILES IDX 68 47 67 48 23 50 55 51 35 52 54 53 36 54 39 55 53 56 72 57
REMARK SMILES IDX 37 58 38 59 52 61 73 62 40 63 24 64 25 65 33 66 26 67 27 68
REMARK SMILES IDX 31 69 34 70 28 71 29 72 32 73 30 74 56 75 57 76 65 77 58 78
REMARK SMILES IDX 59 79 63 80 66 81 60 82 61 83 64 84 62 85 41 86 42 87 50 88
REMARK SMILES IDX 43 89 44 90 48 91 51 92 45 93 46 94 49 95 47 96
REMARK H PARENT 8 6 4 13 4 14 12 30 71 49 39 60
REMARK Flexibility Score: inf
ROOT
ATOM      1  C   UNL A   1      33.004  28.859  23.409  1.00  0.00     0.042 C 
ENDROOT
BRANCH   1   2
ATOM      2  C   UNL A   1      33.960  28.072  22.523  1.00  0.00     0.118 C 
BRANCH   2   3
ATOM      3  N   UNL A   1      33.281  27.167  21.625  1.00  0.00    -0.351 N 
ATOM      4  C   UNL A   1      32.798  25.917  21.811  1.00  0.00     0.281 C 
ATOM      5  O   UNL A   1      32.261  25.417  20.808  1.00  0.00    -0.268 OA
ATOM      6  H   UNL A   1      33.146  27.522  20.716  1.00  0.00     0.163 HD
BRANCH   4   7
ATOM      7  C   UNL A   1      32.970  25.050  23.121  1.00  0.00     0.179 C 
ATOM      8  C   UNL A   1      32.699  23.588  22.748  1.00  0.00     0.083 C 
ATOM      9  C   UNL A   1      34.382  25.010  23.751  1.00  0.00     0.124 C 
ATOM     10  C   UNL A   1      33.397  22.749  23.804  1.00  0.00     0.052 C 
ATOM     11  C   UNL A   1      34.643  23.551  24.206  1.00  0.00     0.180 C 
BRANCH   7  12
ATOM     12  N   UNL A   1      32.039  25.691  24.080  1.00  0.00    -0.332 N 
ATOM     13  H   UNL A   1      32.484  25.607  24.993  1.00  0.00     0.347 HD
ATOM     14  H   UNL A   1      31.908  26.600  23.635  1.00  0.00     0.347 HD
BRANCH  12  15
ATOM     15  C   UNL A   1      30.660  25.289  24.280  1.00  0.00     0.176 C 
ATOM     16  C   UNL A   1      30.521  25.000  25.783  1.00  0.00     0.075 C 
ATOM     17  C   UNL A   1      29.654  26.381  23.907  1.00  0.00     0.075 C 
ENDBRANCH  12  15
ENDBRANCH   7  12
BRANCH  11  18
ATOM     18  O   UNL A   1      35.962  23.138  23.799  1.00  0.00    -0.487 OA
BRANCH  18  19
ATOM     19  C   UNL A   1      36.955  23.005  24.720  1.00  0.00     0.158 A 
ATOM     20  C   UNL A   1      37.398  24.071  25.499  1.00  0.00     0.088 A 
ATOM     21  C   UNL A   1      37.637  21.789  24.797  1.00  0.00     0.165 A 
ATOM     22  C   UNL A   1      38.391  23.856  26.452  1.00  0.00     0.127 A 
ATOM     23  C   UNL A   1      38.629  21.572  25.752  1.00  0.00     0.046 A 
ATOM     24  F   UNL A   1      37.322  20.787  23.964  1.00  0.00    -0.203 F 
ATOM     25  F   UNL A   1      38.770  24.866  27.245  1.00  0.00    -0.207 F 
ATOM     26  C   UNL A   1      38.992  22.609  26.606  1.00  0.00     0.042 A 
ENDBRANCH  18  19
ENDBRANCH  11  18
ENDBRANCH   4   7
ENDBRANCH   2   3
ENDBRANCH   1   2
BRANCH   1  27
ATOM     27  C   UNL A   1      33.513  29.062  24.831  1.00  0.00     0.118 C 
BRANCH  27  28
ATOM     28  N   UNL A   1      32.892  30.193  25.503  1.00  0.00    -0.352 N 
ATOM     29  C   UNL A   1      33.179  30.865  26.666  1.00  0.00     0.251 C 
ATOM     30  H   UNL A   1      32.107  30.549  25.028  1.00  0.00     0.163 HD
ATOM     31  O   UNL A   1      32.368  31.696  27.071  1.00  0.00    -0.269 OA
BRANCH  29  32
ATOM     32  C   UNL A   1      34.404  30.613  27.468  1.00  0.00     0.039 A 
ATOM     33  C   UNL A   1      35.317  31.666  27.630  1.00  0.00     0.014 A 
ATOM     34  C   UNL A   1      34.732  29.362  27.985  1.00  0.00     0.014 A 
ATOM     35  C   UNL A   1      36.512  31.473  28.333  1.00  0.00     0.010 A 
ATOM     36  C   UNL A   1      35.866  29.197  28.783  1.00  0.00     0.010 A 
ATOM     37  C   UNL A   1      36.784  30.242  28.947  1.00  0.00    -0.014 A 
BRANCH  37  38
ATOM     38  C   UNL A   1      38.028  30.009  29.731  1.00  0.00     0.031 A 
ATOM     39  C   UNL A   1      39.117  29.120  29.186  1.00  0.00     0.074 A 
ATOM     40  C   UNL A   1      38.152  30.527  30.969  1.00  0.00     0.049 A 
ATOM     41  N   UNL A   1      40.210  28.689  29.769  1.00  0.00    -0.248 NA
ATOM     42  C   UNL A   1      38.931  28.612  27.817  1.00  0.00     0.031 C 
ATOM     43  C   UNL A   1      37.154  31.359  31.640  1.00  0.00     0.029 A 
ATOM     44  N   UNL A   1      39.165  30.415  31.889  1.00  0.00    -0.354 N 
ATOM     45  C   UNL A   1      40.815  27.835  28.854  1.00  0.00     0.074 A 
ATOM     46  C   UNL A   1      39.943  27.766  27.701  1.00  0.00     0.031 C 
ATOM     47  C   UNL A   1      37.612  31.702  32.855  1.00  0.00     0.029 A 
ATOM     48  C   UNL A   1      38.916  31.079  33.064  1.00  0.00     0.049 A 
ATOM     49  H   UNL A   1      39.991  29.907  31.722  1.00  0.00     0.167 HD
ATOM     50  C   UNL A   1      42.003  27.188  28.952  1.00  0.00     0.037 A 
ATOM     51  C   UNL A   1      39.649  31.171  34.189  1.00  0.00     0.037 A 
ATOM     52  C   UNL A   1      42.897  27.299  30.074  1.00  0.00     0.049 A 
ATOM     53  C   UNL A   1      40.981  30.478  34.263  1.00  0.00     0.074 A 
ATOM     54  C   UNL A   1      44.156  26.748  30.236  1.00  0.00     0.029 A 
ATOM     55  N   UNL A   1      42.625  28.020  31.229  1.00  0.00    -0.354 N 
ATOM     56  N   UNL A   1      41.566  29.717  33.370  1.00  0.00    -0.248 NA
ATOM     57  C   UNL A   1      41.757  30.663  35.497  1.00  0.00     0.031 C 
ATOM     58  C   UNL A   1      44.632  27.105  31.502  1.00  0.00     0.029 A 
ATOM     59  C   UNL A   1      43.689  27.915  32.112  1.00  0.00     0.049 A 
ATOM     60  H   UNL A   1      41.801  28.530  31.395  1.00  0.00     0.167 HD
ATOM     61  C   UNL A   1      42.783  29.346  33.925  1.00  0.00     0.074 A 
ATOM     62  C   UNL A   1      42.861  29.980  35.225  1.00  0.00     0.031 C 
ATOM     63  C   UNL A   1      43.748  28.548  33.405  1.00  0.00     0.037 A 
BRANCH  50  64
ATOM     64  C   UNL A   1      42.404  26.303  27.805  1.00  0.00     0.064 A 
ATOM     65  C   UNL A   1      42.017  24.955  27.743  1.00  0.00     0.173 A 
ATOM     66  C   UNL A   1      43.175  26.811  26.747  1.00  0.00     0.173 A 
ATOM     67  F   UNL A   1      41.290  24.415  28.732  1.00  0.00    -0.203 F 
ATOM     68  C   UNL A   1      42.424  24.139  26.689  1.00  0.00     0.198 A 
ATOM     69  C   UNL A   1      43.550  26.001  25.678  1.00  0.00     0.198 A 
ATOM     70  F   UNL A   1      43.564  28.095  26.749  1.00  0.00    -0.203 F 
ATOM     71  F   UNL A   1      42.096  22.839  26.687  1.00  0.00    -0.200 F 
ATOM     72  C   UNL A   1      43.185  24.663  25.656  1.00  0.00     0.200 A 
ATOM     73  F   UNL A   1      44.275  26.512  24.673  1.00  0.00    -0.200 F 
ATOM     74  F   UNL A   1      43.577  23.876  24.644  1.00  0.00    -0.200 F 
ENDBRANCH  50  64
BRANCH  51  75
ATOM     75  C   UNL A   1      39.144  31.982  35.327  1.00  0.00     0.064 A 
ATOM     76  C   UNL A   1      38.410  31.387  36.361  1.00  0.00     0.173 A 
ATOM     77  C   UNL A   1      39.412  33.355  35.421  1.00  0.00     0.173 A 
ATOM     78  F   UNL A   1      38.113  30.080  36.304  1.00  0.00    -0.203 F 
ATOM     79  C   UNL A   1      37.954  32.136  37.443  1.00  0.00     0.198 A 
ATOM     80  C   UNL A   1      38.978  34.099  36.516  1.00  0.00     0.198 A 
ATOM     81  F   UNL A   1      40.120  33.968  34.461  1.00  0.00    -0.203 F 
ATOM     82  F   UNL A   1      37.229  31.548  38.405  1.00  0.00    -0.200 F 
ATOM     83  C   UNL A   1      38.246  33.490  37.524  1.00  0.00     0.200 A 
ATOM     84  F   UNL A   1      39.277  35.403  36.598  1.00  0.00    -0.200 F 
ATOM     85  F   UNL A   1      37.819  34.207  38.572  1.00  0.00    -0.200 F 
ENDBRANCH  51  75
BRANCH  63  86
ATOM     86  C   UNL A   1      44.979  28.330  34.236  1.00  0.00     0.064 A 
ATOM     87  C   UNL A   1      46.087  29.185  34.142  1.00  0.00     0.173 A 
ATOM     88  C   UNL A   1      45.036  27.277  35.161  1.00  0.00     0.173 A 
ATOM     89  F   UNL A   1      46.087  30.196  33.262  1.00  0.00    -0.203 F 
ATOM     90  C   UNL A   1      47.218  28.977  34.927  1.00  0.00     0.198 A 
ATOM     91  C   UNL A   1      46.158  27.089  35.964  1.00  0.00     0.198 A 
ATOM     92  F   UNL A   1      44.000  26.435  35.292  1.00  0.00    -0.203 F 
ATOM     93  F   UNL A   1      48.283  29.778  34.790  1.00  0.00    -0.200 F 
ATOM     94  C   UNL A   1      47.250  27.935  35.841  1.00  0.00     0.200 A 
ATOM     95  F   UNL A   1      46.183  26.087  36.854  1.00  0.00    -0.200 F 
ATOM     96  F   UNL A   1      48.338  27.740  36.600  1.00  0.00    -0.200 F 
ENDBRANCH  63  86
ENDBRANCH  37  38
ENDBRANCH  29  32
ENDBRANCH  27  28
ENDBRANCH   1  27
TORSDOF 14
ENDMDL
MODEL 2
REMARK VINA RESULT:     -11.6      3.124      5.438
REMARK SMILES CC(C)[NH2+][C@]1(C(=O)NCCCNC(=O)c2ccc(-c3c4nc(c(-c5c(F)c(F)c(F)c(F)c5F)c5ccc([nH]5)c(-c5c(F)c(F)c(F)c(F)c5F)c5nc(c(-c6c(F)c(F)c(F)c(F)c6F)c6ccc3[nH]6)C=C5)C=C4)cc2)CC[C@@H](Oc2cc(F)ccc2F)C1
REMARK SMILES IDX 10 1 9 2 8 3 6 4 7 5 5 7 78 8 90 9 79 10 80 11 4 12 2 15
REMARK SMILES IDX 1 16 3 17 81 18 82 19 83 20 88 21 84 22 87 23 89 24 85 25
REMARK SMILES IDX 86 26 11 27 12 28 13 29 14 31 15 32 16 33 77 34 17 35 76 36
REMARK SMILES IDX 18 37 19 38 20 39 70 40 21 41 75 42 69 43 71 44 22 45 74 46
REMARK SMILES IDX 68 47 67 48 23 50 55 51 35 52 54 53 36 54 39 55 53 56 72 57
REMARK SMILES IDX 37 58 38 59 52 61 73 62 40 63 24 64 25 65 33 66 26 67 27 68
REMARK SMILES IDX 31 69 34 70 28 71 29 72 32 73 30 74 56 75 57 76 65 77 58 78
REMARK SMILES IDX 59 79 63 80 66 81 60 82 61 83 64 84 62 85 41 86 42 87 50 88
REMARK SMILES IDX 43 89 44 90 48 91 51 92 45 93 46 94 49 95 47 96
REMARK H PARENT 8 6 4 13 4 14 12 30 71 49 39 60
REMARK Flexibility Score: inf
ROOT
ATOM      1  C   UNL A   1      31.047  31.979  26.625  1.00  0.00     0.042 C 
ENDROOT
BRANCH   1   2
ATOM      2  C   UNL A   1      31.028  30.897  25.553  1.00  0.00     0.118 C 
BRANCH   2   3
ATOM      3  N   UNL A   1      32.249  30.127  25.507  1.00  0.00    -0.351 N 
ATOM      4  C   UNL A   1      32.601  29.051  24.766  1.00  0.00     0.281 C 
ATOM      5  O   UNL A   1      33.750  28.630  24.982  1.00  0.00    -0.268 OA
ATOM      6  H   UNL A   1      32.949  30.440  26.125  1.00  0.00     0.163 HD
BRANCH   4   7
ATOM      7  C   UNL A   1      31.649  28.262  23.780  1.00  0.00     0.179 C 
ATOM      8  C   UNL A   1      30.714  27.398  24.633  1.00  0.00     0.083 C 
ATOM      9  C   UNL A   1      30.682  29.106  22.919  1.00  0.00     0.124 C 
ATOM     10  C   UNL A   1      29.498  27.116  23.767  1.00  0.00     0.052 C 
ATOM     11  C   UNL A   1      29.321  28.365  22.892  1.00  0.00     0.180 C 
BRANCH   7  12
ATOM     12  N   UNL A   1      32.596  27.559  22.883  1.00  0.00    -0.332 N 
ATOM     13  H   UNL A   1      32.439  27.951  21.955  1.00  0.00     0.347 HD
ATOM     14  H   UNL A   1      33.475  27.709  23.381  1.00  0.00     0.347 HD
BRANCH  12  15
ATOM     15  C   UNL A   1      32.637  26.121  22.695  1.00  0.00     0.176 C 
ATOM     16  C   UNL A   1      32.530  25.893  21.180  1.00  0.00     0.075 C 
ATOM     17  C   UNL A   1      33.942  25.487  23.184  1.00  0.00     0.075 C 
ENDBRANCH  12  15
ENDBRANCH   7  12
BRANCH  11  18
ATOM     18  O   UNL A   1      28.248  29.297  23.127  1.00  0.00    -0.487 OA
BRANCH  18  19
ATOM     19  C   UNL A   1      28.297  30.549  22.595  1.00  0.00     0.158 A 
ATOM     20  C   UNL A   1      28.511  31.683  23.375  1.00  0.00     0.088 A 
ATOM     21  C   UNL A   1      27.997  30.712  21.241  1.00  0.00     0.165 A 
ATOM     22  C   UNL A   1      28.590  32.931  22.759  1.00  0.00     0.127 A 
ATOM     23  C   UNL A   1      28.077  31.960  20.625  1.00  0.00     0.046 A 
ATOM     24  F   UNL A   1      27.653  29.652  20.496  1.00  0.00    -0.203 F 
ATOM     25  F   UNL A   1      28.861  34.012  23.501  1.00  0.00    -0.207 F 
ATOM     26  C   UNL A   1      28.403  33.078  21.388  1.00  0.00     0.042 A 
ENDBRANCH  18  19
ENDBRANCH  11  18
ENDBRANCH   4   7
ENDBRANCH   2   3
ENDBRANCH   1   2
BRANCH   1  27
ATOM     27  C   UNL A   1      32.428  32.570  26.875  1.00  0.00     0.118 C 
BRANCH  27  28
ATOM     28  N   UNL A   1      32.382  33.913  27.433  1.00  0.00    -0.352 N 
ATOM     29  C   UNL A   1      33.106  34.545  28.414  1.00  0.00     0.251 C 
ATOM     30  H   UNL A   1      31.693  34.484  27.025  1.00  0.00     0.163 HD
ATOM     31  O   UNL A   1      32.729  35.655  28.789  1.00  0.00    -0.269 OA
BRANCH  29  32
ATOM     32  C   UNL A   1      34.299  33.941  29.061  1.00  0.00     0.039 A 
ATOM     33  C   UNL A   1      34.104  32.847  29.917  1.00  0.00     0.014 A 
ATOM     34  C   UNL A   1      35.584  34.463  28.931  1.00  0.00     0.014 A 
ATOM     35  C   UNL A   1      35.184  32.267  30.594  1.00  0.00     0.010 A 
ATOM     36  C   UNL A   1      36.676  33.818  29.513  1.00  0.00     0.010 A 
ATOM     37  C   UNL A   1      36.490  32.727  30.371  1.00  0.00    -0.014 A 
BRANCH  37  38
ATOM     38  C   UNL A   1      37.667  32.115  31.047  1.00  0.00     0.031 A 
ATOM     39  C   UNL A   1      38.486  31.061  30.346  1.00  0.00     0.074 A 
ATOM     40  C   UNL A   1      37.956  32.441  32.322  1.00  0.00     0.049 A 
ATOM     41  N   UNL A   1      39.461  30.318  30.811  1.00  0.00    -0.248 NA
ATOM     42  C   UNL A   1      38.134  30.775  28.946  1.00  0.00     0.031 C 
ATOM     43  C   UNL A   1      37.216  33.404  33.138  1.00  0.00     0.029 A 
ATOM     44  N   UNL A   1      38.944  31.985  33.161  1.00  0.00    -0.354 N 
ATOM     45  C   UNL A   1      39.807  29.457  29.777  1.00  0.00     0.074 A 
ATOM     46  C   UNL A   1      38.905  29.731  28.680  1.00  0.00     0.031 C 
ATOM     47  C   UNL A   1      37.786  33.483  34.350  1.00  0.00     0.029 A 
ATOM     48  C   UNL A   1      38.905  32.548  34.412  1.00  0.00     0.049 A 
ATOM     49  H   UNL A   1      39.614  31.317  32.891  1.00  0.00     0.167 HD
ATOM     50  C   UNL A   1      40.804  28.538  29.732  1.00  0.00     0.037 A 
ATOM     51  C   UNL A   1      39.678  32.332  35.493  1.00  0.00     0.037 A 
ATOM     52  C   UNL A   1      41.737  28.302  30.803  1.00  0.00     0.049 A 
ATOM     53  C   UNL A   1      40.803  31.338  35.410  1.00  0.00     0.074 A 
ATOM     54  C   UNL A   1      42.828  27.451  30.827  1.00  0.00     0.029 A 
ATOM     55  N   UNL A   1      41.690  28.927  32.041  1.00  0.00    -0.354 N 
ATOM     56  N   UNL A   1      41.153  30.568  34.409  1.00  0.00    -0.248 NA
ATOM     57  C   UNL A   1      41.643  31.187  36.606  1.00  0.00     0.031 C 
ATOM     58  C   UNL A   1      43.422  27.535  32.091  1.00  0.00     0.029 A 
ATOM     59  C   UNL A   1      42.726  28.470  32.841  1.00  0.00     0.049 A 
ATOM     60  H   UNL A   1      41.021  29.597  32.310  1.00  0.00     0.167 HD
ATOM     61  C   UNL A   1      42.261  29.855  34.846  1.00  0.00     0.074 A 
ATOM     62  C   UNL A   1      42.537  30.297  36.197  1.00  0.00     0.031 C 
ATOM     63  C   UNL A   1      42.984  28.917  34.186  1.00  0.00     0.037 A 
BRANCH  50  64
ATOM     64  C   UNL A   1      40.937  27.722  28.477  1.00  0.00     0.064 A 
ATOM     65  C   UNL A   1      41.756  28.133  27.413  1.00  0.00     0.173 A 
ATOM     66  C   UNL A   1      40.247  26.507  28.338  1.00  0.00     0.173 A 
ATOM     67  F   UNL A   1      42.429  29.291  27.488  1.00  0.00    -0.203 F 
ATOM     68  C   UNL A   1      41.844  27.383  26.243  1.00  0.00     0.198 A 
ATOM     69  C   UNL A   1      40.365  25.742  27.181  1.00  0.00     0.198 A 
ATOM     70  F   UNL A   1      39.458  26.061  29.327  1.00  0.00    -0.203 F 
ATOM     71  F   UNL A   1      42.581  27.830  25.217  1.00  0.00    -0.200 F 
ATOM     72  C   UNL A   1      41.153  26.186  26.130  1.00  0.00     0.200 A 
ATOM     73  F   UNL A   1      39.708  24.579  27.077  1.00  0.00    -0.200 F 
ATOM     74  F   UNL A   1      41.238  25.466  25.002  1.00  0.00    -0.200 F 
ENDBRANCH  50  64
BRANCH  51  75
ATOM     75  C   UNL A   1      39.426  33.101  36.738  1.00  0.00     0.064 A 
ATOM     76  C   UNL A   1      40.099  34.304  36.986  1.00  0.00     0.173 A 
ATOM     77  C   UNL A   1      38.486  32.669  37.685  1.00  0.00     0.173 A 
ATOM     78  F   UNL A   1      41.020  34.747  36.117  1.00  0.00    -0.203 F 
ATOM     79  C   UNL A   1      39.849  35.044  38.140  1.00  0.00     0.198 A 
ATOM     80  C   UNL A   1      38.218  33.422  38.826  1.00  0.00     0.198 A 
ATOM     81  F   UNL A   1      37.809  31.528  37.488  1.00  0.00    -0.203 F 
ATOM     82  F   UNL A   1      40.527  36.177  38.368  1.00  0.00    -0.200 F 
ATOM     83  C   UNL A   1      38.902  34.606  39.056  1.00  0.00     0.200 A 
ATOM     84  F   UNL A   1      37.291  33.004  39.699  1.00  0.00    -0.200 F 
ATOM     85  F   UNL A   1      38.653  35.324  40.158  1.00  0.00    -0.200 F 
ENDBRANCH  51  75
BRANCH  63  86
ATOM     86  C   UNL A   1      44.153  28.316  34.911  1.00  0.00     0.064 A 
ATOM     87  C   UNL A   1      44.027  27.128  35.647  1.00  0.00     0.173 A 
ATOM     88  C   UNL A   1      45.419  28.916  34.841  1.00  0.00     0.173 A 
ATOM     89  F   UNL A   1      42.833  26.526  35.758  1.00  0.00    -0.203 F 
ATOM     90  C   UNL A   1      45.122  26.577  36.307  1.00  0.00     0.198 A 
ATOM     91  C   UNL A   1      46.517  28.347  35.479  1.00  0.00     0.198 A 
ATOM     92  F   UNL A   1      45.592  30.050  34.145  1.00  0.00    -0.203 F 
ATOM     93  F   UNL A   1      44.970  25.467  37.041  1.00  0.00    -0.200 F 
ATOM     94  C   UNL A   1      46.366  27.182  36.216  1.00  0.00     0.200 A 
ATOM     95  F   UNL A   1      47.722  28.927  35.382  1.00  0.00    -0.200 F 
ATOM     96  F   UNL A   1      47.421  26.646  36.847  1.00  0.00    -0.200 F 
ENDBRANCH  63  86
ENDBRANCH  37  38
ENDBRANCH  29  32
ENDBRANCH  27  28
ENDBRANCH   1  27
TORSDOF 14
ENDMDL
MODEL 3
REMARK VINA RESULT:     -11.6      4.070     10.061
REMARK SMILES CC(C)[NH2+][C@]1(C(=O)NCCCNC(=O)c2ccc(-c3c4nc(c(-c5c(F)c(F)c(F)c(F)c5F)c5ccc([nH]5)c(-c5c(F)c(F)c(F)c(F)c5F)c5nc(c(-c6c(F)c(F)c(F)c(F)c6F)c6ccc3[nH]6)C=C5)C=C4)cc2)CC[C@@H](Oc2cc(F)ccc2F)C1
REMARK SMILES IDX 10 1 9 2 8 3 6 4 7 5 5 7 78 8 90 9 79 10 80 11 4 12 2 15
REMARK SMILES IDX 1 16 3 17 81 18 82 19 83 20 88 21 84 22 87 23 89 24 85 25
REMARK SMILES IDX 86 26 11 27 12 28 13 29 14 31 15 32 16 33 77 34 17 35 76 36
REMARK SMILES IDX 18 37 19 38 20 39 70 40 21 41 75 42 69 43 71 44 22 45 74 46
REMARK SMILES IDX 68 47 67 48 23 50 55 51 35 52 54 53 36 54 39 55 53 56 72 57
REMARK SMILES IDX 37 58 38 59 52 61 73 62 40 63 24 64 25 65 33 66 26 67 27 68
REMARK SMILES IDX 31 69 34 70 28 71 29 72 32 73 30 74 56 75 57 76 65 77 58 78
REMARK SMILES IDX 59 79 63 80 66 81 60 82 61 83 64 84 62 85 41 86 42 87 50 88
REMARK SMILES IDX 43 89 44 90 48 91 51 92 45 93 46 94 49 95 47 96
REMARK H PARENT 8 6 4 13 4 14 12 30 71 49 39 60
REMARK Flexibility Score: inf
ROOT
ATOM      1  C   UNL A   1      34.254  33.567  29.338  1.00  0.00     0.042 C 
ENDROOT
BRANCH   1   2
ATOM      2  C   UNL A   1      34.838  33.044  30.645  1.00  0.00     0.118 C 
BRANCH   2   3
ATOM      3  N   UNL A   1      34.839  34.033  31.697  1.00  0.00    -0.351 N 
ATOM      4  C   UNL A   1      35.852  34.597  32.393  1.00  0.00     0.281 C 
ATOM      5  O   UNL A   1      35.493  35.428  33.245  1.00  0.00    -0.268 OA
ATOM      6  H   UNL A   1      33.944  34.352  31.954  1.00  0.00     0.163 HD
BRANCH   4   7
ATOM      7  C   UNL A   1      37.378  34.199  32.282  1.00  0.00     0.179 C 
ATOM      8  C   UNL A   1      38.083  34.711  33.543  1.00  0.00     0.083 C 
ATOM      9  C   UNL A   1      37.707  32.689  32.266  1.00  0.00     0.124 C 
ATOM     10  C   UNL A   1      39.337  33.866  33.694  1.00  0.00     0.052 C 
ATOM     11  C   UNL A   1      38.966  32.481  33.146  1.00  0.00     0.180 C 
BRANCH   7  12
ATOM     12  N   UNL A   1      37.791  34.790  30.986  1.00  0.00    -0.332 N 
ATOM     13  H   UNL A   1      36.927  34.945  30.467  1.00  0.00     0.347 HD
ATOM     14  H   UNL A   1      38.363  35.571  31.309  1.00  0.00     0.347 HD
BRANCH  12  15
ATOM     15  C   UNL A   1      38.700  34.161  30.048  1.00  0.00     0.176 C 
ATOM     16  C   UNL A   1      37.859  33.829  28.806  1.00  0.00     0.075 C 
ATOM     17  C   UNL A   1      39.849  35.076  29.617  1.00  0.00     0.075 C 
ENDBRANCH  12  15
ENDBRANCH   7  12
BRANCH  11  18
ATOM     18  O   UNL A   1      38.772  31.356  34.024  1.00  0.00    -0.487 OA
BRANCH  18  19
ATOM     19  C   UNL A   1      39.377  30.166  33.761  1.00  0.00     0.158 A 
ATOM     20  C   UNL A   1      38.771  29.177  32.990  1.00  0.00     0.088 A 
ATOM     21  C   UNL A   1      40.590  29.879  34.389  1.00  0.00     0.165 A 
ATOM     22  C   UNL A   1      39.464  27.997  32.725  1.00  0.00     0.127 A 
ATOM     23  C   UNL A   1      41.284  28.700  34.123  1.00  0.00     0.046 A 
ATOM     24  F   UNL A   1      41.129  30.759  35.245  1.00  0.00    -0.203 F 
ATOM     25  F   UNL A   1      38.908  27.074  31.930  1.00  0.00    -0.207 F 
ATOM     26  C   UNL A   1      40.727  27.760  33.261  1.00  0.00     0.042 A 
ENDBRANCH  18  19
ENDBRANCH  11  18
ENDBRANCH   4   7
ENDBRANCH   2   3
ENDBRANCH   1   2
BRANCH   1  27
ATOM     27  C   UNL A   1      34.727  32.804  28.107  1.00  0.00     0.118 C 
BRANCH  27  28
ATOM     28  N   UNL A   1      34.057  31.525  27.937  1.00  0.00    -0.352 N 
ATOM     29  C   UNL A   1      34.512  30.230  27.870  1.00  0.00     0.251 C 
ATOM     30  H   UNL A   1      33.080  31.601  27.852  1.00  0.00     0.163 HD
ATOM     31  O   UNL A   1      33.713  29.350  27.554  1.00  0.00    -0.269 OA
BRANCH  29  32
ATOM     32  C   UNL A   1      35.925  29.852  28.129  1.00  0.00     0.039 A 
ATOM     33  C   UNL A   1      36.249  29.328  29.389  1.00  0.00     0.014 A 
ATOM     34  C   UNL A   1      36.955  30.078  27.218  1.00  0.00     0.014 A 
ATOM     35  C   UNL A   1      37.572  29.001  29.708  1.00  0.00     0.010 A 
ATOM     36  C   UNL A   1      38.254  29.647  27.491  1.00  0.00     0.010 A 
ATOM     37  C   UNL A   1      38.586  29.126  28.748  1.00  0.00    -0.014 A 
BRANCH  37  38
ATOM     38  C   UNL A   1      39.999  28.757  29.039  1.00  0.00     0.031 A 
ATOM     39  C   UNL A   1      40.912  29.729  29.743  1.00  0.00     0.074 A 
ATOM     40  C   UNL A   1      40.492  27.582  28.601  1.00  0.00     0.049 A 
ATOM     41  N   UNL A   1      42.200  29.648  29.967  1.00  0.00    -0.248 NA
ATOM     42  C   UNL A   1      40.300  30.980  30.220  1.00  0.00     0.031 C 
ATOM     43  C   UNL A   1      39.737  26.571  27.861  1.00  0.00     0.029 A 
ATOM     44  N   UNL A   1      41.754  27.047  28.702  1.00  0.00    -0.354 N 
ATOM     45  C   UNL A   1      42.555  30.847  30.574  1.00  0.00     0.074 A 
ATOM     46  C   UNL A   1      41.359  31.660  30.633  1.00  0.00     0.031 C 
ATOM     47  C   UNL A   1      40.541  25.530  27.594  1.00  0.00     0.029 A 
ATOM     48  C   UNL A   1      41.878  25.817  28.107  1.00  0.00     0.049 A 
ATOM     49  H   UNL A   1      42.497  27.503  29.158  1.00  0.00     0.167 HD
ATOM     50  C   UNL A   1      43.761  31.230  31.063  1.00  0.00     0.037 A 
ATOM     51  C   UNL A   1      42.949  25.011  27.978  1.00  0.00     0.037 A 
ATOM     52  C   UNL A   1      44.938  30.401  31.054  1.00  0.00     0.049 A 
ATOM     53  C   UNL A   1      44.267  25.436  28.562  1.00  0.00     0.074 A 
ATOM     54  C   UNL A   1      46.185  30.664  31.594  1.00  0.00     0.029 A 
ATOM     55  N   UNL A   1      45.010  29.140  30.479  1.00  0.00    -0.354 N 
ATOM     56  N   UNL A   1      44.577  26.550  29.180  1.00  0.00    -0.248 NA
ATOM     57  C   UNL A   1      45.383  24.489  28.435  1.00  0.00     0.031 C 
ATOM     58  C   UNL A   1      47.022  29.578  31.315  1.00  0.00     0.029 A 
ATOM     59  C   UNL A   1      46.285  28.620  30.639  1.00  0.00     0.049 A 
ATOM     60  H   UNL A   1      44.266  28.684  30.025  1.00  0.00     0.167 HD
ATOM     61  C   UNL A   1      45.915  26.432  29.530  1.00  0.00     0.074 A 
ATOM     62  C   UNL A   1      46.354  25.130  29.073  1.00  0.00     0.031 C 
ATOM     63  C   UNL A   1      46.708  27.324  30.173  1.00  0.00     0.037 A 
BRANCH  50  64
ATOM     64  C   UNL A   1      43.862  32.607  31.655  1.00  0.00     0.064 A 
ATOM     65  C   UNL A   1      44.180  33.727  30.869  1.00  0.00     0.173 A 
ATOM     66  C   UNL A   1      43.626  32.816  33.023  1.00  0.00     0.173 A 
ATOM     67  F   UNL A   1      44.426  33.583  29.558  1.00  0.00    -0.203 F 
ATOM     68  C   UNL A   1      44.301  34.992  31.438  1.00  0.00     0.198 A 
ATOM     69  C   UNL A   1      43.714  34.088  33.582  1.00  0.00     0.198 A 
ATOM     70  F   UNL A   1      43.308  31.784  33.819  1.00  0.00    -0.203 F 
ATOM     71  F   UNL A   1      44.670  36.033  30.678  1.00  0.00    -0.200 F 
ATOM     72  C   UNL A   1      44.063  35.173  32.791  1.00  0.00     0.200 A 
ATOM     73  F   UNL A   1      43.471  34.265  34.888  1.00  0.00    -0.200 F 
ATOM     74  F   UNL A   1      44.182  36.392  33.337  1.00  0.00    -0.200 F 
ENDBRANCH  50  64
BRANCH  51  75
ATOM     75  C   UNL A   1      42.802  23.704  27.289  1.00  0.00     0.064 A 
ATOM     76  C   UNL A   1      43.188  23.550  25.952  1.00  0.00     0.173 A 
ATOM     77  C   UNL A   1      42.305  22.577  27.961  1.00  0.00     0.173 A 
ATOM     78  F   UNL A   1      43.651  24.605  25.264  1.00  0.00    -0.203 F 
ATOM     79  C   UNL A   1      43.076  22.320  25.307  1.00  0.00     0.198 A 
ATOM     80  C   UNL A   1      42.217  21.341  27.323  1.00  0.00     0.198 A 
ATOM     81  F   UNL A   1      41.931  22.671  29.245  1.00  0.00    -0.203 F 
ATOM     82  F   UNL A   1      43.426  22.207  24.018  1.00  0.00    -0.200 F 
ATOM     83  C   UNL A   1      42.598  21.215  25.996  1.00  0.00     0.200 A 
ATOM     84  F   UNL A   1      41.771  20.272  27.997  1.00  0.00    -0.200 F 
ATOM     85  F   UNL A   1      42.503  20.029  25.379  1.00  0.00    -0.200 F 
ENDBRANCH  51  75
BRANCH  63  86
ATOM     86  C   UNL A   1      48.129  26.915  30.432  1.00  0.00     0.064 A 
ATOM     87  C   UNL A   1      48.475  26.137  31.547  1.00  0.00     0.173 A 
ATOM     88  C   UNL A   1      49.148  27.275  29.538  1.00  0.00     0.173 A 
ATOM     89  F   UNL A   1      47.539  25.782  32.439  1.00  0.00    -0.203 F 
ATOM     90  C   UNL A   1      49.795  25.756  31.770  1.00  0.00     0.198 A 
ATOM     91  C   UNL A   1      50.462  26.868  29.749  1.00  0.00     0.198 A 
ATOM     92  F   UNL A   1      48.867  28.014  28.454  1.00  0.00    -0.203 F 
ATOM     93  F   UNL A   1      50.112  25.051  32.865  1.00  0.00    -0.200 F 
ATOM     94  C   UNL A   1      50.786  26.115  30.868  1.00  0.00     0.200 A 
ATOM     95  F   UNL A   1      51.417  27.208  28.872  1.00  0.00    -0.200 F 
ATOM     96  F   UNL A   1      52.056  25.742  31.082  1.00  0.00    -0.200 F 
ENDBRANCH  63  86
ENDBRANCH  37  38
ENDBRANCH  29  32
ENDBRANCH  27  28
ENDBRANCH   1  27
TORSDOF 14
ENDMDL
