MODEL 1
REMARK VINA RESULT:     -13.6      0.000      0.000
REMARK SMILES C=Cc1cc(Cl)cc2c1O[C@H](C(F)(F)F)C(C(=O)NCCCNC(=O)c1ccc(-c3c4nc(c(-c5c(F)c(F)c(F)c(F)c5F)c5ccc([nH]5)c(-c5c(F)c(F)c(F)c(F)c5F)c5nc(c(-c6c(F)c(F)c(F)c(F)c6F)c6ccc3[nH]6)C=C5)C=C4)cc1)=C2
REMARK SMILES IDX 21 1 20 2 19 3 17 4 18 5 16 7 3 8 4 9 9 10 5 11 8 12 10 13
REMARK SMILES IDX 6 14 7 15 89 16 11 17 2 18 1 19 12 20 13 21 14 22 15 23
REMARK SMILES IDX 22 24 23 25 24 26 25 28 26 29 27 30 88 31 28 32 87 33 29 34
REMARK SMILES IDX 30 35 31 36 81 37 32 38 86 39 80 40 82 41 33 42 85 43 79 44
REMARK SMILES IDX 78 45 34 47 66 48 46 49 65 50 47 51 50 52 64 53 83 54 48 55
REMARK SMILES IDX 49 56 63 58 84 59 51 60 35 61 36 62 44 63 37 64 38 65 42 66
REMARK SMILES IDX 45 67 39 68 40 69 43 70 41 71 67 72 68 73 76 74 69 75 70 76
REMARK SMILES IDX 74 77 77 78 71 79 72 80 75 81 73 82 52 83 53 84 61 85 54 86
REMARK SMILES IDX 55 87 59 88 62 89 56 90 57 91 60 92 58 93
REMARK H PARENT 19 6 23 27 82 46 50 57
REMARK Flexibility Score: inf
ROOT
ATOM      1  C   UNL A   1      31.532  32.062  26.831  1.00  0.00     0.042 C 
ENDROOT
BRANCH   1   2
ATOM      2  C   UNL A   1      31.811  30.602  26.501  1.00  0.00     0.118 C 
BRANCH   2   3
ATOM      3  N   UNL A   1      31.405  30.268  25.144  1.00  0.00    -0.352 N 
ATOM      4  C   UNL A   1      31.271  29.155  24.387  1.00  0.00     0.251 C 
ATOM      5  O   UNL A   1      30.906  29.358  23.225  1.00  0.00    -0.270 OA
ATOM      6  H   UNL A   1      31.161  31.076  24.636  1.00  0.00     0.163 HD
BRANCH   4   7
ATOM      7  C   UNL A   1      31.523  27.760  24.848  1.00  0.00     0.067 C 
ATOM      8  C   UNL A   1      32.401  23.936  26.380  1.00  0.00     0.018 A 
ATOM      9  C   UNL A   1      33.716  23.460  26.293  1.00  0.00     0.032 A 
ATOM     10  C   UNL A   1      32.122  25.234  25.922  1.00  0.00     0.135 A 
ATOM     11  C   UNL A   1      34.727  24.280  25.789  1.00  0.00     0.042 A 
ATOM     12  C   UNL A   1      33.138  26.058  25.422  1.00  0.00     0.019 A 
ATOM     13  O   UNL A   1      30.833  25.692  26.035  1.00  0.00    -0.475 OA
ATOM     14  Cl  UNL A   1      36.338  23.681  25.693  1.00  0.00    -0.084 Cl
ATOM     15  C   UNL A   1      34.447  25.577  25.360  1.00  0.00     0.032 A 
ATOM     16  C   UNL A   1      32.816  27.418  25.002  1.00  0.00     0.025 C 
ATOM     17  C   UNL A   1      30.449  26.747  25.115  1.00  0.00     0.314 C 
BRANCH   8  18
ATOM     18  C   UNL A   1      31.319  23.071  26.872  1.00  0.00     0.004 C 
ATOM     19  C   UNL A   1      30.650  22.203  26.103  1.00  0.00     0.009 C 
ENDBRANCH   8  18
BRANCH  17  20
ATOM     20  C   UNL A   1      29.882  26.122  23.825  1.00  0.00     0.429 C 
ATOM     21  F   UNL A   1      29.757  24.779  23.970  1.00  0.00    -0.167 F 
ATOM     22  F   UNL A   1      28.649  26.591  23.520  1.00  0.00    -0.167 F 
ATOM     23  F   UNL A   1      30.665  26.342  22.746  1.00  0.00    -0.167 F 
ENDBRANCH  17  20
ENDBRANCH   4   7
ENDBRANCH   2   3
ENDBRANCH   1   2
BRANCH   1  24
ATOM     24  C   UNL A   1      32.769  32.783  27.354  1.00  0.00     0.118 C 
BRANCH  24  25
ATOM     25  N   UNL A   1      32.511  34.196  27.625  1.00  0.00    -0.352 N 
ATOM     26  C   UNL A   1      33.037  35.028  28.584  1.00  0.00     0.251 C 
ATOM     27  H   UNL A   1      31.854  34.619  27.026  1.00  0.00     0.163 HD
ATOM     28  O   UNL A   1      32.527  36.123  28.798  1.00  0.00    -0.269 OA
BRANCH  26  29
ATOM     29  C   UNL A   1      34.199  34.587  29.380  1.00  0.00     0.039 A 
ATOM     30  C   UNL A   1      35.478  34.600  28.823  1.00  0.00     0.014 A 
ATOM     31  C   UNL A   1      34.004  34.137  30.688  1.00  0.00     0.014 A 
ATOM     32  C   UNL A   1      36.521  33.970  29.488  1.00  0.00     0.010 A 
ATOM     33  C   UNL A   1      35.079  33.592  31.396  1.00  0.00     0.010 A 
ATOM     34  C   UNL A   1      36.331  33.449  30.776  1.00  0.00    -0.014 A 
BRANCH  34  35
ATOM     35  C   UNL A   1      37.438  32.719  31.444  1.00  0.00     0.031 A 
ATOM     36  C   UNL A   1      38.163  31.616  30.724  1.00  0.00     0.074 A 
ATOM     37  C   UNL A   1      37.825  33.086  32.679  1.00  0.00     0.049 A 
ATOM     38  N   UNL A   1      39.104  30.818  31.164  1.00  0.00    -0.248 NA
ATOM     39  C   UNL A   1      37.777  31.368  29.325  1.00  0.00     0.031 C 
ATOM     40  C   UNL A   1      37.221  34.162  33.467  1.00  0.00     0.029 A 
ATOM     41  N   UNL A   1      38.828  32.607  33.483  1.00  0.00    -0.354 N 
ATOM     42  C   UNL A   1      39.391  29.953  30.116  1.00  0.00     0.074 A 
ATOM     43  C   UNL A   1      38.519  30.314  29.018  1.00  0.00     0.031 C 
ATOM     44  C   UNL A   1      37.892  34.291  34.620  1.00  0.00     0.029 A 
ATOM     45  C   UNL A   1      38.921  33.260  34.686  1.00  0.00     0.049 A 
ATOM     46  H   UNL A   1      39.423  31.868  33.221  1.00  0.00     0.167 HD
ATOM     47  C   UNL A   1      40.303  28.952  30.074  1.00  0.00     0.037 A 
ATOM     48  C   UNL A   1      39.726  33.033  35.741  1.00  0.00     0.037 A 
ATOM     49  C   UNL A   1      41.198  28.627  31.154  1.00  0.00     0.049 A 
ATOM     50  C   UNL A   1      40.710  31.904  35.680  1.00  0.00     0.074 A 
ATOM     51  C   UNL A   1      42.180  27.653  31.199  1.00  0.00     0.029 A 
ATOM     52  N   UNL A   1      41.224  29.277  32.380  1.00  0.00    -0.354 N 
ATOM     53  N   UNL A   1      40.948  31.069  34.697  1.00  0.00    -0.248 NA
ATOM     54  C   UNL A   1      41.524  31.671  36.880  1.00  0.00     0.031 C 
ATOM     55  C   UNL A   1      42.775  27.689  32.465  1.00  0.00     0.029 A 
ATOM     56  C   UNL A   1      42.191  28.712  33.196  1.00  0.00     0.049 A 
ATOM     57  H   UNL A   1      40.641  30.029  32.633  1.00  0.00     0.167 HD
ATOM     58  C   UNL A   1      41.930  30.206  35.161  1.00  0.00     0.074 A 
ATOM     59  C   UNL A   1      42.268  30.641  36.502  1.00  0.00     0.031 C 
ATOM     60  C   UNL A   1      42.492  29.141  34.537  1.00  0.00     0.037 A 
BRANCH  47  61
ATOM     61  C   UNL A   1      40.365  28.116  28.830  1.00  0.00     0.064 A 
ATOM     62  C   UNL A   1      41.147  28.487  27.726  1.00  0.00     0.173 A 
ATOM     63  C   UNL A   1      39.663  26.903  28.759  1.00  0.00     0.173 A 
ATOM     64  F   UNL A   1      41.824  29.645  27.737  1.00  0.00    -0.203 F 
ATOM     65  C   UNL A   1      41.209  27.683  26.591  1.00  0.00     0.198 A 
ATOM     66  C   UNL A   1      39.746  26.090  27.632  1.00  0.00     0.198 A 
ATOM     67  F   UNL A   1      38.902  26.502  29.788  1.00  0.00    -0.203 F 
ATOM     68  F   UNL A   1      41.932  28.075  25.532  1.00  0.00    -0.200 F 
ATOM     69  C   UNL A   1      40.515  26.482  26.548  1.00  0.00     0.200 A 
ATOM     70  F   UNL A   1      39.082  24.926  27.596  1.00  0.00    -0.200 F 
ATOM     71  F   UNL A   1      40.582  25.706  25.457  1.00  0.00    -0.200 F 
ENDBRANCH  47  61
BRANCH  48  72
ATOM     72  C   UNL A   1      39.597  33.887  36.947  1.00  0.00     0.064 A 
ATOM     73  C   UNL A   1      40.220  35.140  37.014  1.00  0.00     0.173 A 
ATOM     74  C   UNL A   1      38.803  33.491  38.035  1.00  0.00     0.173 A 
ATOM     75  F   UNL A   1      41.004  35.551  36.007  1.00  0.00    -0.203 F 
ATOM     76  C   UNL A   1      40.050  35.967  38.122  1.00  0.00     0.198 A 
ATOM     77  C   UNL A   1      38.613  34.330  39.130  1.00  0.00     0.198 A 
ATOM     78  F   UNL A   1      38.184  32.302  38.015  1.00  0.00    -0.203 F 
ATOM     79  F   UNL A   1      40.672  37.152  38.171  1.00  0.00    -0.200 F 
ATOM     80  C   UNL A   1      39.238  35.566  39.173  1.00  0.00     0.200 A 
ATOM     81  F   UNL A   1      37.814  33.946  40.134  1.00  0.00    -0.200 F 
ATOM     82  F   UNL A   1      39.058  36.372  40.228  1.00  0.00    -0.200 F 
ENDBRANCH  48  72
BRANCH  60  83
ATOM     83  C   UNL A   1      43.515  28.366  35.310  1.00  0.00     0.064 A 
ATOM     84  C   UNL A   1      43.139  27.326  36.175  1.00  0.00     0.173 A 
ATOM     85  C   UNL A   1      44.882  28.642  35.168  1.00  0.00     0.173 A 
ATOM     86  F   UNL A   1      41.841  27.037  36.355  1.00  0.00    -0.203 F 
ATOM     87  C   UNL A   1      44.094  26.608  36.886  1.00  0.00     0.198 A 
ATOM     88  C   UNL A   1      45.837  27.904  35.861  1.00  0.00     0.198 A 
ATOM     89  F   UNL A   1      45.293  29.623  34.349  1.00  0.00    -0.203 F 
ATOM     90  F   UNL A   1      43.709  25.649  37.740  1.00  0.00    -0.200 F 
ATOM     91  C   UNL A   1      45.442  26.893  36.725  1.00  0.00     0.200 A 
ATOM     92  F   UNL A   1      47.139  28.173  35.698  1.00  0.00    -0.200 F 
ATOM     93  F   UNL A   1      46.361  26.198  37.409  1.00  0.00    -0.200 F 
ENDBRANCH  60  83
ENDBRANCH  34  35
ENDBRANCH  26  29
ENDBRANCH  24  25
ENDBRANCH   1  24
TORSDOF 12
ENDMDL
MODEL 2
REMARK VINA RESULT:     -13.5      0.504      1.314
REMARK SMILES C=Cc1cc(Cl)cc2c1O[C@H](C(F)(F)F)C(C(=O)NCCCNC(=O)c1ccc(-c3c4nc(c(-c5c(F)c(F)c(F)c(F)c5F)c5ccc([nH]5)c(-c5c(F)c(F)c(F)c(F)c5F)c5nc(c(-c6c(F)c(F)c(F)c(F)c6F)c6ccc3[nH]6)C=C5)C=C4)cc1)=C2
REMARK SMILES IDX 21 1 20 2 19 3 17 4 18 5 16 7 3 8 4 9 9 10 5 11 8 12 10 13
REMARK SMILES IDX 6 14 7 15 89 16 11 17 2 18 1 19 12 20 13 21 14 22 15 23
REMARK SMILES IDX 22 24 23 25 24 26 25 28 26 29 27 30 88 31 28 32 87 33 29 34
REMARK SMILES IDX 30 35 31 36 81 37 32 38 86 39 80 40 82 41 33 42 85 43 79 44
REMARK SMILES IDX 78 45 34 47 66 48 46 49 65 50 47 51 50 52 64 53 83 54 48 55
REMARK SMILES IDX 49 56 63 58 84 59 51 60 35 61 36 62 44 63 37 64 38 65 42 66
REMARK SMILES IDX 45 67 39 68 40 69 43 70 41 71 67 72 68 73 76 74 69 75 70 76
REMARK SMILES IDX 74 77 77 78 71 79 72 80 75 81 73 82 52 83 53 84 61 85 54 86
REMARK SMILES IDX 55 87 59 88 62 89 56 90 57 91 60 92 58 93
REMARK H PARENT 19 6 23 27 82 46 50 57
REMARK Flexibility Score: inf
ROOT
ATOM      1  C   UNL A   1      31.558  31.952  26.845  1.00  0.00     0.042 C 
ENDROOT
BRANCH   1   2
ATOM      2  C   UNL A   1      31.818  30.465  26.647  1.00  0.00     0.118 C 
BRANCH   2   3
ATOM      3  N   UNL A   1      32.415  30.192  25.347  1.00  0.00    -0.352 N 
ATOM      4  C   UNL A   1      32.808  29.109  24.637  1.00  0.00     0.251 C 
ATOM      5  O   UNL A   1      33.310  29.363  23.538  1.00  0.00    -0.270 OA
ATOM      6  H   UNL A   1      32.579  31.024  24.847  1.00  0.00     0.163 HD
BRANCH   4   7
ATOM      7  C   UNL A   1      32.674  27.691  25.077  1.00  0.00     0.067 C 
ATOM      8  C   UNL A   1      32.501  23.745  26.541  1.00  0.00     0.018 A 
ATOM      9  C   UNL A   1      33.622  22.919  26.385  1.00  0.00     0.032 A 
ATOM     10  C   UNL A   1      32.581  25.079  26.105  1.00  0.00     0.135 A 
ATOM     11  C   UNL A   1      34.799  23.428  25.836  1.00  0.00     0.042 A 
ATOM     12  C   UNL A   1      33.765  25.591  25.560  1.00  0.00     0.019 A 
ATOM     13  O   UNL A   1      31.482  25.880  26.285  1.00  0.00    -0.475 OA
ATOM     14  Cl  UNL A   1      36.168  22.400  25.655  1.00  0.00    -0.084 Cl
ATOM     15  C   UNL A   1      34.880  24.760  25.429  1.00  0.00     0.032 A 
ATOM     16  C   UNL A   1      33.823  26.994  25.164  1.00  0.00     0.025 C 
ATOM     17  C   UNL A   1      31.371  27.019  25.391  1.00  0.00     0.314 C 
BRANCH   8  18
ATOM     18  C   UNL A   1      31.242  23.213  27.082  1.00  0.00     0.004 C 
ATOM     19  C   UNL A   1      30.327  22.570  26.346  1.00  0.00     0.009 C 
ENDBRANCH   8  18
BRANCH  17  20
ATOM     20  C   UNL A   1      30.590  26.606  24.129  1.00  0.00     0.429 C 
ATOM     21  F   UNL A   1      29.927  27.672  23.616  1.00  0.00    -0.167 F 
ATOM     22  F   UNL A   1      31.400  26.149  23.144  1.00  0.00    -0.167 F 
ATOM     23  F   UNL A   1      29.678  25.638  24.368  1.00  0.00    -0.167 F 
ENDBRANCH  17  20
ENDBRANCH   4   7
ENDBRANCH   2   3
ENDBRANCH   1   2
BRANCH   1  24
ATOM     24  C   UNL A   1      32.780  32.687  27.383  1.00  0.00     0.118 C 
BRANCH  24  25
ATOM     25  N   UNL A   1      32.506  34.099  27.643  1.00  0.00    -0.352 N 
ATOM     26  C   UNL A   1      33.020  34.943  28.598  1.00  0.00     0.251 C 
ATOM     27  H   UNL A   1      31.847  34.511  27.037  1.00  0.00     0.163 HD
ATOM     28  O   UNL A   1      32.496  36.035  28.801  1.00  0.00    -0.269 OA
BRANCH  26  29
ATOM     29  C   UNL A   1      34.182  34.521  29.402  1.00  0.00     0.039 A 
ATOM     30  C   UNL A   1      35.471  34.614  28.878  1.00  0.00     0.014 A 
ATOM     31  C   UNL A   1      33.979  34.007  30.685  1.00  0.00     0.014 A 
ATOM     32  C   UNL A   1      36.526  34.003  29.540  1.00  0.00     0.010 A 
ATOM     33  C   UNL A   1      35.061  33.481  31.395  1.00  0.00     0.010 A 
ATOM     34  C   UNL A   1      36.331  33.419  30.800  1.00  0.00    -0.014 A 
BRANCH  34  35
ATOM     35  C   UNL A   1      37.456  32.711  31.463  1.00  0.00     0.031 A 
ATOM     36  C   UNL A   1      38.188  31.611  30.747  1.00  0.00     0.074 A 
ATOM     37  C   UNL A   1      37.850  33.095  32.691  1.00  0.00     0.049 A 
ATOM     38  N   UNL A   1      39.145  30.831  31.185  1.00  0.00    -0.248 NA
ATOM     39  C   UNL A   1      37.792  31.345  29.354  1.00  0.00     0.031 C 
ATOM     40  C   UNL A   1      37.239  34.170  33.475  1.00  0.00     0.029 A 
ATOM     41  N   UNL A   1      38.868  32.638  33.489  1.00  0.00    -0.354 N 
ATOM     42  C   UNL A   1      39.433  29.960  30.141  1.00  0.00     0.074 A 
ATOM     43  C   UNL A   1      38.545  30.298  29.050  1.00  0.00     0.031 C 
ATOM     44  C   UNL A   1      37.920  34.319  34.620  1.00  0.00     0.029 A 
ATOM     45  C   UNL A   1      38.963  33.303  34.685  1.00  0.00     0.049 A 
ATOM     46  H   UNL A   1      39.469  31.905  33.228  1.00  0.00     0.167 HD
ATOM     47  C   UNL A   1      40.358  28.971  30.100  1.00  0.00     0.037 A 
ATOM     48  C   UNL A   1      39.782  33.097  35.734  1.00  0.00     0.037 A 
ATOM     49  C   UNL A   1      41.269  28.669  31.174  1.00  0.00     0.049 A 
ATOM     50  C   UNL A   1      40.781  31.981  35.673  1.00  0.00     0.074 A 
ATOM     51  C   UNL A   1      42.264  27.709  31.218  1.00  0.00     0.029 A 
ATOM     52  N   UNL A   1      41.298  29.331  32.393  1.00  0.00    -0.354 N 
ATOM     53  N   UNL A   1      41.021  31.141  34.696  1.00  0.00    -0.248 NA
ATOM     54  C   UNL A   1      41.610  31.772  36.867  1.00  0.00     0.031 C 
ATOM     55  C   UNL A   1      42.872  27.765  32.477  1.00  0.00     0.029 A 
ATOM     56  C   UNL A   1      42.281  28.787  33.204  1.00  0.00     0.049 A 
ATOM     57  H   UNL A   1      40.707  30.077  32.645  1.00  0.00     0.167 HD
ATOM     58  C   UNL A   1      42.019  30.296  35.157  1.00  0.00     0.074 A 
ATOM     59  C   UNL A   1      42.365  30.748  36.491  1.00  0.00     0.031 C 
ATOM     60  C   UNL A   1      42.590  29.233  34.539  1.00  0.00     0.037 A 
BRANCH  47  61
ATOM     61  C   UNL A   1      40.419  28.124  28.863  1.00  0.00     0.064 A 
ATOM     62  C   UNL A   1      41.196  28.488  27.753  1.00  0.00     0.173 A 
ATOM     63  C   UNL A   1      39.722  26.908  28.806  1.00  0.00     0.173 A 
ATOM     64  F   UNL A   1      41.869  29.649  27.751  1.00  0.00    -0.203 F 
ATOM     65  C   UNL A   1      41.258  27.674  26.625  1.00  0.00     0.198 A 
ATOM     66  C   UNL A   1      39.804  26.085  27.685  1.00  0.00     0.198 A 
ATOM     67  F   UNL A   1      38.966  26.513  29.841  1.00  0.00    -0.203 F 
ATOM     68  F   UNL A   1      41.975  28.060  25.560  1.00  0.00    -0.200 F 
ATOM     69  C   UNL A   1      40.568  26.470  26.595  1.00  0.00     0.200 A 
ATOM     70  F   UNL A   1      39.145  24.919  27.662  1.00  0.00    -0.200 F 
ATOM     71  F   UNL A   1      40.634  25.685  25.511  1.00  0.00    -0.200 F 
ENDBRANCH  47  61
BRANCH  48  72
ATOM     72  C   UNL A   1      39.653  33.961  36.933  1.00  0.00     0.064 A 
ATOM     73  C   UNL A   1      40.278  35.214  36.990  1.00  0.00     0.173 A 
ATOM     74  C   UNL A   1      38.859  33.574  38.024  1.00  0.00     0.173 A 
ATOM     75  F   UNL A   1      41.062  35.617  35.980  1.00  0.00    -0.203 F 
ATOM     76  C   UNL A   1      40.108  36.050  38.091  1.00  0.00     0.198 A 
ATOM     77  C   UNL A   1      38.670  34.422  39.112  1.00  0.00     0.198 A 
ATOM     78  F   UNL A   1      38.239  32.386  38.013  1.00  0.00    -0.203 F 
ATOM     79  F   UNL A   1      40.731  37.235  38.131  1.00  0.00    -0.200 F 
ATOM     80  C   UNL A   1      39.295  35.658  39.146  1.00  0.00     0.200 A 
ATOM     81  F   UNL A   1      37.870  34.047  40.119  1.00  0.00    -0.200 F 
ATOM     82  F   UNL A   1      39.116  36.473  40.194  1.00  0.00    -0.200 F 
ENDBRANCH  48  72
BRANCH  60  83
ATOM     83  C   UNL A   1      43.631  28.479  35.308  1.00  0.00     0.064 A 
ATOM     84  C   UNL A   1      44.995  28.785  35.177  1.00  0.00     0.173 A 
ATOM     85  C   UNL A   1      43.267  27.461  36.201  1.00  0.00     0.173 A 
ATOM     86  F   UNL A   1      45.392  29.740  34.323  1.00  0.00    -0.203 F 
ATOM     87  C   UNL A   1      45.956  28.083  35.897  1.00  0.00     0.198 A 
ATOM     88  C   UNL A   1      44.229  26.779  36.939  1.00  0.00     0.198 A 
ATOM     89  F   UNL A   1      41.976  27.135  36.365  1.00  0.00    -0.203 F 
ATOM     90  F   UNL A   1      47.255  28.363  35.724  1.00  0.00    -0.200 F 
ATOM     91  C   UNL A   1      45.573  27.086  36.781  1.00  0.00     0.200 A 
ATOM     92  F   UNL A   1      43.859  25.822  37.800  1.00  0.00    -0.200 F 
ATOM     93  F   UNL A   1      46.501  26.413  37.476  1.00  0.00    -0.200 F 
ENDBRANCH  60  83
ENDBRANCH  34  35
ENDBRANCH  26  29
ENDBRANCH  24  25
ENDBRANCH   1  24
TORSDOF 12
ENDMDL
MODEL 3
REMARK VINA RESULT:     -13.5      1.558      1.773
REMARK SMILES C=Cc1cc(Cl)cc2c1O[C@H](C(F)(F)F)C(C(=O)NCCCNC(=O)c1ccc(-c3c4nc(c(-c5c(F)c(F)c(F)c(F)c5F)c5ccc([nH]5)c(-c5c(F)c(F)c(F)c(F)c5F)c5nc(c(-c6c(F)c(F)c(F)c(F)c6F)c6ccc3[nH]6)C=C5)C=C4)cc1)=C2
REMARK SMILES IDX 21 1 20 2 19 3 17 4 18 5 16 7 3 8 4 9 9 10 5 11 8 12 10 13
REMARK SMILES IDX 6 14 7 15 89 16 11 17 2 18 1 19 12 20 13 21 14 22 15 23
REMARK SMILES IDX 22 24 23 25 24 26 25 28 26 29 27 30 88 31 28 32 87 33 29 34
REMARK SMILES IDX 30 35 31 36 81 37 32 38 86 39 80 40 82 41 33 42 85 43 79 44
REMARK SMILES IDX 78 45 34 47 66 48 46 49 65 50 47 51 50 52 64 53 83 54 48 55
REMARK SMILES IDX 49 56 63 58 84 59 51 60 35 61 36 62 44 63 37 64 38 65 42 66
REMARK SMILES IDX 45 67 39 68 40 69 43 70 41 71 67 72 68 73 76 74 69 75 70 76
REMARK SMILES IDX 74 77 77 78 71 79 72 80 75 81 73 82 52 83 53 84 61 85 54 86
REMARK SMILES IDX 55 87 59 88 62 89 56 90 57 91 60 92 58 93
REMARK H PARENT 19 6 23 27 82 46 50 57
REMARK Flexibility Score: inf
ROOT
ATOM      1  C   UNL A   1      31.482  31.948  26.810  1.00  0.00     0.042 C 
ENDROOT
BRANCH   1   2
ATOM      2  C   UNL A   1      31.847  30.629  26.141  1.00  0.00     0.118 C 
BRANCH   2   3
ATOM      3  N   UNL A   1      33.221  30.242  26.427  1.00  0.00    -0.352 N 
ATOM      4  C   UNL A   1      34.013  29.161  26.240  1.00  0.00     0.251 C 
ATOM      5  O   UNL A   1      35.157  29.272  26.690  1.00  0.00    -0.270 OA
ATOM      6  H   UNL A   1      33.708  30.966  26.883  1.00  0.00     0.163 HD
BRANCH   4   7
ATOM      7  C   UNL A   1      33.609  27.902  25.553  1.00  0.00     0.067 C 
ATOM      8  C   UNL A   1      32.745  24.336  23.484  1.00  0.00     0.018 A 
ATOM      9  C   UNL A   1      32.628  24.377  22.088  1.00  0.00     0.032 A 
ATOM     10  C   UNL A   1      33.091  25.514  24.167  1.00  0.00     0.135 A 
ATOM     11  C   UNL A   1      32.884  25.563  21.397  1.00  0.00     0.042 A 
ATOM     12  C   UNL A   1      33.353  26.701  23.472  1.00  0.00     0.019 A 
ATOM     13  O   UNL A   1      33.222  25.450  25.532  1.00  0.00    -0.475 OA
ATOM     14  Cl  UNL A   1      32.740  25.595  19.682  1.00  0.00    -0.084 Cl
ATOM     15  C   UNL A   1      33.252  26.722  22.080  1.00  0.00     0.032 A 
ATOM     16  C   UNL A   1      33.757  27.891  24.214  1.00  0.00     0.025 C 
ATOM     17  C   UNL A   1      33.041  26.700  26.248  1.00  0.00     0.314 C 
BRANCH   8  18
ATOM     18  C   UNL A   1      32.441  23.105  24.228  1.00  0.00     0.004 C 
ATOM     19  C   UNL A   1      33.095  21.950  24.057  1.00  0.00     0.009 C 
ENDBRANCH   8  18
BRANCH  17  20
ATOM     20  C   UNL A   1      31.554  26.868  26.618  1.00  0.00     0.429 C 
ATOM     21  F   UNL A   1      30.886  27.486  25.611  1.00  0.00    -0.167 F 
ATOM     22  F   UNL A   1      30.932  25.682  26.819  1.00  0.00    -0.167 F 
ATOM     23  F   UNL A   1      31.371  27.604  27.736  1.00  0.00    -0.167 F 
ENDBRANCH  17  20
ENDBRANCH   4   7
ENDBRANCH   2   3
ENDBRANCH   1   2
BRANCH   1  24
ATOM     24  C   UNL A   1      32.697  32.648  27.409  1.00  0.00     0.118 C 
BRANCH  24  25
ATOM     25  N   UNL A   1      32.462  34.074  27.623  1.00  0.00    -0.352 N 
ATOM     26  C   UNL A   1      33.007  34.936  28.545  1.00  0.00     0.251 C 
ATOM     27  H   UNL A   1      31.809  34.483  27.010  1.00  0.00     0.163 HD
ATOM     28  O   UNL A   1      32.514  36.047  28.716  1.00  0.00    -0.269 OA
BRANCH  26  29
ATOM     29  C   UNL A   1      34.166  34.510  29.352  1.00  0.00     0.039 A 
ATOM     30  C   UNL A   1      35.458  34.624  28.842  1.00  0.00     0.014 A 
ATOM     31  C   UNL A   1      33.955  33.971  30.624  1.00  0.00     0.014 A 
ATOM     32  C   UNL A   1      36.513  34.012  29.504  1.00  0.00     0.010 A 
ATOM     33  C   UNL A   1      35.036  33.442  31.335  1.00  0.00     0.010 A 
ATOM     34  C   UNL A   1      36.313  33.403  30.751  1.00  0.00    -0.014 A 
BRANCH  34  35
ATOM     35  C   UNL A   1      37.437  32.694  31.412  1.00  0.00     0.031 A 
ATOM     36  C   UNL A   1      38.176  31.602  30.689  1.00  0.00     0.074 A 
ATOM     37  C   UNL A   1      37.826  33.070  32.644  1.00  0.00     0.049 A 
ATOM     38  N   UNL A   1      39.133  30.822  31.124  1.00  0.00    -0.248 NA
ATOM     39  C   UNL A   1      37.784  31.345  29.293  1.00  0.00     0.031 C 
ATOM     40  C   UNL A   1      37.210  34.137  33.434  1.00  0.00     0.029 A 
ATOM     41  N   UNL A   1      38.844  32.610  33.441  1.00  0.00    -0.354 N 
ATOM     42  C   UNL A   1      39.428  29.960  30.075  1.00  0.00     0.074 A 
ATOM     43  C   UNL A   1      38.542  30.303  28.983  1.00  0.00     0.031 C 
ATOM     44  C   UNL A   1      37.887  34.280  34.582  1.00  0.00     0.029 A 
ATOM     45  C   UNL A   1      38.934  33.266  34.643  1.00  0.00     0.049 A 
ATOM     46  H   UNL A   1      39.449  31.881  33.176  1.00  0.00     0.167 HD
ATOM     47  C   UNL A   1      40.357  28.975  30.029  1.00  0.00     0.037 A 
ATOM     48  C   UNL A   1      39.750  33.055  35.692  1.00  0.00     0.037 A 
ATOM     49  C   UNL A   1      41.265  28.667  31.102  1.00  0.00     0.049 A 
ATOM     50  C   UNL A   1      40.753  31.943  35.626  1.00  0.00     0.074 A 
ATOM     51  C   UNL A   1      42.263  27.710  31.142  1.00  0.00     0.029 A 
ATOM     52  N   UNL A   1      41.288  29.320  32.327  1.00  0.00    -0.354 N 
ATOM     53  N   UNL A   1      40.998  31.111  34.643  1.00  0.00    -0.248 NA
ATOM     54  C   UNL A   1      41.579  31.727  36.820  1.00  0.00     0.031 C 
ATOM     55  C   UNL A   1      42.867  27.759  32.403  1.00  0.00     0.029 A 
ATOM     56  C   UNL A   1      42.271  28.773  33.137  1.00  0.00     0.049 A 
ATOM     57  H   UNL A   1      40.694  30.062  32.583  1.00  0.00     0.167 HD
ATOM     58  C   UNL A   1      41.998  30.266  35.101  1.00  0.00     0.074 A 
ATOM     59  C   UNL A   1      42.339  30.709  36.439  1.00  0.00     0.031 C 
ATOM     60  C   UNL A   1      42.574  29.210  34.475  1.00  0.00     0.037 A 
BRANCH  47  61
ATOM     61  C   UNL A   1      40.424  28.137  28.785  1.00  0.00     0.064 A 
ATOM     62  C   UNL A   1      41.194  28.518  27.676  1.00  0.00     0.173 A 
ATOM     63  C   UNL A   1      39.739  26.914  28.721  1.00  0.00     0.173 A 
ATOM     64  F   UNL A   1      41.854  29.686  27.681  1.00  0.00    -0.203 F 
ATOM     65  C   UNL A   1      41.262  27.712  26.542  1.00  0.00     0.198 A 
ATOM     66  C   UNL A   1      39.829  26.100  27.594  1.00  0.00     0.198 A 
ATOM     67  F   UNL A   1      38.990  26.504  29.754  1.00  0.00    -0.203 F 
ATOM     68  F   UNL A   1      41.973  28.114  25.479  1.00  0.00    -0.200 F 
ATOM     69  C   UNL A   1      40.586  26.502  26.505  1.00  0.00     0.200 A 
ATOM     70  F   UNL A   1      39.182  24.927  27.563  1.00  0.00    -0.200 F 
ATOM     71  F   UNL A   1      40.658  25.725  25.415  1.00  0.00    -0.200 F 
ENDBRANCH  47  61
BRANCH  48  72
ATOM     72  C   UNL A   1      39.615  33.909  36.898  1.00  0.00     0.064 A 
ATOM     73  C   UNL A   1      40.240  35.161  36.969  1.00  0.00     0.173 A 
ATOM     74  C   UNL A   1      38.813  33.515  37.980  1.00  0.00     0.173 A 
ATOM     75  F   UNL A   1      41.032  35.571  35.967  1.00  0.00    -0.203 F 
ATOM     76  C   UNL A   1      40.065  35.988  38.076  1.00  0.00     0.198 A 
ATOM     77  C   UNL A   1      38.618  34.354  39.074  1.00  0.00     0.198 A 
ATOM     78  F   UNL A   1      38.192  32.327  37.956  1.00  0.00    -0.203 F 
ATOM     79  F   UNL A   1      40.689  37.172  38.129  1.00  0.00    -0.200 F 
ATOM     80  C   UNL A   1      39.245  35.589  39.121  1.00  0.00     0.200 A 
ATOM     81  F   UNL A   1      37.811  33.971  40.073  1.00  0.00    -0.200 F 
ATOM     82  F   UNL A   1      39.060  36.395  40.175  1.00  0.00    -0.200 F 
ENDBRANCH  48  72
BRANCH  60  83
ATOM     83  C   UNL A   1      43.616  28.453  35.242  1.00  0.00     0.064 A 
ATOM     84  C   UNL A   1      43.272  27.359  36.050  1.00  0.00     0.173 A 
ATOM     85  C   UNL A   1      44.970  28.805  35.150  1.00  0.00     0.173 A 
ATOM     86  F   UNL A   1      41.987  26.997  36.182  1.00  0.00    -0.203 F 
ATOM     87  C   UNL A   1      44.245  26.659  36.757  1.00  0.00     0.198 A 
ATOM     88  C   UNL A   1      45.944  28.086  35.837  1.00  0.00     0.198 A 
ATOM     89  F   UNL A   1      45.350  29.840  34.386  1.00  0.00    -0.203 F 
ATOM     90  F   UNL A   1      43.888  25.645  37.557  1.00  0.00    -0.200 F 
ATOM     91  C   UNL A   1      45.579  27.019  36.645  1.00  0.00     0.200 A 
ATOM     92  F   UNL A   1      47.234  28.427  35.722  1.00  0.00    -0.200 F 
ATOM     93  F   UNL A   1      46.516  26.341  37.323  1.00  0.00    -0.200 F 
ENDBRANCH  60  83
ENDBRANCH  34  35
ENDBRANCH  26  29
ENDBRANCH  24  25
ENDBRANCH   1  24
TORSDOF 12
ENDMDL
