MODEL 1
REMARK VINA RESULT:     -13.9      0.000      0.000
REMARK SMILES NC(=O)c1c(-c2ccc(Cl)cc2)csc1NC(=O)[C@H]1[C@@H](C(=O)NCCCNC(=O)c2ccc(-c3c4nc(c(-c5c(F)c(F)c(F)c(F)c5F)c5ccc([nH]5)c(-c5c(F)c(F)c(F)c(F)c5F)c5nc(c(-c6c(F)c(F)c(F)c(F)c6F)c6ccc3[nH]6)C=C5)C=C4)cc2)[C@@H]2CC[C@H]1O2
REMARK SMILES IDX 24 1 23 2 21 3 22 4 20 6 19 7 96 8 93 9 95 10 97 11 94 12
REMARK SMILES IDX 17 13 16 14 18 16 15 17 4 18 5 19 13 20 14 21 2 22 1 23 3 26
REMARK SMILES IDX 6 27 7 28 12 29 8 30 11 31 9 32 10 33 25 34 26 35 27 36
REMARK SMILES IDX 28 37 29 39 30 40 31 41 92 42 32 43 91 44 33 45 34 46 35 47
REMARK SMILES IDX 85 48 36 49 90 50 84 51 86 52 37 53 89 54 83 55 82 56 38 58
REMARK SMILES IDX 70 59 50 60 69 61 51 62 54 63 68 64 87 65 52 66 53 67 67 69
REMARK SMILES IDX 88 70 55 71 39 72 40 73 48 74 41 75 42 76 46 77 49 78 43 79
REMARK SMILES IDX 44 80 47 81 45 82 71 83 72 84 80 85 73 86 74 87 78 88 81 89
REMARK SMILES IDX 75 90 76 91 79 92 77 93 56 94 57 95 65 96 58 97 59 98 63 99
REMARK SMILES IDX 66 100 60 101 61 102 64 103 62 104
REMARK H PARENT 23 5 16 15 1 24 1 25 27 38 86 57 54 68
REMARK Flexibility Score: inf
ROOT
ATOM      1  C   UNL A   1      31.662  30.529  26.435  1.00  0.00     0.117 C 
ENDROOT
BRANCH   1   2
ATOM      2  N   UNL A   1      31.650  30.344  25.000  1.00  0.00    -0.356 N 
ATOM      3  C   UNL A   1      31.472  29.308  24.152  1.00  0.00     0.226 C 
ATOM      4  O   UNL A   1      31.608  29.626  22.962  1.00  0.00    -0.275 OA
ATOM      5  H   UNL A   1      31.813  31.187  24.519  1.00  0.00     0.163 HD
BRANCH   3   6
ATOM      6  C   UNL A   1      30.900  27.943  24.535  1.00  0.00     0.122 C 
ATOM      7  C   UNL A   1      31.714  26.646  24.701  1.00  0.00     0.123 C 
ATOM      8  C   UNL A   1      31.251  25.792  23.501  1.00  0.00     0.132 C 
ATOM      9  C   UNL A   1      29.923  27.500  23.419  1.00  0.00     0.132 C 
ATOM     10  C   UNL A   1      29.905  25.138  23.775  1.00  0.00     0.035 C 
ATOM     11  O   UNL A   1      30.828  26.788  22.543  1.00  0.00    -0.373 OA
ATOM     12  C   UNL A   1      28.995  26.361  23.870  1.00  0.00     0.035 C 
BRANCH   7  13
ATOM     13  C   UNL A   1      33.220  26.649  24.670  1.00  0.00     0.231 C 
ATOM     14  N   UNL A   1      33.968  25.589  25.121  1.00  0.00    -0.317 N 
ATOM     15  H   UNL A   1      34.913  25.824  25.269  1.00  0.00     0.170 HD
ATOM     16  O   UNL A   1      33.828  27.622  24.218  1.00  0.00    -0.274 OA
BRANCH  14  17
ATOM     17  C   UNL A   1      33.692  24.255  25.418  1.00  0.00     0.108 A 
ATOM     18  C   UNL A   1      33.984  23.148  24.614  1.00  0.00     0.082 A 
ATOM     19  C   UNL A   1      33.514  21.915  25.229  1.00  0.00     0.007 A 
ATOM     20  C   UNL A   1      32.886  22.156  26.433  1.00  0.00     0.076 A 
ATOM     21  S   UNL A   1      32.781  23.807  26.774  1.00  0.00    -0.125 S 
BRANCH  18  22
ATOM     22  C   UNL A   1      34.669  23.301  23.331  1.00  0.00     0.252 C 
ATOM     23  N   UNL A   1      35.954  22.852  23.265  1.00  0.00    -0.365 N 
ATOM     24  H   UNL A   1      36.460  22.932  22.424  1.00  0.00     0.159 HD
ATOM     25  H   UNL A   1      36.376  22.448  24.057  1.00  0.00     0.159 HD
ATOM     26  O   UNL A   1      34.115  23.748  22.330  1.00  0.00    -0.269 OA
ENDBRANCH  18  22
BRANCH  19  27
ATOM     27  C   UNL A   1      33.618  20.536  24.767  1.00  0.00    -0.017 A 
ATOM     28  C   UNL A   1      34.820  19.834  24.947  1.00  0.00     0.010 A 
ATOM     29  C   UNL A   1      32.541  19.904  24.133  1.00  0.00     0.010 A 
ATOM     30  C   UNL A   1      34.944  18.517  24.501  1.00  0.00     0.021 A 
ATOM     31  C   UNL A   1      32.666  18.583  23.690  1.00  0.00     0.021 A 
ATOM     32  C   UNL A   1      33.865  17.896  23.876  1.00  0.00     0.041 A 
ATOM     33  Cl  UNL A   1      34.018  16.272  23.331  1.00  0.00    -0.084 Cl
ENDBRANCH  19  27
ENDBRANCH  14  17
ENDBRANCH   7  13
ENDBRANCH   3   6
ENDBRANCH   1   2
BRANCH   1  34
ATOM     34  C   UNL A   1      31.440  31.994  26.840  1.00  0.00     0.042 C 
BRANCH  34  35
ATOM     35  C   UNL A   1      32.698  32.822  27.105  1.00  0.00     0.118 C 
BRANCH  35  36
ATOM     36  N   UNL A   1      32.409  34.174  27.554  1.00  0.00    -0.352 N 
ATOM     37  C   UNL A   1      32.985  34.893  28.576  1.00  0.00     0.251 C 
ATOM     38  H   UNL A   1      31.701  34.642  27.056  1.00  0.00     0.163 HD
ATOM     39  O   UNL A   1      32.493  35.966  28.915  1.00  0.00    -0.269 OA
BRANCH  37  40
ATOM     40  C   UNL A   1      34.173  34.376  29.298  1.00  0.00     0.039 A 
ATOM     41  C   UNL A   1      33.980  33.712  30.514  1.00  0.00     0.014 A 
ATOM     42  C   UNL A   1      35.471  34.556  28.809  1.00  0.00     0.014 A 
ATOM     43  C   UNL A   1      35.072  33.175  31.201  1.00  0.00     0.010 A 
ATOM     44  C   UNL A   1      36.553  33.958  29.459  1.00  0.00     0.010 A 
ATOM     45  C   UNL A   1      36.367  33.258  30.662  1.00  0.00    -0.014 A 
BRANCH  45  46
ATOM     46  C   UNL A   1      37.524  32.604  31.335  1.00  0.00     0.031 A 
ATOM     47  C   UNL A   1      38.236  31.447  30.686  1.00  0.00     0.074 A 
ATOM     48  C   UNL A   1      37.905  33.018  32.560  1.00  0.00     0.049 A 
ATOM     49  N   UNL A   1      39.227  30.721  31.143  1.00  0.00    -0.248 NA
ATOM     50  C   UNL A   1      37.757  31.038  29.358  1.00  0.00     0.031 C 
ATOM     51  C   UNL A   1      37.278  34.100  33.318  1.00  0.00     0.029 A 
ATOM     52  N   UNL A   1      38.906  32.569  33.388  1.00  0.00    -0.354 N 
ATOM     53  C   UNL A   1      39.482  29.768  30.166  1.00  0.00     0.074 A 
ATOM     54  C   UNL A   1      38.508  29.973  29.114  1.00  0.00     0.031 C 
ATOM     55  C   UNL A   1      37.920  34.248  34.488  1.00  0.00     0.029 A 
ATOM     56  C   UNL A   1      38.974  33.242  34.585  1.00  0.00     0.049 A 
ATOM     57  H   UNL A   1      39.518  31.836  33.148  1.00  0.00     0.167 HD
ATOM     58  C   UNL A   1      40.451  28.821  30.137  1.00  0.00     0.037 A 
ATOM     59  C   UNL A   1      39.783  33.062  35.647  1.00  0.00     0.037 A 
ATOM     60  C   UNL A   1      41.427  28.622  31.179  1.00  0.00     0.049 A 
ATOM     61  C   UNL A   1      40.829  31.982  35.604  1.00  0.00     0.074 A 
ATOM     62  C   UNL A   1      42.480  27.725  31.214  1.00  0.00     0.029 A 
ATOM     63  N   UNL A   1      41.461  29.324  32.376  1.00  0.00    -0.354 N 
ATOM     64  N   UNL A   1      41.108  31.135  34.643  1.00  0.00    -0.248 NA
ATOM     65  C   UNL A   1      41.681  31.836  36.794  1.00  0.00     0.031 C 
ATOM     66  C   UNL A   1      43.114  27.840  32.456  1.00  0.00     0.029 A 
ATOM     67  C   UNL A   1      42.499  28.857  33.169  1.00  0.00     0.049 A 
ATOM     68  H   UNL A   1      40.841  30.046  32.625  1.00  0.00     0.167 HD
ATOM     69  C   UNL A   1      42.181  30.379  35.097  1.00  0.00     0.074 A 
ATOM     70  C   UNL A   1      42.515  30.879  36.414  1.00  0.00     0.031 C 
ATOM     71  C   UNL A   1      42.830  29.363  34.477  1.00  0.00     0.037 A 
BRANCH  58  72
ATOM     72  C   UNL A   1      40.505  27.915  28.938  1.00  0.00     0.064 A 
ATOM     73  C   UNL A   1      39.761  26.726  28.877  1.00  0.00     0.173 A 
ATOM     74  C   UNL A   1      41.277  28.260  27.817  1.00  0.00     0.173 A 
ATOM     75  F   UNL A   1      39.010  26.346  29.921  1.00  0.00    -0.203 F 
ATOM     76  C   UNL A   1      39.815  25.901  27.755  1.00  0.00     0.198 A 
ATOM     77  C   UNL A   1      41.302  27.451  26.685  1.00  0.00     0.198 A 
ATOM     78  F   UNL A   1      42.000  29.391  27.815  1.00  0.00    -0.203 F 
ATOM     79  F   UNL A   1      39.137  24.746  27.743  1.00  0.00    -0.200 F 
ATOM     80  C   UNL A   1      40.579  26.269  26.658  1.00  0.00     0.200 A 
ATOM     81  F   UNL A   1      42.024  27.817  25.617  1.00  0.00    -0.200 F 
ATOM     82  F   UNL A   1      40.622  25.478  25.576  1.00  0.00    -0.200 F 
ENDBRANCH  58  72
BRANCH  59  83
ATOM     83  C   UNL A   1      39.643  33.936  36.843  1.00  0.00     0.064 A 
ATOM     84  C   UNL A   1      40.302  35.172  36.916  1.00  0.00     0.173 A 
ATOM     85  C   UNL A   1      38.860  33.551  37.943  1.00  0.00     0.173 A 
ATOM     86  F   UNL A   1      41.081  35.574  35.901  1.00  0.00    -0.203 F 
ATOM     87  C   UNL A   1      40.203  35.977  38.049  1.00  0.00     0.198 A 
ATOM     88  C   UNL A   1      38.734  34.373  39.061  1.00  0.00     0.198 A 
ATOM     89  F   UNL A   1      38.207  32.381  37.925  1.00  0.00    -0.203 F 
ATOM     90  F   UNL A   1      40.885  37.127  38.111  1.00  0.00    -0.200 F 
ATOM     91  C   UNL A   1      39.414  35.580  39.117  1.00  0.00     0.200 A 
ATOM     92  F   UNL A   1      37.957  33.994  40.084  1.00  0.00    -0.200 F 
ATOM     93  F   UNL A   1      39.314  36.356  40.204  1.00  0.00    -0.200 F 
ENDBRANCH  59  83
BRANCH  71  94
ATOM     94  C   UNL A   1      43.999  28.747  35.195  1.00  0.00     0.064 A 
ATOM     95  C   UNL A   1      43.847  27.637  36.040  1.00  0.00     0.173 A 
ATOM     96  C   UNL A   1      45.294  29.252  35.003  1.00  0.00     0.173 A 
ATOM     97  F   UNL A   1      42.629  27.126  36.271  1.00  0.00    -0.203 F 
ATOM     98  C   UNL A   1      44.945  27.076  36.689  1.00  0.00     0.198 A 
ATOM     99  C   UNL A   1      46.393  28.665  35.625  1.00  0.00     0.198 A 
ATOM    100  F   UNL A   1      45.497  30.307  34.199  1.00  0.00    -0.203 F 
ATOM    101  F   UNL A   1      44.768  26.052  37.535  1.00  0.00    -0.200 F 
ATOM    102  C   UNL A   1      46.216  27.585  36.474  1.00  0.00     0.200 A 
ATOM    103  F   UNL A   1      47.624  29.148  35.402  1.00  0.00    -0.200 F 
ATOM    104  F   UNL A   1      47.272  27.037  37.093  1.00  0.00    -0.200 F 
ENDBRANCH  71  94
ENDBRANCH  45  46
ENDBRANCH  37  40
ENDBRANCH  35  36
ENDBRANCH  34  35
ENDBRANCH   1  34
TORSDOF 14
ENDMDL
MODEL 2
REMARK VINA RESULT:     -13.6      5.602     11.198
REMARK SMILES NC(=O)c1c(-c2ccc(Cl)cc2)csc1NC(=O)[C@H]1[C@@H](C(=O)NCCCNC(=O)c2ccc(-c3c4nc(c(-c5c(F)c(F)c(F)c(F)c5F)c5ccc([nH]5)c(-c5c(F)c(F)c(F)c(F)c5F)c5nc(c(-c6c(F)c(F)c(F)c(F)c6F)c6ccc3[nH]6)C=C5)C=C4)cc2)[C@@H]2CC[C@H]1O2
REMARK SMILES IDX 24 1 23 2 21 3 22 4 20 6 19 7 96 8 93 9 95 10 97 11 94 12
REMARK SMILES IDX 17 13 16 14 18 16 15 17 4 18 5 19 13 20 14 21 2 22 1 23 3 26
REMARK SMILES IDX 6 27 7 28 12 29 8 30 11 31 9 32 10 33 25 34 26 35 27 36
REMARK SMILES IDX 28 37 29 39 30 40 31 41 92 42 32 43 91 44 33 45 34 46 35 47
REMARK SMILES IDX 85 48 36 49 90 50 84 51 86 52 37 53 89 54 83 55 82 56 38 58
REMARK SMILES IDX 70 59 50 60 69 61 51 62 54 63 68 64 87 65 52 66 53 67 67 69
REMARK SMILES IDX 88 70 55 71 39 72 40 73 48 74 41 75 42 76 46 77 49 78 43 79
REMARK SMILES IDX 44 80 47 81 45 82 71 83 72 84 80 85 73 86 74 87 78 88 81 89
REMARK SMILES IDX 75 90 76 91 79 92 77 93 56 94 57 95 65 96 58 97 59 98 63 99
REMARK SMILES IDX 66 100 60 101 61 102 64 103 62 104
REMARK H PARENT 23 5 16 15 1 24 1 25 27 38 86 57 54 68
REMARK Flexibility Score: inf
ROOT
ATOM      1  C   UNL A   1      36.961  20.689  24.824  1.00  0.00     0.117 C 
ENDROOT
BRANCH   1   2
ATOM      2  N   UNL A   1      35.714  20.260  25.421  1.00  0.00    -0.356 N 
ATOM      3  C   UNL A   1      34.416  20.623  25.334  1.00  0.00     0.226 C 
ATOM      4  O   UNL A   1      33.681  19.984  26.101  1.00  0.00    -0.275 OA
ATOM      5  H   UNL A   1      35.845  19.515  26.050  1.00  0.00     0.163 HD
BRANCH   3   6
ATOM      6  C   UNL A   1      33.821  21.515  24.244  1.00  0.00     0.122 C 
ATOM      7  C   UNL A   1      33.428  22.995  24.415  1.00  0.00     0.123 C 
ATOM      8  C   UNL A   1      31.886  22.953  24.331  1.00  0.00     0.132 C 
ATOM      9  C   UNL A   1      32.451  20.923  23.833  1.00  0.00     0.132 C 
ATOM     10  C   UNL A   1      31.413  22.857  22.889  1.00  0.00     0.035 C 
ATOM     11  O   UNL A   1      31.578  21.608  24.761  1.00  0.00    -0.373 OA
ATOM     12  C   UNL A   1      31.949  21.483  22.493  1.00  0.00     0.035 C 
BRANCH   7  13
ATOM     13  C   UNL A   1      33.770  23.764  25.663  1.00  0.00     0.231 C 
ATOM     14  N   UNL A   1      33.755  25.137  25.709  1.00  0.00    -0.317 N 
ATOM     15  H   UNL A   1      34.229  25.498  26.493  1.00  0.00     0.170 HD
ATOM     16  O   UNL A   1      34.067  23.164  26.699  1.00  0.00    -0.274 OA
BRANCH  14  17
ATOM     17  C   UNL A   1      33.219  26.135  24.897  1.00  0.00     0.108 A 
ATOM     18  C   UNL A   1      32.038  26.849  25.127  1.00  0.00     0.082 A 
ATOM     19  C   UNL A   1      31.773  27.786  24.045  1.00  0.00     0.007 A 
ATOM     20  C   UNL A   1      32.739  27.715  23.064  1.00  0.00     0.076 A 
ATOM     21  S   UNL A   1      33.877  26.507  23.380  1.00  0.00    -0.125 S 
BRANCH  18  22
ATOM     22  C   UNL A   1      31.232  26.616  26.324  1.00  0.00     0.252 C 
ATOM     23  N   UNL A   1      31.163  27.635  27.225  1.00  0.00    -0.365 N 
ATOM     24  H   UNL A   1      30.633  27.529  28.049  1.00  0.00     0.159 HD
ATOM     25  H   UNL A   1      31.642  28.478  27.054  1.00  0.00     0.159 HD
ATOM     26  O   UNL A   1      30.585  25.587  26.500  1.00  0.00    -0.269 OA
ENDBRANCH  18  22
BRANCH  19  27
ATOM     27  C   UNL A   1      30.682  28.738  23.873  1.00  0.00    -0.017 A 
ATOM     28  C   UNL A   1      29.544  28.363  23.142  1.00  0.00     0.010 A 
ATOM     29  C   UNL A   1      30.757  30.027  24.414  1.00  0.00     0.010 A 
ATOM     30  C   UNL A   1      28.493  29.263  22.955  1.00  0.00     0.021 A 
ATOM     31  C   UNL A   1      29.702  30.928  24.229  1.00  0.00     0.021 A 
ATOM     32  C   UNL A   1      28.576  30.542  23.501  1.00  0.00     0.041 A 
ATOM     33  Cl  UNL A   1      27.279  31.649  23.275  1.00  0.00    -0.084 Cl
ENDBRANCH  19  27
ENDBRANCH  14  17
ENDBRANCH   7  13
ENDBRANCH   3   6
ENDBRANCH   1   2
BRANCH   1  34
ATOM     34  C   UNL A   1      38.083  19.653  24.999  1.00  0.00     0.042 C 
BRANCH  34  35
ATOM     35  C   UNL A   1      39.263  20.075  25.875  1.00  0.00     0.118 C 
BRANCH  35  36
ATOM     36  N   UNL A   1      40.319  19.078  25.930  1.00  0.00    -0.352 N 
ATOM     37  C   UNL A   1      41.673  19.252  26.098  1.00  0.00     0.251 C 
ATOM     38  H   UNL A   1      40.022  18.143  25.835  1.00  0.00     0.163 HD
ATOM     39  O   UNL A   1      42.431  18.296  25.952  1.00  0.00    -0.269 OA
BRANCH  37  40
ATOM     40  C   UNL A   1      42.236  20.586  26.419  1.00  0.00     0.039 A 
ATOM     41  C   UNL A   1      42.749  21.364  25.376  1.00  0.00     0.014 A 
ATOM     42  C   UNL A   1      42.290  21.069  27.730  1.00  0.00     0.014 A 
ATOM     43  C   UNL A   1      43.250  22.643  25.636  1.00  0.00     0.010 A 
ATOM     44  C   UNL A   1      42.724  22.373  27.979  1.00  0.00     0.010 A 
ATOM     45  C   UNL A   1      43.207  23.177  26.935  1.00  0.00    -0.014 A 
BRANCH  45  46
ATOM     46  C   UNL A   1      43.646  24.575  27.206  1.00  0.00     0.031 A 
ATOM     47  C   UNL A   1      42.663  25.608  27.689  1.00  0.00     0.074 A 
ATOM     48  C   UNL A   1      44.923  24.932  26.968  1.00  0.00     0.049 A 
ATOM     49  N   UNL A   1      42.850  26.883  27.929  1.00  0.00    -0.248 NA
ATOM     50  C   UNL A   1      41.283  25.153  27.912  1.00  0.00     0.031 C 
ATOM     51  C   UNL A   1      45.968  24.041  26.463  1.00  0.00     0.029 A 
ATOM     52  N   UNL A   1      45.560  26.143  27.110  1.00  0.00    -0.354 N 
ATOM     53  C   UNL A   1      41.614  27.382  28.319  1.00  0.00     0.074 A 
ATOM     54  C   UNL A   1      40.673  26.285  28.235  1.00  0.00     0.031 C 
ATOM     55  C   UNL A   1      47.118  24.727  26.358  1.00  0.00     0.029 A 
ATOM     56  C   UNL A   1      46.884  26.115  26.743  1.00  0.00     0.049 A 
ATOM     57  H   UNL A   1      45.110  26.952  27.443  1.00  0.00     0.167 HD
ATOM     58  C   UNL A   1      41.296  28.633  28.731  1.00  0.00     0.037 A 
ATOM     59  C   UNL A   1      47.804  27.099  26.707  1.00  0.00     0.037 A 
ATOM     60  C   UNL A   1      42.235  29.722  28.826  1.00  0.00     0.049 A 
ATOM     61  C   UNL A   1      47.417  28.488  27.137  1.00  0.00     0.074 A 
ATOM     62  C   UNL A   1      42.017  31.011  29.283  1.00  0.00     0.029 A 
ATOM     63  N   UNL A   1      43.567  29.655  28.443  1.00  0.00    -0.354 N 
ATOM     64  N   UNL A   1      46.263  28.929  27.574  1.00  0.00    -0.248 NA
ATOM     65  C   UNL A   1      48.465  29.517  27.075  1.00  0.00     0.031 C 
ATOM     66  C   UNL A   1      43.200  31.740  29.120  1.00  0.00     0.029 A 
ATOM     67  C   UNL A   1      44.175  30.889  28.625  1.00  0.00     0.049 A 
ATOM     68  H   UNL A   1      44.015  28.851  28.094  1.00  0.00     0.167 HD
ATOM     69  C   UNL A   1      46.452  30.274  27.867  1.00  0.00     0.074 A 
ATOM     70  C   UNL A   1      47.838  30.573  27.574  1.00  0.00     0.031 C 
ATOM     71  C   UNL A   1      45.557  31.178  28.337  1.00  0.00     0.037 A 
BRANCH  58  72
ATOM     72  C   UNL A   1      39.865  28.900  29.109  1.00  0.00     0.064 A 
ATOM     73  C   UNL A   1      38.916  29.312  28.160  1.00  0.00     0.173 A 
ATOM     74  C   UNL A   1      39.426  28.700  30.427  1.00  0.00     0.173 A 
ATOM     75  F   UNL A   1      39.282  29.523  26.887  1.00  0.00    -0.203 F 
ATOM     76  C   UNL A   1      37.592  29.548  28.524  1.00  0.00     0.198 A 
ATOM     77  C   UNL A   1      38.094  28.903  30.780  1.00  0.00     0.198 A 
ATOM     78  F   UNL A   1      40.287  28.295  31.373  1.00  0.00    -0.203 F 
ATOM     79  F   UNL A   1      36.717  29.991  27.610  1.00  0.00    -0.200 F 
ATOM     80  C   UNL A   1      37.181  29.335  29.831  1.00  0.00     0.200 A 
ATOM     81  F   UNL A   1      37.694  28.678  32.039  1.00  0.00    -0.200 F 
ATOM     82  F   UNL A   1      35.904  29.553  30.176  1.00  0.00    -0.200 F 
ENDBRANCH  58  72
BRANCH  59  83
ATOM     83  C   UNL A   1      49.190  26.804  26.254  1.00  0.00     0.064 A 
ATOM     84  C   UNL A   1      49.562  26.970  24.913  1.00  0.00     0.173 A 
ATOM     85  C   UNL A   1      50.167  26.338  27.148  1.00  0.00     0.173 A 
ATOM     86  F   UNL A   1      48.659  27.389  24.015  1.00  0.00    -0.203 F 
ATOM     87  C   UNL A   1      50.850  26.660  24.478  1.00  0.00     0.198 A 
ATOM     88  C   UNL A   1      51.463  26.062  26.719  1.00  0.00     0.198 A 
ATOM     89  F   UNL A   1      49.865  26.163  28.442  1.00  0.00    -0.203 F 
ATOM     90  F   UNL A   1      51.163  26.779  23.181  1.00  0.00    -0.200 F 
ATOM     91  C   UNL A   1      51.801  26.214  25.383  1.00  0.00     0.200 A 
ATOM     92  F   UNL A   1      52.384  25.647  27.599  1.00  0.00    -0.200 F 
ATOM     93  F   UNL A   1      53.040  25.921  24.966  1.00  0.00    -0.200 F 
ENDBRANCH  59  83
BRANCH  71  94
ATOM     94  C   UNL A   1      46.055  32.571  28.606  1.00  0.00     0.064 A 
ATOM     95  C   UNL A   1      45.962  33.589  27.646  1.00  0.00     0.173 A 
ATOM     96  C   UNL A   1      46.600  32.899  29.858  1.00  0.00     0.173 A 
ATOM     97  F   UNL A   1      45.465  33.326  26.428  1.00  0.00    -0.203 F 
ATOM     98  C   UNL A   1      46.422  34.876  27.919  1.00  0.00     0.198 A 
ATOM     99  C   UNL A   1      47.025  34.194  30.139  1.00  0.00     0.198 A 
ATOM    100  F   UNL A   1      46.707  31.965  30.815  1.00  0.00    -0.203 F 
ATOM    101  F   UNL A   1      46.373  35.818  26.968  1.00  0.00    -0.200 F 
ATOM    102  C   UNL A   1      46.944  35.179  29.167  1.00  0.00     0.200 A 
ATOM    103  F   UNL A   1      47.514  34.488  31.352  1.00  0.00    -0.200 F 
ATOM    104  F   UNL A   1      47.378  36.419  29.430  1.00  0.00    -0.200 F 
ENDBRANCH  71  94
ENDBRANCH  45  46
ENDBRANCH  37  40
ENDBRANCH  35  36
ENDBRANCH  34  35
ENDBRANCH   1  34
TORSDOF 14
ENDMDL
MODEL 3
REMARK VINA RESULT:     -13.6      3.470      7.399
REMARK SMILES NC(=O)c1c(-c2ccc(Cl)cc2)csc1NC(=O)[C@H]1[C@@H](C(=O)NCCCNC(=O)c2ccc(-c3c4nc(c(-c5c(F)c(F)c(F)c(F)c5F)c5ccc([nH]5)c(-c5c(F)c(F)c(F)c(F)c5F)c5nc(c(-c6c(F)c(F)c(F)c(F)c6F)c6ccc3[nH]6)C=C5)C=C4)cc2)[C@@H]2CC[C@H]1O2
REMARK SMILES IDX 24 1 23 2 21 3 22 4 20 6 19 7 96 8 93 9 95 10 97 11 94 12
REMARK SMILES IDX 17 13 16 14 18 16 15 17 4 18 5 19 13 20 14 21 2 22 1 23 3 26
REMARK SMILES IDX 6 27 7 28 12 29 8 30 11 31 9 32 10 33 25 34 26 35 27 36
REMARK SMILES IDX 28 37 29 39 30 40 31 41 92 42 32 43 91 44 33 45 34 46 35 47
REMARK SMILES IDX 85 48 36 49 90 50 84 51 86 52 37 53 89 54 83 55 82 56 38 58
REMARK SMILES IDX 70 59 50 60 69 61 51 62 54 63 68 64 87 65 52 66 53 67 67 69
REMARK SMILES IDX 88 70 55 71 39 72 40 73 48 74 41 75 42 76 46 77 49 78 43 79
REMARK SMILES IDX 44 80 47 81 45 82 71 83 72 84 80 85 73 86 74 87 78 88 81 89
REMARK SMILES IDX 75 90 76 91 79 92 77 93 56 94 57 95 65 96 58 97 59 98 63 99
REMARK SMILES IDX 66 100 60 101 61 102 64 103 62 104
REMARK H PARENT 23 5 16 15 1 24 1 25 27 38 86 57 54 68
REMARK Flexibility Score: inf
ROOT
ATOM      1  C   UNL A   1      35.125  23.651  24.097  1.00  0.00     0.117 C 
ENDROOT
BRANCH   1   2
ATOM      2  N   UNL A   1      34.761  24.637  23.102  1.00  0.00    -0.356 N 
ATOM      3  C   UNL A   1      33.921  25.692  23.036  1.00  0.00     0.226 C 
ATOM      4  O   UNL A   1      33.902  26.230  21.920  1.00  0.00    -0.275 OA
ATOM      5  H   UNL A   1      35.250  24.505  22.258  1.00  0.00     0.163 HD
BRANCH   3   6
ATOM      6  C   UNL A   1      33.252  26.362  24.236  1.00  0.00     0.122 C 
ATOM      7  C   UNL A   1      31.732  26.476  24.465  1.00  0.00     0.123 C 
ATOM      8  C   UNL A   1      31.469  27.986  24.284  1.00  0.00     0.132 C 
ATOM      9  C   UNL A   1      33.630  27.863  24.222  1.00  0.00     0.132 C 
ATOM     10  C   UNL A   1      31.849  28.767  25.533  1.00  0.00     0.035 C 
ATOM     11  O   UNL A   1      32.551  28.400  23.421  1.00  0.00    -0.373 OA
ATOM     12  C   UNL A   1      33.360  28.548  25.571  1.00  0.00     0.035 C 
BRANCH   7  13
ATOM     13  C   UNL A   1      30.745  25.759  23.583  1.00  0.00     0.231 C 
ATOM     14  N   UNL A   1      30.702  24.389  23.488  1.00  0.00    -0.317 N 
ATOM     15  H   UNL A   1      30.190  24.076  22.706  1.00  0.00     0.170 HD
ATOM     16  O   UNL A   1      29.927  26.400  22.920  1.00  0.00    -0.274 OA
BRANCH  14  17
ATOM     17  C   UNL A   1      31.220  23.340  24.247  1.00  0.00     0.108 A 
ATOM     18  C   UNL A   1      31.899  22.218  23.759  1.00  0.00     0.082 A 
ATOM     19  C   UNL A   1      32.260  21.313  24.840  1.00  0.00     0.007 A 
ATOM     20  C   UNL A   1      31.823  21.782  26.061  1.00  0.00     0.076 A 
ATOM     21  S   UNL A   1      30.933  23.210  25.911  1.00  0.00    -0.125 S 
BRANCH  18  22
ATOM     22  C   UNL A   1      32.165  22.054  22.330  1.00  0.00     0.252 C 
ATOM     23  N   UNL A   1      31.566  20.997  21.713  1.00  0.00    -0.365 N 
ATOM     24  H   UNL A   1      31.713  20.842  20.751  1.00  0.00     0.159 HD
ATOM     25  H   UNL A   1      30.987  20.389  22.227  1.00  0.00     0.159 HD
ATOM     26  O   UNL A   1      32.836  22.853  21.682  1.00  0.00    -0.269 OA
ENDBRANCH  18  22
BRANCH  19  27
ATOM     27  C   UNL A   1      32.984  20.048  24.804  1.00  0.00    -0.017 A 
ATOM     28  C   UNL A   1      32.270  18.840  24.852  1.00  0.00     0.010 A 
ATOM     29  C   UNL A   1      34.382  20.019  24.737  1.00  0.00     0.010 A 
ATOM     30  C   UNL A   1      32.945  17.618  24.831  1.00  0.00     0.021 A 
ATOM     31  C   UNL A   1      35.057  18.793  24.713  1.00  0.00     0.021 A 
ATOM     32  C   UNL A   1      34.336  17.600  24.760  1.00  0.00     0.041 A 
ATOM     33  Cl  UNL A   1      35.166  16.094  24.729  1.00  0.00    -0.084 Cl
ENDBRANCH  19  27
ENDBRANCH  14  17
ENDBRANCH   7  13
ENDBRANCH   3   6
ENDBRANCH   1   2
BRANCH   1  34
ATOM     34  C   UNL A   1      36.643  23.430  24.177  1.00  0.00     0.042 C 
BRANCH  34  35
ATOM     35  C   UNL A   1      37.268  23.517  25.571  1.00  0.00     0.118 C 
BRANCH  35  36
ATOM     36  N   UNL A   1      38.441  22.673  25.725  1.00  0.00    -0.352 N 
ATOM     37  C   UNL A   1      39.682  22.991  26.227  1.00  0.00     0.251 C 
ATOM     38  H   UNL A   1      38.333  21.740  25.427  1.00  0.00     0.163 HD
ATOM     39  O   UNL A   1      40.603  22.185  26.123  1.00  0.00    -0.269 OA
BRANCH  37  40
ATOM     40  C   UNL A   1      39.933  24.308  26.861  1.00  0.00     0.039 A 
ATOM     41  C   UNL A   1      39.505  24.508  28.178  1.00  0.00     0.014 A 
ATOM     42  C   UNL A   1      40.559  25.351  26.173  1.00  0.00     0.014 A 
ATOM     43  C   UNL A   1      39.762  25.723  28.821  1.00  0.00     0.010 A 
ATOM     44  C   UNL A   1      40.879  26.537  26.839  1.00  0.00     0.010 A 
ATOM     45  C   UNL A   1      40.486  26.737  28.172  1.00  0.00    -0.014 A 
BRANCH  45  46
ATOM     46  C   UNL A   1      40.852  27.994  28.881  1.00  0.00     0.031 A 
ATOM     47  C   UNL A   1      42.240  28.189  29.433  1.00  0.00     0.074 A 
ATOM     48  C   UNL A   1      39.919  28.947  29.077  1.00  0.00     0.049 A 
ATOM     49  N   UNL A   1      42.725  29.193  30.121  1.00  0.00    -0.248 NA
ATOM     50  C   UNL A   1      43.202  27.104  29.197  1.00  0.00     0.031 C 
ATOM     51  C   UNL A   1      38.528  28.870  28.629  1.00  0.00     0.029 A 
ATOM     52  N   UNL A   1      39.996  30.164  29.712  1.00  0.00    -0.354 N 
ATOM     53  C   UNL A   1      44.041  28.856  30.408  1.00  0.00     0.074 A 
ATOM     54  C   UNL A   1      44.264  27.533  29.865  1.00  0.00     0.031 C 
ATOM     55  C   UNL A   1      37.888  29.996  28.983  1.00  0.00     0.029 A 
ATOM     56  C   UNL A   1      38.808  30.856  29.721  1.00  0.00     0.049 A 
ATOM     57  H   UNL A   1      40.822  30.508  30.121  1.00  0.00     0.167 HD
ATOM     58  C   UNL A   1      44.985  29.589  31.047  1.00  0.00     0.037 A 
ATOM     59  C   UNL A   1      38.490  32.042  30.274  1.00  0.00     0.037 A 
ATOM     60  C   UNL A   1      44.767  30.911  31.580  1.00  0.00     0.049 A 
ATOM     61  C   UNL A   1      39.547  32.823  31.008  1.00  0.00     0.074 A 
ATOM     62  C   UNL A   1      45.677  31.753  32.195  1.00  0.00     0.029 A 
ATOM     63  N   UNL A   1      43.549  31.577  31.571  1.00  0.00    -0.354 N 
ATOM     64  N   UNL A   1      40.808  32.525  31.209  1.00  0.00    -0.248 NA
ATOM     65  C   UNL A   1      39.138  34.110  31.589  1.00  0.00     0.031 C 
ATOM     66  C   UNL A   1      44.997  32.903  32.614  1.00  0.00     0.029 A 
ATOM     67  C   UNL A   1      43.679  32.807  32.199  1.00  0.00     0.049 A 
ATOM     68  H   UNL A   1      42.718  31.228  31.177  1.00  0.00     0.167 HD
ATOM     69  C   UNL A   1      41.348  33.596  31.909  1.00  0.00     0.074 A 
ATOM     70  C   UNL A   1      40.282  34.560  32.083  1.00  0.00     0.031 C 
ATOM     71  C   UNL A   1      42.614  33.765  32.364  1.00  0.00     0.037 A 
BRANCH  58  72
ATOM     72  C   UNL A   1      46.348  28.977  31.216  1.00  0.00     0.064 A 
ATOM     73  C   UNL A   1      46.679  28.212  32.345  1.00  0.00     0.173 A 
ATOM     74  C   UNL A   1      47.323  29.120  30.215  1.00  0.00     0.173 A 
ATOM     75  F   UNL A   1      45.789  28.047  33.334  1.00  0.00    -0.203 F 
ATOM     76  C   UNL A   1      47.945  27.645  32.483  1.00  0.00     0.198 A 
ATOM     77  C   UNL A   1      48.574  28.523  30.340  1.00  0.00     0.198 A 
ATOM     78  F   UNL A   1      47.057  29.831  29.108  1.00  0.00    -0.203 F 
ATOM     79  F   UNL A   1      48.253  26.964  33.595  1.00  0.00    -0.200 F 
ATOM     80  C   UNL A   1      48.887  27.794  31.477  1.00  0.00     0.200 A 
ATOM     81  F   UNL A   1      49.477  28.650  29.358  1.00  0.00    -0.200 F 
ATOM     82  F   UNL A   1      50.100  27.238  31.607  1.00  0.00    -0.200 F 
ENDBRANCH  58  72
BRANCH  59  83
ATOM     83  C   UNL A   1      37.107  32.575  30.146  1.00  0.00     0.064 A 
ATOM     84  C   UNL A   1      36.726  33.335  29.031  1.00  0.00     0.173 A 
ATOM     85  C   UNL A   1      36.140  32.347  31.138  1.00  0.00     0.173 A 
ATOM     86  F   UNL A   1      37.620  33.602  28.067  1.00  0.00    -0.203 F 
ATOM     87  C   UNL A   1      35.442  33.866  28.924  1.00  0.00     0.198 A 
ATOM     88  C   UNL A   1      34.847  32.849  31.013  1.00  0.00     0.198 A 
ATOM     89  F   UNL A   1      36.450  31.625  32.224  1.00  0.00    -0.203 F 
ATOM     90  F   UNL A   1      35.123  34.632  27.873  1.00  0.00    -0.200 F 
ATOM     91  C   UNL A   1      34.502  33.616  29.911  1.00  0.00     0.200 A 
ATOM     92  F   UNL A   1      33.936  32.591  31.961  1.00  0.00    -0.200 F 
ATOM     93  F   UNL A   1      33.266  34.122  29.805  1.00  0.00    -0.200 F 
ENDBRANCH  59  83
BRANCH  71  94
ATOM     94  C   UNL A   1      42.933  35.058  33.061  1.00  0.00     0.064 A 
ATOM     95  C   UNL A   1      43.405  36.180  32.362  1.00  0.00     0.173 A 
ATOM     96  C   UNL A   1      42.727  35.187  34.444  1.00  0.00     0.173 A 
ATOM     97  F   UNL A   1      43.635  36.106  31.043  1.00  0.00    -0.203 F 
ATOM     98  C   UNL A   1      43.686  37.372  33.027  1.00  0.00     0.198 A 
ATOM     99  C   UNL A   1      42.975  36.390  35.098  1.00  0.00     0.198 A 
ATOM    100  F   UNL A   1      42.271  34.148  35.159  1.00  0.00    -0.203 F 
ATOM    101  F   UNL A   1      44.188  38.412  32.348  1.00  0.00    -0.200 F 
ATOM    102  C   UNL A   1      43.463  37.478  34.391  1.00  0.00     0.200 A 
ATOM    103  F   UNL A   1      42.743  36.496  36.414  1.00  0.00    -0.200 F 
ATOM    104  F   UNL A   1      43.726  38.629  35.027  1.00  0.00    -0.200 F 
ENDBRANCH  71  94
ENDBRANCH  45  46
ENDBRANCH  37  40
ENDBRANCH  35  36
ENDBRANCH  34  35
ENDBRANCH   1  34
TORSDOF 14
ENDMDL
