MODEL 1
REMARK VINA RESULT:     -13.0      0.000      0.000
REMARK SMILES O=C(CSc1cc(-c2ccccc2)nc(-c2ccccc2F)n1)NCCCNC(=O)c1ccc(-c2c3nc(c(-c4c(F)c(F)c(F)c(F)c4F)c4ccc([nH]4)c(-c4c(F)c(F)c(F)c(F)c4F)c4nc(c(-c5c(F)c(F)c(F)c(F)c5F)c5ccc2[nH]5)C=C4)C=C3)cc1
REMARK SMILES IDX 25 1 24 2 1 3 2 4 3 6 4 7 5 8 6 9 23 10 7 11 15 12 14 13
REMARK SMILES IDX 8 14 9 15 13 16 10 17 12 18 11 19 16 20 17 21 21 22 18 23
REMARK SMILES IDX 20 24 22 25 19 26 26 27 27 28 28 29 29 30 30 32 31 33 32 34
REMARK SMILES IDX 93 35 33 36 92 37 34 38 35 39 36 40 86 41 37 42 91 43 85 44
REMARK SMILES IDX 87 45 38 46 90 47 84 48 83 49 39 51 71 52 51 53 70 54 52 55
REMARK SMILES IDX 55 56 69 57 88 58 53 59 54 60 68 62 89 63 56 64 40 65 41 66
REMARK SMILES IDX 49 67 42 68 43 69 47 70 50 71 44 72 45 73 48 74 46 75 72 76
REMARK SMILES IDX 73 77 81 78 74 79 75 80 79 81 82 82 76 83 77 84 80 85 78 86
REMARK SMILES IDX 57 87 58 88 66 89 59 90 60 91 64 92 67 93 61 94 62 95 65 96
REMARK SMILES IDX 63 97
REMARK H PARENT 24 5 28 31 87 50 55 61
REMARK Flexibility Score: inf
ROOT
ATOM      1  C   UNL A   1      33.494  27.152  24.168  1.00  0.00     0.117 C 
ENDROOT
BRANCH   1   2
ATOM      2  N   UNL A   1      33.212  25.811  23.696  1.00  0.00    -0.355 N 
ATOM      3  O   UNL A   1      33.671  26.223  21.486  1.00  0.00    -0.274 OA
ATOM      4  C   UNL A   1      33.381  25.431  22.378  1.00  0.00     0.230 C 
ATOM      5  H   UNL A   1      32.887  25.143  24.342  1.00  0.00     0.163 HD
BRANCH   4   6
ATOM      6  C   UNL A   1      33.100  23.962  22.090  1.00  0.00     0.176 C 
BRANCH   6   7
ATOM      7  S   UNL A   1      31.984  23.228  23.329  1.00  0.00    -0.096 SA
BRANCH   7   8
ATOM      8  C   UNL A   1      33.126  22.080  24.079  1.00  0.00     0.101 A 
ATOM      9  C   UNL A   1      32.828  20.738  24.073  1.00  0.00     0.064 A 
ATOM     10  N   UNL A   1      34.264  22.584  24.575  1.00  0.00    -0.222 NA
ATOM     11  C   UNL A   1      33.766  19.900  24.639  1.00  0.00     0.075 A 
ATOM     12  C   UNL A   1      35.143  21.687  25.060  1.00  0.00     0.163 A 
ATOM     13  N   UNL A   1      34.925  20.363  25.144  1.00  0.00    -0.228 NA
BRANCH  11  14
ATOM     14  C   UNL A   1      33.555  18.447  24.711  1.00  0.00     0.000 A 
ATOM     15  C   UNL A   1      32.697  17.890  25.674  1.00  0.00     0.010 A 
ATOM     16  C   UNL A   1      34.190  17.576  23.810  1.00  0.00     0.010 A 
ATOM     17  C   UNL A   1      32.463  16.513  25.718  1.00  0.00     0.001 A 
ATOM     18  C   UNL A   1      33.963  16.198  23.857  1.00  0.00     0.001 A 
ATOM     19  C   UNL A   1      33.095  15.667  24.808  1.00  0.00     0.000 A 
ENDBRANCH  11  14
BRANCH  12  20
ATOM     20  C   UNL A   1      36.443  22.194  25.489  1.00  0.00     0.055 A 
ATOM     21  C   UNL A   1      36.599  23.512  25.955  1.00  0.00     0.015 A 
ATOM     22  C   UNL A   1      37.589  21.392  25.417  1.00  0.00     0.134 A 
ATOM     23  C   UNL A   1      37.855  23.998  26.338  1.00  0.00     0.001 A 
ATOM     24  C   UNL A   1      38.845  21.872  25.791  1.00  0.00     0.040 A 
ATOM     25  F   UNL A   1      37.515  20.139  24.941  1.00  0.00    -0.206 F 
ATOM     26  C   UNL A   1      38.978  23.178  26.254  1.00  0.00     0.003 A 
ENDBRANCH  12  20
ENDBRANCH   7   8
ENDBRANCH   6   7
ENDBRANCH   4   6
ENDBRANCH   1   2
BRANCH   1  27
ATOM     27  C   UNL A   1      33.090  27.365  25.623  1.00  0.00     0.042 C 
BRANCH  27  28
ATOM     28  C   UNL A   1      34.156  28.025  26.493  1.00  0.00     0.118 C 
BRANCH  28  29
ATOM     29  N   UNL A   1      33.784  29.357  26.952  1.00  0.00    -0.352 N 
ATOM     30  C   UNL A   1      34.465  30.252  27.739  1.00  0.00     0.251 C 
ATOM     31  H   UNL A   1      32.901  29.664  26.648  1.00  0.00     0.163 HD
ATOM     32  O   UNL A   1      33.898  31.284  28.101  1.00  0.00    -0.269 OA
BRANCH  30  33
ATOM     33  C   UNL A   1      35.851  29.991  28.187  1.00  0.00     0.039 A 
ATOM     34  C   UNL A   1      36.057  29.553  29.500  1.00  0.00     0.014 A 
ATOM     35  C   UNL A   1      36.949  30.205  27.349  1.00  0.00     0.014 A 
ATOM     36  C   UNL A   1      37.348  29.260  29.946  1.00  0.00     0.010 A 
ATOM     37  C   UNL A   1      38.229  29.848  27.773  1.00  0.00     0.010 A 
ATOM     38  C   UNL A   1      38.443  29.366  29.074  1.00  0.00    -0.014 A 
BRANCH  38  39
ATOM     39  C   UNL A   1      39.809  28.962  29.499  1.00  0.00     0.031 A 
ATOM     40  C   UNL A   1      40.630  29.858  30.385  1.00  0.00     0.074 A 
ATOM     41  C   UNL A   1      40.340  27.816  29.030  1.00  0.00     0.049 A 
ATOM     42  N   UNL A   1      41.868  29.715  30.789  1.00  0.00    -0.248 NA
ATOM     43  C   UNL A   1      39.982  31.089  30.860  1.00  0.00     0.031 C 
ATOM     44  C   UNL A   1      39.665  26.879  28.131  1.00  0.00     0.029 A 
ATOM     45  N   UNL A   1      41.575  27.252  29.230  1.00  0.00    -0.354 N 
ATOM     46  C   UNL A   1      42.151  30.841  31.549  1.00  0.00     0.074 A 
ATOM     47  C   UNL A   1      40.972  31.681  31.514  1.00  0.00     0.031 C 
ATOM     48  C   UNL A   1      40.487  25.849  27.871  1.00  0.00     0.029 A 
ATOM     49  C   UNL A   1      41.759  26.072  28.551  1.00  0.00     0.049 A 
ATOM     50  H   UNL A   1      42.265  27.654  29.806  1.00  0.00     0.167 HD
ATOM     51  C   UNL A   1      43.283  31.140  32.230  1.00  0.00     0.037 A 
ATOM     52  C   UNL A   1      42.834  25.265  28.475  1.00  0.00     0.037 A 
ATOM     53  C   UNL A   1      44.447  30.294  32.287  1.00  0.00     0.049 A 
ATOM     54  C   UNL A   1      44.082  25.623  29.236  1.00  0.00     0.074 A 
ATOM     55  C   UNL A   1      45.618  30.483  33.000  1.00  0.00     0.029 A 
ATOM     56  N   UNL A   1      44.588  29.097  31.600  1.00  0.00    -0.354 N 
ATOM     57  N   UNL A   1      44.315  26.661  30.003  1.00  0.00    -0.248 NA
ATOM     58  C   UNL A   1      45.216  24.695  29.123  1.00  0.00     0.031 C 
ATOM     59  C   UNL A   1      46.484  29.423  32.711  1.00  0.00     0.029 A 
ATOM     60  C   UNL A   1      45.835  28.548  31.856  1.00  0.00     0.049 A 
ATOM     61  H   UNL A   1      43.903  28.696  31.017  1.00  0.00     0.167 HD
ATOM     62  C   UNL A   1      45.605  26.497  30.484  1.00  0.00     0.074 A 
ATOM     63  C   UNL A   1      46.103  25.253  29.935  1.00  0.00     0.031 C 
ATOM     64  C   UNL A   1      46.315  27.305  31.309  1.00  0.00     0.037 A 
BRANCH  51  65
ATOM     65  C   UNL A   1      43.322  32.442  32.978  1.00  0.00     0.064 A 
ATOM     66  C   UNL A   1      43.763  33.627  32.368  1.00  0.00     0.173 A 
ATOM     67  C   UNL A   1      42.874  32.515  34.305  1.00  0.00     0.173 A 
ATOM     68  F   UNL A   1      44.212  33.610  31.105  1.00  0.00    -0.203 F 
ATOM     69  C   UNL A   1      43.780  34.830  33.069  1.00  0.00     0.198 A 
ATOM     70  C   UNL A   1      42.864  33.726  34.993  1.00  0.00     0.198 A 
ATOM     71  F   UNL A   1      42.435  31.415  34.933  1.00  0.00    -0.203 F 
ATOM     72  F   UNL A   1      44.250  35.939  32.482  1.00  0.00    -0.200 F 
ATOM     73  C   UNL A   1      43.324  34.880  34.378  1.00  0.00     0.200 A 
ATOM     74  F   UNL A   1      42.410  33.776  36.253  1.00  0.00    -0.200 F 
ATOM     75  F   UNL A   1      43.335  36.040  35.049  1.00  0.00    -0.200 F 
ENDBRANCH  51  65
BRANCH  52  76
ATOM     76  C   UNL A   1      42.774  24.024  27.660  1.00  0.00     0.064 A 
ATOM     77  C   UNL A   1      43.055  24.051  26.287  1.00  0.00     0.173 A 
ATOM     78  C   UNL A   1      42.431  22.790  28.233  1.00  0.00     0.173 A 
ATOM     79  F   UNL A   1      43.366  25.212  25.691  1.00  0.00    -0.203 F 
ATOM     80  C   UNL A   1      42.977  22.896  25.513  1.00  0.00     0.198 A 
ATOM     81  C   UNL A   1      42.380  21.630  27.463  1.00  0.00     0.198 A 
ATOM     82  F   UNL A   1      42.157  22.711  29.542  1.00  0.00    -0.203 F 
ATOM     83  F   UNL A   1      43.206  22.959  24.194  1.00  0.00    -0.200 F 
ATOM     84  C   UNL A   1      42.644  21.685  26.102  1.00  0.00     0.200 A 
ATOM     85  F   UNL A   1      42.071  20.460  28.038  1.00  0.00    -0.200 F 
ATOM     86  F   UNL A   1      42.572  20.573  25.358  1.00  0.00    -0.200 F 
ENDBRANCH  52  76
BRANCH  64  87
ATOM     87  C   UNL A   1      47.693  26.854  31.698  1.00  0.00     0.064 A 
ATOM     88  C   UNL A   1      48.833  27.287  31.007  1.00  0.00     0.173 A 
ATOM     89  C   UNL A   1      47.876  26.007  32.803  1.00  0.00     0.173 A 
ATOM     90  F   UNL A   1      48.709  28.084  29.934  1.00  0.00    -0.203 F 
ATOM     91  C   UNL A   1      50.105  26.869  31.391  1.00  0.00     0.198 A 
ATOM     92  C   UNL A   1      49.151  25.615  33.202  1.00  0.00     0.198 A 
ATOM     93  F   UNL A   1      46.818  25.569  33.502  1.00  0.00    -0.203 F 
ATOM     94  F   UNL A   1      51.176  27.260  30.687  1.00  0.00    -0.200 F 
ATOM     95  C   UNL A   1      50.263  26.041  32.492  1.00  0.00     0.200 A 
ATOM     96  F   UNL A   1      49.303  24.825  34.274  1.00  0.00    -0.200 F 
ATOM     97  F   UNL A   1      51.489  25.646  32.864  1.00  0.00    -0.200 F 
ENDBRANCH  64  87
ENDBRANCH  38  39
ENDBRANCH  30  33
ENDBRANCH  28  29
ENDBRANCH  27  28
ENDBRANCH   1  27
TORSDOF 14
ENDMDL
MODEL 2
REMARK VINA RESULT:     -12.9      2.586      7.379
REMARK SMILES O=C(CSc1cc(-c2ccccc2)nc(-c2ccccc2F)n1)NCCCNC(=O)c1ccc(-c2c3nc(c(-c4c(F)c(F)c(F)c(F)c4F)c4ccc([nH]4)c(-c4c(F)c(F)c(F)c(F)c4F)c4nc(c(-c5c(F)c(F)c(F)c(F)c5F)c5ccc2[nH]5)C=C4)C=C3)cc1
REMARK SMILES IDX 25 1 24 2 1 3 2 4 3 6 4 7 5 8 6 9 23 10 7 11 15 12 14 13
REMARK SMILES IDX 8 14 9 15 13 16 10 17 12 18 11 19 16 20 17 21 21 22 18 23
REMARK SMILES IDX 20 24 22 25 19 26 26 27 27 28 28 29 29 30 30 32 31 33 32 34
REMARK SMILES IDX 93 35 33 36 92 37 34 38 35 39 36 40 86 41 37 42 91 43 85 44
REMARK SMILES IDX 87 45 38 46 90 47 84 48 83 49 39 51 71 52 51 53 70 54 52 55
REMARK SMILES IDX 55 56 69 57 88 58 53 59 54 60 68 62 89 63 56 64 40 65 41 66
REMARK SMILES IDX 49 67 42 68 43 69 47 70 50 71 44 72 45 73 48 74 46 75 72 76
REMARK SMILES IDX 73 77 81 78 74 79 75 80 79 81 82 82 76 83 77 84 80 85 78 86
REMARK SMILES IDX 57 87 58 88 66 89 59 90 60 91 64 92 67 93 61 94 62 95 65 96
REMARK SMILES IDX 63 97
REMARK H PARENT 24 5 28 31 87 50 55 61
REMARK Flexibility Score: inf
ROOT
ATOM      1  C   UNL A   1      33.079  26.645  25.991  1.00  0.00     0.117 C 
ENDROOT
BRANCH   1   2
ATOM      2  N   UNL A   1      32.502  25.552  25.233  1.00  0.00    -0.355 N 
ATOM      3  O   UNL A   1      31.027  24.877  26.856  1.00  0.00    -0.274 OA
ATOM      4  C   UNL A   1      31.463  24.777  25.712  1.00  0.00     0.230 C 
ATOM      5  H   UNL A   1      32.865  25.354  24.340  1.00  0.00     0.163 HD
BRANCH   4   6
ATOM      6  C   UNL A   1      30.946  23.722  24.743  1.00  0.00     0.176 C 
BRANCH   6   7
ATOM      7  S   UNL A   1      32.078  23.478  23.336  1.00  0.00    -0.096 SA
BRANCH   7   8
ATOM      8  C   UNL A   1      33.185  22.293  24.079  1.00  0.00     0.101 A 
ATOM      9  C   UNL A   1      32.863  20.957  24.037  1.00  0.00     0.064 A 
ATOM     10  N   UNL A   1      34.323  22.765  24.607  1.00  0.00    -0.222 NA
ATOM     11  C   UNL A   1      33.776  20.089  24.599  1.00  0.00     0.075 A 
ATOM     12  C   UNL A   1      35.176  21.841  25.087  1.00  0.00     0.163 A 
ATOM     13  N   UNL A   1      34.933  20.520  25.136  1.00  0.00    -0.228 NA
BRANCH  11  14
ATOM     14  C   UNL A   1      33.537  18.640  24.634  1.00  0.00     0.000 A 
ATOM     15  C   UNL A   1      34.110  17.791  23.673  1.00  0.00     0.010 A 
ATOM     16  C   UNL A   1      32.744  18.059  25.639  1.00  0.00     0.010 A 
ATOM     17  C   UNL A   1      33.918  16.407  23.729  1.00  0.00     0.001 A 
ATOM     18  C   UNL A   1      32.544  16.677  25.692  1.00  0.00     0.001 A 
ATOM     19  C   UNL A   1      33.137  15.851  24.741  1.00  0.00     0.000 A 
ENDBRANCH  11  14
BRANCH  12  20
ATOM     20  C   UNL A   1      36.477  22.314  25.551  1.00  0.00     0.055 A 
ATOM     21  C   UNL A   1      36.638  23.598  26.101  1.00  0.00     0.015 A 
ATOM     22  C   UNL A   1      37.621  21.513  25.429  1.00  0.00     0.134 A 
ATOM     23  C   UNL A   1      37.894  24.054  26.518  1.00  0.00     0.001 A 
ATOM     24  C   UNL A   1      38.878  21.963  25.836  1.00  0.00     0.040 A 
ATOM     25  F   UNL A   1      37.543  20.294  24.873  1.00  0.00    -0.206 F 
ATOM     26  C   UNL A   1      39.014  23.236  26.384  1.00  0.00     0.003 A 
ENDBRANCH  12  20
ENDBRANCH   7   8
ENDBRANCH   6   7
ENDBRANCH   4   6
ENDBRANCH   1   2
BRANCH   1  27
ATOM     27  C   UNL A   1      32.307  27.950  25.828  1.00  0.00     0.042 C 
BRANCH  27  28
ATOM     28  C   UNL A   1      33.149  29.139  25.375  1.00  0.00     0.118 C 
BRANCH  28  29
ATOM     29  N   UNL A   1      32.686  30.413  25.910  1.00  0.00    -0.352 N 
ATOM     30  C   UNL A   1      33.195  31.199  26.914  1.00  0.00     0.251 C 
ATOM     31  H   UNL A   1      31.876  30.768  25.480  1.00  0.00     0.163 HD
ATOM     32  O   UNL A   1      32.562  32.190  27.279  1.00  0.00    -0.269 OA
BRANCH  30  33
ATOM     33  C   UNL A   1      34.471  30.865  27.585  1.00  0.00     0.039 A 
ATOM     34  C   UNL A   1      35.439  31.868  27.715  1.00  0.00     0.014 A 
ATOM     35  C   UNL A   1      34.743  29.577  28.054  1.00  0.00     0.014 A 
ATOM     36  C   UNL A   1      36.640  31.601  28.376  1.00  0.00     0.010 A 
ATOM     37  C   UNL A   1      35.912  29.329  28.773  1.00  0.00     0.010 A 
ATOM     38  C   UNL A   1      36.872  30.340  28.947  1.00  0.00    -0.014 A 
BRANCH  38  39
ATOM     39  C   UNL A   1      38.098  30.066  29.742  1.00  0.00     0.031 A 
ATOM     40  C   UNL A   1      39.172  29.163  29.203  1.00  0.00     0.074 A 
ATOM     41  C   UNL A   1      38.215  30.578  30.983  1.00  0.00     0.049 A 
ATOM     42  N   UNL A   1      40.269  28.741  29.783  1.00  0.00    -0.248 NA
ATOM     43  C   UNL A   1      38.977  28.645  27.841  1.00  0.00     0.031 C 
ATOM     44  C   UNL A   1      37.226  31.436  31.638  1.00  0.00     0.029 A 
ATOM     45  N   UNL A   1      39.207  30.441  31.921  1.00  0.00    -0.354 N 
ATOM     46  C   UNL A   1      40.883  27.899  28.866  1.00  0.00     0.074 A 
ATOM     47  C   UNL A   1      40.016  27.833  27.709  1.00  0.00     0.031 C 
ATOM     48  C   UNL A   1      37.669  31.760  32.864  1.00  0.00     0.029 A 
ATOM     49  C   UNL A   1      38.952  31.104  33.096  1.00  0.00     0.049 A 
ATOM     50  H   UNL A   1      40.027  29.916  31.766  1.00  0.00     0.167 HD
ATOM     51  C   UNL A   1      42.070  27.255  28.971  1.00  0.00     0.037 A 
ATOM     52  C   UNL A   1      39.664  31.167  34.238  1.00  0.00     0.037 A 
ATOM     53  C   UNL A   1      42.945  27.341  30.112  1.00  0.00     0.049 A 
ATOM     54  C   UNL A   1      40.976  30.437  34.331  1.00  0.00     0.074 A 
ATOM     55  C   UNL A   1      44.196  26.774  30.285  1.00  0.00     0.029 A 
ATOM     56  N   UNL A   1      42.659  28.038  31.277  1.00  0.00    -0.354 N 
ATOM     57  N   UNL A   1      41.576  29.695  33.432  1.00  0.00    -0.248 NA
ATOM     58  C   UNL A   1      41.713  30.557  35.597  1.00  0.00     0.031 C 
ATOM     59  C   UNL A   1      44.647  27.091  31.571  1.00  0.00     0.029 A 
ATOM     60  C   UNL A   1      43.700  27.896  32.181  1.00  0.00     0.049 A 
ATOM     61  H   UNL A   1      41.837  28.557  31.438  1.00  0.00     0.167 HD
ATOM     62  C   UNL A   1      42.768  29.284  34.011  1.00  0.00     0.074 A 
ATOM     63  C   UNL A   1      42.815  29.870  35.334  1.00  0.00     0.031 C 
ATOM     64  C   UNL A   1      43.738  28.492  33.492  1.00  0.00     0.037 A 
BRANCH  51  65
ATOM     65  C   UNL A   1      42.500  26.396  27.817  1.00  0.00     0.064 A 
ATOM     66  C   UNL A   1      43.332  26.892  26.801  1.00  0.00     0.173 A 
ATOM     67  C   UNL A   1      42.110  25.050  27.747  1.00  0.00     0.173 A 
ATOM     68  F   UNL A   1      43.724  28.174  26.815  1.00  0.00    -0.203 F 
ATOM     69  C   UNL A   1      43.734  26.080  25.744  1.00  0.00     0.198 A 
ATOM     70  C   UNL A   1      42.540  24.233  26.704  1.00  0.00     0.198 A 
ATOM     71  F   UNL A   1      41.322  24.523  28.695  1.00  0.00    -0.203 F 
ATOM     72  F   UNL A   1      44.489  26.588  24.761  1.00  0.00    -0.200 F 
ATOM     73  C   UNL A   1      43.344  24.750  25.700  1.00  0.00     0.200 A 
ATOM     74  F   UNL A   1      42.173  22.944  26.670  1.00  0.00    -0.200 F 
ATOM     75  F   UNL A   1      43.738  23.968  24.686  1.00  0.00    -0.200 F 
ENDBRANCH  51  65
BRANCH  52  76
ATOM     76  C   UNL A   1      39.160  31.970  35.382  1.00  0.00     0.064 A 
ATOM     77  C   UNL A   1      39.441  33.340  35.477  1.00  0.00     0.173 A 
ATOM     78  C   UNL A   1      38.395  31.386  36.402  1.00  0.00     0.173 A 
ATOM     79  F   UNL A   1      40.188  33.937  34.537  1.00  0.00    -0.203 F 
ATOM     80  C   UNL A   1      38.992  34.092  36.560  1.00  0.00     0.198 A 
ATOM     81  C   UNL A   1      37.923  32.147  37.470  1.00  0.00     0.198 A 
ATOM     82  F   UNL A   1      38.097  30.080  36.355  1.00  0.00    -0.203 F 
ATOM     83  F   UNL A   1      39.313  35.391  36.650  1.00  0.00    -0.200 F 
ATOM     84  C   UNL A   1      38.229  33.497  37.553  1.00  0.00     0.200 A 
ATOM     85  F   UNL A   1      37.175  31.570  38.421  1.00  0.00    -0.200 F 
ATOM     86  F   UNL A   1      37.794  34.222  38.592  1.00  0.00    -0.200 F 
ENDBRANCH  52  76
BRANCH  64  87
ATOM     87  C   UNL A   1      44.950  28.241  34.341  1.00  0.00     0.064 A 
ATOM     88  C   UNL A   1      46.060  29.097  34.314  1.00  0.00     0.173 A 
ATOM     89  C   UNL A   1      44.985  27.148  35.222  1.00  0.00     0.173 A 
ATOM     90  F   UNL A   1      46.081  30.147  33.477  1.00  0.00    -0.203 F 
ATOM     91  C   UNL A   1      47.169  28.857  35.120  1.00  0.00     0.198 A 
ATOM     92  C   UNL A   1      46.084  26.927  36.048  1.00  0.00     0.198 A 
ATOM     93  F   UNL A   1      43.947  26.301  35.291  1.00  0.00    -0.203 F 
ATOM     94  F   UNL A   1      48.237  29.664  35.043  1.00  0.00    -0.200 F 
ATOM     95  C   UNL A   1      47.178  27.777  35.990  1.00  0.00     0.200 A 
ATOM     96  F   UNL A   1      46.085  25.891  36.897  1.00  0.00    -0.200 F 
ATOM     97  F   UNL A   1      48.245  27.552  36.770  1.00  0.00    -0.200 F 
ENDBRANCH  64  87
ENDBRANCH  38  39
ENDBRANCH  30  33
ENDBRANCH  28  29
ENDBRANCH  27  28
ENDBRANCH   1  27
TORSDOF 14
ENDMDL
MODEL 3
REMARK VINA RESULT:     -12.9      2.588      4.397
REMARK SMILES O=C(CSc1cc(-c2ccccc2)nc(-c2ccccc2F)n1)NCCCNC(=O)c1ccc(-c2c3nc(c(-c4c(F)c(F)c(F)c(F)c4F)c4ccc([nH]4)c(-c4c(F)c(F)c(F)c(F)c4F)c4nc(c(-c5c(F)c(F)c(F)c(F)c5F)c5ccc2[nH]5)C=C4)C=C3)cc1
REMARK SMILES IDX 25 1 24 2 1 3 2 4 3 6 4 7 5 8 6 9 23 10 7 11 15 12 14 13
REMARK SMILES IDX 8 14 9 15 13 16 10 17 12 18 11 19 16 20 17 21 21 22 18 23
REMARK SMILES IDX 20 24 22 25 19 26 26 27 27 28 28 29 29 30 30 32 31 33 32 34
REMARK SMILES IDX 93 35 33 36 92 37 34 38 35 39 36 40 86 41 37 42 91 43 85 44
REMARK SMILES IDX 87 45 38 46 90 47 84 48 83 49 39 51 71 52 51 53 70 54 52 55
REMARK SMILES IDX 55 56 69 57 88 58 53 59 54 60 68 62 89 63 56 64 40 65 41 66
REMARK SMILES IDX 49 67 42 68 43 69 47 70 50 71 44 72 45 73 48 74 46 75 72 76
REMARK SMILES IDX 73 77 81 78 74 79 75 80 79 81 82 82 76 83 77 84 80 85 78 86
REMARK SMILES IDX 57 87 58 88 66 89 59 90 60 91 64 92 67 93 61 94 62 95 65 96
REMARK SMILES IDX 63 97
REMARK H PARENT 24 5 28 31 87 50 55 61
REMARK Flexibility Score: inf
ROOT
ATOM      1  C   UNL A   1      32.435  26.661  26.132  1.00  0.00     0.117 C 
ENDROOT
BRANCH   1   2
ATOM      2  N   UNL A   1      31.978  25.493  25.406  1.00  0.00    -0.355 N 
ATOM      3  O   UNL A   1      31.611  24.181  27.251  1.00  0.00    -0.274 OA
ATOM      4  C   UNL A   1      31.539  24.345  26.036  1.00  0.00     0.230 C 
ATOM      5  H   UNL A   1      31.980  25.520  24.421  1.00  0.00     0.163 HD
BRANCH   4   6
ATOM      6  C   UNL A   1      31.034  23.252  25.105  1.00  0.00     0.176 C 
BRANCH   6   7
ATOM      7  S   UNL A   1      31.981  23.191  23.549  1.00  0.00    -0.096 SA
BRANCH   7   8
ATOM      8  C   UNL A   1      33.312  22.130  24.082  1.00  0.00     0.101 A 
ATOM      9  C   UNL A   1      34.474  22.696  24.552  1.00  0.00     0.064 A 
ATOM     10  N   UNL A   1      33.094  20.808  24.046  1.00  0.00    -0.222 NA
ATOM     11  C   UNL A   1      35.452  21.822  24.979  1.00  0.00     0.075 A 
ATOM     12  C   UNL A   1      34.084  20.034  24.530  1.00  0.00     0.163 A 
ATOM     13  N   UNL A   1      35.273  20.487  24.965  1.00  0.00    -0.228 NA
BRANCH  11  14
ATOM     14  C   UNL A   1      36.745  22.303  25.484  1.00  0.00     0.000 A 
ATOM     15  C   UNL A   1      36.903  23.630  25.917  1.00  0.00     0.010 A 
ATOM     16  C   UNL A   1      37.857  21.446  25.565  1.00  0.00     0.010 A 
ATOM     17  C   UNL A   1      38.121  24.078  26.436  1.00  0.00     0.001 A 
ATOM     18  C   UNL A   1      39.078  21.894  26.077  1.00  0.00     0.001 A 
ATOM     19  C   UNL A   1      39.207  23.209  26.518  1.00  0.00     0.000 A 
ENDBRANCH  11  14
BRANCH  12  20
ATOM     20  C   UNL A   1      33.824  18.601  24.623  1.00  0.00     0.055 A 
ATOM     21  C   UNL A   1      34.304  17.704  23.652  1.00  0.00     0.015 A 
ATOM     22  C   UNL A   1      33.052  18.074  25.666  1.00  0.00     0.134 A 
ATOM     23  C   UNL A   1      34.027  16.334  23.734  1.00  0.00     0.001 A 
ATOM     24  C   UNL A   1      32.766  16.711  25.751  1.00  0.00     0.040 A 
ATOM     25  F   UNL A   1      32.528  18.882  26.601  1.00  0.00    -0.206 F 
ATOM     26  C   UNL A   1      33.256  15.838  24.783  1.00  0.00     0.003 A 
ENDBRANCH  12  20
ENDBRANCH   7   8
ENDBRANCH   6   7
ENDBRANCH   4   6
ENDBRANCH   1   2
BRANCH   1  27
ATOM     27  C   UNL A   1      31.974  27.970  25.499  1.00  0.00     0.042 C 
BRANCH  27  28
ATOM     28  C   UNL A   1      33.066  29.023  25.338  1.00  0.00     0.118 C 
BRANCH  28  29
ATOM     29  N   UNL A   1      32.697  30.326  25.876  1.00  0.00    -0.352 N 
ATOM     30  C   UNL A   1      33.262  31.070  26.882  1.00  0.00     0.251 C 
ATOM     31  H   UNL A   1      31.915  30.741  25.448  1.00  0.00     0.163 HD
ATOM     32  O   UNL A   1      32.703  32.103  27.251  1.00  0.00    -0.269 OA
BRANCH  30  33
ATOM     33  C   UNL A   1      34.510  30.642  27.553  1.00  0.00     0.039 A 
ATOM     34  C   UNL A   1      35.536  31.581  27.716  1.00  0.00     0.014 A 
ATOM     35  C   UNL A   1      34.701  29.328  27.989  1.00  0.00     0.014 A 
ATOM     36  C   UNL A   1      36.713  31.224  28.378  1.00  0.00     0.010 A 
ATOM     37  C   UNL A   1      35.847  28.991  28.708  1.00  0.00     0.010 A 
ATOM     38  C   UNL A   1      36.864  29.936  28.916  1.00  0.00    -0.014 A 
BRANCH  38  39
ATOM     39  C   UNL A   1      38.065  29.569  29.711  1.00  0.00     0.031 A 
ATOM     40  C   UNL A   1      38.285  30.155  31.078  1.00  0.00     0.074 A 
ATOM     41  C   UNL A   1      38.996  28.757  29.173  1.00  0.00     0.049 A 
ATOM     42  N   UNL A   1      39.310  30.018  31.883  1.00  0.00    -0.248 NA
ATOM     43  C   UNL A   1      37.224  31.028  31.601  1.00  0.00     0.031 C 
ATOM     44  C   UNL A   1      38.923  28.155  27.841  1.00  0.00     0.029 A 
ATOM     45  N   UNL A   1      40.194  28.310  29.673  1.00  0.00    -0.354 N 
ATOM     46  C   UNL A   1      39.025  30.799  32.995  1.00  0.00     0.074 A 
ATOM     47  C   UNL A   1      37.752  31.442  32.743  1.00  0.00     0.031 C 
ATOM     48  C   UNL A   1      40.018  27.405  27.636  1.00  0.00     0.029 A 
ATOM     49  C   UNL A   1      40.889  27.505  28.803  1.00  0.00     0.049 A 
ATOM     50  H   UNL A   1      40.524  28.545  30.571  1.00  0.00     0.167 HD
ATOM     51  C   UNL A   1      39.748  30.952  34.130  1.00  0.00     0.037 A 
ATOM     52  C   UNL A   1      42.096  26.922  28.927  1.00  0.00     0.037 A 
ATOM     53  C   UNL A   1      41.001  30.293  34.392  1.00  0.00     0.049 A 
ATOM     54  C   UNL A   1      42.883  27.113  30.196  1.00  0.00     0.074 A 
ATOM     55  C   UNL A   1      41.778  30.337  35.537  1.00  0.00     0.029 A 
ATOM     56  N   UNL A   1      41.665  29.470  33.493  1.00  0.00    -0.354 N 
ATOM     57  N   UNL A   1      42.573  27.804  31.266  1.00  0.00    -0.248 NA
ATOM     58  C   UNL A   1      44.186  26.439  30.275  1.00  0.00     0.031 C 
ATOM     59  C   UNL A   1      42.931  29.577  35.315  1.00  0.00     0.029 A 
ATOM     60  C   UNL A   1      42.851  29.019  34.051  1.00  0.00     0.049 A 
ATOM     61  H   UNL A   1      41.340  29.240  32.592  1.00  0.00     0.167 HD
ATOM     62  C   UNL A   1      43.625  27.626  32.152  1.00  0.00     0.074 A 
ATOM     63  C   UNL A   1      44.577  26.750  31.502  1.00  0.00     0.031 C 
ATOM     64  C   UNL A   1      43.787  28.141  33.396  1.00  0.00     0.037 A 
BRANCH  51  65
ATOM     65  C   UNL A   1      39.201  31.870  35.185  1.00  0.00     0.064 A 
ATOM     66  C   UNL A   1      38.447  31.384  36.264  1.00  0.00     0.173 A 
ATOM     67  C   UNL A   1      39.470  33.247  35.140  1.00  0.00     0.173 A 
ATOM     68  F   UNL A   1      38.153  30.078  36.348  1.00  0.00    -0.203 F 
ATOM     69  C   UNL A   1      37.958  32.245  37.242  1.00  0.00     0.198 A 
ATOM     70  C   UNL A   1      39.005  34.100  36.138  1.00  0.00     0.198 A 
ATOM     71  F   UNL A   1      40.192  33.763  34.136  1.00  0.00    -0.203 F 
ATOM     72  F   UNL A   1      37.200  31.765  38.238  1.00  0.00    -0.200 F 
ATOM     73  C   UNL A   1      38.243  33.601  37.183  1.00  0.00     0.200 A 
ATOM     74  F   UNL A   1      39.293  35.409  36.086  1.00  0.00    -0.200 F 
ATOM     75  F   UNL A   1      37.778  34.427  38.129  1.00  0.00    -0.200 F 
ENDBRANCH  51  65
BRANCH  52  76
ATOM     76  C   UNL A   1      42.631  26.083  27.823  1.00  0.00     0.064 A 
ATOM     77  C   UNL A   1      43.461  26.636  26.838  1.00  0.00     0.173 A 
ATOM     78  C   UNL A   1      42.320  24.719  27.727  1.00  0.00     0.173 A 
ATOM     79  F   UNL A   1      43.767  27.940  26.876  1.00  0.00    -0.203 F 
ATOM     80  C   UNL A   1      43.945  25.860  25.788  1.00  0.00     0.198 A 
ATOM     81  C   UNL A   1      42.829  23.937  26.691  1.00  0.00     0.198 A 
ATOM     82  F   UNL A   1      41.534  24.142  28.647  1.00  0.00    -0.203 F 
ATOM     83  F   UNL A   1      44.700  26.423  24.834  1.00  0.00    -0.200 F 
ATOM     84  C   UNL A   1      43.633  24.510  25.717  1.00  0.00     0.200 A 
ATOM     85  F   UNL A   1      42.536  22.631  26.635  1.00  0.00    -0.200 F 
ATOM     86  F   UNL A   1      44.102  23.763  24.709  1.00  0.00    -0.200 F 
ENDBRANCH  52  76
BRANCH  64  87
ATOM     87  C   UNL A   1      45.022  27.745  34.150  1.00  0.00     0.064 A 
ATOM     88  C   UNL A   1      46.198  28.506  34.092  1.00  0.00     0.173 A 
ATOM     89  C   UNL A   1      45.016  26.608  34.973  1.00  0.00     0.173 A 
ATOM     90  F   UNL A   1      46.259  29.593  33.307  1.00  0.00    -0.203 F 
ATOM     91  C   UNL A   1      47.330  28.131  34.811  1.00  0.00     0.198 A 
ATOM     92  C   UNL A   1      46.140  26.252  35.714  1.00  0.00     0.198 A 
ATOM     93  F   UNL A   1      43.914  25.847  35.069  1.00  0.00    -0.203 F 
ATOM     94  F   UNL A   1      48.457  28.849  34.704  1.00  0.00    -0.200 F 
ATOM     95  C   UNL A   1      47.298  27.009  35.626  1.00  0.00     0.200 A 
ATOM     96  F   UNL A   1      46.103  25.175  36.510  1.00  0.00    -0.200 F 
ATOM     97  F   UNL A   1      48.387  26.654  36.322  1.00  0.00    -0.200 F 
ENDBRANCH  64  87
ENDBRANCH  38  39
ENDBRANCH  30  33
ENDBRANCH  28  29
ENDBRANCH  27  28
ENDBRANCH   1  27
TORSDOF 14
ENDMDL
