MODEL 1
REMARK VINA RESULT:     -12.4      0.000      0.000
REMARK SMILES C[C@H](Oc1ccccc1[N+](=O)[O-])C(=O)N1CCC[C@H](C(=O)NCCCNC(=O)c2ccc(-c3c4nc(c(-c5c(F)c(F)c(F)c(F)c5F)c5ccc([nH]5)c(-c5c(F)c(F)c(F)c(F)c5F)c5nc(c(-c6c(F)c(F)c(F)c(F)c6F)c6ccc3[nH]6)C=C5)C=C4)cc2)C1
REMARK SMILES IDX 20 1 21 2 22 3 19 5 15 6 16 7 92 8 17 9 18 10 13 11 14 12
REMARK SMILES IDX 2 13 1 14 3 15 4 16 5 17 9 18 6 19 8 20 7 21 10 22 11 23
REMARK SMILES IDX 12 24 23 25 24 26 25 27 26 28 27 29 28 31 29 32 30 33 91 34
REMARK SMILES IDX 31 35 90 36 32 37 33 38 34 39 84 40 35 41 89 42 83 43 85 44
REMARK SMILES IDX 36 45 88 46 82 47 81 48 37 50 69 51 49 52 68 53 50 54 53 55
REMARK SMILES IDX 67 56 86 57 51 58 52 59 66 61 87 62 54 63 38 64 39 65 47 66
REMARK SMILES IDX 40 67 41 68 45 69 48 70 42 71 43 72 46 73 44 74 70 75 71 76
REMARK SMILES IDX 79 77 72 78 73 79 77 80 80 81 74 82 75 83 78 84 76 85 55 86
REMARK SMILES IDX 56 87 64 88 57 89 58 90 62 91 65 92 59 93 60 94 63 95 61 96
REMARK H PARENT 22 4 26 30 85 49 53 60
REMARK Flexibility Score: inf
ROOT
ATOM      1  C   UNL A   1      32.667  29.126  24.714  1.00  0.00     0.224 C 
ATOM      2  O   UNL A   1      33.266  29.192  23.633  1.00  0.00    -0.275 OA
ATOM      3  N   UNL A   1      32.448  30.307  25.344  1.00  0.00    -0.356 N 
ATOM      4  H   UNL A   1      32.872  31.084  24.913  1.00  0.00     0.163 HD
ENDROOT
BRANCH   1   5
ATOM      5  C   UNL A   1      32.283  27.747  25.273  1.00  0.00     0.098 C 
ATOM      6  N   UNL A   1      32.728  25.777  23.768  1.00  0.00    -0.339 N 
ATOM      7  C   UNL A   1      31.314  25.428  23.715  1.00  0.00     0.119 C 
ATOM      8  C   UNL A   1      33.199  26.578  24.893  1.00  0.00     0.133 C 
ATOM      9  C   UNL A   1      30.378  26.597  23.983  1.00  0.00     0.022 C 
ATOM     10  C   UNL A   1      30.788  27.439  25.184  1.00  0.00     0.017 C 
BRANCH   6  11
ATOM     11  C   UNL A   1      33.577  25.343  22.745  1.00  0.00     0.263 C 
ATOM     12  O   UNL A   1      33.650  25.954  21.674  1.00  0.00    -0.271 OA
BRANCH  11  13
ATOM     13  C   UNL A   1      34.142  23.906  22.868  1.00  0.00     0.259 C 
ATOM     14  C   UNL A   1      33.213  23.114  21.935  1.00  0.00     0.064 C 
BRANCH  13  15
ATOM     15  O   UNL A   1      34.221  23.496  24.232  1.00  0.00    -0.474 OA
BRANCH  15  16
ATOM     16  C   UNL A   1      35.347  23.012  24.826  1.00  0.00     0.197 A 
ATOM     17  C   UNL A   1      36.501  23.762  25.049  1.00  0.00     0.054 A 
ATOM     18  C   UNL A   1      35.386  21.650  25.176  1.00  0.00     0.310 A 
ATOM     19  C   UNL A   1      37.710  23.145  25.385  1.00  0.00     0.004 A 
ATOM     20  C   UNL A   1      36.596  21.023  25.527  1.00  0.00     0.090 A 
ATOM     21  C   UNL A   1      37.767  21.769  25.584  1.00  0.00     0.007 A 
BRANCH  18  22
ATOM     22  N   UNL A   1      34.163  20.844  25.250  1.00  0.00     0.066 N 
ATOM     23  O   UNL A   1      33.634  20.716  26.365  1.00  0.00    -0.258 OA
ATOM     24  O   UNL A   1      33.696  20.379  24.201  1.00  0.00    -0.258 OA
ENDBRANCH  18  22
ENDBRANCH  15  16
ENDBRANCH  13  15
ENDBRANCH  11  13
ENDBRANCH   6  11
ENDBRANCH   1   5
BRANCH   3  25
ATOM     25  C   UNL A   1      31.699  30.617  26.537  1.00  0.00     0.117 C 
BRANCH  25  26
ATOM     26  C   UNL A   1      31.456  32.101  26.742  1.00  0.00     0.042 C 
BRANCH  26  27
ATOM     27  C   UNL A   1      32.691  32.838  27.215  1.00  0.00     0.118 C 
BRANCH  27  28
ATOM     28  N   UNL A   1      32.410  34.214  27.613  1.00  0.00    -0.352 N 
ATOM     29  C   UNL A   1      32.983  35.005  28.584  1.00  0.00     0.251 C 
ATOM     30  H   UNL A   1      31.690  34.649  27.102  1.00  0.00     0.163 HD
ATOM     31  O   UNL A   1      32.519  36.106  28.830  1.00  0.00    -0.269 OA
BRANCH  29  32
ATOM     32  C   UNL A   1      34.142  34.507  29.360  1.00  0.00     0.039 A 
ATOM     33  C   UNL A   1      33.913  33.917  30.607  1.00  0.00     0.014 A 
ATOM     34  C   UNL A   1      35.442  34.606  28.867  1.00  0.00     0.014 A 
ATOM     35  C   UNL A   1      34.980  33.360  31.315  1.00  0.00     0.010 A 
ATOM     36  C   UNL A   1      36.477  33.942  29.507  1.00  0.00     0.010 A 
ATOM     37  C   UNL A   1      36.263  33.328  30.749  1.00  0.00    -0.014 A 
BRANCH  37  38
ATOM     38  C   UNL A   1      37.410  32.695  31.448  1.00  0.00     0.031 A 
ATOM     39  C   UNL A   1      38.119  31.531  30.807  1.00  0.00     0.074 A 
ATOM     40  C   UNL A   1      37.759  33.111  32.681  1.00  0.00     0.049 A 
ATOM     41  N   UNL A   1      39.064  30.766  31.292  1.00  0.00    -0.248 NA
ATOM     42  C   UNL A   1      37.679  31.148  29.454  1.00  0.00     0.031 C 
ATOM     43  C   UNL A   1      37.107  34.188  33.430  1.00  0.00     0.029 A 
ATOM     44  N   UNL A   1      38.742  32.668  33.529  1.00  0.00    -0.354 N 
ATOM     45  C   UNL A   1      39.304  29.802  30.322  1.00  0.00     0.074 A 
ATOM     46  C   UNL A   1      38.367  30.035  29.246  1.00  0.00     0.031 C 
ATOM     47  C   UNL A   1      37.727  34.340  34.612  1.00  0.00     0.029 A 
ATOM     48  C   UNL A   1      38.788  33.346  34.723  1.00  0.00     0.049 A 
ATOM     49  H   UNL A   1      39.357  31.933  33.304  1.00  0.00     0.167 HD
ATOM     50  C   UNL A   1      40.242  28.826  30.315  1.00  0.00     0.037 A 
ATOM     51  C   UNL A   1      39.593  33.176  35.790  1.00  0.00     0.037 A 
ATOM     52  C   UNL A   1      41.208  28.637  31.361  1.00  0.00     0.049 A 
ATOM     53  C   UNL A   1      40.646  32.100  35.742  1.00  0.00     0.074 A 
ATOM     54  C   UNL A   1      42.253  27.732  31.417  1.00  0.00     0.029 A 
ATOM     55  N   UNL A   1      41.252  29.373  32.536  1.00  0.00    -0.354 N 
ATOM     56  N   UNL A   1      40.912  31.243  34.786  1.00  0.00    -0.248 NA
ATOM     57  C   UNL A   1      41.517  31.973  36.918  1.00  0.00     0.031 C 
ATOM     58  C   UNL A   1      42.903  27.892  32.644  1.00  0.00     0.029 A 
ATOM     59  C   UNL A   1      42.295  28.930  33.330  1.00  0.00     0.049 A 
ATOM     60  H   UNL A   1      40.632  30.103  32.770  1.00  0.00     0.167 HD
ATOM     61  C   UNL A   1      41.997  30.500  35.230  1.00  0.00     0.074 A 
ATOM     62  C   UNL A   1      42.352  31.019  36.534  1.00  0.00     0.031 C 
ATOM     63  C   UNL A   1      42.641  29.477  34.616  1.00  0.00     0.037 A 
BRANCH  50  64
ATOM     64  C   UNL A   1      40.285  27.903  29.133  1.00  0.00     0.064 A 
ATOM     65  C   UNL A   1      39.546  26.710  29.102  1.00  0.00     0.173 A 
ATOM     66  C   UNL A   1      41.032  28.241  27.994  1.00  0.00     0.173 A 
ATOM     67  F   UNL A   1      38.827  26.334  30.170  1.00  0.00    -0.203 F 
ATOM     68  C   UNL A   1      39.570  25.880  27.985  1.00  0.00     0.198 A 
ATOM     69  C   UNL A   1      41.029  27.424  26.867  1.00  0.00     0.198 A 
ATOM     70  F   UNL A   1      41.754  29.371  27.969  1.00  0.00    -0.203 F 
ATOM     71  F   UNL A   1      38.891  24.725  27.995  1.00  0.00    -0.200 F 
ATOM     72  C   UNL A   1      40.304  26.242  26.865  1.00  0.00     0.200 A 
ATOM     73  F   UNL A   1      41.727  27.782  25.780  1.00  0.00    -0.200 F 
ATOM     74  F   UNL A   1      40.313  25.450  25.783  1.00  0.00    -0.200 F 
ENDBRANCH  50  64
BRANCH  51  75
ATOM     75  C   UNL A   1      39.457  34.053  36.983  1.00  0.00     0.064 A 
ATOM     76  C   UNL A   1      40.074  35.312  37.026  1.00  0.00     0.173 A 
ATOM     77  C   UNL A   1      38.737  33.643  38.115  1.00  0.00     0.173 A 
ATOM     78  F   UNL A   1      40.790  35.742  35.977  1.00  0.00    -0.203 F 
ATOM     79  C   UNL A   1      40.004  36.112  38.165  1.00  0.00     0.198 A 
ATOM     80  C   UNL A   1      38.640  34.458  39.241  1.00  0.00     0.198 A 
ATOM     81  F   UNL A   1      38.121  32.453  38.125  1.00  0.00    -0.203 F 
ATOM     82  F   UNL A   1      40.654  37.284  38.199  1.00  0.00    -0.200 F 
ATOM     83  C   UNL A   1      39.284  35.686  39.271  1.00  0.00     0.200 A 
ATOM     84  F   UNL A   1      37.930  34.050  40.302  1.00  0.00    -0.200 F 
ATOM     85  F   UNL A   1      39.220  36.453  40.367  1.00  0.00    -0.200 F 
ENDBRANCH  51  75
BRANCH  63  86
ATOM     86  C   UNL A   1      43.822  28.884  35.326  1.00  0.00     0.064 A 
ATOM     87  C   UNL A   1      43.681  27.829  36.238  1.00  0.00     0.173 A 
ATOM     88  C   UNL A   1      45.118  29.350  35.053  1.00  0.00     0.173 A 
ATOM     89  F   UNL A   1      42.462  27.359  36.543  1.00  0.00    -0.203 F 
ATOM     90  C   UNL A   1      44.792  27.279  36.871  1.00  0.00     0.198 A 
ATOM     91  C   UNL A   1      46.229  28.775  35.662  1.00  0.00     0.198 A 
ATOM     92  F   UNL A   1      45.307  30.352  34.181  1.00  0.00    -0.203 F 
ATOM     93  F   UNL A   1      44.630  26.304  37.776  1.00  0.00    -0.200 F 
ATOM     94  C   UNL A   1      46.064  27.747  36.576  1.00  0.00     0.200 A 
ATOM     95  F   UNL A   1      47.458  29.219  35.365  1.00  0.00    -0.200 F 
ATOM     96  F   UNL A   1      47.133  27.208  37.180  1.00  0.00    -0.200 F 
ENDBRANCH  63  86
ENDBRANCH  37  38
ENDBRANCH  29  32
ENDBRANCH  27  28
ENDBRANCH  26  27
ENDBRANCH  25  26
ENDBRANCH   3  25
TORSDOF 15
ENDMDL
MODEL 2
REMARK VINA RESULT:     -12.3      0.782      1.799
REMARK SMILES C[C@H](Oc1ccccc1[N+](=O)[O-])C(=O)N1CCC[C@H](C(=O)NCCCNC(=O)c2ccc(-c3c4nc(c(-c5c(F)c(F)c(F)c(F)c5F)c5ccc([nH]5)c(-c5c(F)c(F)c(F)c(F)c5F)c5nc(c(-c6c(F)c(F)c(F)c(F)c6F)c6ccc3[nH]6)C=C5)C=C4)cc2)C1
REMARK SMILES IDX 20 1 21 2 22 3 19 5 15 6 16 7 92 8 17 9 18 10 13 11 14 12
REMARK SMILES IDX 2 13 1 14 3 15 4 16 5 17 9 18 6 19 8 20 7 21 10 22 11 23
REMARK SMILES IDX 12 24 23 25 24 26 25 27 26 28 27 29 28 31 29 32 30 33 91 34
REMARK SMILES IDX 31 35 90 36 32 37 33 38 34 39 84 40 35 41 89 42 83 43 85 44
REMARK SMILES IDX 36 45 88 46 82 47 81 48 37 50 69 51 49 52 68 53 50 54 53 55
REMARK SMILES IDX 67 56 86 57 51 58 52 59 66 61 87 62 54 63 38 64 39 65 47 66
REMARK SMILES IDX 40 67 41 68 45 69 48 70 42 71 43 72 46 73 44 74 70 75 71 76
REMARK SMILES IDX 79 77 72 78 73 79 77 80 80 81 74 82 75 83 78 84 76 85 55 86
REMARK SMILES IDX 56 87 64 88 57 89 58 90 62 91 65 92 59 93 60 94 63 95 61 96
REMARK H PARENT 22 4 26 30 85 49 53 60
REMARK Flexibility Score: inf
ROOT
ATOM      1  C   UNL A   1      32.223  29.048  24.608  1.00  0.00     0.224 C 
ATOM      2  O   UNL A   1      32.262  28.939  23.376  1.00  0.00    -0.275 OA
ATOM      3  N   UNL A   1      31.840  30.259  25.085  1.00  0.00    -0.356 N 
ATOM      4  H   UNL A   1      31.721  30.951  24.395  1.00  0.00     0.163 HD
ENDROOT
BRANCH   1   5
ATOM      5  C   UNL A   1      32.658  27.859  25.478  1.00  0.00     0.098 C 
ATOM      6  N   UNL A   1      32.137  25.569  24.567  1.00  0.00    -0.339 N 
ATOM      7  C   UNL A   1      31.282  25.251  25.703  1.00  0.00     0.119 C 
ATOM      8  C   UNL A   1      33.145  26.611  24.733  1.00  0.00     0.133 C 
ATOM      9  C   UNL A   1      30.697  26.472  26.398  1.00  0.00     0.022 C 
ATOM     10  C   UNL A   1      31.717  27.573  26.650  1.00  0.00     0.017 C 
BRANCH   6  11
ATOM     11  C   UNL A   1      31.960  24.877  23.364  1.00  0.00     0.263 C 
ATOM     12  O   UNL A   1      30.936  24.220  23.152  1.00  0.00    -0.271 OA
BRANCH  11  13
ATOM     13  C   UNL A   1      33.216  24.682  22.479  1.00  0.00     0.259 C 
ATOM     14  C   UNL A   1      32.759  25.275  21.137  1.00  0.00     0.064 C 
BRANCH  13  15
ATOM     15  O   UNL A   1      33.652  23.324  22.491  1.00  0.00    -0.474 OA
BRANCH  15  16
ATOM     16  C   UNL A   1      34.580  22.822  23.352  1.00  0.00     0.197 A 
ATOM     17  C   UNL A   1      35.900  23.263  23.426  1.00  0.00     0.054 A 
ATOM     18  C   UNL A   1      34.214  21.741  24.175  1.00  0.00     0.310 A 
ATOM     19  C   UNL A   1      36.872  22.523  24.108  1.00  0.00     0.004 A 
ATOM     20  C   UNL A   1      35.183  20.997  24.873  1.00  0.00     0.090 A 
ATOM     21  C   UNL A   1      36.521  21.367  24.797  1.00  0.00     0.007 A 
BRANCH  18  22
ATOM     22  N   UNL A   1      32.808  21.382  24.387  1.00  0.00     0.066 N 
ATOM     23  O   UNL A   1      32.218  21.930  25.330  1.00  0.00    -0.258 OA
ATOM     24  O   UNL A   1      32.270  20.598  23.592  1.00  0.00    -0.258 OA
ENDBRANCH  18  22
ENDBRANCH  15  16
ENDBRANCH  13  15
ENDBRANCH  11  13
ENDBRANCH   6  11
ENDBRANCH   1   5
BRANCH   3  25
ATOM     25  C   UNL A   1      31.578  30.704  26.432  1.00  0.00     0.117 C 
BRANCH  25  26
ATOM     26  C   UNL A   1      31.452  32.210  26.568  1.00  0.00     0.042 C 
BRANCH  26  27
ATOM     27  C   UNL A   1      32.628  32.834  27.290  1.00  0.00     0.118 C 
BRANCH  27  28
ATOM     28  N   UNL A   1      32.383  34.221  27.674  1.00  0.00    -0.352 N 
ATOM     29  C   UNL A   1      33.000  35.017  28.613  1.00  0.00     0.251 C 
ATOM     30  H   UNL A   1      31.655  34.661  27.178  1.00  0.00     0.163 HD
ATOM     31  O   UNL A   1      32.563  36.131  28.854  1.00  0.00    -0.269 OA
BRANCH  29  32
ATOM     32  C   UNL A   1      34.173  34.512  29.361  1.00  0.00     0.039 A 
ATOM     33  C   UNL A   1      33.969  33.910  30.607  1.00  0.00     0.014 A 
ATOM     34  C   UNL A   1      35.463  34.614  28.843  1.00  0.00     0.014 A 
ATOM     35  C   UNL A   1      35.049  33.345  31.288  1.00  0.00     0.010 A 
ATOM     36  C   UNL A   1      36.510  33.943  29.457  1.00  0.00     0.010 A 
ATOM     37  C   UNL A   1      36.320  33.317  30.697  1.00  0.00    -0.014 A 
BRANCH  37  38
ATOM     38  C   UNL A   1      37.481  32.677  31.367  1.00  0.00     0.031 A 
ATOM     39  C   UNL A   1      38.198  31.541  30.686  1.00  0.00     0.074 A 
ATOM     40  C   UNL A   1      37.835  33.059  32.609  1.00  0.00     0.049 A 
ATOM     41  N   UNL A   1      39.155  30.773  31.139  1.00  0.00    -0.248 NA
ATOM     42  C   UNL A   1      37.750  31.194  29.325  1.00  0.00     0.031 C 
ATOM     43  C   UNL A   1      37.177  34.106  33.396  1.00  0.00     0.029 A 
ATOM     44  N   UNL A   1      38.830  32.602  33.436  1.00  0.00    -0.354 N 
ATOM     45  C   UNL A   1      39.397  29.841  30.138  1.00  0.00     0.074 A 
ATOM     46  C   UNL A   1      38.449  30.096  29.078  1.00  0.00     0.031 C 
ATOM     47  C   UNL A   1      37.805  34.229  34.576  1.00  0.00     0.029 A 
ATOM     48  C   UNL A   1      38.879  33.244  34.649  1.00  0.00     0.049 A 
ATOM     49  H   UNL A   1      39.451  31.882  33.183  1.00  0.00     0.167 HD
ATOM     50  C   UNL A   1      40.347  28.878  30.094  1.00  0.00     0.037 A 
ATOM     51  C   UNL A   1      39.694  33.052  35.703  1.00  0.00     0.037 A 
ATOM     52  C   UNL A   1      41.323  28.668  31.126  1.00  0.00     0.049 A 
ATOM     53  C   UNL A   1      40.759  31.990  35.614  1.00  0.00     0.074 A 
ATOM     54  C   UNL A   1      42.379  27.774  31.146  1.00  0.00     0.029 A 
ATOM     55  N   UNL A   1      41.368  29.369  32.322  1.00  0.00    -0.354 N 
ATOM     56  N   UNL A   1      41.027  31.165  34.631  1.00  0.00    -0.248 NA
ATOM     57  C   UNL A   1      41.642  31.838  36.779  1.00  0.00     0.031 C 
ATOM     58  C   UNL A   1      43.037  27.904  32.372  1.00  0.00     0.029 A 
ATOM     59  C   UNL A   1      42.424  28.914  33.094  1.00  0.00     0.049 A 
ATOM     60  H   UNL A   1      40.743  30.084  32.583  1.00  0.00     0.167 HD
ATOM     61  C   UNL A   1      42.124  30.422  35.043  1.00  0.00     0.074 A 
ATOM     62  C   UNL A   1      42.483  30.905  36.360  1.00  0.00     0.031 C 
ATOM     63  C   UNL A   1      42.775  29.426  34.394  1.00  0.00     0.037 A 
BRANCH  50  64
ATOM     64  C   UNL A   1      40.390  27.991  28.884  1.00  0.00     0.064 A 
ATOM     65  C   UNL A   1      41.150  28.323  27.753  1.00  0.00     0.173 A 
ATOM     66  C   UNL A   1      39.704  26.766  28.877  1.00  0.00     0.173 A 
ATOM     67  F   UNL A   1      41.813  29.488  27.704  1.00  0.00    -0.203 F 
ATOM     68  C   UNL A   1      41.206  27.473  26.652  1.00  0.00     0.198 A 
ATOM     69  C   UNL A   1      39.787  25.905  27.787  1.00  0.00     0.198 A 
ATOM     70  F   UNL A   1      38.964  26.398  29.933  1.00  0.00    -0.203 F 
ATOM     71  F   UNL A   1      41.905  27.832  25.565  1.00  0.00    -0.200 F 
ATOM     72  C   UNL A   1      40.533  26.261  26.673  1.00  0.00     0.200 A 
ATOM     73  F   UNL A   1      39.148  24.727  27.814  1.00  0.00    -0.200 F 
ATOM     74  F   UNL A   1      40.601  25.436  25.618  1.00  0.00    -0.200 F 
ENDBRANCH  50  64
BRANCH  51  75
ATOM     75  C   UNL A   1      39.558  33.891  36.924  1.00  0.00     0.064 A 
ATOM     76  C   UNL A   1      38.814  33.444  38.026  1.00  0.00     0.173 A 
ATOM     77  C   UNL A   1      40.141  35.164  37.006  1.00  0.00     0.173 A 
ATOM     78  F   UNL A   1      38.220  32.242  37.989  1.00  0.00    -0.203 F 
ATOM     79  C   UNL A   1      38.629  34.250  39.147  1.00  0.00     0.198 A 
ATOM     80  C   UNL A   1      39.983  35.956  38.142  1.00  0.00     0.198 A 
ATOM     81  F   UNL A   1      40.869  35.637  35.985  1.00  0.00    -0.203 F 
ATOM     82  F   UNL A   1      37.862  33.822  40.159  1.00  0.00    -0.200 F 
ATOM     83  C   UNL A   1      39.217  35.504  39.206  1.00  0.00     0.200 A 
ATOM     84  F   UNL A   1      40.566  37.162  38.202  1.00  0.00    -0.200 F 
ATOM     85  F   UNL A   1      39.037  36.282  40.283  1.00  0.00    -0.200 F 
ENDBRANCH  51  75
BRANCH  63  86
ATOM     86  C   UNL A   1      43.968  28.826  35.075  1.00  0.00     0.064 A 
ATOM     87  C   UNL A   1      43.854  27.708  35.915  1.00  0.00     0.173 A 
ATOM     88  C   UNL A   1      45.250  29.349  34.847  1.00  0.00     0.173 A 
ATOM     89  F   UNL A   1      42.648  27.181  36.176  1.00  0.00    -0.203 F 
ATOM     90  C   UNL A   1      44.976  27.154  36.522  1.00  0.00     0.198 A 
ATOM     91  C   UNL A   1      46.374  28.771  35.429  1.00  0.00     0.198 A 
ATOM     92  F   UNL A   1      45.414  30.412  34.044  1.00  0.00    -0.203 F 
ATOM     93  F   UNL A   1      44.839  26.116  37.359  1.00  0.00    -0.200 F 
ATOM     94  C   UNL A   1      46.235  27.680  36.272  1.00  0.00     0.200 A 
ATOM     95  F   UNL A   1      47.591  29.272  35.174  1.00  0.00    -0.200 F 
ATOM     96  F   UNL A   1      47.316  27.137  36.851  1.00  0.00    -0.200 F 
ENDBRANCH  63  86
ENDBRANCH  37  38
ENDBRANCH  29  32
ENDBRANCH  27  28
ENDBRANCH  26  27
ENDBRANCH  25  26
ENDBRANCH   3  25
TORSDOF 15
ENDMDL
MODEL 3
REMARK VINA RESULT:     -12.3      2.082      7.797
REMARK SMILES C[C@H](Oc1ccccc1[N+](=O)[O-])C(=O)N1CCC[C@H](C(=O)NCCCNC(=O)c2ccc(-c3c4nc(c(-c5c(F)c(F)c(F)c(F)c5F)c5ccc([nH]5)c(-c5c(F)c(F)c(F)c(F)c5F)c5nc(c(-c6c(F)c(F)c(F)c(F)c6F)c6ccc3[nH]6)C=C5)C=C4)cc2)C1
REMARK SMILES IDX 20 1 21 2 22 3 19 5 15 6 16 7 92 8 17 9 18 10 13 11 14 12
REMARK SMILES IDX 2 13 1 14 3 15 4 16 5 17 9 18 6 19 8 20 7 21 10 22 11 23
REMARK SMILES IDX 12 24 23 25 24 26 25 27 26 28 27 29 28 31 29 32 30 33 91 34
REMARK SMILES IDX 31 35 90 36 32 37 33 38 34 39 84 40 35 41 89 42 83 43 85 44
REMARK SMILES IDX 36 45 88 46 82 47 81 48 37 50 69 51 49 52 68 53 50 54 53 55
REMARK SMILES IDX 67 56 86 57 51 58 52 59 66 61 87 62 54 63 38 64 39 65 47 66
REMARK SMILES IDX 40 67 41 68 45 69 48 70 42 71 43 72 46 73 44 74 70 75 71 76
REMARK SMILES IDX 79 77 72 78 73 79 77 80 80 81 74 82 75 83 78 84 76 85 55 86
REMARK SMILES IDX 56 87 64 88 57 89 58 90 62 91 65 92 59 93 60 94 63 95 61 96
REMARK H PARENT 22 4 26 30 85 49 53 60
REMARK Flexibility Score: inf
ROOT
ATOM      1  C   UNL A   1      29.903  25.874  25.859  1.00  0.00     0.224 C 
ATOM      2  O   UNL A   1      29.203  25.147  26.575  1.00  0.00    -0.275 OA
ATOM      3  N   UNL A   1      30.782  26.678  26.509  1.00  0.00    -0.356 N 
ATOM      4  H   UNL A   1      30.703  26.661  27.490  1.00  0.00     0.163 HD
ENDROOT
BRANCH   1   5
ATOM      5  C   UNL A   1      29.688  25.857  24.338  1.00  0.00     0.098 C 
ATOM      6  N   UNL A   1      31.767  25.984  22.922  1.00  0.00    -0.339 N 
ATOM      7  C   UNL A   1      31.343  27.238  22.314  1.00  0.00     0.119 C 
ATOM      8  C   UNL A   1      30.746  25.122  23.508  1.00  0.00     0.133 C 
ATOM      9  C   UNL A   1      30.373  28.043  23.166  1.00  0.00     0.022 C 
ATOM     10  C   UNL A   1      29.249  27.204  23.760  1.00  0.00     0.017 C 
BRANCH   6  11
ATOM     11  C   UNL A   1      33.126  25.654  22.930  1.00  0.00     0.263 C 
ATOM     12  O   UNL A   1      33.854  25.926  21.971  1.00  0.00    -0.271 OA
BRANCH  11  13
ATOM     13  C   UNL A   1      33.594  24.647  24.009  1.00  0.00     0.259 C 
ATOM     14  C   UNL A   1      34.405  25.543  24.958  1.00  0.00     0.064 C 
BRANCH  13  15
ATOM     15  O   UNL A   1      34.258  23.529  23.421  1.00  0.00    -0.474 OA
BRANCH  15  16
ATOM     16  C   UNL A   1      33.970  22.229  23.702  1.00  0.00     0.197 A 
ATOM     17  C   UNL A   1      32.826  21.566  23.258  1.00  0.00     0.054 A 
ATOM     18  C   UNL A   1      34.838  21.519  24.551  1.00  0.00     0.310 A 
ATOM     19  C   UNL A   1      32.441  20.341  23.813  1.00  0.00     0.004 A 
ATOM     20  C   UNL A   1      34.463  20.281  25.105  1.00  0.00     0.090 A 
ATOM     21  C   UNL A   1      33.238  19.718  24.767  1.00  0.00     0.007 A 
BRANCH  18  22
ATOM     22  N   UNL A   1      36.190  22.007  24.845  1.00  0.00     0.066 N 
ATOM     23  O   UNL A   1      37.091  21.698  24.050  1.00  0.00    -0.258 OA
ATOM     24  O   UNL A   1      36.354  22.737  25.832  1.00  0.00    -0.258 OA
ENDBRANCH  18  22
ENDBRANCH  15  16
ENDBRANCH  13  15
ENDBRANCH  11  13
ENDBRANCH   6  11
ENDBRANCH   1   5
BRANCH   3  25
ATOM     25  C   UNL A   1      31.812  27.553  26.006  1.00  0.00     0.117 C 
BRANCH  25  26
ATOM     26  C   UNL A   1      31.785  28.945  26.609  1.00  0.00     0.042 C 
BRANCH  26  27
ATOM     27  C   UNL A   1      32.881  29.840  26.071  1.00  0.00     0.118 C 
BRANCH  27  28
ATOM     28  N   UNL A   1      32.731  31.231  26.487  1.00  0.00    -0.352 N 
ATOM     29  C   UNL A   1      33.487  32.002  27.342  1.00  0.00     0.251 C 
ATOM     30  H   UNL A   1      31.959  31.696  26.091  1.00  0.00     0.163 HD
ATOM     31  O   UNL A   1      33.119  33.125  27.641  1.00  0.00    -0.269 OA
BRANCH  29  32
ATOM     32  C   UNL A   1      34.731  31.456  27.930  1.00  0.00     0.039 A 
ATOM     33  C   UNL A   1      35.838  32.300  28.069  1.00  0.00     0.014 A 
ATOM     34  C   UNL A   1      34.812  30.130  28.356  1.00  0.00     0.014 A 
ATOM     35  C   UNL A   1      36.990  31.832  28.703  1.00  0.00     0.010 A 
ATOM     36  C   UNL A   1      35.904  29.707  29.098  1.00  0.00     0.010 A 
ATOM     37  C   UNL A   1      37.015  30.546  29.264  1.00  0.00    -0.014 A 
BRANCH  37  38
ATOM     38  C   UNL A   1      38.202  30.034  29.994  1.00  0.00     0.031 A 
ATOM     39  C   UNL A   1      38.482  30.521  31.391  1.00  0.00     0.074 A 
ATOM     40  C   UNL A   1      39.064  29.202  29.377  1.00  0.00     0.049 A 
ATOM     41  N   UNL A   1      39.516  30.291  32.159  1.00  0.00    -0.248 NA
ATOM     42  C   UNL A   1      37.483  31.422  31.992  1.00  0.00     0.031 C 
ATOM     43  C   UNL A   1      38.933  28.709  28.004  1.00  0.00     0.029 A 
ATOM     44  N   UNL A   1      40.230  28.632  29.822  1.00  0.00    -0.354 N 
ATOM     45  C   UNL A   1      39.306  31.040  33.309  1.00  0.00     0.074 A 
ATOM     46  C   UNL A   1      38.079  31.780  33.119  1.00  0.00     0.031 C 
ATOM     47  C   UNL A   1      39.961  27.889  27.730  1.00  0.00     0.029 A 
ATOM     48  C   UNL A   1      40.845  27.832  28.889  1.00  0.00     0.049 A 
ATOM     49  H   UNL A   1      40.593  28.782  30.724  1.00  0.00     0.167 HD
ATOM     50  C   UNL A   1      40.053  31.083  34.437  1.00  0.00     0.037 A 
ATOM     51  C   UNL A   1      41.998  27.139  28.961  1.00  0.00     0.037 A 
ATOM     52  C   UNL A   1      41.240  30.300  34.641  1.00  0.00     0.049 A 
ATOM     53  C   UNL A   1      42.794  27.185  30.239  1.00  0.00     0.074 A 
ATOM     54  C   UNL A   1      42.027  30.207  35.775  1.00  0.00     0.029 A 
ATOM     55  N   UNL A   1      41.808  29.467  33.689  1.00  0.00    -0.354 N 
ATOM     56  N   UNL A   1      42.545  27.838  31.348  1.00  0.00    -0.248 NA
ATOM     57  C   UNL A   1      44.029  26.390  30.278  1.00  0.00     0.031 C 
ATOM     58  C   UNL A   1      43.095  29.350  35.494  1.00  0.00     0.029 A 
ATOM     59  C   UNL A   1      42.945  28.869  34.204  1.00  0.00     0.049 A 
ATOM     60  H   UNL A   1      41.454  29.321  32.781  1.00  0.00     0.167 HD
ATOM     61  C   UNL A   1      43.569  27.508  32.225  1.00  0.00     0.074 A 
ATOM     62  C   UNL A   1      44.435  26.583  31.524  1.00  0.00     0.031 C 
ATOM     63  C   UNL A   1      43.779  27.935  33.494  1.00  0.00     0.037 A 
BRANCH  50  64
ATOM     64  C   UNL A   1      39.601  31.990  35.544  1.00  0.00     0.064 A 
ATOM     65  C   UNL A   1      40.046  33.317  35.638  1.00  0.00     0.173 A 
ATOM     66  C   UNL A   1      38.668  31.542  36.492  1.00  0.00     0.173 A 
ATOM     67  F   UNL A   1      40.948  33.790  34.764  1.00  0.00    -0.203 F 
ATOM     68  C   UNL A   1      39.591  34.156  36.652  1.00  0.00     0.198 A 
ATOM     69  C   UNL A   1      38.193  32.393  37.486  1.00  0.00     0.198 A 
ATOM     70  F   UNL A   1      38.208  30.283  36.447  1.00  0.00    -0.203 F 
ATOM     71  F   UNL A   1      40.063  35.407  36.746  1.00  0.00    -0.200 F 
ATOM     72  C   UNL A   1      38.658  33.696  37.569  1.00  0.00     0.200 A 
ATOM     73  F   UNL A   1      37.280  31.952  38.363  1.00  0.00    -0.200 F 
ATOM     74  F   UNL A   1      38.210  34.510  38.535  1.00  0.00    -0.200 F 
ENDBRANCH  50  64
BRANCH  51  75
ATOM     75  C   UNL A   1      42.461  26.325  27.806  1.00  0.00     0.064 A 
ATOM     76  C   UNL A   1      43.402  26.833  26.898  1.00  0.00     0.173 A 
ATOM     77  C   UNL A   1      41.954  25.039  27.566  1.00  0.00     0.173 A 
ATOM     78  F   UNL A   1      43.902  28.065  27.072  1.00  0.00    -0.203 F 
ATOM     79  C   UNL A   1      43.793  26.101  25.779  1.00  0.00     0.198 A 
ATOM     80  C   UNL A   1      42.371  24.295  26.464  1.00  0.00     0.198 A 
ATOM     81  F   UNL A   1      41.058  24.503  28.406  1.00  0.00    -0.203 F 
ATOM     82  F   UNL A   1      44.648  26.636  24.896  1.00  0.00    -0.200 F 
ATOM     83  C   UNL A   1      43.280  24.831  25.565  1.00  0.00     0.200 A 
ATOM     84  F   UNL A   1      41.884  23.061  26.269  1.00  0.00    -0.200 F 
ATOM     85  F   UNL A   1      43.653  24.129  24.486  1.00  0.00    -0.200 F 
ENDBRANCH  51  75
BRANCH  63  86
ATOM     86  C   UNL A   1      44.962  27.370  34.223  1.00  0.00     0.064 A 
ATOM     87  C   UNL A   1      46.202  28.025  34.237  1.00  0.00     0.173 A 
ATOM     88  C   UNL A   1      44.838  26.179  34.955  1.00  0.00     0.173 A 
ATOM     89  F   UNL A   1      46.374  29.159  33.540  1.00  0.00    -0.203 F 
ATOM     90  C   UNL A   1      47.282  27.495  34.935  1.00  0.00     0.198 A 
ATOM     91  C   UNL A   1      45.911  25.670  35.680  1.00  0.00     0.198 A 
ATOM     92  F   UNL A   1      43.671  25.519  34.982  1.00  0.00    -0.203 F 
ATOM     93  F   UNL A   1      48.471  28.111  34.895  1.00  0.00    -0.200 F 
ATOM     94  C   UNL A   1      47.133  26.323  35.663  1.00  0.00     0.200 A 
ATOM     95  F   UNL A   1      45.761  24.545  36.395  1.00  0.00    -0.200 F 
ATOM     96  F   UNL A   1      48.173  25.820  36.343  1.00  0.00    -0.200 F 
ENDBRANCH  63  86
ENDBRANCH  37  38
ENDBRANCH  29  32
ENDBRANCH  27  28
ENDBRANCH  26  27
ENDBRANCH  25  26
ENDBRANCH   3  25
TORSDOF 15
ENDMDL
