MODEL 1
REMARK VINA RESULT:     -11.6      0.000      0.000
REMARK SMILES C[C@@H]1SC[C@H](C(=O)NCCCNC(=O)c2ccc(-c3c4nc(c(-c5c(F)c(F)c(F)c(F)c5F)c5ccc([nH]5)c(-c5c(F)c(F)c(F)c(F)c5F)c5nc(c(-c6c(F)c(F)c(F)c(F)c6F)c6ccc3[nH]6)C=C5)C=C4)cc2)N1C(=O)C[NH2+]CC(F)(F)F
REMARK SMILES IDX 6 1 7 2 8 3 5 5 1 6 2 7 3 8 78 9 4 10 79 11 80 12 81 13
REMARK SMILES IDX 82 14 83 17 84 18 85 19 86 20 87 21 9 22 10 23 11 24 12 25
REMARK SMILES IDX 13 26 14 28 15 29 16 30 77 31 17 32 76 33 18 34 19 35 20 36
REMARK SMILES IDX 70 37 21 38 75 39 69 40 71 41 22 42 74 43 68 44 67 45 23 47
REMARK SMILES IDX 55 48 35 49 54 50 36 51 39 52 53 53 72 54 37 55 38 56 52 58
REMARK SMILES IDX 73 59 40 60 24 61 25 62 33 63 26 64 27 65 31 66 34 67 28 68
REMARK SMILES IDX 29 69 32 70 30 71 56 72 57 73 65 74 58 75 59 76 63 77 66 78
REMARK SMILES IDX 60 79 61 80 64 81 62 82 41 83 42 84 50 85 43 86 44 87 48 88
REMARK SMILES IDX 51 89 45 90 46 91 49 92 47 93
REMARK H PARENT 8 4 82 15 82 16 12 27 71 46 39 57
REMARK Flexibility Score: inf
ROOT
ATOM      1  C   UNL A   1      35.684  22.713  23.906  1.00  0.00     0.243 C 
ATOM      2  O   UNL A   1      35.668  23.243  22.790  1.00  0.00    -0.273 OA
ATOM      3  N   UNL A   1      36.629  21.756  24.117  1.00  0.00    -0.354 N 
ATOM      4  H   UNL A   1      37.359  21.747  23.456  1.00  0.00     0.163 HD
ENDROOT
BRANCH   1   5
ATOM      5  C   UNL A   1      34.551  22.982  24.915  1.00  0.00     0.185 C 
ATOM      6  C   UNL A   1      30.959  24.054  24.572  1.00  0.00     0.043 C 
ATOM      7  C   UNL A   1      32.186  23.485  25.276  1.00  0.00     0.141 C 
ATOM      8  S   UNL A   1      33.085  24.895  26.022  1.00  0.00    -0.135 SA
ATOM      9  N   UNL A   1      33.164  22.749  24.473  1.00  0.00    -0.313 N 
ATOM     10  C   UNL A   1      34.691  24.433  25.354  1.00  0.00     0.107 C 
BRANCH   9  11
ATOM     11  C   UNL A   1      32.910  21.507  23.895  1.00  0.00     0.279 C 
ATOM     12  O   UNL A   1      32.528  21.400  22.727  1.00  0.00    -0.268 OA
BRANCH  11  13
ATOM     13  C   UNL A   1      33.034  20.243  24.746  1.00  0.00     0.362 C 
BRANCH  13  14
ATOM     14  N   UNL A   1      32.902  19.065  23.878  1.00  0.00    -0.331 N 
ATOM     15  H   UNL A   1      33.589  19.128  23.126  1.00  0.00     0.346 HD
ATOM     16  H   UNL A   1      31.954  19.046  23.502  1.00  0.00     0.346 HD
BRANCH  14  17
ATOM     17  C   UNL A   1      33.129  17.804  24.634  1.00  0.00     0.378 C 
BRANCH  17  18
ATOM     18  C   UNL A   1      34.371  16.947  24.314  1.00  0.00     0.438 C 
ATOM     19  F   UNL A   1      34.233  16.319  23.126  1.00  0.00    -0.165 F 
ATOM     20  F   UNL A   1      35.479  17.718  24.251  1.00  0.00    -0.165 F 
ATOM     21  F   UNL A   1      34.579  16.008  25.264  1.00  0.00    -0.165 F 
ENDBRANCH  17  18
ENDBRANCH  14  17
ENDBRANCH  13  14
ENDBRANCH  11  13
ENDBRANCH   9  11
ENDBRANCH   1   5
BRANCH   3  22
ATOM     22  C   UNL A   1      36.739  20.749  25.153  1.00  0.00     0.117 C 
BRANCH  22  23
ATOM     23  C   UNL A   1      37.958  19.865  24.928  1.00  0.00     0.042 C 
BRANCH  23  24
ATOM     24  C   UNL A   1      39.170  20.278  25.751  1.00  0.00     0.118 C 
BRANCH  24  25
ATOM     25  N   UNL A   1      40.131  19.196  25.913  1.00  0.00    -0.352 N 
ATOM     26  C   UNL A   1      41.488  19.263  26.110  1.00  0.00     0.251 C 
ATOM     27  H   UNL A   1      39.753  18.287  25.877  1.00  0.00     0.163 HD
ATOM     28  O   UNL A   1      42.178  18.251  26.029  1.00  0.00    -0.269 OA
BRANCH  26  29
ATOM     29  C   UNL A   1      42.117  20.567  26.399  1.00  0.00     0.039 A 
ATOM     30  C   UNL A   1      42.534  21.377  25.340  1.00  0.00     0.014 A 
ATOM     31  C   UNL A   1      42.278  20.993  27.719  1.00  0.00     0.014 A 
ATOM     32  C   UNL A   1      43.049  22.648  25.605  1.00  0.00     0.010 A 
ATOM     33  C   UNL A   1      42.702  22.289  27.976  1.00  0.00     0.010 A 
ATOM     34  C   UNL A   1      43.102  23.127  26.923  1.00  0.00    -0.014 A 
BRANCH  34  35
ATOM     35  C   UNL A   1      43.608  24.484  27.253  1.00  0.00     0.031 A 
ATOM     36  C   UNL A   1      42.649  25.517  27.774  1.00  0.00     0.074 A 
ATOM     37  C   UNL A   1      44.887  24.813  26.990  1.00  0.00     0.049 A 
ATOM     38  N   UNL A   1      42.827  26.800  27.953  1.00  0.00    -0.248 NA
ATOM     39  C   UNL A   1      41.294  25.046  28.105  1.00  0.00     0.031 C 
ATOM     40  C   UNL A   1      45.905  23.907  26.459  1.00  0.00     0.029 A 
ATOM     41  N   UNL A   1      45.541  26.014  27.111  1.00  0.00    -0.354 N 
ATOM     42  C   UNL A   1      41.602  27.291  28.387  1.00  0.00     0.074 A 
ATOM     43  C   UNL A   1      40.675  26.180  28.392  1.00  0.00     0.031 C 
ATOM     44  C   UNL A   1      47.057  24.582  26.307  1.00  0.00     0.029 A 
ATOM     45  C   UNL A   1      46.845  25.977  26.680  1.00  0.00     0.049 A 
ATOM     46  H   UNL A   1      45.116  26.826  27.473  1.00  0.00     0.167 HD
ATOM     47  C   UNL A   1      41.285  28.551  28.769  1.00  0.00     0.037 A 
ATOM     48  C   UNL A   1      47.757  26.963  26.576  1.00  0.00     0.037 A 
ATOM     49  C   UNL A   1      42.220  29.643  28.789  1.00  0.00     0.049 A 
ATOM     50  C   UNL A   1      47.376  28.362  26.987  1.00  0.00     0.074 A 
ATOM     51  C   UNL A   1      42.013  30.948  29.198  1.00  0.00     0.029 A 
ATOM     52  N   UNL A   1      43.543  29.555  28.378  1.00  0.00    -0.354 N 
ATOM     53  N   UNL A   1      46.228  28.807  27.438  1.00  0.00    -0.248 NA
ATOM     54  C   UNL A   1      48.416  29.394  26.879  1.00  0.00     0.031 C 
ATOM     55  C   UNL A   1      43.196  31.662  28.990  1.00  0.00     0.029 A 
ATOM     56  C   UNL A   1      44.159  30.788  28.511  1.00  0.00     0.049 A 
ATOM     57  H   UNL A   1      43.977  28.739  28.042  1.00  0.00     0.167 HD
ATOM     58  C   UNL A   1      46.421  30.157  27.708  1.00  0.00     0.074 A 
ATOM     59  C   UNL A   1      47.795  30.457  27.370  1.00  0.00     0.031 C 
ATOM     60  C   UNL A   1      45.539  31.061  28.200  1.00  0.00     0.037 A 
BRANCH  47  61
ATOM     61  C   UNL A   1      39.869  28.812  29.197  1.00  0.00     0.064 A 
ATOM     62  C   UNL A   1      39.461  28.659  30.530  1.00  0.00     0.173 A 
ATOM     63  C   UNL A   1      38.913  29.244  28.266  1.00  0.00     0.173 A 
ATOM     64  F   UNL A   1      40.332  28.236  31.459  1.00  0.00    -0.203 F 
ATOM     65  C   UNL A   1      38.142  28.893  30.909  1.00  0.00     0.198 A 
ATOM     66  C   UNL A   1      37.603  29.513  28.653  1.00  0.00     0.198 A 
ATOM     67  F   UNL A   1      39.249  29.413  26.978  1.00  0.00    -0.203 F 
ATOM     68  F   UNL A   1      37.762  28.683  32.177  1.00  0.00    -0.200 F 
ATOM     69  C   UNL A   1      37.216  29.328  29.972  1.00  0.00     0.200 A 
ATOM     70  F   UNL A   1      36.713  29.948  27.750  1.00  0.00    -0.200 F 
ATOM     71  F   UNL A   1      35.948  29.561  30.339  1.00  0.00    -0.200 F 
ENDBRANCH  47  61
BRANCH  48  72
ATOM     72  C   UNL A   1      49.124  26.663  26.074  1.00  0.00     0.064 A 
ATOM     73  C   UNL A   1      49.477  26.929  24.744  1.00  0.00     0.173 A 
ATOM     74  C   UNL A   1      50.103  26.098  26.906  1.00  0.00     0.173 A 
ATOM     75  F   UNL A   1      48.571  27.452  23.903  1.00  0.00    -0.203 F 
ATOM     76  C   UNL A   1      50.746  26.622  24.258  1.00  0.00     0.198 A 
ATOM     77  C   UNL A   1      51.382  25.819  26.428  1.00  0.00     0.198 A 
ATOM     78  F   UNL A   1      49.820  25.829  28.189  1.00  0.00    -0.203 F 
ATOM     79  F   UNL A   1      51.039  26.842  22.969  1.00  0.00    -0.200 F 
ATOM     80  C   UNL A   1      51.699  26.072  25.102  1.00  0.00     0.200 A 
ATOM     81  F   UNL A   1      52.305  25.303  27.251  1.00  0.00    -0.200 F 
ATOM     82  F   UNL A   1      52.920  25.779  24.635  1.00  0.00    -0.200 F 
ENDBRANCH  48  72
BRANCH  60  83
ATOM     83  C   UNL A   1      46.042  32.447  28.477  1.00  0.00     0.064 A 
ATOM     84  C   UNL A   1      45.959  33.473  27.524  1.00  0.00     0.173 A 
ATOM     85  C   UNL A   1      46.540  32.771  29.750  1.00  0.00     0.173 A 
ATOM     86  F   UNL A   1      45.504  33.212  26.290  1.00  0.00    -0.203 F 
ATOM     87  C   UNL A   1      46.368  34.768  27.832  1.00  0.00     0.198 A 
ATOM     88  C   UNL A   1      46.918  34.071  30.063  1.00  0.00     0.198 A 
ATOM     89  F   UNL A   1      46.633  31.826  30.698  1.00  0.00    -0.203 F 
ATOM     90  F   UNL A   1      46.312  35.725  26.897  1.00  0.00    -0.200 F 
ATOM     91  C   UNL A   1      46.836  35.069  29.104  1.00  0.00     0.200 A 
ATOM     92  F   UNL A   1      47.354  34.363  31.297  1.00  0.00    -0.200 F 
ATOM     93  F   UNL A   1      47.209  36.321  29.403  1.00  0.00    -0.200 F 
ENDBRANCH  60  83
ENDBRANCH  34  35
ENDBRANCH  26  29
ENDBRANCH  24  25
ENDBRANCH  23  24
ENDBRANCH  22  23
ENDBRANCH   3  22
TORSDOF 15
ENDMDL
MODEL 2
REMARK VINA RESULT:     -11.4      6.255     11.615
REMARK SMILES C[C@@H]1SC[C@H](C(=O)NCCCNC(=O)c2ccc(-c3c4nc(c(-c5c(F)c(F)c(F)c(F)c5F)c5ccc([nH]5)c(-c5c(F)c(F)c(F)c(F)c5F)c5nc(c(-c6c(F)c(F)c(F)c(F)c6F)c6ccc3[nH]6)C=C5)C=C4)cc2)N1C(=O)C[NH2+]CC(F)(F)F
REMARK SMILES IDX 6 1 7 2 8 3 5 5 1 6 2 7 3 8 78 9 4 10 79 11 80 12 81 13
REMARK SMILES IDX 82 14 83 17 84 18 85 19 86 20 87 21 9 22 10 23 11 24 12 25
REMARK SMILES IDX 13 26 14 28 15 29 16 30 77 31 17 32 76 33 18 34 19 35 20 36
REMARK SMILES IDX 70 37 21 38 75 39 69 40 71 41 22 42 74 43 68 44 67 45 23 47
REMARK SMILES IDX 55 48 35 49 54 50 36 51 39 52 53 53 72 54 37 55 38 56 52 58
REMARK SMILES IDX 73 59 40 60 24 61 25 62 33 63 26 64 27 65 31 66 34 67 28 68
REMARK SMILES IDX 29 69 32 70 30 71 56 72 57 73 65 74 58 75 59 76 63 77 66 78
REMARK SMILES IDX 60 79 61 80 64 81 62 82 41 83 42 84 50 85 43 86 44 87 48 88
REMARK SMILES IDX 51 89 45 90 46 91 49 92 47 93
REMARK H PARENT 8 4 82 15 82 16 12 27 71 46 39 57
REMARK Flexibility Score: inf
ROOT
ATOM      1  C   UNL A   1      33.220  28.920  23.901  1.00  0.00     0.243 C 
ATOM      2  O   UNL A   1      34.136  29.202  23.120  1.00  0.00    -0.273 OA
ATOM      3  N   UNL A   1      32.828  29.897  24.764  1.00  0.00    -0.354 N 
ATOM      4  H   UNL A   1      33.135  30.802  24.528  1.00  0.00     0.163 HD
ENDROOT
BRANCH   1   5
ATOM      5  C   UNL A   1      32.713  27.470  24.017  1.00  0.00     0.185 C 
ATOM      6  C   UNL A   1      29.593  25.907  25.429  1.00  0.00     0.043 C 
ATOM      7  C   UNL A   1      30.880  25.966  24.613  1.00  0.00     0.141 C 
ATOM      8  S   UNL A   1      32.253  25.498  25.730  1.00  0.00    -0.135 SA
ATOM      9  N   UNL A   1      31.255  27.246  24.008  1.00  0.00    -0.313 N 
ATOM     10  C   UNL A   1      33.291  26.906  25.308  1.00  0.00     0.107 C 
BRANCH   9  11
ATOM     11  C   UNL A   1      30.555  27.840  22.962  1.00  0.00     0.279 C 
ATOM     12  O   UNL A   1      30.667  27.445  21.798  1.00  0.00    -0.268 OA
BRANCH  11  13
ATOM     13  C   UNL A   1      29.679  29.062  23.241  1.00  0.00     0.362 C 
BRANCH  13  14
ATOM     14  N   UNL A   1      30.063  30.148  22.330  1.00  0.00    -0.331 N 
ATOM     15  H   UNL A   1      30.677  29.773  21.606  1.00  0.00     0.346 HD
ATOM     16  H   UNL A   1      30.540  30.869  22.871  1.00  0.00     0.346 HD
BRANCH  14  17
ATOM     17  C   UNL A   1      28.873  30.762  21.682  1.00  0.00     0.378 C 
BRANCH  17  18
ATOM     18  C   UNL A   1      28.235  32.016  22.314  1.00  0.00     0.438 C 
ATOM     19  F   UNL A   1      29.167  32.774  22.932  1.00  0.00    -0.165 F 
ATOM     20  F   UNL A   1      27.640  32.776  21.369  1.00  0.00    -0.165 F 
ATOM     21  F   UNL A   1      27.293  31.683  23.225  1.00  0.00    -0.165 F 
ENDBRANCH  17  18
ENDBRANCH  14  17
ENDBRANCH  13  14
ENDBRANCH  11  13
ENDBRANCH   9  11
ENDBRANCH   1   5
BRANCH   3  22
ATOM     22  C   UNL A   1      32.032  29.825  25.973  1.00  0.00     0.117 C 
BRANCH  22  23
ATOM     23  C   UNL A   1      31.658  31.216  26.465  1.00  0.00     0.042 C 
BRANCH  23  24
ATOM     24  C   UNL A   1      32.836  32.002  27.021  1.00  0.00     0.118 C 
BRANCH  24  25
ATOM     25  N   UNL A   1      32.498  33.389  27.307  1.00  0.00    -0.352 N 
ATOM     26  C   UNL A   1      33.008  34.227  28.268  1.00  0.00     0.251 C 
ATOM     27  H   UNL A   1      31.804  33.783  26.729  1.00  0.00     0.163 HD
ATOM     28  O   UNL A   1      32.471  35.306  28.501  1.00  0.00    -0.269 OA
BRANCH  26  29
ATOM     29  C   UNL A   1      34.198  33.811  29.037  1.00  0.00     0.039 A 
ATOM     30  C   UNL A   1      34.056  32.885  30.074  1.00  0.00     0.014 A 
ATOM     31  C   UNL A   1      35.457  34.326  28.720  1.00  0.00     0.014 A 
ATOM     32  C   UNL A   1      35.189  32.422  30.747  1.00  0.00     0.010 A 
ATOM     33  C   UNL A   1      36.588  33.797  29.324  1.00  0.00     0.010 A 
ATOM     34  C   UNL A   1      36.466  32.847  30.351  1.00  0.00    -0.014 A 
BRANCH  34  35
ATOM     35  C   UNL A   1      37.703  32.358  31.011  1.00  0.00     0.031 A 
ATOM     36  C   UNL A   1      38.508  31.275  30.349  1.00  0.00     0.074 A 
ATOM     37  C   UNL A   1      38.043  32.806  32.234  1.00  0.00     0.049 A 
ATOM     38  N   UNL A   1      39.507  30.575  30.821  1.00  0.00    -0.248 NA
ATOM     39  C   UNL A   1      38.108  30.904  28.981  1.00  0.00     0.031 C 
ATOM     40  C   UNL A   1      37.328  33.835  32.990  1.00  0.00     0.029 A 
ATOM     41  N   UNL A   1      39.066  32.430  33.070  1.00  0.00    -0.354 N 
ATOM     42  C   UNL A   1      39.833  29.666  29.822  1.00  0.00     0.074 A 
ATOM     43  C   UNL A   1      38.892  29.865  28.742  1.00  0.00     0.031 C 
ATOM     44  C   UNL A   1      37.938  34.013  34.174  1.00  0.00     0.029 A 
ATOM     45  C   UNL A   1      39.052  33.077  34.281  1.00  0.00     0.049 A 
ATOM     46  H   UNL A   1      39.744  31.760  32.824  1.00  0.00     0.167 HD
ATOM     47  C   UNL A   1      40.841  28.762  29.799  1.00  0.00     0.037 A 
ATOM     48  C   UNL A   1      39.838  32.915  35.364  1.00  0.00     0.037 A 
ATOM     49  C   UNL A   1      41.790  28.591  30.866  1.00  0.00     0.049 A 
ATOM     50  C   UNL A   1      40.941  31.889  35.324  1.00  0.00     0.074 A 
ATOM     51  C   UNL A   1      42.874  27.735  30.927  1.00  0.00     0.029 A 
ATOM     52  N   UNL A   1      41.764  29.293  32.064  1.00  0.00    -0.354 N 
ATOM     53  N   UNL A   1      41.269  31.065  34.359  1.00  0.00    -0.248 NA
ATOM     54  C   UNL A   1      41.784  31.772  36.522  1.00  0.00     0.031 C 
ATOM     55  C   UNL A   1      43.476  27.883  32.179  1.00  0.00     0.029 A 
ATOM     56  C   UNL A   1      42.806  28.877  32.874  1.00  0.00     0.049 A 
ATOM     57  H   UNL A   1      41.104  29.983  32.300  1.00  0.00     0.167 HD
ATOM     58  C   UNL A   1      42.381  30.366  34.814  1.00  0.00     0.074 A 
ATOM     59  C   UNL A   1      42.670  30.862  36.142  1.00  0.00     0.031 C 
ATOM     60  C   UNL A   1      43.099  29.406  34.182  1.00  0.00     0.037 A 
BRANCH  47  61
ATOM     61  C   UNL A   1      40.967  27.892  28.582  1.00  0.00     0.064 A 
ATOM     62  C   UNL A   1      40.257  26.689  28.459  1.00  0.00     0.173 A 
ATOM     63  C   UNL A   1      41.790  28.278  27.514  1.00  0.00     0.173 A 
ATOM     64  F   UNL A   1      39.464  26.267  29.457  1.00  0.00    -0.203 F 
ATOM     65  C   UNL A   1      40.393  25.887  27.329  1.00  0.00     0.198 A 
ATOM     66  C   UNL A   1      41.897  27.492  26.370  1.00  0.00     0.198 A 
ATOM     67  F   UNL A   1      42.489  29.421  27.576  1.00  0.00    -0.203 F 
ATOM     68  F   UNL A   1      39.750  24.713  27.261  1.00  0.00    -0.200 F 
ATOM     69  C   UNL A   1      41.207  26.292  26.283  1.00  0.00     0.200 A 
ATOM     70  F   UNL A   1      42.672  27.893  25.352  1.00  0.00    -0.200 F 
ATOM     71  F   UNL A   1      41.332  25.523  25.192  1.00  0.00    -0.200 F 
ENDBRANCH  47  61
BRANCH  48  72
ATOM     72  C   UNL A   1      39.621  33.753  36.574  1.00  0.00     0.064 A 
ATOM     73  C   UNL A   1      40.203  35.023  36.683  1.00  0.00     0.173 A 
ATOM     74  C   UNL A   1      38.837  33.302  37.646  1.00  0.00     0.173 A 
ATOM     75  F   UNL A   1      40.976  35.493  35.692  1.00  0.00    -0.203 F 
ATOM     76  C   UNL A   1      40.029  35.801  37.826  1.00  0.00     0.198 A 
ATOM     77  C   UNL A   1      38.638  34.093  38.777  1.00  0.00     0.198 A 
ATOM     78  F   UNL A   1      38.251  32.097  37.591  1.00  0.00    -0.203 F 
ATOM     79  F   UNL A   1      40.638  36.991  37.923  1.00  0.00    -0.200 F 
ATOM     80  C   UNL A   1      39.243  35.338  38.870  1.00  0.00     0.200 A 
ATOM     81  F   UNL A   1      37.864  33.648  39.775  1.00  0.00    -0.200 F 
ATOM     82  F   UNL A   1      39.073  36.087  39.967  1.00  0.00    -0.200 F 
ENDBRANCH  48  72
BRANCH  60  83
ATOM     83  C   UNL A   1      44.317  28.873  34.880  1.00  0.00     0.064 A 
ATOM     84  C   UNL A   1      44.268  27.733  35.693  1.00  0.00     0.173 A 
ATOM     85  C   UNL A   1      45.568  29.472  34.660  1.00  0.00     0.173 A 
ATOM     86  F   UNL A   1      43.095  27.133  35.946  1.00  0.00    -0.203 F 
ATOM     87  C   UNL A   1      45.425  27.218  36.271  1.00  0.00     0.198 A 
ATOM     88  C   UNL A   1      46.726  28.937  35.213  1.00  0.00     0.198 A 
ATOM     89  F   UNL A   1      45.669  30.561  33.884  1.00  0.00    -0.203 F 
ATOM     90  F   UNL A   1      45.352  26.147  37.073  1.00  0.00    -0.200 F 
ATOM     91  C   UNL A   1      46.654  27.813  36.022  1.00  0.00     0.200 A 
ATOM     92  F   UNL A   1      47.914  29.503  34.957  1.00  0.00    -0.200 F 
ATOM     93  F   UNL A   1      47.770  27.302  36.562  1.00  0.00    -0.200 F 
ENDBRANCH  60  83
ENDBRANCH  34  35
ENDBRANCH  26  29
ENDBRANCH  24  25
ENDBRANCH  23  24
ENDBRANCH  22  23
ENDBRANCH   3  22
TORSDOF 15
ENDMDL
MODEL 3
REMARK VINA RESULT:     -11.4      0.970      2.258
REMARK SMILES C[C@@H]1SC[C@H](C(=O)NCCCNC(=O)c2ccc(-c3c4nc(c(-c5c(F)c(F)c(F)c(F)c5F)c5ccc([nH]5)c(-c5c(F)c(F)c(F)c(F)c5F)c5nc(c(-c6c(F)c(F)c(F)c(F)c6F)c6ccc3[nH]6)C=C5)C=C4)cc2)N1C(=O)C[NH2+]CC(F)(F)F
REMARK SMILES IDX 6 1 7 2 8 3 5 5 1 6 2 7 3 8 78 9 4 10 79 11 80 12 81 13
REMARK SMILES IDX 82 14 83 17 84 18 85 19 86 20 87 21 9 22 10 23 11 24 12 25
REMARK SMILES IDX 13 26 14 28 15 29 16 30 77 31 17 32 76 33 18 34 19 35 20 36
REMARK SMILES IDX 70 37 21 38 75 39 69 40 71 41 22 42 74 43 68 44 67 45 23 47
REMARK SMILES IDX 55 48 35 49 54 50 36 51 39 52 53 53 72 54 37 55 38 56 52 58
REMARK SMILES IDX 73 59 40 60 24 61 25 62 33 63 26 64 27 65 31 66 34 67 28 68
REMARK SMILES IDX 29 69 32 70 30 71 56 72 57 73 65 74 58 75 59 76 63 77 66 78
REMARK SMILES IDX 60 79 61 80 64 81 62 82 41 83 42 84 50 85 43 86 44 87 48 88
REMARK SMILES IDX 51 89 45 90 46 91 49 92 47 93
REMARK H PARENT 8 4 82 15 82 16 12 27 71 46 39 57
REMARK Flexibility Score: inf
ROOT
ATOM      1  C   UNL A   1      34.687  21.816  26.661  1.00  0.00     0.243 C 
ATOM      2  O   UNL A   1      34.427  21.742  27.867  1.00  0.00    -0.273 OA
ATOM      3  N   UNL A   1      35.772  21.121  26.224  1.00  0.00    -0.354 N 
ATOM      4  H   UNL A   1      36.102  20.437  26.850  1.00  0.00     0.163 HD
ENDROOT
BRANCH   1   5
ATOM      5  C   UNL A   1      33.937  22.819  25.762  1.00  0.00     0.185 C 
ATOM      6  C   UNL A   1      33.206  22.967  22.073  1.00  0.00     0.043 C 
ATOM      7  C   UNL A   1      33.054  23.341  23.543  1.00  0.00     0.141 C 
ATOM      8  S   UNL A   1      34.264  24.671  23.892  1.00  0.00    -0.135 SA
ATOM      9  N   UNL A   1      33.282  22.300  24.547  1.00  0.00    -0.313 N 
ATOM     10  C   UNL A   1      34.946  23.886  25.361  1.00  0.00     0.107 C 
BRANCH   9  11
ATOM     11  C   UNL A   1      32.439  21.207  24.730  1.00  0.00     0.279 C 
ATOM     12  O   UNL A   1      31.414  21.285  25.413  1.00  0.00    -0.268 OA
BRANCH  11  13
ATOM     13  C   UNL A   1      32.823  19.853  24.135  1.00  0.00     0.362 C 
BRANCH  13  14
ATOM     14  N   UNL A   1      33.297  18.971  25.210  1.00  0.00    -0.331 N 
ATOM     15  H   UNL A   1      32.753  19.155  26.054  1.00  0.00     0.346 HD
ATOM     16  H   UNL A   1      34.286  19.159  25.369  1.00  0.00     0.346 HD
BRANCH  14  17
ATOM     17  C   UNL A   1      33.148  17.537  24.844  1.00  0.00     0.378 C 
BRANCH  17  18
ATOM     18  C   UNL A   1      34.381  16.755  24.348  1.00  0.00     0.438 C 
ATOM     19  F   UNL A   1      34.483  15.564  24.978  1.00  0.00    -0.165 F 
ATOM     20  F   UNL A   1      34.294  16.518  23.021  1.00  0.00    -0.165 F 
ATOM     21  F   UNL A   1      35.522  17.445  24.567  1.00  0.00    -0.165 F 
ENDBRANCH  17  18
ENDBRANCH  14  17
ENDBRANCH  13  14
ENDBRANCH  11  13
ENDBRANCH   9  11
ENDBRANCH   1   5
BRANCH   3  22
ATOM     22  C   UNL A   1      36.523  21.222  24.988  1.00  0.00     0.117 C 
BRANCH  22  23
ATOM     23  C   UNL A   1      37.620  20.169  24.929  1.00  0.00     0.042 C 
BRANCH  23  24
ATOM     24  C   UNL A   1      38.876  20.554  25.697  1.00  0.00     0.118 C 
BRANCH  24  25
ATOM     25  N   UNL A   1      39.813  19.447  25.828  1.00  0.00    -0.352 N 
ATOM     26  C   UNL A   1      41.170  19.478  26.036  1.00  0.00     0.251 C 
ATOM     27  H   UNL A   1      39.417  18.548  25.757  1.00  0.00     0.163 HD
ATOM     28  O   UNL A   1      41.840  18.455  25.925  1.00  0.00    -0.269 OA
BRANCH  26  29
ATOM     29  C   UNL A   1      41.824  20.758  26.375  1.00  0.00     0.039 A 
ATOM     30  C   UNL A   1      42.119  21.668  25.357  1.00  0.00     0.014 A 
ATOM     31  C   UNL A   1      42.129  21.063  27.703  1.00  0.00     0.014 A 
ATOM     32  C   UNL A   1      42.657  22.915  25.681  1.00  0.00     0.010 A 
ATOM     33  C   UNL A   1      42.575  22.334  28.032  1.00  0.00     0.010 A 
ATOM     34  C   UNL A   1      42.854  23.272  27.024  1.00  0.00    -0.014 A 
BRANCH  34  35
ATOM     35  C   UNL A   1      43.390  24.598  27.421  1.00  0.00     0.031 A 
ATOM     36  C   UNL A   1      42.454  25.626  27.993  1.00  0.00     0.074 A 
ATOM     37  C   UNL A   1      44.676  24.911  27.176  1.00  0.00     0.049 A 
ATOM     38  N   UNL A   1      42.660  26.894  28.235  1.00  0.00    -0.248 NA
ATOM     39  C   UNL A   1      41.088  25.170  28.299  1.00  0.00     0.031 C 
ATOM     40  C   UNL A   1      45.675  24.010  26.602  1.00  0.00     0.029 A 
ATOM     41  N   UNL A   1      45.358  26.090  27.358  1.00  0.00    -0.354 N 
ATOM     42  C   UNL A   1      41.445  27.390  28.692  1.00  0.00     0.074 A 
ATOM     43  C   UNL A   1      40.494  26.302  28.641  1.00  0.00     0.031 C 
ATOM     44  C   UNL A   1      46.842  24.665  26.484  1.00  0.00     0.029 A 
ATOM     45  C   UNL A   1      46.661  26.044  26.926  1.00  0.00     0.049 A 
ATOM     46  H   UNL A   1      44.950  26.892  27.759  1.00  0.00     0.167 HD
ATOM     47  C   UNL A   1      41.156  28.636  29.136  1.00  0.00     0.037 A 
ATOM     48  C   UNL A   1      47.595  27.014  26.872  1.00  0.00     0.037 A 
ATOM     49  C   UNL A   1      42.115  29.705  29.211  1.00  0.00     0.049 A 
ATOM     50  C   UNL A   1      47.245  28.398  27.352  1.00  0.00     0.074 A 
ATOM     51  C   UNL A   1      41.937  30.992  29.684  1.00  0.00     0.029 A 
ATOM     52  N   UNL A   1      43.437  29.608  28.797  1.00  0.00    -0.354 N 
ATOM     53  N   UNL A   1      46.106  28.847  27.824  1.00  0.00    -0.248 NA
ATOM     54  C   UNL A   1      48.308  29.411  27.296  1.00  0.00     0.031 C 
ATOM     55  C   UNL A   1      43.137  31.689  29.513  1.00  0.00     0.029 A 
ATOM     56  C   UNL A   1      44.080  30.818  28.992  1.00  0.00     0.049 A 
ATOM     57  H   UNL A   1      43.853  28.799  28.422  1.00  0.00     0.167 HD
ATOM     58  C   UNL A   1      46.329  30.176  28.161  1.00  0.00     0.074 A 
ATOM     59  C   UNL A   1      47.711  30.462  27.839  1.00  0.00     0.031 C 
ATOM     60  C   UNL A   1      45.467  31.075  28.696  1.00  0.00     0.037 A 
BRANCH  47  61
ATOM     61  C   UNL A   1      39.745  28.908  29.575  1.00  0.00     0.064 A 
ATOM     62  C   UNL A   1      38.781  29.410  28.688  1.00  0.00     0.173 A 
ATOM     63  C   UNL A   1      39.347  28.640  30.892  1.00  0.00     0.173 A 
ATOM     64  F   UNL A   1      39.113  29.695  27.419  1.00  0.00    -0.203 F 
ATOM     65  C   UNL A   1      37.481  29.668  29.113  1.00  0.00     0.198 A 
ATOM     66  C   UNL A   1      38.036  28.865  31.305  1.00  0.00     0.198 A 
ATOM     67  F   UNL A   1      40.226  28.154  31.781  1.00  0.00    -0.203 F 
ATOM     68  F   UNL A   1      36.593  30.204  28.263  1.00  0.00    -0.200 F 
ATOM     69  C   UNL A   1      37.107  29.388  30.418  1.00  0.00     0.200 A 
ATOM     70  F   UNL A   1      37.672  28.579  32.563  1.00  0.00    -0.200 F 
ATOM     71  F   UNL A   1      35.852  29.629  30.824  1.00  0.00    -0.200 F 
ENDBRANCH  47  61
BRANCH  48  72
ATOM     72  C   UNL A   1      48.956  26.708  26.357  1.00  0.00     0.064 A 
ATOM     73  C   UNL A   1      49.940  26.171  27.199  1.00  0.00     0.173 A 
ATOM     74  C   UNL A   1      49.305  26.952  25.020  1.00  0.00     0.173 A 
ATOM     75  F   UNL A   1      49.661  25.937  28.490  1.00  0.00    -0.203 F 
ATOM     76  C   UNL A   1      51.227  25.911  26.730  1.00  0.00     0.198 A 
ATOM     77  C   UNL A   1      50.584  26.663  24.545  1.00  0.00     0.198 A 
ATOM     78  F   UNL A   1      48.401  27.459  24.170  1.00  0.00    -0.203 F 
ATOM     79  F   UNL A   1      52.161  25.444  27.570  1.00  0.00    -0.200 F 
ATOM     80  C   UNL A   1      51.546  26.152  25.403  1.00  0.00     0.200 A 
ATOM     81  F   UNL A   1      50.883  26.882  23.257  1.00  0.00    -0.200 F 
ATOM     82  F   UNL A   1      52.782  25.899  24.953  1.00  0.00    -0.200 F 
ENDBRANCH  48  72
BRANCH  60  83
ATOM     83  C   UNL A   1      46.001  32.434  29.042  1.00  0.00     0.064 A 
ATOM     84  C   UNL A   1      46.634  32.695  30.265  1.00  0.00     0.173 A 
ATOM     85  C   UNL A   1      45.950  33.469  28.094  1.00  0.00     0.173 A 
ATOM     86  F   UNL A   1      46.698  31.744  31.209  1.00  0.00    -0.203 F 
ATOM     87  C   UNL A   1      47.185  33.945  30.532  1.00  0.00     0.198 A 
ATOM     88  C   UNL A   1      46.528  34.707  28.351  1.00  0.00     0.198 A 
ATOM     89  F   UNL A   1      45.361  33.267  26.906  1.00  0.00    -0.203 F 
ATOM     90  F   UNL A   1      47.755  34.185  31.720  1.00  0.00    -0.200 F 
ATOM     91  C   UNL A   1      47.142  34.947  29.571  1.00  0.00     0.200 A 
ATOM     92  F   UNL A   1      46.500  35.666  27.416  1.00  0.00    -0.200 F 
ATOM     93  F   UNL A   1      47.691  36.143  29.823  1.00  0.00    -0.200 F 
ENDBRANCH  60  83
ENDBRANCH  34  35
ENDBRANCH  26  29
ENDBRANCH  24  25
ENDBRANCH  23  24
ENDBRANCH  22  23
ENDBRANCH   3  22
TORSDOF 15
ENDMDL
