MODEL 1
REMARK VINA RESULT:     -13.4      0.000      0.000
REMARK SMILES O=C(NCCCNC(=O)c1ccsc1NC(=O)c1cc2c(F)cccc2s1)c1ccc(-c2c3nc(c(-c4c(F)c(F)c(F)c(F)c4F)c4ccc([nH]4)c(-c4c(F)c(F)c(F)c(F)c4F)c4nc(c(-c5c(F)c(F)c(F)c(F)c5F)c5ccc2[nH]5)C=C4)C=C3)cc1
REMARK SMILES IDX 5 1 4 2 3 3 1 4 2 5 28 7 29 8 90 9 30 10 89 11 31 12 32 13
REMARK SMILES IDX 33 14 83 15 34 16 88 17 82 18 84 19 35 20 87 21 81 22 80 23
REMARK SMILES IDX 36 25 68 26 48 27 67 28 49 29 52 30 66 31 85 32 50 33 51 34
REMARK SMILES IDX 65 36 86 37 53 38 37 39 38 40 46 41 39 42 40 43 44 44 47 45
REMARK SMILES IDX 41 46 42 47 45 48 43 49 69 50 70 51 78 52 71 53 72 54 76 55
REMARK SMILES IDX 79 56 73 57 74 58 77 59 75 60 54 61 55 62 63 63 56 64 57 65
REMARK SMILES IDX 61 66 64 67 58 68 59 69 62 70 60 71 6 72 7 73 8 74 9 76
REMARK SMILES IDX 10 77 11 78 14 79 12 80 13 81 15 82 16 83 17 85 18 86 19 87
REMARK SMILES IDX 27 88 20 89 26 90 21 91 25 92 22 93 23 94 24 95
REMARK H PARENT 3 6 84 24 52 35 7 75 15 84
REMARK Flexibility Score: inf
ROOT
ATOM      1  C   UNL A   1      33.163  29.088  27.254  1.00  0.00     0.042 C 
ENDROOT
BRANCH   1   2
ATOM      2  C   UNL A   1      33.758  30.448  26.900  1.00  0.00     0.118 C 
BRANCH   2   3
ATOM      3  N   UNL A   1      33.964  31.340  28.026  1.00  0.00    -0.352 N 
ATOM      4  O   UNL A   1      34.839  32.545  29.662  1.00  0.00    -0.269 OA
ATOM      5  C   UNL A   1      35.010  31.624  28.860  1.00  0.00     0.251 C 
ATOM      6  H   UNL A   1      33.159  31.867  28.239  1.00  0.00     0.163 HD
BRANCH   5   7
ATOM      7  C   UNL A   1      36.283  30.859  28.919  1.00  0.00     0.039 A 
ATOM      8  C   UNL A   1      36.385  29.472  29.020  1.00  0.00     0.014 A 
ATOM      9  C   UNL A   1      37.469  31.620  28.883  1.00  0.00     0.014 A 
ATOM     10  C   UNL A   1      37.626  28.871  29.195  1.00  0.00     0.010 A 
ATOM     11  C   UNL A   1      38.718  31.021  29.025  1.00  0.00     0.010 A 
ATOM     12  C   UNL A   1      38.791  29.647  29.216  1.00  0.00    -0.014 A 
BRANCH  12  13
ATOM     13  C   UNL A   1      40.065  28.938  29.290  1.00  0.00     0.031 A 
ATOM     14  C   UNL A   1      40.614  28.769  30.664  1.00  0.00     0.074 A 
ATOM     15  C   UNL A   1      40.695  28.384  28.237  1.00  0.00     0.049 A 
ATOM     16  N   UNL A   1      41.723  29.230  31.144  1.00  0.00    -0.248 NA
ATOM     17  C   UNL A   1      39.782  28.060  31.647  1.00  0.00     0.031 C 
ATOM     18  C   UNL A   1      40.194  28.183  26.878  1.00  0.00     0.029 A 
ATOM     19  N   UNL A   1      41.932  27.806  28.205  1.00  0.00    -0.354 N 
ATOM     20  C   UNL A   1      41.806  28.756  32.453  1.00  0.00     0.074 A 
ATOM     21  C   UNL A   1      40.541  28.134  32.741  1.00  0.00     0.031 C 
ATOM     22  C   UNL A   1      41.040  27.367  26.209  1.00  0.00     0.029 A 
ATOM     23  C   UNL A   1      42.202  27.100  27.043  1.00  0.00     0.049 A 
ATOM     24  H   UNL A   1      42.578  27.885  28.943  1.00  0.00     0.167 HD
ATOM     25  C   UNL A   1      42.981  28.761  33.143  1.00  0.00     0.037 A 
ATOM     26  C   UNL A   1      43.281  26.315  26.812  1.00  0.00     0.037 A 
ATOM     27  C   UNL A   1      43.921  29.688  32.571  1.00  0.00     0.049 A 
ATOM     28  C   UNL A   1      44.353  26.734  27.746  1.00  0.00     0.074 A 
ATOM     29  C   UNL A   1      43.963  31.057  32.393  1.00  0.00     0.029 A 
ATOM     30  N   UNL A   1      44.931  29.183  31.793  1.00  0.00    -0.354 N 
ATOM     31  N   UNL A   1      44.991  27.868  27.674  1.00  0.00    -0.248 NA
ATOM     32  C   UNL A   1      44.490  26.018  29.005  1.00  0.00     0.031 C 
ATOM     33  C   UNL A   1      44.680  31.254  31.177  1.00  0.00     0.029 A 
ATOM     34  C   UNL A   1      45.050  29.997  30.699  1.00  0.00     0.049 A 
ATOM     35  H   UNL A   1      45.470  28.383  31.986  1.00  0.00     0.167 HD
ATOM     36  C   UNL A   1      45.255  28.206  28.991  1.00  0.00     0.074 A 
ATOM     37  C   UNL A   1      45.045  26.978  29.748  1.00  0.00     0.031 C 
ATOM     38  C   UNL A   1      45.346  29.512  29.372  1.00  0.00     0.037 A 
BRANCH  25  39
ATOM     39  C   UNL A   1      43.410  27.695  34.126  1.00  0.00     0.064 A 
ATOM     40  C   UNL A   1      43.667  26.388  33.654  1.00  0.00     0.173 A 
ATOM     41  C   UNL A   1      43.276  27.814  35.525  1.00  0.00     0.173 A 
ATOM     42  F   UNL A   1      43.808  26.148  32.341  1.00  0.00    -0.203 F 
ATOM     43  C   UNL A   1      43.686  25.281  34.508  1.00  0.00     0.198 A 
ATOM     44  C   UNL A   1      43.349  26.713  36.380  1.00  0.00     0.198 A 
ATOM     45  F   UNL A   1      42.961  28.971  36.116  1.00  0.00    -0.203 F 
ATOM     46  F   UNL A   1      43.794  24.048  33.994  1.00  0.00    -0.200 F 
ATOM     47  C   UNL A   1      43.516  25.444  35.869  1.00  0.00     0.200 A 
ATOM     48  F   UNL A   1      43.169  26.888  37.697  1.00  0.00    -0.200 F 
ATOM     49  F   UNL A   1      43.464  24.379  36.680  1.00  0.00    -0.200 F 
ENDBRANCH  25  39
BRANCH  26  50
ATOM     50  C   UNL A   1      43.372  25.058  26.030  1.00  0.00     0.064 A 
ATOM     51  C   UNL A   1      44.436  24.838  25.139  1.00  0.00     0.173 A 
ATOM     52  C   UNL A   1      42.591  23.935  26.362  1.00  0.00     0.173 A 
ATOM     53  F   UNL A   1      45.254  25.846  24.800  1.00  0.00    -0.203 F 
ATOM     54  C   UNL A   1      44.727  23.562  24.645  1.00  0.00     0.198 A 
ATOM     55  C   UNL A   1      42.876  22.665  25.860  1.00  0.00     0.198 A 
ATOM     56  F   UNL A   1      41.597  24.026  27.257  1.00  0.00    -0.203 F 
ATOM     57  F   UNL A   1      45.797  23.379  23.858  1.00  0.00    -0.200 F 
ATOM     58  C   UNL A   1      43.956  22.475  25.016  1.00  0.00     0.200 A 
ATOM     59  F   UNL A   1      42.142  21.615  26.253  1.00  0.00    -0.200 F 
ATOM     60  F   UNL A   1      44.275  21.242  24.599  1.00  0.00    -0.200 F 
ENDBRANCH  26  50
BRANCH  38  61
ATOM     61  C   UNL A   1      45.492  30.546  28.295  1.00  0.00     0.064 A 
ATOM     62  C   UNL A   1      44.408  31.107  27.597  1.00  0.00     0.173 A 
ATOM     63  C   UNL A   1      46.761  31.095  28.070  1.00  0.00     0.173 A 
ATOM     64  F   UNL A   1      43.153  30.702  27.829  1.00  0.00    -0.203 F 
ATOM     65  C   UNL A   1      44.598  32.146  26.688  1.00  0.00     0.198 A 
ATOM     66  C   UNL A   1      46.942  32.159  27.191  1.00  0.00     0.198 A 
ATOM     67  F   UNL A   1      47.822  30.635  28.751  1.00  0.00    -0.203 F 
ATOM     68  F   UNL A   1      43.550  32.661  26.028  1.00  0.00    -0.200 F 
ATOM     69  C   UNL A   1      45.862  32.678  26.494  1.00  0.00     0.200 A 
ATOM     70  F   UNL A   1      48.158  32.703  27.044  1.00  0.00    -0.200 F 
ATOM     71  F   UNL A   1      46.036  33.710  25.657  1.00  0.00    -0.200 F 
ENDBRANCH  38  61
ENDBRANCH  12  13
ENDBRANCH   5   7
ENDBRANCH   2   3
ENDBRANCH   1   2
BRANCH   1  72
ATOM     72  C   UNL A   1      33.245  28.073  26.119  1.00  0.00     0.118 C 
BRANCH  72  73
ATOM     73  N   UNL A   1      33.941  28.596  24.948  1.00  0.00    -0.352 N 
ATOM     74  C   UNL A   1      33.448  28.785  23.682  1.00  0.00     0.254 C 
ATOM     75  H   UNL A   1      34.884  28.844  25.084  1.00  0.00     0.163 HD
ATOM     76  O   UNL A   1      34.218  29.006  22.742  1.00  0.00    -0.269 OA
BRANCH  74  77
ATOM     77  C   UNL A   1      32.020  28.638  23.506  1.00  0.00     0.074 A 
ATOM     78  C   UNL A   1      31.011  29.512  24.053  1.00  0.00     0.028 A 
ATOM     79  C   UNL A   1      31.413  27.742  22.648  1.00  0.00     0.108 A 
ATOM     80  C   UNL A   1      29.743  28.995  23.915  1.00  0.00     0.068 A 
ATOM     81  S   UNL A   1      29.797  27.457  23.160  1.00  0.00    -0.126 S 
BRANCH  79  82
ATOM     82  N   UNL A   1      31.958  26.998  21.620  1.00  0.00    -0.312 N 
ATOM     83  C   UNL A   1      32.787  25.880  21.723  1.00  0.00     0.266 C 
ATOM     84  H   UNL A   1      31.735  27.292  20.707  1.00  0.00     0.171 HD
ATOM     85  O   UNL A   1      33.349  25.510  20.688  1.00  0.00    -0.268 OA
BRANCH  83  86
ATOM     86  C   UNL A   1      32.842  25.117  22.973  1.00  0.00     0.094 A 
ATOM     87  C   UNL A   1      33.786  25.160  23.977  1.00  0.00     0.037 A 
ATOM     88  S   UNL A   1      31.555  24.082  23.452  1.00  0.00    -0.130 S 
ATOM     89  C   UNL A   1      33.626  24.169  24.972  1.00  0.00     0.029 A 
ATOM     90  C   UNL A   1      32.325  23.676  24.949  1.00  0.00     0.038 A 
ATOM     91  C   UNL A   1      34.497  23.771  26.000  1.00  0.00     0.131 A 
ATOM     92  C   UNL A   1      31.819  22.970  26.055  1.00  0.00     0.020 A 
ATOM     93  F   UNL A   1      35.794  24.114  25.952  1.00  0.00    -0.206 F 
ATOM     94  C   UNL A   1      34.013  23.081  27.099  1.00  0.00     0.040 A 
ATOM     95  C   UNL A   1      32.667  22.740  27.152  1.00  0.00     0.005 A 
ENDBRANCH  83  86
ENDBRANCH  79  82
ENDBRANCH  74  77
ENDBRANCH  72  73
ENDBRANCH   1  72
TORSDOF 12
ENDMDL
MODEL 2
REMARK VINA RESULT:     -13.4      3.532      8.722
REMARK SMILES O=C(NCCCNC(=O)c1ccsc1NC(=O)c1cc2c(F)cccc2s1)c1ccc(-c2c3nc(c(-c4c(F)c(F)c(F)c(F)c4F)c4ccc([nH]4)c(-c4c(F)c(F)c(F)c(F)c4F)c4nc(c(-c5c(F)c(F)c(F)c(F)c5F)c5ccc2[nH]5)C=C4)C=C3)cc1
REMARK SMILES IDX 5 1 4 2 3 3 1 4 2 5 28 7 29 8 90 9 30 10 89 11 31 12 32 13
REMARK SMILES IDX 33 14 83 15 34 16 88 17 82 18 84 19 35 20 87 21 81 22 80 23
REMARK SMILES IDX 36 25 68 26 48 27 67 28 49 29 52 30 66 31 85 32 50 33 51 34
REMARK SMILES IDX 65 36 86 37 53 38 37 39 38 40 46 41 39 42 40 43 44 44 47 45
REMARK SMILES IDX 41 46 42 47 45 48 43 49 69 50 70 51 78 52 71 53 72 54 76 55
REMARK SMILES IDX 79 56 73 57 74 58 77 59 75 60 54 61 55 62 63 63 56 64 57 65
REMARK SMILES IDX 61 66 64 67 58 68 59 69 62 70 60 71 6 72 7 73 8 74 9 76
REMARK SMILES IDX 10 77 11 78 14 79 12 80 13 81 15 82 16 83 17 85 18 86 19 87
REMARK SMILES IDX 27 88 20 89 26 90 21 91 25 92 22 93 23 94 24 95
REMARK H PARENT 3 6 84 24 52 35 7 75 15 84
REMARK Flexibility Score: inf
ROOT
ATOM      1  C   UNL A   1      37.361  22.568  25.027  1.00  0.00     0.042 C 
ENDROOT
BRANCH   1   2
ATOM      2  C   UNL A   1      38.291  22.562  26.237  1.00  0.00     0.118 C 
BRANCH   2   3
ATOM      3  N   UNL A   1      39.689  22.312  25.935  1.00  0.00    -0.352 N 
ATOM      4  O   UNL A   1      41.900  22.355  25.875  1.00  0.00    -0.269 OA
ATOM      5  C   UNL A   1      40.871  22.937  26.225  1.00  0.00     0.251 C 
ATOM      6  H   UNL A   1      39.817  21.499  25.394  1.00  0.00     0.163 HD
BRANCH   5   7
ATOM      7  C   UNL A   1      40.992  24.281  26.848  1.00  0.00     0.039 A 
ATOM      8  C   UNL A   1      41.567  24.543  28.090  1.00  0.00     0.014 A 
ATOM      9  C   UNL A   1      40.462  25.359  26.111  1.00  0.00     0.014 A 
ATOM     10  C   UNL A   1      41.513  25.823  28.632  1.00  0.00     0.010 A 
ATOM     11  C   UNL A   1      40.434  26.650  26.634  1.00  0.00     0.010 A 
ATOM     12  C   UNL A   1      40.931  26.871  27.913  1.00  0.00    -0.014 A 
BRANCH  12  13
ATOM     13  C   UNL A   1      41.012  28.208  28.495  1.00  0.00     0.031 A 
ATOM     14  C   UNL A   1      42.241  28.974  28.145  1.00  0.00     0.074 A 
ATOM     15  C   UNL A   1      40.041  28.784  29.227  1.00  0.00     0.049 A 
ATOM     16  N   UNL A   1      43.164  29.411  28.940  1.00  0.00    -0.248 NA
ATOM     17  C   UNL A   1      42.510  29.215  26.721  1.00  0.00     0.031 C 
ATOM     18  C   UNL A   1      38.666  28.331  29.436  1.00  0.00     0.029 A 
ATOM     19  N   UNL A   1      40.085  29.975  29.895  1.00  0.00    -0.354 N 
ATOM     20  C   UNL A   1      44.068  30.108  28.139  1.00  0.00     0.074 A 
ATOM     21  C   UNL A   1      43.674  29.865  26.776  1.00  0.00     0.031 C 
ATOM     22  C   UNL A   1      37.956  29.323  30.019  1.00  0.00     0.029 A 
ATOM     23  C   UNL A   1      38.852  30.422  30.345  1.00  0.00     0.049 A 
ATOM     24  H   UNL A   1      40.920  30.474  30.044  1.00  0.00     0.167 HD
ATOM     25  C   UNL A   1      44.973  30.976  28.670  1.00  0.00     0.037 A 
ATOM     26  C   UNL A   1      38.588  31.630  30.899  1.00  0.00     0.037 A 
ATOM     27  C   UNL A   1      45.180  30.726  30.071  1.00  0.00     0.049 A 
ATOM     28  C   UNL A   1      39.863  32.175  31.422  1.00  0.00     0.074 A 
ATOM     29  C   UNL A   1      45.678  29.675  30.816  1.00  0.00     0.029 A 
ATOM     30  N   UNL A   1      44.568  31.559  30.971  1.00  0.00    -0.354 N 
ATOM     31  N   UNL A   1      40.505  31.691  32.448  1.00  0.00    -0.248 NA
ATOM     32  C   UNL A   1      40.627  33.078  30.575  1.00  0.00     0.031 C 
ATOM     33  C   UNL A   1      44.943  29.699  32.037  1.00  0.00     0.029 A 
ATOM     34  C   UNL A   1      44.057  30.776  31.972  1.00  0.00     0.049 A 
ATOM     35  H   UNL A   1      44.505  32.539  30.910  1.00  0.00     0.167 HD
ATOM     36  C   UNL A   1      41.843  31.886  32.148  1.00  0.00     0.074 A 
ATOM     37  C   UNL A   1      41.851  32.853  31.058  1.00  0.00     0.031 C 
ATOM     38  C   UNL A   1      42.797  31.034  32.624  1.00  0.00     0.037 A 
BRANCH  25  39
ATOM     39  C   UNL A   1      45.422  32.263  28.015  1.00  0.00     0.064 A 
ATOM     40  C   UNL A   1      44.460  33.254  27.715  1.00  0.00     0.173 A 
ATOM     41  C   UNL A   1      46.676  32.434  27.393  1.00  0.00     0.173 A 
ATOM     42  F   UNL A   1      43.227  33.196  28.241  1.00  0.00    -0.203 F 
ATOM     43  C   UNL A   1      44.707  34.272  26.789  1.00  0.00     0.198 A 
ATOM     44  C   UNL A   1      46.936  33.483  26.509  1.00  0.00     0.198 A 
ATOM     45  F   UNL A   1      47.664  31.543  27.522  1.00  0.00    -0.203 F 
ATOM     46  F   UNL A   1      43.716  35.102  26.434  1.00  0.00    -0.200 F 
ATOM     47  C   UNL A   1      45.942  34.379  26.179  1.00  0.00     0.200 A 
ATOM     48  F   UNL A   1      48.136  33.564  25.918  1.00  0.00    -0.200 F 
ATOM     49  F   UNL A   1      46.159  35.309  25.240  1.00  0.00    -0.200 F 
ENDBRANCH  25  39
BRANCH  26  50
ATOM     50  C   UNL A   1      37.370  32.467  30.777  1.00  0.00     0.064 A 
ATOM     51  C   UNL A   1      37.081  33.149  29.583  1.00  0.00     0.173 A 
ATOM     52  C   UNL A   1      36.324  32.373  31.715  1.00  0.00     0.173 A 
ATOM     53  F   UNL A   1      38.008  33.251  28.620  1.00  0.00    -0.203 F 
ATOM     54  C   UNL A   1      35.807  33.667  29.325  1.00  0.00     0.198 A 
ATOM     55  C   UNL A   1      35.058  32.900  31.460  1.00  0.00     0.198 A 
ATOM     56  F   UNL A   1      36.479  31.683  32.853  1.00  0.00    -0.203 F 
ATOM     57  F   UNL A   1      35.548  34.244  28.143  1.00  0.00    -0.200 F 
ATOM     58  C   UNL A   1      34.794  33.530  30.258  1.00  0.00     0.200 A 
ATOM     59  F   UNL A   1      34.076  32.732  32.358  1.00  0.00    -0.200 F 
ATOM     60  F   UNL A   1      33.556  33.965  29.984  1.00  0.00    -0.200 F 
ENDBRANCH  26  50
BRANCH  38  61
ATOM     61  C   UNL A   1      42.411  30.104  33.737  1.00  0.00     0.064 A 
ATOM     62  C   UNL A   1      41.862  28.827  33.533  1.00  0.00     0.173 A 
ATOM     63  C   UNL A   1      42.750  30.462  35.048  1.00  0.00     0.173 A 
ATOM     64  F   UNL A   1      41.602  28.375  32.299  1.00  0.00    -0.203 F 
ATOM     65  C   UNL A   1      41.631  27.964  34.602  1.00  0.00     0.198 A 
ATOM     66  C   UNL A   1      42.554  29.584  36.109  1.00  0.00     0.198 A 
ATOM     67  F   UNL A   1      43.328  31.649  35.293  1.00  0.00    -0.203 F 
ATOM     68  F   UNL A   1      41.100  26.751  34.385  1.00  0.00    -0.200 F 
ATOM     69  C   UNL A   1      41.987  28.339  35.888  1.00  0.00     0.200 A 
ATOM     70  F   UNL A   1      42.946  29.931  37.343  1.00  0.00    -0.200 F 
ATOM     71  F   UNL A   1      41.811  27.489  36.909  1.00  0.00    -0.200 F 
ENDBRANCH  38  61
ENDBRANCH  12  13
ENDBRANCH   5   7
ENDBRANCH   2   3
ENDBRANCH   1   2
BRANCH   1  72
ATOM     72  C   UNL A   1      36.014  23.230  25.298  1.00  0.00     0.118 C 
BRANCH  72  73
ATOM     73  N   UNL A   1      35.507  22.942  26.635  1.00  0.00    -0.352 N 
ATOM     74  C   UNL A   1      34.428  22.171  26.985  1.00  0.00     0.254 C 
ATOM     75  H   UNL A   1      36.001  23.353  27.381  1.00  0.00     0.163 HD
ATOM     76  O   UNL A   1      33.977  22.216  28.134  1.00  0.00    -0.269 OA
BRANCH  74  77
ATOM     77  C   UNL A   1      33.817  21.383  25.936  1.00  0.00     0.074 A 
ATOM     78  C   UNL A   1      34.465  20.333  25.189  1.00  0.00     0.028 A 
ATOM     79  C   UNL A   1      32.476  21.398  25.609  1.00  0.00     0.108 A 
ATOM     80  C   UNL A   1      33.717  19.924  24.108  1.00  0.00     0.068 A 
ATOM     81  S   UNL A   1      32.268  20.833  23.998  1.00  0.00    -0.126 S 
BRANCH  79  82
ATOM     82  N   UNL A   1      31.403  21.917  26.307  1.00  0.00    -0.312 N 
ATOM     83  C   UNL A   1      31.068  23.261  26.477  1.00  0.00     0.266 C 
ATOM     84  H   UNL A   1      30.806  21.262  26.735  1.00  0.00     0.171 HD
ATOM     85  O   UNL A   1      30.209  23.514  27.327  1.00  0.00    -0.268 OA
BRANCH  83  86
ATOM     86  C   UNL A   1      31.609  24.276  25.569  1.00  0.00     0.094 A 
ATOM     87  C   UNL A   1      32.673  25.133  25.759  1.00  0.00     0.037 A 
ATOM     88  S   UNL A   1      31.025  24.448  23.962  1.00  0.00    -0.130 S 
ATOM     89  C   UNL A   1      32.828  26.105  24.743  1.00  0.00     0.029 A 
ATOM     90  C   UNL A   1      32.162  25.701  23.591  1.00  0.00     0.038 A 
ATOM     91  C   UNL A   1      33.637  27.253  24.708  1.00  0.00     0.131 A 
ATOM     92  C   UNL A   1      32.469  26.297  22.354  1.00  0.00     0.020 A 
ATOM     93  F   UNL A   1      34.160  27.741  25.843  1.00  0.00    -0.206 F 
ATOM     94  C   UNL A   1      33.953  27.849  23.498  1.00  0.00     0.040 A 
ATOM     95  C   UNL A   1      33.421  27.330  22.324  1.00  0.00     0.005 A 
ENDBRANCH  83  86
ENDBRANCH  79  82
ENDBRANCH  74  77
ENDBRANCH  72  73
ENDBRANCH   1  72
TORSDOF 12
ENDMDL
MODEL 3
REMARK VINA RESULT:     -13.4      3.585      8.872
REMARK SMILES O=C(NCCCNC(=O)c1ccsc1NC(=O)c1cc2c(F)cccc2s1)c1ccc(-c2c3nc(c(-c4c(F)c(F)c(F)c(F)c4F)c4ccc([nH]4)c(-c4c(F)c(F)c(F)c(F)c4F)c4nc(c(-c5c(F)c(F)c(F)c(F)c5F)c5ccc2[nH]5)C=C4)C=C3)cc1
REMARK SMILES IDX 5 1 4 2 3 3 1 4 2 5 28 7 29 8 90 9 30 10 89 11 31 12 32 13
REMARK SMILES IDX 33 14 83 15 34 16 88 17 82 18 84 19 35 20 87 21 81 22 80 23
REMARK SMILES IDX 36 25 68 26 48 27 67 28 49 29 52 30 66 31 85 32 50 33 51 34
REMARK SMILES IDX 65 36 86 37 53 38 37 39 38 40 46 41 39 42 40 43 44 44 47 45
REMARK SMILES IDX 41 46 42 47 45 48 43 49 69 50 70 51 78 52 71 53 72 54 76 55
REMARK SMILES IDX 79 56 73 57 74 58 77 59 75 60 54 61 55 62 63 63 56 64 57 65
REMARK SMILES IDX 61 66 64 67 58 68 59 69 62 70 60 71 6 72 7 73 8 74 9 76
REMARK SMILES IDX 10 77 11 78 14 79 12 80 13 81 15 82 16 83 17 85 18 86 19 87
REMARK SMILES IDX 27 88 20 89 26 90 21 91 25 92 22 93 23 94 24 95
REMARK H PARENT 3 6 84 24 52 35 7 75 15 84
REMARK Flexibility Score: inf
ROOT
ATOM      1  C   UNL A   1      37.466  22.783  24.916  1.00  0.00     0.042 C 
ENDROOT
BRANCH   1   2
ATOM      2  C   UNL A   1      38.100  22.144  26.148  1.00  0.00     0.118 C 
BRANCH   2   3
ATOM      3  N   UNL A   1      39.540  21.971  26.078  1.00  0.00    -0.352 N 
ATOM      4  O   UNL A   1      41.728  22.165  26.343  1.00  0.00    -0.269 OA
ATOM      5  C   UNL A   1      40.624  22.697  26.488  1.00  0.00     0.251 C 
ATOM      6  H   UNL A   1      39.797  21.133  25.630  1.00  0.00     0.163 HD
BRANCH   5   7
ATOM      7  C   UNL A   1      40.570  24.087  27.011  1.00  0.00     0.039 A 
ATOM      8  C   UNL A   1      39.725  25.091  26.541  1.00  0.00     0.014 A 
ATOM      9  C   UNL A   1      41.464  24.395  28.056  1.00  0.00     0.014 A 
ATOM     10  C   UNL A   1      39.846  26.391  27.019  1.00  0.00     0.010 A 
ATOM     11  C   UNL A   1      41.569  25.688  28.563  1.00  0.00     0.010 A 
ATOM     12  C   UNL A   1      40.781  26.694  28.016  1.00  0.00    -0.014 A 
BRANCH  12  13
ATOM     13  C   UNL A   1      40.774  28.053  28.549  1.00  0.00     0.031 A 
ATOM     14  C   UNL A   1      41.873  28.929  28.055  1.00  0.00     0.074 A 
ATOM     15  C   UNL A   1      39.823  28.553  29.359  1.00  0.00     0.049 A 
ATOM     16  N   UNL A   1      42.816  29.491  28.739  1.00  0.00    -0.248 NA
ATOM     17  C   UNL A   1      41.974  29.141  26.604  1.00  0.00     0.031 C 
ATOM     18  C   UNL A   1      38.532  27.968  29.718  1.00  0.00     0.029 A 
ATOM     19  N   UNL A   1      39.803  29.768  29.984  1.00  0.00    -0.354 N 
ATOM     20  C   UNL A   1      43.557  30.246  27.831  1.00  0.00     0.074 A 
ATOM     21  C   UNL A   1      43.061  29.910  26.523  1.00  0.00     0.031 C 
ATOM     22  C   UNL A   1      37.779  28.902  30.342  1.00  0.00     0.029 A 
ATOM     23  C   UNL A   1      38.579  30.100  30.544  1.00  0.00     0.049 A 
ATOM     24  H   UNL A   1      40.590  30.357  30.034  1.00  0.00     0.167 HD
ATOM     25  C   UNL A   1      44.411  31.225  28.242  1.00  0.00     0.037 A 
ATOM     26  C   UNL A   1      38.241  31.295  31.087  1.00  0.00     0.037 A 
ATOM     27  C   UNL A   1      44.780  31.053  29.622  1.00  0.00     0.049 A 
ATOM     28  C   UNL A   1      39.495  31.990  31.462  1.00  0.00     0.074 A 
ATOM     29  C   UNL A   1      45.459  30.090  30.342  1.00  0.00     0.029 A 
ATOM     30  N   UNL A   1      44.172  31.852  30.555  1.00  0.00    -0.354 N 
ATOM     31  N   UNL A   1      40.283  31.618  32.431  1.00  0.00    -0.248 NA
ATOM     32  C   UNL A   1      40.071  32.934  30.517  1.00  0.00     0.031 C 
ATOM     33  C   UNL A   1      44.848  30.085  31.630  1.00  0.00     0.029 A 
ATOM     34  C   UNL A   1      43.849  31.060  31.625  1.00  0.00     0.049 A 
ATOM     35  H   UNL A   1      43.998  32.817  30.472  1.00  0.00     0.167 HD
ATOM     36  C   UNL A   1      41.556  31.938  31.992  1.00  0.00     0.074 A 
ATOM     37  C   UNL A   1      41.354  32.858  30.879  1.00  0.00     0.031 C 
ATOM     38  C   UNL A   1      42.638  31.211  32.393  1.00  0.00     0.037 A 
BRANCH  25  39
ATOM     39  C   UNL A   1      44.653  32.525  27.508  1.00  0.00     0.064 A 
ATOM     40  C   UNL A   1      45.836  32.678  26.752  1.00  0.00     0.173 A 
ATOM     41  C   UNL A   1      43.943  33.717  27.764  1.00  0.00     0.173 A 
ATOM     42  F   UNL A   1      46.600  31.617  26.450  1.00  0.00    -0.203 F 
ATOM     43  C   UNL A   1      46.317  33.935  26.374  1.00  0.00     0.198 A 
ATOM     44  C   UNL A   1      44.400  34.965  27.338  1.00  0.00     0.198 A 
ATOM     45  F   UNL A   1      42.844  33.744  28.525  1.00  0.00    -0.203 F 
ATOM     46  F   UNL A   1      47.515  34.037  25.780  1.00  0.00    -0.200 F 
ATOM     47  C   UNL A   1      45.604  35.078  26.677  1.00  0.00     0.200 A 
ATOM     48  F   UNL A   1      43.700  36.065  27.652  1.00  0.00    -0.200 F 
ATOM     49  F   UNL A   1      46.096  36.288  26.378  1.00  0.00    -0.200 F 
ENDBRANCH  25  39
BRANCH  26  50
ATOM     50  C   UNL A   1      36.935  31.995  31.065  1.00  0.00     0.064 A 
ATOM     51  C   UNL A   1      36.148  32.089  32.226  1.00  0.00     0.173 A 
ATOM     52  C   UNL A   1      36.575  32.837  29.995  1.00  0.00     0.173 A 
ATOM     53  F   UNL A   1      36.444  31.352  33.305  1.00  0.00    -0.203 F 
ATOM     54  C   UNL A   1      35.092  33.003  32.324  1.00  0.00     0.198 A 
ATOM     55  C   UNL A   1      35.516  33.739  30.092  1.00  0.00     0.198 A 
ATOM     56  F   UNL A   1      37.305  32.873  28.872  1.00  0.00    -0.203 F 
ATOM     57  F   UNL A   1      34.414  33.117  33.475  1.00  0.00    -0.200 F 
ATOM     58  C   UNL A   1      34.787  33.836  31.262  1.00  0.00     0.200 A 
ATOM     59  F   UNL A   1      35.252  34.564  29.068  1.00  0.00    -0.200 F 
ATOM     60  F   UNL A   1      33.822  34.759  31.380  1.00  0.00    -0.200 F 
ENDBRANCH  26  50
BRANCH  38  61
ATOM     61  C   UNL A   1      42.465  30.290  33.565  1.00  0.00     0.064 A 
ATOM     62  C   UNL A   1      42.656  30.681  34.902  1.00  0.00     0.173 A 
ATOM     63  C   UNL A   1      41.940  29.011  33.332  1.00  0.00     0.173 A 
ATOM     64  F   UNL A   1      43.061  31.920  35.208  1.00  0.00    -0.203 F 
ATOM     65  C   UNL A   1      42.368  29.813  35.953  1.00  0.00     0.198 A 
ATOM     66  C   UNL A   1      41.617  28.162  34.386  1.00  0.00     0.198 A 
ATOM     67  F   UNL A   1      41.686  28.608  32.078  1.00  0.00    -0.203 F 
ATOM     68  F   UNL A   1      42.564  30.206  37.221  1.00  0.00    -0.200 F 
ATOM     69  C   UNL A   1      41.839  28.559  35.695  1.00  0.00     0.200 A 
ATOM     70  F   UNL A   1      41.060  26.969  34.133  1.00  0.00    -0.200 F 
ATOM     71  F   UNL A   1      41.516  27.744  36.708  1.00  0.00    -0.200 F 
ENDBRANCH  38  61
ENDBRANCH  12  13
ENDBRANCH   5   7
ENDBRANCH   2   3
ENDBRANCH   1   2
BRANCH   1  72
ATOM     72  C   UNL A   1      36.025  23.229  25.134  1.00  0.00     0.118 C 
BRANCH  72  73
ATOM     73  N   UNL A   1      35.562  22.982  26.496  1.00  0.00    -0.352 N 
ATOM     74  C   UNL A   1      34.507  22.208  26.906  1.00  0.00     0.254 C 
ATOM     75  H   UNL A   1      36.072  23.427  27.211  1.00  0.00     0.163 HD
ATOM     76  O   UNL A   1      34.090  22.288  28.065  1.00  0.00    -0.269 OA
BRANCH  74  77
ATOM     77  C   UNL A   1      33.878  21.373  25.905  1.00  0.00     0.074 A 
ATOM     78  C   UNL A   1      34.522  20.309  25.174  1.00  0.00     0.028 A 
ATOM     79  C   UNL A   1      32.527  21.353  25.621  1.00  0.00     0.108 A 
ATOM     80  C   UNL A   1      33.748  19.850  24.132  1.00  0.00     0.068 A 
ATOM     81  S   UNL A   1      32.279  20.728  24.038  1.00  0.00    -0.126 S 
BRANCH  79  82
ATOM     82  N   UNL A   1      31.468  21.877  26.335  1.00  0.00    -0.312 N 
ATOM     83  C   UNL A   1      31.132  23.222  26.496  1.00  0.00     0.266 C 
ATOM     84  H   UNL A   1      30.881  21.225  26.783  1.00  0.00     0.171 HD
ATOM     85  O   UNL A   1      30.290  23.483  27.361  1.00  0.00    -0.268 OA
BRANCH  83  86
ATOM     86  C   UNL A   1      31.652  24.228  25.567  1.00  0.00     0.094 A 
ATOM     87  C   UNL A   1      32.702  25.106  25.734  1.00  0.00     0.037 A 
ATOM     88  S   UNL A   1      31.056  24.360  23.959  1.00  0.00    -0.130 S 
ATOM     89  C   UNL A   1      32.835  26.061  24.699  1.00  0.00     0.029 A 
ATOM     90  C   UNL A   1      32.171  25.623  23.558  1.00  0.00     0.038 A 
ATOM     91  C   UNL A   1      33.626  27.221  24.637  1.00  0.00     0.131 A 
ATOM     92  C   UNL A   1      32.461  26.200  22.308  1.00  0.00     0.020 A 
ATOM     93  F   UNL A   1      34.146  27.740  25.760  1.00  0.00    -0.206 F 
ATOM     94  C   UNL A   1      33.926  27.798  23.414  1.00  0.00     0.040 A 
ATOM     95  C   UNL A   1      33.396  27.248  22.253  1.00  0.00     0.005 A 
ENDBRANCH  83  86
ENDBRANCH  79  82
ENDBRANCH  74  77
ENDBRANCH  72  73
ENDBRANCH   1  72
TORSDOF 12
ENDMDL
