MODEL 1
REMARK VINA RESULT:     -12.9      0.000      0.000
REMARK SMILES O=C(C[C@H]1CC[C@@H](C(=O)NCCCNC(=O)c2ccc(-c3c4nc(c(-c5c(F)c(F)c(F)c(F)c5F)c5ccc([nH]5)c(-c5c(F)c(F)c(F)c(F)c5F)c5nc(c(-c6c(F)c(F)c(F)c(F)c6F)c6ccc3[nH]6)C=C5)C=C4)cc2)C1)c1ccc(Cl)cc1
REMARK SMILES IDX 11 1 10 2 8 3 9 4 7 6 4 7 5 8 80 9 6 10 3 11 2 12 1 13 81 14
REMARK SMILES IDX 82 15 87 16 83 17 86 18 84 19 85 20 12 21 13 22 14 23 15 24
REMARK SMILES IDX 16 26 17 27 18 28 79 29 19 30 78 31 20 32 21 33 22 34 72 35
REMARK SMILES IDX 23 36 77 37 71 38 73 39 24 40 76 41 70 42 69 43 25 45 57 46
REMARK SMILES IDX 37 47 56 48 38 49 41 50 55 51 74 52 39 53 40 54 54 56 75 57
REMARK SMILES IDX 42 58 26 59 27 60 35 61 28 62 29 63 33 64 36 65 30 66 31 67
REMARK SMILES IDX 34 68 32 69 58 70 59 71 67 72 60 73 61 74 65 75 68 76 62 77
REMARK SMILES IDX 63 78 66 79 64 80 43 81 44 82 52 83 45 84 46 85 50 86 53 87
REMARK SMILES IDX 47 88 48 89 51 90 49 91
REMARK H PARENT 10 5 14 25 73 44 41 55
REMARK Flexibility Score: inf
ROOT
ATOM      1  C   UNL A   1      31.490  30.575  26.411  1.00  0.00     0.117 C 
ENDROOT
BRANCH   1   2
ATOM      2  N   UNL A   1      32.400  30.147  25.373  1.00  0.00    -0.356 N 
ATOM      3  C   UNL A   1      32.922  28.940  25.074  1.00  0.00     0.223 C 
ATOM      4  O   UNL A   1      33.303  28.837  23.906  1.00  0.00    -0.275 OA
ATOM      5  H   UNL A   1      32.693  30.871  24.774  1.00  0.00     0.163 HD
BRANCH   3   6
ATOM      6  C   UNL A   1      33.009  27.789  26.073  1.00  0.00     0.079 C 
ATOM      7  C   UNL A   1      31.560  26.033  25.153  1.00  0.00    -0.003 C 
ATOM      8  C   UNL A   1      32.985  25.484  25.157  1.00  0.00     0.005 C 
ATOM      9  C   UNL A   1      31.634  27.125  26.239  1.00  0.00     0.017 C 
ATOM     10  C   UNL A   1      33.904  26.612  25.662  1.00  0.00     0.014 C 
BRANCH   7  11
ATOM     11  C   UNL A   1      30.961  26.485  23.796  1.00  0.00     0.084 C 
BRANCH  11  12
ATOM     12  C   UNL A   1      29.507  26.951  23.728  1.00  0.00     0.163 C 
ATOM     13  O   UNL A   1      28.584  26.269  24.171  1.00  0.00    -0.294 OA
BRANCH  12  14
ATOM     14  C   UNL A   1      29.152  28.255  23.120  1.00  0.00     0.018 A 
ATOM     15  C   UNL A   1      30.131  28.963  22.416  1.00  0.00     0.013 A 
ATOM     16  C   UNL A   1      27.830  28.710  23.102  1.00  0.00     0.013 A 
ATOM     17  C   UNL A   1      29.828  30.171  21.788  1.00  0.00     0.021 A 
ATOM     18  C   UNL A   1      27.513  29.899  22.428  1.00  0.00     0.021 A 
ATOM     19  C   UNL A   1      28.515  30.631  21.789  1.00  0.00     0.041 A 
ATOM     20  Cl  UNL A   1      28.131  32.095  20.970  1.00  0.00    -0.084 Cl
ENDBRANCH  12  14
ENDBRANCH  11  12
ENDBRANCH   7  11
ENDBRANCH   3   6
ENDBRANCH   1   2
BRANCH   1  21
ATOM     21  C   UNL A   1      31.412  32.098  26.512  1.00  0.00     0.042 C 
BRANCH  21  22
ATOM     22  C   UNL A   1      32.562  32.790  27.253  1.00  0.00     0.118 C 
BRANCH  22  23
ATOM     23  N   UNL A   1      32.287  34.165  27.640  1.00  0.00    -0.352 N 
ATOM     24  C   UNL A   1      32.941  34.976  28.537  1.00  0.00     0.251 C 
ATOM     25  H   UNL A   1      31.514  34.577  27.192  1.00  0.00     0.163 HD
ATOM     26  O   UNL A   1      32.492  36.097  28.784  1.00  0.00    -0.269 OA
BRANCH  24  27
ATOM     27  C   UNL A   1      34.150  34.509  29.252  1.00  0.00     0.039 A 
ATOM     28  C   UNL A   1      33.992  33.926  30.514  1.00  0.00     0.014 A 
ATOM     29  C   UNL A   1      35.431  34.648  28.709  1.00  0.00     0.014 A 
ATOM     30  C   UNL A   1      35.100  33.405  31.188  1.00  0.00     0.010 A 
ATOM     31  C   UNL A   1      36.528  34.070  29.354  1.00  0.00     0.010 A 
ATOM     32  C   UNL A   1      36.372  33.429  30.594  1.00  0.00    -0.014 A 
BRANCH  32  33
ATOM     33  C   UNL A   1      37.530  32.749  31.237  1.00  0.00     0.031 A 
ATOM     34  C   UNL A   1      38.205  31.581  30.574  1.00  0.00     0.074 A 
ATOM     35  C   UNL A   1      37.935  33.147  32.460  1.00  0.00     0.049 A 
ATOM     36  N   UNL A   1      39.179  30.826  31.019  1.00  0.00    -0.248 NA
ATOM     37  C   UNL A   1      37.712  31.201  29.242  1.00  0.00     0.031 C 
ATOM     38  C   UNL A   1      37.342  34.240  33.232  1.00  0.00     0.029 A 
ATOM     39  N   UNL A   1      38.930  32.667  33.280  1.00  0.00    -0.354 N 
ATOM     40  C   UNL A   1      39.403  29.874  30.033  1.00  0.00     0.074 A 
ATOM     41  C   UNL A   1      38.441  30.125  28.981  1.00  0.00     0.031 C 
ATOM     42  C   UNL A   1      37.986  34.352  34.405  1.00  0.00     0.029 A 
ATOM     43  C   UNL A   1      39.007  33.312  34.490  1.00  0.00     0.049 A 
ATOM     44  H   UNL A   1      39.531  31.930  33.022  1.00  0.00     0.167 HD
ATOM     45  C   UNL A   1      40.334  28.889  30.004  1.00  0.00     0.037 A 
ATOM     46  C   UNL A   1      39.793  33.080  35.560  1.00  0.00     0.037 A 
ATOM     47  C   UNL A   1      41.306  28.654  31.042  1.00  0.00     0.049 A 
ATOM     48  C   UNL A   1      40.807  31.968  35.505  1.00  0.00     0.074 A 
ATOM     49  C   UNL A   1      42.339  27.731  31.060  1.00  0.00     0.029 A 
ATOM     50  N   UNL A   1      41.359  29.336  32.248  1.00  0.00    -0.354 N 
ATOM     51  N   UNL A   1      41.064  31.129  34.532  1.00  0.00    -0.248 NA
ATOM     52  C   UNL A   1      41.644  31.774  36.699  1.00  0.00     0.031 C 
ATOM     53  C   UNL A   1      42.977  27.811  32.302  1.00  0.00     0.029 A 
ATOM     54  C   UNL A   1      42.383  28.827  33.033  1.00  0.00     0.049 A 
ATOM     55  H   UNL A   1      40.760  30.072  32.508  1.00  0.00     0.167 HD
ATOM     56  C   UNL A   1      42.105  30.327  34.983  1.00  0.00     0.074 A 
ATOM     57  C   UNL A   1      42.446  30.793  36.310  1.00  0.00     0.031 C 
ATOM     58  C   UNL A   1      42.719  29.297  34.352  1.00  0.00     0.037 A 
BRANCH  45  59
ATOM     59  C   UNL A   1      40.351  27.973  28.813  1.00  0.00     0.064 A 
ATOM     60  C   UNL A   1      41.095  28.271  27.662  1.00  0.00     0.173 A 
ATOM     61  C   UNL A   1      39.670  26.746  28.855  1.00  0.00     0.173 A 
ATOM     62  F   UNL A   1      41.760  29.433  27.569  1.00  0.00    -0.203 F 
ATOM     63  C   UNL A   1      41.139  27.384  26.589  1.00  0.00     0.198 A 
ATOM     64  C   UNL A   1      39.741  25.850  27.792  1.00  0.00     0.198 A 
ATOM     65  F   UNL A   1      38.952  26.407  29.937  1.00  0.00    -0.203 F 
ATOM     66  F   UNL A   1      41.826  27.708  25.484  1.00  0.00    -0.200 F 
ATOM     67  C   UNL A   1      40.471  26.171  26.659  1.00  0.00     0.200 A 
ATOM     68  F   UNL A   1      39.109  24.670  27.868  1.00  0.00    -0.200 F 
ATOM     69  F   UNL A   1      40.527  25.313  25.631  1.00  0.00    -0.200 F 
ENDBRANCH  45  59
BRANCH  46  70
ATOM     70  C   UNL A   1      39.649  33.911  36.785  1.00  0.00     0.064 A 
ATOM     71  C   UNL A   1      38.839  33.497  37.852  1.00  0.00     0.173 A 
ATOM     72  C   UNL A   1      40.300  35.149  36.904  1.00  0.00     0.173 A 
ATOM     73  F   UNL A   1      38.178  32.333  37.777  1.00  0.00    -0.203 F 
ATOM     74  C   UNL A   1      38.662  34.302  38.977  1.00  0.00     0.198 A 
ATOM     75  C   UNL A   1      40.149  35.936  38.043  1.00  0.00     0.198 A 
ATOM     76  F   UNL A   1      41.091  35.590  35.914  1.00  0.00    -0.203 F 
ATOM     77  F   UNL A   1      37.836  33.908  39.955  1.00  0.00    -0.200 F 
ATOM     78  C   UNL A   1      39.321  35.517  39.074  1.00  0.00     0.200 A 
ATOM     79  F   UNL A   1      40.802  37.102  38.140  1.00  0.00    -0.200 F 
ATOM     80  F   UNL A   1      39.151  36.290  40.155  1.00  0.00    -0.200 F 
ENDBRANCH  46  70
BRANCH  58  81
ATOM     81  C   UNL A   1      43.847  28.617  35.077  1.00  0.00     0.064 A 
ATOM     82  C   UNL A   1      45.171  29.067  34.969  1.00  0.00     0.173 A 
ATOM     83  C   UNL A   1      43.593  27.524  35.919  1.00  0.00     0.173 A 
ATOM     84  F   UNL A   1      45.471  30.098  34.165  1.00  0.00    -0.203 F 
ATOM     85  C   UNL A   1      46.203  28.431  35.657  1.00  0.00     0.198 A 
ATOM     86  C   UNL A   1      44.621  26.911  36.632  1.00  0.00     0.198 A 
ATOM     87  F   UNL A   1      42.343  27.056  36.063  1.00  0.00    -0.203 F 
ATOM     88  F   UNL A   1      47.467  28.846  35.499  1.00  0.00    -0.200 F 
ATOM     89  C   UNL A   1      45.925  27.360  36.494  1.00  0.00     0.200 A 
ATOM     90  F   UNL A   1      44.349  25.887  37.451  1.00  0.00    -0.200 F 
ATOM     91  F   UNL A   1      46.918  26.755  37.161  1.00  0.00    -0.200 F 
ENDBRANCH  58  81
ENDBRANCH  32  33
ENDBRANCH  24  27
ENDBRANCH  22  23
ENDBRANCH  21  22
ENDBRANCH   1  21
TORSDOF 13
ENDMDL
MODEL 2
REMARK VINA RESULT:     -12.7      2.035      3.512
REMARK SMILES O=C(C[C@H]1CC[C@@H](C(=O)NCCCNC(=O)c2ccc(-c3c4nc(c(-c5c(F)c(F)c(F)c(F)c5F)c5ccc([nH]5)c(-c5c(F)c(F)c(F)c(F)c5F)c5nc(c(-c6c(F)c(F)c(F)c(F)c6F)c6ccc3[nH]6)C=C5)C=C4)cc2)C1)c1ccc(Cl)cc1
REMARK SMILES IDX 11 1 10 2 8 3 9 4 7 6 4 7 5 8 80 9 6 10 3 11 2 12 1 13 81 14
REMARK SMILES IDX 82 15 87 16 83 17 86 18 84 19 85 20 12 21 13 22 14 23 15 24
REMARK SMILES IDX 16 26 17 27 18 28 79 29 19 30 78 31 20 32 21 33 22 34 72 35
REMARK SMILES IDX 23 36 77 37 71 38 73 39 24 40 76 41 70 42 69 43 25 45 57 46
REMARK SMILES IDX 37 47 56 48 38 49 41 50 55 51 74 52 39 53 40 54 54 56 75 57
REMARK SMILES IDX 42 58 26 59 27 60 35 61 28 62 29 63 33 64 36 65 30 66 31 67
REMARK SMILES IDX 34 68 32 69 58 70 59 71 67 72 60 73 61 74 65 75 68 76 62 77
REMARK SMILES IDX 63 78 66 79 64 80 43 81 44 82 52 83 45 84 46 85 50 86 53 87
REMARK SMILES IDX 47 88 48 89 51 90 49 91
REMARK H PARENT 10 5 14 25 73 44 41 55
REMARK Flexibility Score: inf
ROOT
ATOM      1  C   UNL A   1      31.764  30.433  26.712  1.00  0.00     0.117 C 
ENDROOT
BRANCH   1   2
ATOM      2  N   UNL A   1      31.330  29.841  25.467  1.00  0.00    -0.356 N 
ATOM      3  C   UNL A   1      31.887  28.907  24.671  1.00  0.00     0.223 C 
ATOM      4  O   UNL A   1      31.082  28.328  23.939  1.00  0.00    -0.275 OA
ATOM      5  H   UNL A   1      30.467  30.184  25.140  1.00  0.00     0.163 HD
BRANCH   3   6
ATOM      6  C   UNL A   1      33.376  28.567  24.687  1.00  0.00     0.079 C 
ATOM      7  C   UNL A   1      33.502  26.295  25.611  1.00  0.00    -0.003 C 
ATOM      8  C   UNL A   1      34.012  26.224  24.174  1.00  0.00     0.005 C 
ATOM      9  C   UNL A   1      33.727  27.781  25.959  1.00  0.00     0.017 C 
ATOM     10  C   UNL A   1      33.861  27.633  23.570  1.00  0.00     0.014 C 
BRANCH   7  11
ATOM     11  C   UNL A   1      32.079  25.753  25.903  1.00  0.00     0.084 C 
BRANCH  11  12
ATOM     12  C   UNL A   1      31.909  24.361  26.509  1.00  0.00     0.163 C 
ATOM     13  O   UNL A   1      30.999  24.099  27.294  1.00  0.00    -0.294 OA
BRANCH  12  14
ATOM     14  C   UNL A   1      32.844  23.262  26.168  1.00  0.00     0.018 A 
ATOM     15  C   UNL A   1      32.904  22.810  24.847  1.00  0.00     0.013 A 
ATOM     16  C   UNL A   1      33.769  22.784  27.102  1.00  0.00     0.013 A 
ATOM     17  C   UNL A   1      33.804  21.810  24.474  1.00  0.00     0.021 A 
ATOM     18  C   UNL A   1      34.709  21.815  26.715  1.00  0.00     0.021 A 
ATOM     19  C   UNL A   1      34.710  21.322  25.409  1.00  0.00     0.041 A 
ATOM     20  Cl  UNL A   1      35.854  20.127  24.936  1.00  0.00    -0.084 Cl
ENDBRANCH  12  14
ENDBRANCH  11  12
ENDBRANCH   7  11
ENDBRANCH   3   6
ENDBRANCH   1   2
BRANCH   1  21
ATOM     21  C   UNL A   1      31.563  31.949  26.726  1.00  0.00     0.042 C 
BRANCH  21  22
ATOM     22  C   UNL A   1      32.759  32.788  27.190  1.00  0.00     0.118 C 
BRANCH  22  23
ATOM     23  N   UNL A   1      32.415  34.130  27.633  1.00  0.00    -0.352 N 
ATOM     24  C   UNL A   1      33.005  34.919  28.592  1.00  0.00     0.251 C 
ATOM     25  H   UNL A   1      31.643  34.534  27.177  1.00  0.00     0.163 HD
ATOM     26  O   UNL A   1      32.502  36.009  28.877  1.00  0.00    -0.269 OA
BRANCH  24  27
ATOM     27  C   UNL A   1      34.206  34.464  29.327  1.00  0.00     0.039 A 
ATOM     28  C   UNL A   1      34.034  33.892  30.591  1.00  0.00     0.014 A 
ATOM     29  C   UNL A   1      35.494  34.605  28.800  1.00  0.00     0.014 A 
ATOM     30  C   UNL A   1      35.135  33.382  31.285  1.00  0.00     0.010 A 
ATOM     31  C   UNL A   1      36.584  34.038  29.465  1.00  0.00     0.010 A 
ATOM     32  C   UNL A   1      36.415  33.406  30.708  1.00  0.00    -0.014 A 
BRANCH  32  33
ATOM     33  C   UNL A   1      37.567  32.738  31.372  1.00  0.00     0.031 A 
ATOM     34  C   UNL A   1      38.245  31.556  30.737  1.00  0.00     0.074 A 
ATOM     35  C   UNL A   1      37.964  33.158  32.591  1.00  0.00     0.049 A 
ATOM     36  N   UNL A   1      39.215  30.809  31.203  1.00  0.00    -0.248 NA
ATOM     37  C   UNL A   1      37.761  31.151  29.408  1.00  0.00     0.031 C 
ATOM     38  C   UNL A   1      37.367  34.267  33.337  1.00  0.00     0.029 A 
ATOM     39  N   UNL A   1      38.953  32.693  33.426  1.00  0.00    -0.354 N 
ATOM     40  C   UNL A   1      39.445  29.837  30.237  1.00  0.00     0.074 A 
ATOM     41  C   UNL A   1      38.490  30.069  29.173  1.00  0.00     0.031 C 
ATOM     42  C   UNL A   1      38.003  34.400  34.512  1.00  0.00     0.029 A 
ATOM     43  C   UNL A   1      39.022  33.361  34.625  1.00  0.00     0.049 A 
ATOM     44  H   UNL A   1      39.554  31.951  33.187  1.00  0.00     0.167 HD
ATOM     45  C   UNL A   1      40.374  28.851  30.234  1.00  0.00     0.037 A 
ATOM     46  C   UNL A   1      39.800  33.149  35.704  1.00  0.00     0.037 A 
ATOM     47  C   UNL A   1      41.339  28.635  31.283  1.00  0.00     0.049 A 
ATOM     48  C   UNL A   1      40.812  32.034  35.678  1.00  0.00     0.074 A 
ATOM     49  C   UNL A   1      42.370  27.711  31.327  1.00  0.00     0.029 A 
ATOM     50  N   UNL A   1      41.384  29.339  32.476  1.00  0.00    -0.354 N 
ATOM     51  N   UNL A   1      41.075  31.177  34.723  1.00  0.00    -0.248 NA
ATOM     52  C   UNL A   1      41.640  31.862  36.881  1.00  0.00     0.031 C 
ATOM     53  C   UNL A   1      42.999  27.813  32.571  1.00  0.00     0.029 A 
ATOM     54  C   UNL A   1      42.402  28.844  33.278  1.00  0.00     0.049 A 
ATOM     55  H   UNL A   1      40.784  30.081  32.718  1.00  0.00     0.167 HD
ATOM     56  C   UNL A   1      42.112  30.382  35.196  1.00  0.00     0.074 A 
ATOM     57  C   UNL A   1      42.444  30.873  36.517  1.00  0.00     0.031 C 
ATOM     58  C   UNL A   1      42.729  29.339  34.591  1.00  0.00     0.037 A 
BRANCH  45  59
ATOM     59  C   UNL A   1      40.399  27.912  29.061  1.00  0.00     0.064 A 
ATOM     60  C   UNL A   1      39.627  26.742  29.033  1.00  0.00     0.173 A 
ATOM     61  C   UNL A   1      41.153  28.229  27.919  1.00  0.00     0.173 A 
ATOM     62  F   UNL A   1      38.892  26.392  30.100  1.00  0.00    -0.203 F 
ATOM     63  C   UNL A   1      39.625  25.912  27.915  1.00  0.00     0.198 A 
ATOM     64  C   UNL A   1      41.125  27.411  26.792  1.00  0.00     0.198 A 
ATOM     65  F   UNL A   1      41.902  29.342  27.889  1.00  0.00    -0.203 F 
ATOM     66  F   UNL A   1      38.908  24.779  27.926  1.00  0.00    -0.200 F 
ATOM     67  C   UNL A   1      40.366  26.252  26.793  1.00  0.00     0.200 A 
ATOM     68  F   UNL A   1      41.828  27.750  25.703  1.00  0.00    -0.200 F 
ATOM     69  F   UNL A   1      40.350  25.459  25.712  1.00  0.00    -0.200 F 
ENDBRANCH  45  59
BRANCH  46  70
ATOM     70  C   UNL A   1      39.648  34.003  36.912  1.00  0.00     0.064 A 
ATOM     71  C   UNL A   1      38.860  33.594  37.996  1.00  0.00     0.173 A 
ATOM     72  C   UNL A   1      40.269  35.259  36.996  1.00  0.00     0.173 A 
ATOM     73  F   UNL A   1      38.228  32.412  37.956  1.00  0.00    -0.203 F 
ATOM     74  C   UNL A   1      38.675  34.419  39.105  1.00  0.00     0.198 A 
ATOM     75  C   UNL A   1      40.111  36.068  38.119  1.00  0.00     0.198 A 
ATOM     76  F   UNL A   1      41.038  35.697  35.988  1.00  0.00    -0.203 F 
ATOM     77  F   UNL A   1      37.870  34.027  40.101  1.00  0.00    -0.200 F 
ATOM     78  C   UNL A   1      39.305  35.652  39.168  1.00  0.00     0.200 A 
ATOM     79  F   UNL A   1      40.736  37.252  38.182  1.00  0.00    -0.200 F 
ATOM     80  F   UNL A   1      39.127  36.445  40.233  1.00  0.00    -0.200 F 
ENDBRANCH  46  70
BRANCH  58  81
ATOM     81  C   UNL A   1      43.850  28.672  35.336  1.00  0.00     0.064 A 
ATOM     82  C   UNL A   1      43.617  27.618  36.231  1.00  0.00     0.173 A 
ATOM     83  C   UNL A   1      45.180  29.069  35.123  1.00  0.00     0.173 A 
ATOM     84  F   UNL A   1      42.364  27.210  36.483  1.00  0.00    -0.203 F 
ATOM     85  C   UNL A   1      44.671  27.003  36.905  1.00  0.00     0.198 A 
ATOM     86  C   UNL A   1      46.234  28.430  35.772  1.00  0.00     0.198 A 
ATOM     87  F   UNL A   1      45.460  30.068  34.272  1.00  0.00    -0.203 F 
ATOM     88  F   UNL A   1      44.420  26.032  37.794  1.00  0.00    -0.200 F 
ATOM     89  C   UNL A   1      45.977  27.404  36.668  1.00  0.00     0.200 A 
ATOM     90  F   UNL A   1      47.496  28.808  35.531  1.00  0.00    -0.200 F 
ATOM     91  F   UNL A   1      46.990  26.805  37.311  1.00  0.00    -0.200 F 
ENDBRANCH  58  81
ENDBRANCH  32  33
ENDBRANCH  24  27
ENDBRANCH  22  23
ENDBRANCH  21  22
ENDBRANCH   1  21
TORSDOF 13
ENDMDL
MODEL 3
REMARK VINA RESULT:     -12.6      1.988      3.440
REMARK SMILES O=C(C[C@H]1CC[C@@H](C(=O)NCCCNC(=O)c2ccc(-c3c4nc(c(-c5c(F)c(F)c(F)c(F)c5F)c5ccc([nH]5)c(-c5c(F)c(F)c(F)c(F)c5F)c5nc(c(-c6c(F)c(F)c(F)c(F)c6F)c6ccc3[nH]6)C=C5)C=C4)cc2)C1)c1ccc(Cl)cc1
REMARK SMILES IDX 11 1 10 2 8 3 9 4 7 6 4 7 5 8 80 9 6 10 3 11 2 12 1 13 81 14
REMARK SMILES IDX 82 15 87 16 83 17 86 18 84 19 85 20 12 21 13 22 14 23 15 24
REMARK SMILES IDX 16 26 17 27 18 28 79 29 19 30 78 31 20 32 21 33 22 34 72 35
REMARK SMILES IDX 23 36 77 37 71 38 73 39 24 40 76 41 70 42 69 43 25 45 57 46
REMARK SMILES IDX 37 47 56 48 38 49 41 50 55 51 74 52 39 53 40 54 54 56 75 57
REMARK SMILES IDX 42 58 26 59 27 60 35 61 28 62 29 63 33 64 36 65 30 66 31 67
REMARK SMILES IDX 34 68 32 69 58 70 59 71 67 72 60 73 61 74 65 75 68 76 62 77
REMARK SMILES IDX 63 78 66 79 64 80 43 81 44 82 52 83 45 84 46 85 50 86 53 87
REMARK SMILES IDX 47 88 48 89 51 90 49 91
REMARK H PARENT 10 5 14 25 73 44 41 55
REMARK Flexibility Score: inf
ROOT
ATOM      1  C   UNL A   1      31.800  30.509  26.496  1.00  0.00     0.117 C 
ENDROOT
BRANCH   1   2
ATOM      2  N   UNL A   1      31.354  30.035  25.205  1.00  0.00    -0.356 N 
ATOM      3  C   UNL A   1      31.883  29.149  24.339  1.00  0.00     0.223 C 
ATOM      4  O   UNL A   1      31.063  28.661  23.559  1.00  0.00    -0.275 OA
ATOM      5  H   UNL A   1      30.506  30.435  24.903  1.00  0.00     0.163 HD
BRANCH   3   6
ATOM      6  C   UNL A   1      33.358  28.754  24.334  1.00  0.00     0.079 C 
ATOM      7  C   UNL A   1      33.432  26.545  25.406  1.00  0.00    -0.003 C 
ATOM      8  C   UNL A   1      33.893  26.360  23.962  1.00  0.00     0.005 C 
ATOM      9  C   UNL A   1      33.721  28.041  25.645  1.00  0.00     0.017 C 
ATOM     10  C   UNL A   1      33.774  27.731  23.269  1.00  0.00     0.014 C 
BRANCH   7  11
ATOM     11  C   UNL A   1      32.000  26.078  25.775  1.00  0.00     0.084 C 
BRANCH  11  12
ATOM     12  C   UNL A   1      31.782  24.672  26.330  1.00  0.00     0.163 C 
ATOM     13  O   UNL A   1      30.805  24.389  27.021  1.00  0.00    -0.294 OA
BRANCH  12  14
ATOM     14  C   UNL A   1      32.752  23.585  26.053  1.00  0.00     0.018 A 
ATOM     15  C   UNL A   1      32.702  22.933  24.818  1.00  0.00     0.013 A 
ATOM     16  C   UNL A   1      33.803  23.311  26.933  1.00  0.00     0.013 A 
ATOM     17  C   UNL A   1      33.625  21.936  24.497  1.00  0.00     0.021 A 
ATOM     18  C   UNL A   1      34.763  22.345  26.590  1.00  0.00     0.021 A 
ATOM     19  C   UNL A   1      34.659  21.652  25.383  1.00  0.00     0.041 A 
ATOM     20  Cl  UNL A   1      35.828  20.460  24.966  1.00  0.00    -0.084 Cl
ENDBRANCH  12  14
ENDBRANCH  11  12
ENDBRANCH   7  11
ENDBRANCH   3   6
ENDBRANCH   1   2
BRANCH   1  21
ATOM     21  C   UNL A   1      31.564  32.009  26.669  1.00  0.00     0.042 C 
BRANCH  21  22
ATOM     22  C   UNL A   1      32.757  32.831  27.169  1.00  0.00     0.118 C 
BRANCH  22  23
ATOM     23  N   UNL A   1      32.419  34.178  27.602  1.00  0.00    -0.352 N 
ATOM     24  C   UNL A   1      33.014  34.974  28.552  1.00  0.00     0.251 C 
ATOM     25  H   UNL A   1      31.646  34.581  27.145  1.00  0.00     0.163 HD
ATOM     26  O   UNL A   1      32.516  36.067  28.829  1.00  0.00    -0.269 OA
BRANCH  24  27
ATOM     27  C   UNL A   1      34.216  34.521  29.288  1.00  0.00     0.039 A 
ATOM     28  C   UNL A   1      34.048  33.978  30.565  1.00  0.00     0.014 A 
ATOM     29  C   UNL A   1      35.501  34.635  28.748  1.00  0.00     0.014 A 
ATOM     30  C   UNL A   1      35.149  33.470  31.262  1.00  0.00     0.010 A 
ATOM     31  C   UNL A   1      36.590  34.070  29.416  1.00  0.00     0.010 A 
ATOM     32  C   UNL A   1      36.424  33.467  30.674  1.00  0.00    -0.014 A 
BRANCH  32  33
ATOM     33  C   UNL A   1      37.574  32.800  31.343  1.00  0.00     0.031 A 
ATOM     34  C   UNL A   1      38.257  31.620  30.710  1.00  0.00     0.074 A 
ATOM     35  C   UNL A   1      37.965  33.221  32.563  1.00  0.00     0.049 A 
ATOM     36  N   UNL A   1      39.225  30.873  31.181  1.00  0.00    -0.248 NA
ATOM     37  C   UNL A   1      37.779  31.214  29.380  1.00  0.00     0.031 C 
ATOM     38  C   UNL A   1      37.363  34.329  33.307  1.00  0.00     0.029 A 
ATOM     39  N   UNL A   1      38.950  32.756  33.403  1.00  0.00    -0.354 N 
ATOM     40  C   UNL A   1      39.461  29.902  30.216  1.00  0.00     0.074 A 
ATOM     41  C   UNL A   1      38.511  30.133  29.148  1.00  0.00     0.031 C 
ATOM     42  C   UNL A   1      37.993  34.462  34.485  1.00  0.00     0.029 A 
ATOM     43  C   UNL A   1      39.013  33.424  34.602  1.00  0.00     0.049 A 
ATOM     44  H   UNL A   1      39.554  32.015  33.167  1.00  0.00     0.167 HD
ATOM     45  C   UNL A   1      40.391  28.917  30.217  1.00  0.00     0.037 A 
ATOM     46  C   UNL A   1      39.786  33.213  35.686  1.00  0.00     0.037 A 
ATOM     47  C   UNL A   1      41.351  28.702  31.270  1.00  0.00     0.049 A 
ATOM     48  C   UNL A   1      40.800  32.099  35.664  1.00  0.00     0.074 A 
ATOM     49  C   UNL A   1      42.383  27.779  31.318  1.00  0.00     0.029 A 
ATOM     50  N   UNL A   1      41.390  29.406  32.463  1.00  0.00    -0.354 N 
ATOM     51  N   UNL A   1      41.069  31.243  34.710  1.00  0.00    -0.248 NA
ATOM     52  C   UNL A   1      41.623  31.928  36.870  1.00  0.00     0.031 C 
ATOM     53  C   UNL A   1      43.006  27.882  32.565  1.00  0.00     0.029 A 
ATOM     54  C   UNL A   1      42.405  28.912  33.270  1.00  0.00     0.049 A 
ATOM     55  H   UNL A   1      40.788  30.147  32.703  1.00  0.00     0.167 HD
ATOM     56  C   UNL A   1      42.104  30.449  35.187  1.00  0.00     0.074 A 
ATOM     57  C   UNL A   1      42.429  30.940  36.510  1.00  0.00     0.031 C 
ATOM     58  C   UNL A   1      42.725  29.407  34.584  1.00  0.00     0.037 A 
BRANCH  45  59
ATOM     59  C   UNL A   1      40.423  27.979  29.043  1.00  0.00     0.064 A 
ATOM     60  C   UNL A   1      39.659  26.804  29.015  1.00  0.00     0.173 A 
ATOM     61  C   UNL A   1      41.175  28.301  27.901  1.00  0.00     0.173 A 
ATOM     62  F   UNL A   1      38.927  26.448  30.082  1.00  0.00    -0.203 F 
ATOM     63  C   UNL A   1      39.663  25.973  27.897  1.00  0.00     0.198 A 
ATOM     64  C   UNL A   1      41.152  27.483  26.775  1.00  0.00     0.198 A 
ATOM     65  F   UNL A   1      41.916  29.419  27.872  1.00  0.00    -0.203 F 
ATOM     66  F   UNL A   1      38.954  24.836  27.908  1.00  0.00    -0.200 F 
ATOM     67  C   UNL A   1      40.401  26.319  26.775  1.00  0.00     0.200 A 
ATOM     68  F   UNL A   1      41.853  27.827  25.685  1.00  0.00    -0.200 F 
ATOM     69  F   UNL A   1      40.391  25.526  25.694  1.00  0.00    -0.200 F 
ENDBRANCH  45  59
BRANCH  46  70
ATOM     70  C   UNL A   1      39.628  34.066  36.893  1.00  0.00     0.064 A 
ATOM     71  C   UNL A   1      40.285  35.299  37.001  1.00  0.00     0.173 A 
ATOM     72  C   UNL A   1      38.835  33.654  37.975  1.00  0.00     0.173 A 
ATOM     73  F   UNL A   1      41.073  35.728  36.004  1.00  0.00    -0.203 F 
ATOM     74  C   UNL A   1      40.180  36.074  38.156  1.00  0.00     0.198 A 
ATOM     75  C   UNL A   1      38.703  34.444  39.114  1.00  0.00     0.198 A 
ATOM     76  F   UNL A   1      38.180  32.484  37.921  1.00  0.00    -0.203 F 
ATOM     77  F   UNL A   1      40.865  37.220  38.255  1.00  0.00    -0.200 F 
ATOM     78  C   UNL A   1      39.384  35.648  39.209  1.00  0.00     0.200 A 
ATOM     79  F   UNL A   1      37.919  34.037  40.122  1.00  0.00    -0.200 F 
ATOM     80  F   UNL A   1      39.282  36.392  40.318  1.00  0.00    -0.200 F 
ENDBRANCH  46  70
BRANCH  58  81
ATOM     81  C   UNL A   1      43.844  28.741  35.334  1.00  0.00     0.064 A 
ATOM     82  C   UNL A   1      45.179  29.145  35.182  1.00  0.00     0.173 A 
ATOM     83  C   UNL A   1      43.572  27.709  36.246  1.00  0.00     0.173 A 
ATOM     84  F   UNL A   1      45.495  30.116  34.312  1.00  0.00    -0.203 F 
ATOM     85  C   UNL A   1      46.202  28.524  35.895  1.00  0.00     0.198 A 
ATOM     86  C   UNL A   1      44.593  27.112  36.982  1.00  0.00     0.198 A 
ATOM     87  F   UNL A   1      42.312  27.288  36.435  1.00  0.00    -0.203 F 
ATOM     88  F   UNL A   1      47.475  28.892  35.695  1.00  0.00    -0.200 F 
ATOM     89  C   UNL A   1      45.907  27.514  36.799  1.00  0.00     0.200 A 
ATOM     90  F   UNL A   1      44.305  26.148  37.866  1.00  0.00    -0.200 F 
ATOM     91  F   UNL A   1      46.892  26.924  37.490  1.00  0.00    -0.200 F 
ENDBRANCH  58  81
ENDBRANCH  32  33
ENDBRANCH  24  27
ENDBRANCH  22  23
ENDBRANCH  21  22
ENDBRANCH   1  21
TORSDOF 13
ENDMDL
