MODEL 1
REMARK VINA RESULT:     -13.5      0.000      0.000
REMARK SMILES C[C@@]1(C(=O)c2ccccc2N)[C@@H](C(=O)NCCCNC(=O)c2ccc(-c3c4nc(c(-c5c(F)c(F)c(F)c(F)c5F)c5ccc([nH]5)c(-c5c(F)c(F)c(F)c(F)c5F)c5nc(c(-c6c(F)c(F)c(F)c(F)c6F)c6ccc3[nH]6)C=C5)C=C4)cc2)[C@@H]1C(=O)N1CCOCC1
REMARK SMILES IDX 16 1 15 2 13 3 14 4 12 6 1 7 2 8 85 9 3 10 4 11 5 12 6 13
REMARK SMILES IDX 10 14 7 15 9 16 8 17 11 18 86 21 87 22 88 23 89 24 93 25
REMARK SMILES IDX 90 26 92 27 91 28 17 29 18 30 19 31 20 32 21 34 22 35 23 36
REMARK SMILES IDX 84 37 24 38 83 39 25 40 26 41 27 42 77 43 28 44 82 45 76 46
REMARK SMILES IDX 78 47 29 48 81 49 75 50 74 51 30 53 62 54 42 55 61 56 43 57
REMARK SMILES IDX 46 58 60 59 79 60 44 61 45 62 59 64 80 65 47 66 31 67 32 68
REMARK SMILES IDX 40 69 33 70 34 71 38 72 41 73 35 74 36 75 39 76 37 77 63 78
REMARK SMILES IDX 64 79 72 80 65 81 66 82 70 83 73 84 67 85 68 86 71 87 69 88
REMARK SMILES IDX 48 89 49 90 57 91 50 92 51 93 55 94 58 95 52 96 53 97 56 98
REMARK SMILES IDX 54 99
REMARK H PARENT 15 5 11 19 11 20 19 33 78 52 46 63
REMARK Flexibility Score: inf
ROOT
ATOM      1  C   UNL A   1      36.919  23.354  25.881  1.00  0.00     0.117 C 
ENDROOT
BRANCH   1   2
ATOM      2  N   UNL A   1      36.075  22.497  26.686  1.00  0.00    -0.356 N 
ATOM      3  C   UNL A   1      34.726  22.516  26.887  1.00  0.00     0.224 C 
ATOM      4  O   UNL A   1      34.163  21.490  27.261  1.00  0.00    -0.275 OA
ATOM      5  H   UNL A   1      36.554  21.783  27.168  1.00  0.00     0.163 HD
BRANCH   3   6
ATOM      6  C   UNL A   1      33.927  23.731  26.540  1.00  0.00     0.106 C 
ATOM      7  C   UNL A   1      34.593  23.514  23.791  1.00  0.00     0.022 C 
ATOM      8  C   UNL A   1      33.541  23.322  24.893  1.00  0.00     0.056 C 
ATOM      9  C   UNL A   1      33.167  24.584  25.585  1.00  0.00     0.106 C 
BRANCH   8  10
ATOM     10  C   UNL A   1      32.866  21.897  24.744  1.00  0.00     0.172 C 
ATOM     11  O   UNL A   1      31.796  21.667  25.300  1.00  0.00    -0.293 OA
BRANCH  10  12
ATOM     12  C   UNL A   1      33.470  20.789  23.946  1.00  0.00     0.041 A 
ATOM     13  C   UNL A   1      34.638  19.719  24.614  1.00  0.00     0.014 A 
ATOM     14  C   UNL A   1      32.243  20.128  22.971  1.00  0.00     0.042 A 
ATOM     15  C   UNL A   1      34.633  18.000  24.359  1.00  0.00     0.001 A 
ATOM     16  C   UNL A   1      32.115  18.165  22.775  1.00  0.00     0.026 A 
ATOM     17  C   UNL A   1      33.414  17.178  23.453  1.00  0.00     0.002 A 
BRANCH  14  18
ATOM     18  N   UNL A   1      32.011  21.232  21.960  1.00  0.00    -0.398 N 
ATOM     19  H   UNL A   1      32.572  22.040  21.976  1.00  0.00     0.156 HD
ATOM     20  H   UNL A   1      31.298  21.141  21.287  1.00  0.00     0.156 HD
ENDBRANCH  14  18
ENDBRANCH  10  12
ENDBRANCH   8  10
BRANCH   9  21
ATOM     21  C   UNL A   1      31.893  25.478  25.742  1.00  0.00     0.227 C 
ATOM     22  O   UNL A   1      31.337  25.437  26.842  1.00  0.00    -0.275 OA
ATOM     23  N   UNL A   1      31.507  26.508  24.844  1.00  0.00    -0.338 N 
ATOM     24  C   UNL A   1      31.854  26.178  23.322  1.00  0.00     0.148 C 
ATOM     25  C   UNL A   1      31.505  28.203  25.488  1.00  0.00     0.148 C 
ATOM     26  C   UNL A   1      33.358  27.015  22.569  1.00  0.00     0.181 C 
ATOM     27  C   UNL A   1      32.964  29.387  24.950  1.00  0.00     0.181 C 
ATOM     28  O   UNL A   1      33.993  28.731  23.507  1.00  0.00    -0.378 OA
ENDBRANCH   9  21
ENDBRANCH   3   6
ENDBRANCH   1   2
BRANCH   1  29
ATOM     29  C   UNL A   1      37.959  22.543  25.103  1.00  0.00     0.042 C 
BRANCH  29  30
ATOM     30  C   UNL A   1      38.895  21.761  26.023  1.00  0.00     0.118 C 
BRANCH  30  31
ATOM     31  N   UNL A   1      40.279  21.832  25.596  1.00  0.00    -0.352 N 
ATOM     32  C   UNL A   1      41.321  22.700  25.788  1.00  0.00     0.251 C 
ATOM     33  H   UNL A   1      40.532  21.069  25.027  1.00  0.00     0.163 HD
ATOM     34  O   UNL A   1      42.373  22.383  25.222  1.00  0.00    -0.269 OA
BRANCH  32  35
ATOM     35  C   UNL A   1      41.303  23.964  26.594  1.00  0.00     0.039 A 
ATOM     36  C   UNL A   1      40.471  23.962  27.735  1.00  0.00     0.014 A 
ATOM     37  C   UNL A   1      42.029  25.126  26.336  1.00  0.00     0.014 A 
ATOM     38  C   UNL A   1      40.357  25.079  28.576  1.00  0.00     0.010 A 
ATOM     39  C   UNL A   1      41.925  26.246  27.181  1.00  0.00     0.010 A 
ATOM     40  C   UNL A   1      41.089  26.237  28.308  1.00  0.00    -0.014 A 
BRANCH  40  41
ATOM     41  C   UNL A   1      41.013  27.440  29.183  1.00  0.00     0.031 A 
ATOM     42  C   UNL A   1      42.008  27.631  30.297  1.00  0.00     0.074 A 
ATOM     43  C   UNL A   1      40.009  28.327  29.038  1.00  0.00     0.049 A 
ATOM     44  N   UNL A   1      41.998  28.490  31.286  1.00  0.00    -0.248 NA
ATOM     45  C   UNL A   1      43.155  26.713  30.310  1.00  0.00     0.031 C 
ATOM     46  C   UNL A   1      38.973  28.272  28.008  1.00  0.00     0.029 A 
ATOM     47  N   UNL A   1      39.686  29.440  29.777  1.00  0.00    -0.354 N 
ATOM     48  C   UNL A   1      43.103  28.182  32.068  1.00  0.00     0.074 A 
ATOM     49  C   UNL A   1      43.759  27.054  31.440  1.00  0.00     0.031 C 
ATOM     50  C   UNL A   1      38.134  29.306  28.175  1.00  0.00     0.029 A 
ATOM     51  C   UNL A   1      38.546  30.073  29.348  1.00  0.00     0.049 A 
ATOM     52  H   UNL A   1      40.221  29.753  30.542  1.00  0.00     0.167 HD
ATOM     53  C   UNL A   1      43.534  28.786  33.204  1.00  0.00     0.037 A 
ATOM     54  C   UNL A   1      37.895  31.138  29.853  1.00  0.00     0.037 A 
ATOM     55  C   UNL A   1      42.921  29.945  33.799  1.00  0.00     0.049 A 
ATOM     56  C   UNL A   1      38.408  31.810  31.096  1.00  0.00     0.074 A 
ATOM     57  C   UNL A   1      43.316  30.653  34.921  1.00  0.00     0.029 A 
ATOM     58  N   UNL A   1      41.789  30.578  33.307  1.00  0.00    -0.354 N 
ATOM     59  N   UNL A   1      39.448  31.506  31.831  1.00  0.00    -0.248 NA
ATOM     60  C   UNL A   1      37.649  32.972  31.583  1.00  0.00     0.031 C 
ATOM     61  C   UNL A   1      42.414  31.705  35.120  1.00  0.00     0.029 A 
ATOM     62  C   UNL A   1      41.474  31.669  34.103  1.00  0.00     0.049 A 
ATOM     63  H   UNL A   1      41.284  30.295  32.511  1.00  0.00     0.167 HD
ATOM     64  C   UNL A   1      39.485  32.448  32.849  1.00  0.00     0.074 A 
ATOM     65  C   UNL A   1      38.365  33.341  32.636  1.00  0.00     0.031 C 
ATOM     66  C   UNL A   1      40.368  32.560  33.871  1.00  0.00     0.037 A 
BRANCH  53  67
ATOM     67  C   UNL A   1      44.729  28.191  33.889  1.00  0.00     0.064 A 
ATOM     68  C   UNL A   1      44.601  27.159  34.830  1.00  0.00     0.173 A 
ATOM     69  C   UNL A   1      46.021  28.642  33.580  1.00  0.00     0.173 A 
ATOM     70  F   UNL A   1      43.386  26.701  35.168  1.00  0.00    -0.203 F 
ATOM     71  C   UNL A   1      45.721  26.624  35.462  1.00  0.00     0.198 A 
ATOM     72  C   UNL A   1      47.140  28.087  34.194  1.00  0.00     0.198 A 
ATOM     73  F   UNL A   1      46.199  29.621  32.680  1.00  0.00    -0.203 F 
ATOM     74  F   UNL A   1      45.571  25.675  36.397  1.00  0.00    -0.200 F 
ATOM     75  C   UNL A   1      46.989  27.084  35.141  1.00  0.00     0.200 A 
ATOM     76  F   UNL A   1      48.366  28.526  33.876  1.00  0.00    -0.200 F 
ATOM     77  F   UNL A   1      48.065  26.570  35.752  1.00  0.00    -0.200 F 
ENDBRANCH  53  67
BRANCH  54  78
ATOM     78  C   UNL A   1      36.686  31.655  29.163  1.00  0.00     0.064 A 
ATOM     79  C   UNL A   1      35.544  30.852  29.037  1.00  0.00     0.173 A 
ATOM     80  C   UNL A   1      36.644  32.948  28.623  1.00  0.00     0.173 A 
ATOM     81  F   UNL A   1      35.551  29.600  29.516  1.00  0.00    -0.203 F 
ATOM     82  C   UNL A   1      34.404  31.322  28.389  1.00  0.00     0.198 A 
ATOM     83  C   UNL A   1      35.496  33.424  27.993  1.00  0.00     0.198 A 
ATOM     84  F   UNL A   1      37.715  33.749  28.717  1.00  0.00    -0.203 F 
ATOM     85  F   UNL A   1      33.336  30.524  28.254  1.00  0.00    -0.200 F 
ATOM     86  C   UNL A   1      34.379  32.610  27.873  1.00  0.00     0.200 A 
ATOM     87  F   UNL A   1      35.472  34.669  27.499  1.00  0.00    -0.200 F 
ATOM     88  F   UNL A   1      33.281  33.062  27.252  1.00  0.00    -0.200 F 
ENDBRANCH  54  78
BRANCH  66  89
ATOM     89  C   UNL A   1      40.189  33.714  34.810  1.00  0.00     0.064 A 
ATOM     90  C   UNL A   1      39.439  33.592  35.988  1.00  0.00     0.173 A 
ATOM     91  C   UNL A   1      40.806  34.946  34.546  1.00  0.00     0.173 A 
ATOM     92  F   UNL A   1      38.817  32.439  36.275  1.00  0.00    -0.203 F 
ATOM     93  C   UNL A   1      39.300  34.668  36.861  1.00  0.00     0.198 A 
ATOM     94  C   UNL A   1      40.681  36.013  35.430  1.00  0.00     0.198 A 
ATOM     95  F   UNL A   1      41.536  35.110  33.431  1.00  0.00    -0.203 F 
ATOM     96  F   UNL A   1      38.552  34.541  37.965  1.00  0.00    -0.200 F 
ATOM     97  C   UNL A   1      39.925  35.875  36.584  1.00  0.00     0.200 A 
ATOM     98  F   UNL A   1      41.291  37.177  35.164  1.00  0.00    -0.200 F 
ATOM     99  F   UNL A   1      39.793  36.908  37.428  1.00  0.00    -0.200 F 
ENDBRANCH  66  89
ENDBRANCH  40  41
ENDBRANCH  32  35
ENDBRANCH  30  31
ENDBRANCH  29  30
ENDBRANCH   1  29
TORSDOF 14
ENDMDL
MODEL 2
REMARK VINA RESULT:     -13.3      4.597      9.720
REMARK SMILES C[C@@]1(C(=O)c2ccccc2N)[C@@H](C(=O)NCCCNC(=O)c2ccc(-c3c4nc(c(-c5c(F)c(F)c(F)c(F)c5F)c5ccc([nH]5)c(-c5c(F)c(F)c(F)c(F)c5F)c5nc(c(-c6c(F)c(F)c(F)c(F)c6F)c6ccc3[nH]6)C=C5)C=C4)cc2)[C@@H]1C(=O)N1CCOCC1
REMARK SMILES IDX 16 1 15 2 13 3 14 4 12 6 1 7 2 8 85 9 3 10 4 11 5 12 6 13
REMARK SMILES IDX 10 14 7 15 9 16 8 17 11 18 86 21 87 22 88 23 89 24 93 25
REMARK SMILES IDX 90 26 92 27 91 28 17 29 18 30 19 31 20 32 21 34 22 35 23 36
REMARK SMILES IDX 84 37 24 38 83 39 25 40 26 41 27 42 77 43 28 44 82 45 76 46
REMARK SMILES IDX 78 47 29 48 81 49 75 50 74 51 30 53 62 54 42 55 61 56 43 57
REMARK SMILES IDX 46 58 60 59 79 60 44 61 45 62 59 64 80 65 47 66 31 67 32 68
REMARK SMILES IDX 40 69 33 70 34 71 38 72 41 73 35 74 36 75 39 76 37 77 63 78
REMARK SMILES IDX 64 79 72 80 65 81 66 82 70 83 73 84 67 85 68 86 71 87 69 88
REMARK SMILES IDX 48 89 49 90 57 91 50 92 51 93 55 94 58 95 52 96 53 97 56 98
REMARK SMILES IDX 54 99
REMARK H PARENT 15 5 11 19 11 20 19 33 78 52 46 63
REMARK Flexibility Score: inf
ROOT
ATOM      1  C   UNL A   1      34.074  28.627  26.619  1.00  0.00     0.117 C 
ENDROOT
BRANCH   1   2
ATOM      2  N   UNL A   1      33.984  29.066  25.243  1.00  0.00    -0.356 N 
ATOM      3  C   UNL A   1      33.723  28.364  24.103  1.00  0.00     0.224 C 
ATOM      4  O   UNL A   1      33.296  28.961  23.118  1.00  0.00    -0.275 OA
ATOM      5  H   UNL A   1      34.137  30.031  25.108  1.00  0.00     0.163 HD
BRANCH   3   6
ATOM      6  C   UNL A   1      33.841  26.874  24.090  1.00  0.00     0.106 C 
ATOM      7  C   UNL A   1      31.720  26.585  25.952  1.00  0.00     0.022 C 
ATOM      8  C   UNL A   1      32.193  26.484  24.495  1.00  0.00     0.056 C 
ATOM      9  C   UNL A   1      33.293  25.504  24.293  1.00  0.00     0.106 C 
BRANCH   8  10
ATOM     10  C   UNL A   1      31.135  27.174  23.540  1.00  0.00     0.172 C 
ATOM     11  O   UNL A   1      31.161  26.948  22.335  1.00  0.00    -0.293 OA
BRANCH  10  12
ATOM     12  C   UNL A   1      30.079  28.108  24.036  1.00  0.00     0.041 A 
ATOM     13  C   UNL A   1      30.352  29.801  24.165  1.00  0.00     0.014 A 
ATOM     14  C   UNL A   1      28.589  27.581  23.406  1.00  0.00     0.042 A 
ATOM     15  C   UNL A   1      29.195  31.006  23.682  1.00  0.00     0.001 A 
ATOM     16  C   UNL A   1      27.307  28.916  22.711  1.00  0.00     0.026 A 
ATOM     17  C   UNL A   1      27.672  30.626  22.963  1.00  0.00     0.002 A 
BRANCH  14  18
ATOM     18  N   UNL A   1      28.350  26.303  24.183  1.00  0.00    -0.398 N 
ATOM     19  H   UNL A   1      27.705  26.293  24.927  1.00  0.00     0.156 HD
ATOM     20  H   UNL A   1      28.840  25.484  23.944  1.00  0.00     0.156 HD
ENDBRANCH  14  18
ENDBRANCH  10  12
ENDBRANCH   8  10
BRANCH   9  21
ATOM     21  C   UNL A   1      33.508  24.152  23.535  1.00  0.00     0.227 C 
ATOM     22  O   UNL A   1      34.130  24.221  22.473  1.00  0.00    -0.275 OA
ATOM     23  N   UNL A   1      33.295  22.864  24.095  1.00  0.00    -0.338 N 
ATOM     24  C   UNL A   1      32.074  22.818  25.121  1.00  0.00     0.148 C 
ATOM     25  C   UNL A   1      34.749  21.795  24.275  1.00  0.00     0.148 C 
ATOM     26  C   UNL A   1      32.477  22.805  26.956  1.00  0.00     0.181 C 
ATOM     27  C   UNL A   1      35.497  21.565  26.067  1.00  0.00     0.181 C 
ATOM     28  O   UNL A   1      34.372  22.180  27.454  1.00  0.00    -0.378 OA
ENDBRANCH   9  21
ENDBRANCH   3   6
ENDBRANCH   1   2
BRANCH   1  29
ATOM     29  C   UNL A   1      33.254  29.528  27.548  1.00  0.00     0.042 C 
BRANCH  29  30
ATOM     30  C   UNL A   1      33.672  30.995  27.453  1.00  0.00     0.118 C 
BRANCH  30  31
ATOM     31  N   UNL A   1      33.799  31.620  28.755  1.00  0.00    -0.352 N 
ATOM     32  C   UNL A   1      34.765  31.681  29.724  1.00  0.00     0.251 C 
ATOM     33  H   UNL A   1      32.992  32.126  29.004  1.00  0.00     0.163 HD
ATOM     34  O   UNL A   1      34.460  32.340  30.722  1.00  0.00    -0.269 OA
BRANCH  32  35
ATOM     35  C   UNL A   1      36.118  31.034  29.687  1.00  0.00     0.039 A 
ATOM     36  C   UNL A   1      36.827  31.147  28.472  1.00  0.00     0.014 A 
ATOM     37  C   UNL A   1      36.741  30.349  30.729  1.00  0.00     0.014 A 
ATOM     38  C   UNL A   1      38.102  30.586  28.300  1.00  0.00     0.010 A 
ATOM     39  C   UNL A   1      38.022  29.793  30.564  1.00  0.00     0.010 A 
ATOM     40  C   UNL A   1      38.717  29.903  29.350  1.00  0.00    -0.014 A 
BRANCH  40  41
ATOM     41  C   UNL A   1      40.076  29.308  29.218  1.00  0.00     0.031 A 
ATOM     42  C   UNL A   1      41.300  30.164  29.406  1.00  0.00     0.074 A 
ATOM     43  C   UNL A   1      40.224  28.019  28.853  1.00  0.00     0.049 A 
ATOM     44  N   UNL A   1      42.554  29.895  29.140  1.00  0.00    -0.248 NA
ATOM     45  C   UNL A   1      41.075  31.514  29.942  1.00  0.00     0.031 C 
ATOM     46  C   UNL A   1      39.133  27.071  28.634  1.00  0.00     0.029 A 
ATOM     47  N   UNL A   1      41.357  27.292  28.580  1.00  0.00    -0.354 N 
ATOM     48  C   UNL A   1      43.260  31.057  29.425  1.00  0.00     0.074 A 
ATOM     49  C   UNL A   1      42.292  32.034  29.880  1.00  0.00     0.031 C 
ATOM     50  C   UNL A   1      39.649  25.887  28.268  1.00  0.00     0.029 A 
ATOM     51  C   UNL A   1      41.102  26.003  28.184  1.00  0.00     0.049 A 
ATOM     52  H   UNL A   1      42.267  27.661  28.661  1.00  0.00     0.167 HD
ATOM     53  C   UNL A   1      44.593  31.288  29.319  1.00  0.00     0.037 A 
ATOM     54  C   UNL A   1      41.941  25.030  27.780  1.00  0.00     0.037 A 
ATOM     55  C   UNL A   1      45.566  30.303  28.925  1.00  0.00     0.049 A 
ATOM     56  C   UNL A   1      43.418  25.299  27.699  1.00  0.00     0.074 A 
ATOM     57  C   UNL A   1      46.942  30.433  28.837  1.00  0.00     0.029 A 
ATOM     58  N   UNL A   1      45.266  28.996  28.570  1.00  0.00    -0.354 N 
ATOM     59  N   UNL A   1      44.072  26.403  27.963  1.00  0.00    -0.248 NA
ATOM     60  C   UNL A   1      44.272  24.186  27.258  1.00  0.00     0.031 C 
ATOM     61  C   UNL A   1      47.474  29.210  28.412  1.00  0.00     0.029 A 
ATOM     62  C   UNL A   1      46.431  28.310  28.265  1.00  0.00     0.049 A 
ATOM     63  H   UNL A   1      44.360  28.613  28.541  1.00  0.00     0.167 HD
ATOM     64  C   UNL A   1      45.412  26.113  27.745  1.00  0.00     0.074 A 
ATOM     65  C   UNL A   1      45.480  24.727  27.332  1.00  0.00     0.031 C 
ATOM     66  C   UNL A   1      46.489  26.926  27.873  1.00  0.00     0.037 A 
BRANCH  53  67
ATOM     67  C   UNL A   1      45.078  32.674  29.625  1.00  0.00     0.064 A 
ATOM     68  C   UNL A   1      45.491  33.044  30.913  1.00  0.00     0.173 A 
ATOM     69  C   UNL A   1      45.155  33.639  28.608  1.00  0.00     0.173 A 
ATOM     70  F   UNL A   1      45.425  32.161  31.921  1.00  0.00    -0.203 F 
ATOM     71  C   UNL A   1      45.931  34.338  31.180  1.00  0.00     0.198 A 
ATOM     72  C   UNL A   1      45.620  34.924  28.873  1.00  0.00     0.198 A 
ATOM     73  F   UNL A   1      44.781  33.334  27.356  1.00  0.00    -0.203 F 
ATOM     74  F   UNL A   1      46.271  34.683  32.430  1.00  0.00    -0.200 F 
ATOM     75  C   UNL A   1      46.000  35.275  30.161  1.00  0.00     0.200 A 
ATOM     76  F   UNL A   1      45.696  35.826  27.885  1.00  0.00    -0.200 F 
ATOM     77  F   UNL A   1      46.421  36.520  30.420  1.00  0.00    -0.200 F 
ENDBRANCH  53  67
BRANCH  54  78
ATOM     78  C   UNL A   1      41.402  23.690  27.439  1.00  0.00     0.064 A 
ATOM     79  C   UNL A   1      41.866  22.547  28.104  1.00  0.00     0.173 A 
ATOM     80  C   UNL A   1      40.419  23.523  26.452  1.00  0.00     0.173 A 
ATOM     81  F   UNL A   1      42.824  22.659  29.036  1.00  0.00    -0.203 F 
ATOM     82  C   UNL A   1      41.371  21.284  27.792  1.00  0.00     0.198 A 
ATOM     83  C   UNL A   1      39.911  22.260  26.155  1.00  0.00     0.198 A 
ATOM     84  F   UNL A   1      39.949  24.587  25.787  1.00  0.00    -0.203 F 
ATOM     85  F   UNL A   1      41.854  20.203  28.422  1.00  0.00    -0.200 F 
ATOM     86  C   UNL A   1      40.390  21.141  26.822  1.00  0.00     0.200 A 
ATOM     87  F   UNL A   1      38.960  22.125  25.221  1.00  0.00    -0.200 F 
ATOM     88  F   UNL A   1      39.912  19.925  26.524  1.00  0.00    -0.200 F 
ENDBRANCH  54  78
BRANCH  66  89
ATOM     89  C   UNL A   1      47.837  26.327  27.610  1.00  0.00     0.064 A 
ATOM     90  C   UNL A   1      48.446  26.415  26.351  1.00  0.00     0.173 A 
ATOM     91  C   UNL A   1      48.544  25.690  28.642  1.00  0.00     0.173 A 
ATOM     92  F   UNL A   1      47.803  26.999  25.329  1.00  0.00    -0.203 F 
ATOM     93  C   UNL A   1      49.709  25.871  26.129  1.00  0.00     0.198 A 
ATOM     94  C   UNL A   1      49.813  25.166  28.421  1.00  0.00     0.198 A 
ATOM     95  F   UNL A   1      48.002  25.584  29.865  1.00  0.00    -0.203 F 
ATOM     96  F   UNL A   1      50.259  25.936  24.909  1.00  0.00    -0.200 F 
ATOM     97  C   UNL A   1      50.393  25.252  27.165  1.00  0.00     0.200 A 
ATOM     98  F   UNL A   1      50.476  24.574  29.425  1.00  0.00    -0.200 F 
ATOM     99  F   UNL A   1      51.611  24.734  26.950  1.00  0.00    -0.200 F 
ENDBRANCH  66  89
ENDBRANCH  40  41
ENDBRANCH  32  35
ENDBRANCH  30  31
ENDBRANCH  29  30
ENDBRANCH   1  29
TORSDOF 14
ENDMDL
MODEL 3
REMARK VINA RESULT:     -13.2      2.842      8.386
REMARK SMILES C[C@@]1(C(=O)c2ccccc2N)[C@@H](C(=O)NCCCNC(=O)c2ccc(-c3c4nc(c(-c5c(F)c(F)c(F)c(F)c5F)c5ccc([nH]5)c(-c5c(F)c(F)c(F)c(F)c5F)c5nc(c(-c6c(F)c(F)c(F)c(F)c6F)c6ccc3[nH]6)C=C5)C=C4)cc2)[C@@H]1C(=O)N1CCOCC1
REMARK SMILES IDX 16 1 15 2 13 3 14 4 12 6 1 7 2 8 85 9 3 10 4 11 5 12 6 13
REMARK SMILES IDX 10 14 7 15 9 16 8 17 11 18 86 21 87 22 88 23 89 24 93 25
REMARK SMILES IDX 90 26 92 27 91 28 17 29 18 30 19 31 20 32 21 34 22 35 23 36
REMARK SMILES IDX 84 37 24 38 83 39 25 40 26 41 27 42 77 43 28 44 82 45 76 46
REMARK SMILES IDX 78 47 29 48 81 49 75 50 74 51 30 53 62 54 42 55 61 56 43 57
REMARK SMILES IDX 46 58 60 59 79 60 44 61 45 62 59 64 80 65 47 66 31 67 32 68
REMARK SMILES IDX 40 69 33 70 34 71 38 72 41 73 35 74 36 75 39 76 37 77 63 78
REMARK SMILES IDX 64 79 72 80 65 81 66 82 70 83 73 84 67 85 68 86 71 87 69 88
REMARK SMILES IDX 48 89 49 90 57 91 50 92 51 93 55 94 58 95 52 96 53 97 56 98
REMARK SMILES IDX 54 99
REMARK H PARENT 15 5 11 19 11 20 19 33 78 52 46 63
REMARK Flexibility Score: inf
ROOT
ATOM      1  C   UNL A   1      31.990  27.825  27.247  1.00  0.00     0.117 C 
ENDROOT
BRANCH   1   2
ATOM      2  N   UNL A   1      30.731  27.247  26.827  1.00  0.00    -0.356 N 
ATOM      3  C   UNL A   1      30.459  26.047  26.238  1.00  0.00     0.224 C 
ATOM      4  O   UNL A   1      29.327  25.578  26.332  1.00  0.00    -0.275 OA
ATOM      5  H   UNL A   1      29.942  27.813  26.994  1.00  0.00     0.163 HD
BRANCH   3   6
ATOM      6  C   UNL A   1      31.551  25.257  25.592  1.00  0.00     0.106 C 
ATOM      7  C   UNL A   1      30.076  24.988  23.183  1.00  0.00     0.022 C 
ATOM      8  C   UNL A   1      31.224  25.676  23.934  1.00  0.00     0.056 C 
ATOM      9  C   UNL A   1      32.278  24.737  24.401  1.00  0.00     0.106 C 
BRANCH   8  10
ATOM     10  C   UNL A   1      31.164  27.239  23.685  1.00  0.00     0.172 C 
ATOM     11  O   UNL A   1      32.087  27.954  24.062  1.00  0.00    -0.293 OA
BRANCH  10  12
ATOM     12  C   UNL A   1      30.019  27.911  23.001  1.00  0.00     0.041 A 
ATOM     13  C   UNL A   1      28.386  27.482  23.327  1.00  0.00     0.014 A 
ATOM     14  C   UNL A   1      30.401  29.562  22.859  1.00  0.00     0.042 A 
ATOM     15  C   UNL A   1      27.104  28.639  23.529  1.00  0.00     0.001 A 
ATOM     16  C   UNL A   1      29.005  30.913  23.225  1.00  0.00     0.026 A 
ATOM     17  C   UNL A   1      27.351  30.347  23.483  1.00  0.00     0.002 A 
BRANCH  14  18
ATOM     18  N   UNL A   1      31.500  29.545  21.816  1.00  0.00    -0.398 N 
ATOM     19  H   UNL A   1      32.125  30.303  21.748  1.00  0.00     0.156 HD
ATOM     20  H   UNL A   1      31.590  28.777  21.209  1.00  0.00     0.156 HD
ENDBRANCH  14  18
ENDBRANCH  10  12
ENDBRANCH   8  10
BRANCH   9  21
ATOM     21  C   UNL A   1      33.793  24.470  24.115  1.00  0.00     0.227 C 
ATOM     22  O   UNL A   1      34.592  25.145  24.768  1.00  0.00    -0.275 OA
ATOM     23  N   UNL A   1      34.301  23.356  23.396  1.00  0.00    -0.338 N 
ATOM     24  C   UNL A   1      33.349  22.892  22.202  1.00  0.00     0.148 C 
ATOM     25  C   UNL A   1      35.338  22.186  24.314  1.00  0.00     0.148 C 
ATOM     26  C   UNL A   1      32.284  21.369  22.478  1.00  0.00     0.181 C 
ATOM     27  C   UNL A   1      34.548  20.472  24.827  1.00  0.00     0.181 C 
ATOM     28  O   UNL A   1      32.915  20.089  23.958  1.00  0.00    -0.378 OA
ENDBRANCH   9  21
ENDBRANCH   3   6
ENDBRANCH   1   2
BRANCH   1  29
ATOM     29  C   UNL A   1      31.855  29.327  27.510  1.00  0.00     0.042 C 
BRANCH  29  30
ATOM     30  C   UNL A   1      32.399  30.171  26.357  1.00  0.00     0.118 C 
BRANCH  30  31
ATOM     31  N   UNL A   1      32.347  31.592  26.639  1.00  0.00    -0.352 N 
ATOM     32  C   UNL A   1      33.131  32.486  27.319  1.00  0.00     0.251 C 
ATOM     33  H   UNL A   1      31.554  32.021  26.245  1.00  0.00     0.163 HD
ATOM     34  O   UNL A   1      32.711  33.648  27.324  1.00  0.00    -0.269 OA
BRANCH  32  35
ATOM     35  C   UNL A   1      34.412  32.192  28.043  1.00  0.00     0.039 A 
ATOM     36  C   UNL A   1      34.457  30.974  28.754  1.00  0.00     0.014 A 
ATOM     37  C   UNL A   1      35.554  32.992  28.071  1.00  0.00     0.014 A 
ATOM     38  C   UNL A   1      35.592  30.576  29.477  1.00  0.00     0.010 A 
ATOM     39  C   UNL A   1      36.697  32.592  28.786  1.00  0.00     0.010 A 
ATOM     40  C   UNL A   1      36.731  31.383  29.497  1.00  0.00    -0.014 A 
BRANCH  40  41
ATOM     41  C   UNL A   1      37.964  30.992  30.236  1.00  0.00     0.031 A 
ATOM     42  C   UNL A   1      38.970  30.072  29.597  1.00  0.00     0.074 A 
ATOM     43  C   UNL A   1      38.153  31.393  31.508  1.00  0.00     0.049 A 
ATOM     44  N   UNL A   1      39.993  29.455  30.134  1.00  0.00    -0.248 NA
ATOM     45  C   UNL A   1      38.779  29.789  28.168  1.00  0.00     0.031 C 
ATOM     46  C   UNL A   1      37.266  32.282  32.257  1.00  0.00     0.029 A 
ATOM     47  N   UNL A   1      39.149  31.085  32.404  1.00  0.00    -0.354 N 
ATOM     48  C   UNL A   1      40.536  28.672  29.124  1.00  0.00     0.074 A 
ATOM     49  C   UNL A   1      39.725  28.888  27.943  1.00  0.00     0.031 C 
ATOM     50  C   UNL A   1      37.759  32.453  33.494  1.00  0.00     0.029 A 
ATOM     51  C   UNL A   1      38.972  31.653  33.641  1.00  0.00     0.049 A 
ATOM     52  H   UNL A   1      39.916  30.509  32.179  1.00  0.00     0.167 HD
ATOM     53  C   UNL A   1      41.614  27.849  29.174  1.00  0.00     0.037 A 
ATOM     54  C   UNL A   1      39.693  31.529  34.771  1.00  0.00     0.037 A 
ATOM     55  C   UNL A   1      42.460  27.676  30.326  1.00  0.00     0.049 A 
ATOM     56  C   UNL A   1      40.902  30.635  34.795  1.00  0.00     0.074 A 
ATOM     57  C   UNL A   1      43.601  26.902  30.454  1.00  0.00     0.029 A 
ATOM     58  N   UNL A   1      42.265  28.303  31.548  1.00  0.00    -0.354 N 
ATOM     59  N   UNL A   1      41.400  29.894  33.837  1.00  0.00    -0.248 NA
ATOM     60  C   UNL A   1      41.643  30.556  36.062  1.00  0.00     0.031 C 
ATOM     61  C   UNL A   1      44.088  27.046  31.759  1.00  0.00     0.029 A 
ATOM     62  C   UNL A   1      43.266  27.935  32.433  1.00  0.00     0.049 A 
ATOM     63  H   UNL A   1      41.526  28.920  31.755  1.00  0.00     0.167 HD
ATOM     64  C   UNL A   1      42.524  29.282  34.375  1.00  0.00     0.074 A 
ATOM     65  C   UNL A   1      42.639  29.742  35.743  1.00  0.00     0.031 C 
ATOM     66  C   UNL A   1      43.382  28.413  33.786  1.00  0.00     0.037 A 
BRANCH  53  67
ATOM     67  C   UNL A   1      41.934  27.057  27.940  1.00  0.00     0.064 A 
ATOM     68  C   UNL A   1      42.794  27.551  26.950  1.00  0.00     0.173 A 
ATOM     69  C   UNL A   1      41.393  25.775  27.761  1.00  0.00     0.173 A 
ATOM     70  F   UNL A   1      43.328  28.776  27.070  1.00  0.00    -0.203 F 
ATOM     71  C   UNL A   1      43.074  26.805  25.808  1.00  0.00     0.198 A 
ATOM     72  C   UNL A   1      41.695  25.021  26.630  1.00  0.00     0.198 A 
ATOM     73  F   UNL A   1      40.571  25.252  28.683  1.00  0.00    -0.203 F 
ATOM     74  F   UNL A   1      43.858  27.320  24.848  1.00  0.00    -0.200 F 
ATOM     75  C   UNL A   1      42.528  25.541  25.650  1.00  0.00     0.200 A 
ATOM     76  F   UNL A   1      41.175  23.795  26.484  1.00  0.00    -0.200 F 
ATOM     77  F   UNL A   1      42.797  24.826  24.549  1.00  0.00    -0.200 F 
ENDBRANCH  53  67
BRANCH  54  78
ATOM     78  C   UNL A   1      39.301  32.296  35.980  1.00  0.00     0.064 A 
ATOM     79  C   UNL A   1      38.408  31.746  36.910  1.00  0.00     0.173 A 
ATOM     80  C   UNL A   1      39.806  33.579  36.232  1.00  0.00     0.173 A 
ATOM     81  F   UNL A   1      37.880  30.532  36.694  1.00  0.00    -0.203 F 
ATOM     82  C   UNL A   1      38.029  32.455  38.047  1.00  0.00     0.198 A 
ATOM     83  C   UNL A   1      39.441  34.279  37.381  1.00  0.00     0.198 A 
ATOM     84  F   UNL A   1      40.660  34.146  35.369  1.00  0.00    -0.203 F 
ATOM     85  F   UNL A   1      37.149  31.920  38.905  1.00  0.00    -0.200 F 
ATOM     86  C   UNL A   1      38.550  33.719  38.285  1.00  0.00     0.200 A 
ATOM     87  F   UNL A   1      39.949  35.497  37.611  1.00  0.00    -0.200 F 
ATOM     88  F   UNL A   1      38.186  34.399  39.380  1.00  0.00    -0.200 F 
ENDBRANCH  54  78
BRANCH  66  89
ATOM     89  C   UNL A   1      44.546  27.939  34.600  1.00  0.00     0.064 A 
ATOM     90  C   UNL A   1      45.756  28.647  34.634  1.00  0.00     0.173 A 
ATOM     91  C   UNL A   1      44.438  26.781  35.386  1.00  0.00     0.173 A 
ATOM     92  F   UNL A   1      45.912  29.751  33.887  1.00  0.00    -0.203 F 
ATOM     93  C   UNL A   1      46.821  28.204  35.413  1.00  0.00     0.198 A 
ATOM     94  C   UNL A   1      45.498  26.352  36.178  1.00  0.00     0.198 A 
ATOM     95  F   UNL A   1      43.299  26.071  35.388  1.00  0.00    -0.203 F 
ATOM     96  F   UNL A   1      47.980  28.877  35.405  1.00  0.00    -0.200 F 
ATOM     97  C   UNL A   1      46.690  27.061  36.188  1.00  0.00     0.200 A 
ATOM     98  F   UNL A   1      45.368  25.252  36.932  1.00  0.00    -0.200 F 
ATOM     99  F   UNL A   1      47.716  26.639  36.940  1.00  0.00    -0.200 F 
ENDBRANCH  66  89
ENDBRANCH  40  41
ENDBRANCH  32  35
ENDBRANCH  30  31
ENDBRANCH  29  30
ENDBRANCH   1  29
TORSDOF 14
ENDMDL
