MODEL 1
REMARK VINA RESULT:     -13.3      0.000      0.000
REMARK SMILES Cn1cc(Cl)cc1C(=O)N[C@H]1C=C[C@H](C(=O)NCCCNC(=O)c2ccc(-c3c4nc(c(-c5c(F)c(F)c(F)c(F)c5F)c5ccc([nH]5)c(-c5c(F)c(F)c(F)c(F)c5F)c5nc(c(-c6c(F)c(F)c(F)c(F)c6F)c6ccc3[nH]6)C=C5)C=C4)cc2)C1
REMARK SMILES IDX 19 1 18 2 17 3 15 4 16 5 14 7 11 8 12 9 87 10 13 11 10 12
REMARK SMILES IDX 8 13 9 14 7 16 1 17 2 18 3 19 4 20 6 21 5 22 20 23 21 24
REMARK SMILES IDX 22 25 23 27 24 28 25 29 86 30 26 31 85 32 27 33 28 34 29 35
REMARK SMILES IDX 79 36 30 37 84 38 78 39 80 40 31 41 83 42 77 43 76 44 32 46
REMARK SMILES IDX 64 47 44 48 63 49 45 50 48 51 62 52 81 53 46 54 47 55 61 57
REMARK SMILES IDX 82 58 49 59 33 60 34 61 42 62 35 63 36 64 40 65 43 66 37 67
REMARK SMILES IDX 38 68 41 69 39 70 65 71 66 72 74 73 67 74 68 75 72 76 75 77
REMARK SMILES IDX 69 78 70 79 73 80 71 81 50 82 51 83 59 84 52 85 53 86 57 87
REMARK SMILES IDX 60 88 54 89 55 90 58 91 56 92
REMARK H PARENT 17 6 10 15 21 26 80 45 48 56
REMARK Flexibility Score: inf
ROOT
ATOM      1  C   UNL A   1      38.054  21.472  25.350  1.00  0.00     0.042 C 
ENDROOT
BRANCH   1   2
ATOM      2  C   UNL A   1      36.562  21.615  25.667  1.00  0.00     0.117 C 
BRANCH   2   3
ATOM      3  N   UNL A   1      35.776  20.448  25.267  1.00  0.00    -0.356 N 
ATOM      4  C   UNL A   1      34.457  20.368  24.885  1.00  0.00     0.227 C 
ATOM      5  O   UNL A   1      33.985  19.271  24.594  1.00  0.00    -0.274 OA
ATOM      6  H   UNL A   1      36.265  19.593  25.272  1.00  0.00     0.163 HD
BRANCH   4   7
ATOM      7  C   UNL A   1      33.692  21.681  24.749  1.00  0.00     0.103 C 
ATOM      8  C   UNL A   1      31.366  22.418  24.985  1.00  0.00     0.106 C 
ATOM      9  C   UNL A   1      31.833  22.524  23.578  1.00  0.00    -0.006 C 
ATOM     10  C   UNL A   1      32.540  21.839  25.754  1.00  0.00     0.047 C 
ATOM     11  C   UNL A   1      33.065  22.022  23.430  1.00  0.00    -0.016 C 
BRANCH   8  12
ATOM     12  N   UNL A   1      30.684  23.603  25.465  1.00  0.00    -0.345 N 
ATOM     13  C   UNL A   1      30.792  24.937  25.716  1.00  0.00     0.268 C 
ATOM     14  O   UNL A   1      29.809  25.355  26.345  1.00  0.00    -0.268 OA
ATOM     15  H   UNL A   1      29.768  23.334  25.708  1.00  0.00     0.164 HD
BRANCH  13  16
ATOM     16  C   UNL A   1      31.879  25.856  25.421  1.00  0.00     0.108 A 
ATOM     17  C   UNL A   1      31.962  26.176  22.899  1.00  0.00     0.150 C 
ATOM     18  N   UNL A   1      32.402  26.368  24.253  1.00  0.00    -0.345 N 
ATOM     19  C   UNL A   1      33.408  27.274  24.517  1.00  0.00     0.106 A 
ATOM     20  C   UNL A   1      33.449  27.479  25.867  1.00  0.00     0.059 A 
ATOM     21  C   UNL A   1      32.508  26.601  26.432  1.00  0.00     0.054 A 
ATOM     22  Cl  UNL A   1      34.405  28.597  26.706  1.00  0.00    -0.083 Cl
ENDBRANCH  13  16
ENDBRANCH   8  12
ENDBRANCH   4   7
ENDBRANCH   2   3
ENDBRANCH   1   2
BRANCH   1  23
ATOM     23  C   UNL A   1      38.956  22.201  26.332  1.00  0.00     0.118 C 
BRANCH  23  24
ATOM     24  N   UNL A   1      40.377  22.018  26.040  1.00  0.00    -0.352 N 
ATOM     25  C   UNL A   1      41.369  22.976  26.078  1.00  0.00     0.251 C 
ATOM     26  H   UNL A   1      40.657  21.109  25.787  1.00  0.00     0.163 HD
ATOM     27  O   UNL A   1      42.420  22.832  25.460  1.00  0.00    -0.269 OA
BRANCH  25  28
ATOM     28  C   UNL A   1      41.136  24.183  26.881  1.00  0.00     0.039 A 
ATOM     29  C   UNL A   1      41.788  24.383  28.099  1.00  0.00     0.014 A 
ATOM     30  C   UNL A   1      40.317  25.166  26.329  1.00  0.00     0.014 A 
ATOM     31  C   UNL A   1      41.684  25.628  28.714  1.00  0.00     0.010 A 
ATOM     32  C   UNL A   1      40.347  26.433  26.854  1.00  0.00     0.010 A 
ATOM     33  C   UNL A   1      40.985  26.661  28.070  1.00  0.00    -0.014 A 
BRANCH  33  34
ATOM     34  C   UNL A   1      41.002  28.018  28.611  1.00  0.00     0.031 A 
ATOM     35  C   UNL A   1      42.094  28.887  28.091  1.00  0.00     0.074 A 
ATOM     36  C   UNL A   1      39.987  28.529  29.343  1.00  0.00     0.049 A 
ATOM     37  N   UNL A   1      43.089  29.385  28.748  1.00  0.00    -0.248 NA
ATOM     38  C   UNL A   1      42.153  29.153  26.643  1.00  0.00     0.031 C 
ATOM     39  C   UNL A   1      38.686  27.905  29.621  1.00  0.00     0.029 A 
ATOM     40  N   UNL A   1      39.849  29.766  29.902  1.00  0.00    -0.354 N 
ATOM     41  C   UNL A   1      43.776  30.201  27.849  1.00  0.00     0.074 A 
ATOM     42  C   UNL A   1      43.270  29.877  26.543  1.00  0.00     0.031 C 
ATOM     43  C   UNL A   1      37.816  28.840  30.057  1.00  0.00     0.029 A 
ATOM     44  C   UNL A   1      38.551  30.067  30.291  1.00  0.00     0.049 A 
ATOM     45  H   UNL A   1      40.603  30.390  30.018  1.00  0.00     0.167 HD
ATOM     46  C   UNL A   1      44.491  31.272  28.300  1.00  0.00     0.037 A 
ATOM     47  C   UNL A   1      38.095  31.242  30.784  1.00  0.00     0.037 A 
ATOM     48  C   UNL A   1      44.649  31.206  29.730  1.00  0.00     0.049 A 
ATOM     49  C   UNL A   1      39.252  31.979  31.333  1.00  0.00     0.074 A 
ATOM     50  C   UNL A   1      45.458  30.549  30.629  1.00  0.00     0.029 A 
ATOM     51  N   UNL A   1      43.566  31.678  30.419  1.00  0.00    -0.354 N 
ATOM     52  N   UNL A   1      39.944  31.569  32.361  1.00  0.00    -0.248 NA
ATOM     53  C   UNL A   1      39.874  33.031  30.537  1.00  0.00     0.031 C 
ATOM     54  C   UNL A   1      44.743  30.523  31.864  1.00  0.00     0.029 A 
ATOM     55  C   UNL A   1      43.534  31.194  31.697  1.00  0.00     0.049 A 
ATOM     56  H   UNL A   1      42.894  32.292  30.042  1.00  0.00     0.167 HD
ATOM     57  C   UNL A   1      41.228  31.991  32.092  1.00  0.00     0.074 A 
ATOM     58  C   UNL A   1      41.096  33.028  31.079  1.00  0.00     0.031 C 
ATOM     59  C   UNL A   1      42.302  31.232  32.451  1.00  0.00     0.037 A 
BRANCH  46  60
ATOM     60  C   UNL A   1      44.634  32.607  27.593  1.00  0.00     0.064 A 
ATOM     61  C   UNL A   1      45.802  32.858  26.836  1.00  0.00     0.173 A 
ATOM     62  C   UNL A   1      43.856  33.747  27.888  1.00  0.00     0.173 A 
ATOM     63  F   UNL A   1      46.628  31.855  26.503  1.00  0.00    -0.203 F 
ATOM     64  C   UNL A   1      46.195  34.152  26.478  1.00  0.00     0.198 A 
ATOM     65  C   UNL A   1      44.226  35.031  27.486  1.00  0.00     0.198 A 
ATOM     66  F   UNL A   1      42.773  33.687  28.670  1.00  0.00    -0.203 F 
ATOM     67  F   UNL A   1      47.373  34.348  25.869  1.00  0.00    -0.200 F 
ATOM     68  C   UNL A   1      45.410  35.240  26.811  1.00  0.00     0.200 A 
ATOM     69  F   UNL A   1      43.462  36.076  27.836  1.00  0.00    -0.200 F 
ATOM     70  F   UNL A   1      45.812  36.484  26.525  1.00  0.00    -0.200 F 
ENDBRANCH  46  60
BRANCH  47  71
ATOM     71  C   UNL A   1      36.763  31.858  30.609  1.00  0.00     0.064 A 
ATOM     72  C   UNL A   1      35.894  32.026  31.698  1.00  0.00     0.173 A 
ATOM     73  C   UNL A   1      36.441  32.557  29.430  1.00  0.00     0.173 A 
ATOM     74  F   UNL A   1      36.152  31.416  32.864  1.00  0.00    -0.203 F 
ATOM     75  C   UNL A   1      34.792  32.881  31.627  1.00  0.00     0.198 A 
ATOM     76  C   UNL A   1      35.338  33.408  29.359  1.00  0.00     0.198 A 
ATOM     77  F   UNL A   1      37.249  32.503  28.360  1.00  0.00    -0.203 F 
ATOM     78  F   UNL A   1      34.025  33.073  32.710  1.00  0.00    -0.200 F 
ATOM     79  C   UNL A   1      34.524  33.583  30.464  1.00  0.00     0.200 A 
ATOM     80  F   UNL A   1      35.108  34.109  28.239  1.00  0.00    -0.200 F 
ATOM     81  F   UNL A   1      33.512  34.460  30.420  1.00  0.00    -0.200 F 
ENDBRANCH  47  71
BRANCH  59  82
ATOM     82  C   UNL A   1      42.128  30.269  33.580  1.00  0.00     0.064 A 
ATOM     83  C   UNL A   1      41.778  28.918  33.433  1.00  0.00     0.173 A 
ATOM     84  C   UNL A   1      42.404  30.730  34.874  1.00  0.00     0.173 A 
ATOM     85  F   UNL A   1      41.569  28.388  32.221  1.00  0.00    -0.203 F 
ATOM     86  C   UNL A   1      41.678  28.076  34.539  1.00  0.00     0.198 A 
ATOM     87  C   UNL A   1      42.339  29.881  35.973  1.00  0.00     0.198 A 
ATOM     88  F   UNL A   1      42.778  32.004  35.067  1.00  0.00    -0.203 F 
ATOM     89  F   UNL A   1      41.327  26.792  34.378  1.00  0.00    -0.200 F 
ATOM     90  C   UNL A   1      41.966  28.556  35.807  1.00  0.00     0.200 A 
ATOM     91  F   UNL A   1      42.656  30.341  37.190  1.00  0.00    -0.200 F 
ATOM     92  F   UNL A   1      41.904  27.740  36.868  1.00  0.00    -0.200 F 
ENDBRANCH  59  82
ENDBRANCH  33  34
ENDBRANCH  25  28
ENDBRANCH  23  24
ENDBRANCH   1  23
TORSDOF 12
ENDMDL
MODEL 2
REMARK VINA RESULT:     -13.2      1.629      2.017
REMARK SMILES Cn1cc(Cl)cc1C(=O)N[C@H]1C=C[C@H](C(=O)NCCCNC(=O)c2ccc(-c3c4nc(c(-c5c(F)c(F)c(F)c(F)c5F)c5ccc([nH]5)c(-c5c(F)c(F)c(F)c(F)c5F)c5nc(c(-c6c(F)c(F)c(F)c(F)c6F)c6ccc3[nH]6)C=C5)C=C4)cc2)C1
REMARK SMILES IDX 19 1 18 2 17 3 15 4 16 5 14 7 11 8 12 9 87 10 13 11 10 12
REMARK SMILES IDX 8 13 9 14 7 16 1 17 2 18 3 19 4 20 6 21 5 22 20 23 21 24
REMARK SMILES IDX 22 25 23 27 24 28 25 29 86 30 26 31 85 32 27 33 28 34 29 35
REMARK SMILES IDX 79 36 30 37 84 38 78 39 80 40 31 41 83 42 77 43 76 44 32 46
REMARK SMILES IDX 64 47 44 48 63 49 45 50 48 51 62 52 81 53 46 54 47 55 61 57
REMARK SMILES IDX 82 58 49 59 33 60 34 61 42 62 35 63 36 64 40 65 43 66 37 67
REMARK SMILES IDX 38 68 41 69 39 70 65 71 66 72 74 73 67 74 68 75 72 76 75 77
REMARK SMILES IDX 69 78 70 79 73 80 71 81 50 82 51 83 59 84 52 85 53 86 57 87
REMARK SMILES IDX 60 88 54 89 55 90 58 91 56 92
REMARK H PARENT 17 6 10 15 21 26 80 45 48 56
REMARK Flexibility Score: inf
ROOT
ATOM      1  C   UNL A   1      38.748  21.784  25.751  1.00  0.00     0.042 C 
ENDROOT
BRANCH   1   2
ATOM      2  C   UNL A   1      37.732  22.926  25.861  1.00  0.00     0.117 C 
BRANCH   2   3
ATOM      3  N   UNL A   1      36.398  22.471  26.251  1.00  0.00    -0.356 N 
ATOM      4  C   UNL A   1      35.166  23.009  25.956  1.00  0.00     0.227 C 
ATOM      5  O   UNL A   1      34.156  22.467  26.398  1.00  0.00    -0.274 OA
ATOM      6  H   UNL A   1      36.379  21.660  26.809  1.00  0.00     0.163 HD
BRANCH   4   7
ATOM      7  C   UNL A   1      35.138  24.197  24.999  1.00  0.00     0.103 C 
ATOM      8  C   UNL A   1      33.464  25.798  24.198  1.00  0.00     0.106 C 
ATOM      9  C   UNL A   1      33.936  24.908  23.106  1.00  0.00    -0.006 C 
ATOM     10  C   UNL A   1      34.199  25.332  25.442  1.00  0.00     0.047 C 
ATOM     11  C   UNL A   1      34.769  23.966  23.565  1.00  0.00    -0.016 C 
BRANCH   8  12
ATOM     12  N   UNL A   1      33.440  27.202  23.840  1.00  0.00    -0.345 N 
ATOM     13  C   UNL A   1      32.676  28.232  23.385  1.00  0.00     0.268 C 
ATOM     14  O   UNL A   1      33.374  29.217  23.104  1.00  0.00    -0.268 OA
ATOM     15  H   UNL A   1      34.349  27.554  23.984  1.00  0.00     0.164 HD
BRANCH  13  16
ATOM     16  C   UNL A   1      31.244  28.291  23.137  1.00  0.00     0.108 A 
ATOM     17  C   UNL A   1      30.117  26.627  24.695  1.00  0.00     0.150 C 
ATOM     18  N   UNL A   1      30.160  27.615  23.653  1.00  0.00    -0.345 N 
ATOM     19  C   UNL A   1      28.979  28.097  23.126  1.00  0.00     0.106 A 
ATOM     20  C   UNL A   1      29.272  29.200  22.374  1.00  0.00     0.059 A 
ATOM     21  C   UNL A   1      30.671  29.322  22.374  1.00  0.00     0.054 A 
ATOM     22  Cl  UNL A   1      28.175  30.248  21.622  1.00  0.00    -0.083 Cl
ENDBRANCH  13  16
ENDBRANCH   8  12
ENDBRANCH   4   7
ENDBRANCH   2   3
ENDBRANCH   1   2
BRANCH   1  23
ATOM     23  C   UNL A   1      39.858  21.857  26.787  1.00  0.00     0.118 C 
BRANCH  23  24
ATOM     24  N   UNL A   1      41.187  21.963  26.186  1.00  0.00    -0.352 N 
ATOM     25  C   UNL A   1      41.913  23.113  25.958  1.00  0.00     0.251 C 
ATOM     26  H   UNL A   1      41.611  21.117  25.914  1.00  0.00     0.163 HD
ATOM     27  O   UNL A   1      42.812  23.146  25.123  1.00  0.00    -0.269 OA
BRANCH  25  28
ATOM     28  C   UNL A   1      41.580  24.309  26.743  1.00  0.00     0.039 A 
ATOM     29  C   UNL A   1      42.120  24.518  28.013  1.00  0.00     0.014 A 
ATOM     30  C   UNL A   1      40.787  25.274  26.126  1.00  0.00     0.014 A 
ATOM     31  C   UNL A   1      41.932  25.755  28.622  1.00  0.00     0.010 A 
ATOM     32  C   UNL A   1      40.739  26.538  26.656  1.00  0.00     0.010 A 
ATOM     33  C   UNL A   1      41.264  26.775  27.924  1.00  0.00    -0.014 A 
BRANCH  33  34
ATOM     34  C   UNL A   1      41.200  28.129  28.470  1.00  0.00     0.031 A 
ATOM     35  C   UNL A   1      42.267  29.050  27.989  1.00  0.00     0.074 A 
ATOM     36  C   UNL A   1      40.139  28.587  29.169  1.00  0.00     0.049 A 
ATOM     37  N   UNL A   1      43.215  29.591  28.681  1.00  0.00    -0.248 NA
ATOM     38  C   UNL A   1      42.361  29.325  26.545  1.00  0.00     0.031 C 
ATOM     39  C   UNL A   1      38.860  27.902  29.403  1.00  0.00     0.029 A 
ATOM     40  N   UNL A   1      39.925  29.814  29.728  1.00  0.00    -0.354 N 
ATOM     41  C   UNL A   1      43.892  30.443  27.808  1.00  0.00     0.074 A 
ATOM     42  C   UNL A   1      43.445  30.102  26.485  1.00  0.00     0.031 C 
ATOM     43  C   UNL A   1      37.934  28.793  29.813  1.00  0.00     0.029 A 
ATOM     44  C   UNL A   1      38.602  30.053  30.075  1.00  0.00     0.049 A 
ATOM     45  H   UNL A   1      40.645  30.472  29.871  1.00  0.00     0.167 HD
ATOM     46  C   UNL A   1      44.542  31.543  28.286  1.00  0.00     0.037 A 
ATOM     47  C   UNL A   1      38.075  31.202  30.556  1.00  0.00     0.037 A 
ATOM     48  C   UNL A   1      44.655  31.478  29.720  1.00  0.00     0.049 A 
ATOM     49  C   UNL A   1      39.178  31.989  31.147  1.00  0.00     0.074 A 
ATOM     50  C   UNL A   1      45.464  30.855  30.642  1.00  0.00     0.029 A 
ATOM     51  N   UNL A   1      43.530  31.895  30.374  1.00  0.00    -0.354 N 
ATOM     52  N   UNL A   1      39.854  31.607  32.195  1.00  0.00    -0.248 NA
ATOM     53  C   UNL A   1      39.776  33.073  30.375  1.00  0.00     0.031 C 
ATOM     54  C   UNL A   1      44.711  30.789  31.854  1.00  0.00     0.029 A 
ATOM     55  C   UNL A   1      43.477  31.403  31.649  1.00  0.00     0.049 A 
ATOM     56  H   UNL A   1      42.842  32.478  29.978  1.00  0.00     0.167 HD
ATOM     57  C   UNL A   1      41.126  32.090  31.970  1.00  0.00     0.074 A 
ATOM     58  C   UNL A   1      40.978  33.125  30.957  1.00  0.00     0.031 C 
ATOM     59  C   UNL A   1      42.222  31.381  32.362  1.00  0.00     0.037 A 
BRANCH  46  60
ATOM     60  C   UNL A   1      44.644  32.887  27.588  1.00  0.00     0.064 A 
ATOM     61  C   UNL A   1      45.837  33.209  26.899  1.00  0.00     0.173 A 
ATOM     62  C   UNL A   1      43.785  33.978  27.839  1.00  0.00     0.173 A 
ATOM     63  F   UNL A   1      46.739  32.259  26.613  1.00  0.00    -0.203 F 
ATOM     64  C   UNL A   1      46.172  34.526  26.565  1.00  0.00     0.198 A 
ATOM     65  C   UNL A   1      44.100  35.283  27.460  1.00  0.00     0.198 A 
ATOM     66  F   UNL A   1      42.665  33.851  28.558  1.00  0.00    -0.203 F 
ATOM     67  F   UNL A   1      47.369  34.793  26.024  1.00  0.00    -0.200 F 
ATOM     68  C   UNL A   1      45.306  35.564  26.853  1.00  0.00     0.200 A 
ATOM     69  F   UNL A   1      43.257  36.280  27.766  1.00  0.00    -0.200 F 
ATOM     70  F   UNL A   1      45.649  36.831  26.590  1.00  0.00    -0.200 F 
ENDBRANCH  46  60
BRANCH  47  71
ATOM     71  C   UNL A   1      36.723  31.756  30.341  1.00  0.00     0.064 A 
ATOM     72  C   UNL A   1      35.889  32.074  31.423  1.00  0.00     0.173 A 
ATOM     73  C   UNL A   1      36.341  32.255  29.080  1.00  0.00     0.173 A 
ATOM     74  F   UNL A   1      36.203  31.659  32.659  1.00  0.00    -0.203 F 
ATOM     75  C   UNL A   1      34.762  32.885  31.263  1.00  0.00     0.198 A 
ATOM     76  C   UNL A   1      35.214  33.063  28.921  1.00  0.00     0.198 A 
ATOM     77  F   UNL A   1      37.112  32.052  28.001  1.00  0.00    -0.203 F 
ATOM     78  F   UNL A   1      34.029  33.228  32.331  1.00  0.00    -0.200 F 
ATOM     79  C   UNL A   1      34.435  33.392  30.016  1.00  0.00     0.200 A 
ATOM     80  F   UNL A   1      34.927  33.574  27.715  1.00  0.00    -0.200 F 
ATOM     81  F   UNL A   1      33.400  34.230  29.876  1.00  0.00    -0.200 F 
ENDBRANCH  47  71
BRANCH  59  82
ATOM     82  C   UNL A   1      42.056  30.404  33.481  1.00  0.00     0.064 A 
ATOM     83  C   UNL A   1      41.773  29.040  33.318  1.00  0.00     0.173 A 
ATOM     84  C   UNL A   1      42.269  30.871  34.786  1.00  0.00     0.173 A 
ATOM     85  F   UNL A   1      41.626  28.507  32.098  1.00  0.00    -0.203 F 
ATOM     86  C   UNL A   1      41.676  28.189  34.417  1.00  0.00     0.198 A 
ATOM     87  C   UNL A   1      42.208  30.014  35.878  1.00  0.00     0.198 A 
ATOM     88  F   UNL A   1      42.579  32.160  34.995  1.00  0.00    -0.203 F 
ATOM     89  F   UNL A   1      41.389  26.890  34.240  1.00  0.00    -0.200 F 
ATOM     90  C   UNL A   1      41.901  28.675  35.696  1.00  0.00     0.200 A 
ATOM     91  F   UNL A   1      42.466  30.482  37.107  1.00  0.00    -0.200 F 
ATOM     92  F   UNL A   1      41.843  27.851  36.751  1.00  0.00    -0.200 F 
ENDBRANCH  59  82
ENDBRANCH  33  34
ENDBRANCH  25  28
ENDBRANCH  23  24
ENDBRANCH   1  23
TORSDOF 12
ENDMDL
MODEL 3
REMARK VINA RESULT:     -13.1      3.384      8.992
REMARK SMILES Cn1cc(Cl)cc1C(=O)N[C@H]1C=C[C@H](C(=O)NCCCNC(=O)c2ccc(-c3c4nc(c(-c5c(F)c(F)c(F)c(F)c5F)c5ccc([nH]5)c(-c5c(F)c(F)c(F)c(F)c5F)c5nc(c(-c6c(F)c(F)c(F)c(F)c6F)c6ccc3[nH]6)C=C5)C=C4)cc2)C1
REMARK SMILES IDX 19 1 18 2 17 3 15 4 16 5 14 7 11 8 12 9 87 10 13 11 10 12
REMARK SMILES IDX 8 13 9 14 7 16 1 17 2 18 3 19 4 20 6 21 5 22 20 23 21 24
REMARK SMILES IDX 22 25 23 27 24 28 25 29 86 30 26 31 85 32 27 33 28 34 29 35
REMARK SMILES IDX 79 36 30 37 84 38 78 39 80 40 31 41 83 42 77 43 76 44 32 46
REMARK SMILES IDX 64 47 44 48 63 49 45 50 48 51 62 52 81 53 46 54 47 55 61 57
REMARK SMILES IDX 82 58 49 59 33 60 34 61 42 62 35 63 36 64 40 65 43 66 37 67
REMARK SMILES IDX 38 68 41 69 39 70 65 71 66 72 74 73 67 74 68 75 72 76 75 77
REMARK SMILES IDX 69 78 70 79 73 80 71 81 50 82 51 83 59 84 52 85 53 86 57 87
REMARK SMILES IDX 60 88 54 89 55 90 58 91 56 92
REMARK H PARENT 17 6 10 15 21 26 80 45 48 56
REMARK Flexibility Score: inf
ROOT
ATOM      1  C   UNL A   1      33.516  30.414  27.561  1.00  0.00     0.042 C 
ENDROOT
BRANCH   1   2
ATOM      2  C   UNL A   1      32.599  30.378  26.333  1.00  0.00     0.117 C 
BRANCH   2   3
ATOM      3  N   UNL A   1      33.237  29.783  25.159  1.00  0.00    -0.356 N 
ATOM      4  C   UNL A   1      33.452  28.460  24.853  1.00  0.00     0.227 C 
ATOM      5  O   UNL A   1      34.023  28.174  23.803  1.00  0.00    -0.274 OA
ATOM      6  H   UNL A   1      33.560  30.427  24.487  1.00  0.00     0.163 HD
BRANCH   4   7
ATOM      7  C   UNL A   1      32.865  27.422  25.805  1.00  0.00     0.103 C 
ATOM      8  C   UNL A   1      32.575  24.988  25.826  1.00  0.00     0.106 C 
ATOM      9  C   UNL A   1      31.269  25.693  25.763  1.00  0.00    -0.006 C 
ATOM     10  C   UNL A   1      33.625  26.085  25.816  1.00  0.00     0.047 C 
ATOM     11  C   UNL A   1      31.431  27.017  25.644  1.00  0.00    -0.016 C 
BRANCH   8  12
ATOM     12  N   UNL A   1      32.622  23.934  26.819  1.00  0.00    -0.345 N 
ATOM     13  C   UNL A   1      33.074  22.683  27.109  1.00  0.00     0.268 C 
ATOM     14  O   UNL A   1      32.568  22.255  28.156  1.00  0.00    -0.268 OA
ATOM     15  H   UNL A   1      32.122  24.253  27.606  1.00  0.00     0.164 HD
BRANCH  13  16
ATOM     16  C   UNL A   1      33.964  21.816  26.353  1.00  0.00     0.108 A 
ATOM     17  C   UNL A   1      32.527  20.161  25.064  1.00  0.00     0.150 C 
ATOM     18  N   UNL A   1      33.761  20.742  25.513  1.00  0.00    -0.345 N 
ATOM     19  C   UNL A   1      34.954  20.298  24.980  1.00  0.00     0.106 A 
ATOM     20  C   UNL A   1      35.934  21.177  25.347  1.00  0.00     0.059 A 
ATOM     21  C   UNL A   1      35.328  22.115  26.200  1.00  0.00     0.054 A 
ATOM     22  Cl  UNL A   1      37.552  21.176  24.848  1.00  0.00    -0.083 Cl
ENDBRANCH  13  16
ENDBRANCH   8  12
ENDBRANCH   4   7
ENDBRANCH   2   3
ENDBRANCH   1   2
BRANCH   1  23
ATOM     23  C   UNL A   1      34.401  31.648  27.622  1.00  0.00     0.118 C 
BRANCH  23  24
ATOM     24  N   UNL A   1      34.405  32.277  28.941  1.00  0.00    -0.352 N 
ATOM     25  C   UNL A   1      35.207  31.958  30.017  1.00  0.00     0.251 C 
ATOM     26  H   UNL A   1      33.764  33.011  29.077  1.00  0.00     0.163 HD
ATOM     27  O   UNL A   1      34.887  32.257  31.164  1.00  0.00    -0.269 OA
BRANCH  25  28
ATOM     28  C   UNL A   1      36.463  31.243  29.757  1.00  0.00     0.039 A 
ATOM     29  C   UNL A   1      37.655  31.931  29.521  1.00  0.00     0.014 A 
ATOM     30  C   UNL A   1      36.437  29.854  29.858  1.00  0.00     0.014 A 
ATOM     31  C   UNL A   1      38.845  31.208  29.482  1.00  0.00     0.010 A 
ATOM     32  C   UNL A   1      37.620  29.170  29.977  1.00  0.00     0.010 A 
ATOM     33  C   UNL A   1      38.824  29.828  29.742  1.00  0.00    -0.014 A 
BRANCH  33  34
ATOM     34  C   UNL A   1      40.072  29.079  29.873  1.00  0.00     0.031 A 
ATOM     35  C   UNL A   1      40.564  28.918  31.269  1.00  0.00     0.074 A 
ATOM     36  C   UNL A   1      40.623  28.388  28.850  1.00  0.00     0.049 A 
ATOM     37  N   UNL A   1      41.642  29.405  31.788  1.00  0.00    -0.248 NA
ATOM     38  C   UNL A   1      39.705  28.220  32.241  1.00  0.00     0.031 C 
ATOM     39  C   UNL A   1      40.050  28.160  27.516  1.00  0.00     0.029 A 
ATOM     40  N   UNL A   1      41.763  27.639  28.816  1.00  0.00    -0.354 N 
ATOM     41  C   UNL A   1      41.709  28.897  33.086  1.00  0.00     0.074 A 
ATOM     42  C   UNL A   1      40.416  28.334  33.365  1.00  0.00     0.031 C 
ATOM     43  C   UNL A   1      40.696  27.143  26.910  1.00  0.00     0.029 A 
ATOM     44  C   UNL A   1      41.852  26.798  27.715  1.00  0.00     0.049 A 
ATOM     45  H   UNL A   1      42.459  27.689  29.511  1.00  0.00     0.167 HD
ATOM     46  C   UNL A   1      42.916  28.734  33.700  1.00  0.00     0.037 A 
ATOM     47  C   UNL A   1      42.811  25.878  27.461  1.00  0.00     0.037 A 
ATOM     48  C   UNL A   1      43.951  29.413  32.964  1.00  0.00     0.049 A 
ATOM     49  C   UNL A   1      44.010  26.252  28.242  1.00  0.00     0.074 A 
ATOM     50  C   UNL A   1      44.423  30.699  32.836  1.00  0.00     0.029 A 
ATOM     51  N   UNL A   1      44.427  28.692  31.904  1.00  0.00    -0.354 N 
ATOM     52  N   UNL A   1      44.696  27.342  28.029  1.00  0.00    -0.248 NA
ATOM     53  C   UNL A   1      44.280  25.577  29.506  1.00  0.00     0.031 C 
ATOM     54  C   UNL A   1      45.087  30.756  31.573  1.00  0.00     0.029 A 
ATOM     55  C   UNL A   1      45.034  29.498  30.980  1.00  0.00     0.049 A 
ATOM     56  H   UNL A   1      44.344  27.715  31.816  1.00  0.00     0.167 HD
ATOM     57  C   UNL A   1      45.143  27.707  29.281  1.00  0.00     0.074 A 
ATOM     58  C   UNL A   1      45.026  26.511  30.103  1.00  0.00     0.031 C 
ATOM     59  C   UNL A   1      45.240  29.020  29.633  1.00  0.00     0.037 A 
BRANCH  46  60
ATOM     60  C   UNL A   1      43.288  27.605  34.644  1.00  0.00     0.064 A 
ATOM     61  C   UNL A   1      43.615  27.917  35.985  1.00  0.00     0.173 A 
ATOM     62  C   UNL A   1      43.654  26.309  34.224  1.00  0.00     0.173 A 
ATOM     63  F   UNL A   1      43.328  29.123  36.496  1.00  0.00    -0.203 F 
ATOM     64  C   UNL A   1      44.322  27.030  36.804  1.00  0.00     0.198 A 
ATOM     65  C   UNL A   1      44.315  25.409  35.061  1.00  0.00     0.198 A 
ATOM     66  F   UNL A   1      43.494  25.898  32.962  1.00  0.00    -0.203 F 
ATOM     67  F   UNL A   1      44.717  27.419  38.024  1.00  0.00    -0.200 F 
ATOM     68  C   UNL A   1      44.679  25.779  36.338  1.00  0.00     0.200 A 
ATOM     69  F   UNL A   1      44.671  24.207  34.585  1.00  0.00    -0.200 F 
ATOM     70  F   UNL A   1      45.408  24.951  37.097  1.00  0.00    -0.200 F 
ENDBRANCH  46  60
BRANCH  47  71
ATOM     71  C   UNL A   1      42.683  24.582  26.764  1.00  0.00     0.064 A 
ATOM     72  C   UNL A   1      43.275  24.372  25.509  1.00  0.00     0.173 A 
ATOM     73  C   UNL A   1      42.227  23.438  27.447  1.00  0.00     0.173 A 
ATOM     74  F   UNL A   1      43.759  25.410  24.813  1.00  0.00    -0.203 F 
ATOM     75  C   UNL A   1      43.445  23.087  24.988  1.00  0.00     0.198 A 
ATOM     76  C   UNL A   1      42.395  22.156  26.924  1.00  0.00     0.198 A 
ATOM     77  F   UNL A   1      41.704  23.539  28.678  1.00  0.00    -0.203 F 
ATOM     78  F   UNL A   1      44.080  22.920  23.820  1.00  0.00    -0.200 F 
ATOM     79  C   UNL A   1      43.019  21.980  25.702  1.00  0.00     0.200 A 
ATOM     80  F   UNL A   1      42.009  21.089  27.640  1.00  0.00    -0.200 F 
ATOM     81  F   UNL A   1      43.251  20.744  25.238  1.00  0.00    -0.200 F 
ENDBRANCH  47  71
BRANCH  59  82
ATOM     82  C   UNL A   1      45.397  30.025  28.537  1.00  0.00     0.064 A 
ATOM     83  C   UNL A   1      44.337  30.702  27.915  1.00  0.00     0.173 A 
ATOM     84  C   UNL A   1      46.700  30.368  28.154  1.00  0.00     0.173 A 
ATOM     85  F   UNL A   1      43.068  30.478  28.278  1.00  0.00    -0.203 F 
ATOM     86  C   UNL A   1      44.575  31.657  26.928  1.00  0.00     0.198 A 
ATOM     87  C   UNL A   1      46.937  31.347  27.196  1.00  0.00     0.198 A 
ATOM     88  F   UNL A   1      47.751  29.777  28.744  1.00  0.00    -0.203 F 
ATOM     89  F   UNL A   1      43.547  32.281  26.334  1.00  0.00    -0.200 F 
ATOM     90  C   UNL A   1      45.875  31.984  26.575  1.00  0.00     0.200 A 
ATOM     91  F   UNL A   1      48.196  31.686  26.888  1.00  0.00    -0.200 F 
ATOM     92  F   UNL A   1      46.106  32.927  25.651  1.00  0.00    -0.200 F 
ENDBRANCH  59  82
ENDBRANCH  33  34
ENDBRANCH  25  28
ENDBRANCH  23  24
ENDBRANCH   1  23
TORSDOF 12
ENDMDL
