MODEL 1
REMARK VINA RESULT:     -14.0      0.000      0.000
REMARK SMILES O=C(CCC(=O)Nc1cccc2c1C(=O)c1ccccc1C2=O)NCCCNC(=O)c1ccc(-c2c3nc(c(-c4c(F)c(F)c(F)c(F)c4F)c4ccc([nH]4)c(-c4c(F)c(F)c(F)c(F)c4F)c4nc(c(-c5c(F)c(F)c(F)c(F)c5F)c5ccc2[nH]5)C=C4)C=C3)cc1
REMARK SMILES IDX 25 1 24 2 1 3 2 4 3 6 4 7 5 8 6 9 7 10 8 12 9 13 13 14 10 15
REMARK SMILES IDX 12 16 14 17 11 18 22 19 15 20 16 21 21 22 23 23 17 24 20 25
REMARK SMILES IDX 18 26 19 27 26 28 27 29 28 30 29 31 30 33 31 34 32 35 93 36
REMARK SMILES IDX 33 37 92 38 34 39 35 40 36 41 86 42 37 43 91 44 85 45 87 46
REMARK SMILES IDX 38 47 90 48 84 49 83 50 39 52 71 53 51 54 70 55 52 56 55 57
REMARK SMILES IDX 69 58 88 59 53 60 54 61 68 63 89 64 56 65 40 66 41 67 49 68
REMARK SMILES IDX 42 69 43 70 47 71 50 72 44 73 45 74 48 75 46 76 72 77 73 78
REMARK SMILES IDX 81 79 74 80 75 81 79 82 82 83 76 84 77 85 80 86 78 87 57 88
REMARK SMILES IDX 58 89 66 90 59 91 60 92 64 93 67 94 61 95 62 96 65 97 63 98
REMARK H PARENT 24 5 7 11 28 32 87 51 55 62
REMARK Flexibility Score: inf
ROOT
ATOM      1  C   UNL A   1      31.386  29.227  24.490  1.00  0.00     0.117 C 
ENDROOT
BRANCH   1   2
ATOM      2  N   UNL A   1      30.515  28.159  24.053  1.00  0.00    -0.356 N 
ATOM      3  O   UNL A   1      31.938  26.437  23.489  1.00  0.00    -0.275 OA
ATOM      4  C   UNL A   1      30.996  26.867  24.141  1.00  0.00     0.220 C 
ATOM      5  H   UNL A   1      29.613  28.345  23.707  1.00  0.00     0.163 HD
BRANCH   4   6
ATOM      6  C   UNL A   1      30.436  26.076  25.294  1.00  0.00     0.110 C 
BRANCH   6   7
ATOM      7  C   UNL A   1      30.700  24.585  25.023  1.00  0.00     0.110 C 
BRANCH   7   8
ATOM      8  C   UNL A   1      30.877  23.857  26.326  1.00  0.00     0.224 C 
ATOM      9  O   UNL A   1      29.973  23.920  27.173  1.00  0.00    -0.275 OA
ATOM     10  N   UNL A   1      31.938  23.091  26.674  1.00  0.00    -0.325 N 
ATOM     11  H   UNL A   1      31.766  22.683  27.554  1.00  0.00     0.169 HD
BRANCH  10  12
ATOM     12  C   UNL A   1      33.213  22.673  26.209  1.00  0.00     0.053 A 
ATOM     13  C   UNL A   1      34.174  23.685  26.439  1.00  0.00     0.027 A 
ATOM     14  C   UNL A   1      33.677  21.483  25.600  1.00  0.00     0.057 A 
ATOM     15  C   UNL A   1      35.533  23.504  26.198  1.00  0.00     0.003 A 
ATOM     16  C   UNL A   1      35.069  21.255  25.493  1.00  0.00     0.036 A 
ATOM     17  C   UNL A   1      32.984  20.726  24.522  1.00  0.00     0.196 C 
ATOM     18  C   UNL A   1      35.988  22.267  25.777  1.00  0.00     0.013 A 
ATOM     19  C   UNL A   1      35.586  19.948  25.005  1.00  0.00     0.194 C 
ATOM     20  O   UNL A   1      32.444  21.327  23.601  1.00  0.00    -0.288 OA
ATOM     21  C   UNL A   1      33.322  19.316  24.288  1.00  0.00     0.034 A 
ATOM     22  C   UNL A   1      34.626  18.924  24.554  1.00  0.00     0.034 A 
ATOM     23  O   UNL A   1      36.790  19.719  24.986  1.00  0.00    -0.289 OA
ATOM     24  C   UNL A   1      32.441  18.431  23.660  1.00  0.00     0.013 A 
ATOM     25  C   UNL A   1      35.034  17.614  24.284  1.00  0.00     0.013 A 
ATOM     26  C   UNL A   1      32.835  17.117  23.409  1.00  0.00     0.001 A 
ATOM     27  C   UNL A   1      34.126  16.704  23.736  1.00  0.00     0.001 A 
ENDBRANCH  10  12
ENDBRANCH   7   8
ENDBRANCH   6   7
ENDBRANCH   4   6
ENDBRANCH   1   2
BRANCH   1  28
ATOM     28  C   UNL A   1      31.732  29.309  25.958  1.00  0.00     0.042 C 
BRANCH  28  29
ATOM     29  C   UNL A   1      32.987  30.111  26.161  1.00  0.00     0.118 C 
BRANCH  29  30
ATOM     30  N   UNL A   1      32.750  31.451  26.706  1.00  0.00    -0.352 N 
ATOM     31  C   UNL A   1      33.577  32.203  27.511  1.00  0.00     0.251 C 
ATOM     32  H   UNL A   1      31.891  31.867  26.465  1.00  0.00     0.163 HD
ATOM     33  O   UNL A   1      33.229  33.291  27.934  1.00  0.00    -0.269 OA
BRANCH  31  34
ATOM     34  C   UNL A   1      34.864  31.606  27.912  1.00  0.00     0.039 A 
ATOM     35  C   UNL A   1      35.982  32.431  28.030  1.00  0.00     0.014 A 
ATOM     36  C   UNL A   1      34.914  30.275  28.322  1.00  0.00     0.014 A 
ATOM     37  C   UNL A   1      37.127  31.936  28.649  1.00  0.00     0.010 A 
ATOM     38  C   UNL A   1      35.983  29.844  29.083  1.00  0.00     0.010 A 
ATOM     39  C   UNL A   1      37.113  30.656  29.228  1.00  0.00    -0.014 A 
BRANCH  39  40
ATOM     40  C   UNL A   1      38.285  30.105  29.946  1.00  0.00     0.031 A 
ATOM     41  C   UNL A   1      38.532  30.533  31.369  1.00  0.00     0.074 A 
ATOM     42  C   UNL A   1      39.162  29.314  29.302  1.00  0.00     0.049 A 
ATOM     43  N   UNL A   1      39.559  30.292  32.141  1.00  0.00    -0.248 NA
ATOM     44  C   UNL A   1      37.515  31.404  31.985  1.00  0.00     0.031 C 
ATOM     45  C   UNL A   1      39.069  28.904  27.899  1.00  0.00     0.029 A 
ATOM     46  N   UNL A   1      40.314  28.717  29.745  1.00  0.00    -0.354 N 
ATOM     47  C   UNL A   1      39.329  31.017  33.303  1.00  0.00     0.074 A 
ATOM     48  C   UNL A   1      38.113  31.770  33.107  1.00  0.00     0.031 C 
ATOM     49  C   UNL A   1      40.094  28.086  27.610  1.00  0.00     0.029 A 
ATOM     50  C   UNL A   1      40.937  27.948  28.793  1.00  0.00     0.049 A 
ATOM     51  H   UNL A   1      40.662  28.829  30.659  1.00  0.00     0.167 HD
ATOM     52  C   UNL A   1      40.044  31.018  34.450  1.00  0.00     0.037 A 
ATOM     53  C   UNL A   1      42.061  27.214  28.877  1.00  0.00     0.037 A 
ATOM     54  C   UNL A   1      41.205  30.200  34.661  1.00  0.00     0.049 A 
ATOM     55  C   UNL A   1      42.805  27.180  30.184  1.00  0.00     0.074 A 
ATOM     56  C   UNL A   1      41.953  30.041  35.812  1.00  0.00     0.029 A 
ATOM     57  N   UNL A   1      41.774  29.386  33.691  1.00  0.00    -0.354 N 
ATOM     58  N   UNL A   1      42.538  27.806  31.305  1.00  0.00    -0.248 NA
ATOM     59  C   UNL A   1      44.003  26.333  30.241  1.00  0.00     0.031 C 
ATOM     60  C   UNL A   1      42.995  29.153  35.531  1.00  0.00     0.029 A 
ATOM     61  C   UNL A   1      42.873  28.729  34.216  1.00  0.00     0.049 A 
ATOM     62  H   UNL A   1      41.445  29.290  32.769  1.00  0.00     0.167 HD
ATOM     63  C   UNL A   1      43.517  27.414  32.206  1.00  0.00     0.074 A 
ATOM     64  C   UNL A   1      44.374  26.479  31.506  1.00  0.00     0.031 C 
ATOM     65  C   UNL A   1      43.698  27.794  33.494  1.00  0.00     0.037 A 
BRANCH  52  66
ATOM     66  C   UNL A   1      39.567  31.906  35.563  1.00  0.00     0.064 A 
ATOM     67  C   UNL A   1      38.602  31.474  36.487  1.00  0.00     0.173 A 
ATOM     68  C   UNL A   1      40.082  33.202  35.710  1.00  0.00     0.173 A 
ATOM     69  F   UNL A   1      38.064  30.251  36.381  1.00  0.00    -0.203 F 
ATOM     70  C   UNL A   1      38.142  32.321  37.492  1.00  0.00     0.198 A 
ATOM     71  C   UNL A   1      39.645  34.034  36.737  1.00  0.00     0.198 A 
ATOM     72  F   UNL A   1      41.007  33.664  34.855  1.00  0.00    -0.203 F 
ATOM     73  F   UNL A   1      37.173  31.910  38.321  1.00  0.00    -0.200 F 
ATOM     74  C   UNL A   1      38.668  33.598  37.621  1.00  0.00     0.200 A 
ATOM     75  F   UNL A   1      40.161  35.264  36.867  1.00  0.00    -0.200 F 
ATOM     76  F   UNL A   1      38.226  34.410  38.590  1.00  0.00    -0.200 F 
ENDBRANCH  52  66
BRANCH  53  77
ATOM     77  C   UNL A   1      42.520  26.416  27.710  1.00  0.00     0.064 A 
ATOM     78  C   UNL A   1      43.474  26.933  26.821  1.00  0.00     0.173 A 
ATOM     79  C   UNL A   1      42.027  25.129  27.459  1.00  0.00     0.173 A 
ATOM     80  F   UNL A   1      43.963  28.168  27.009  1.00  0.00    -0.203 F 
ATOM     81  C   UNL A   1      43.899  26.202  25.714  1.00  0.00     0.198 A 
ATOM     82  C   UNL A   1      42.472  24.387  26.365  1.00  0.00     0.198 A 
ATOM     83  F   UNL A   1      41.120  24.585  28.283  1.00  0.00    -0.203 F 
ATOM     84  F   UNL A   1      44.778  26.739  24.857  1.00  0.00    -0.200 F 
ATOM     85  C   UNL A   1      43.401  24.927  25.490  1.00  0.00     0.200 A 
ATOM     86  F   UNL A   1      41.999  23.150  26.160  1.00  0.00    -0.200 F 
ATOM     87  F   UNL A   1      43.812  24.223  24.426  1.00  0.00    -0.200 F 
ENDBRANCH  53  77
BRANCH  65  88
ATOM     88  C   UNL A   1      44.846  27.180  34.234  1.00  0.00     0.064 A 
ATOM     89  C   UNL A   1      46.116  27.773  34.236  1.00  0.00     0.173 A 
ATOM     90  C   UNL A   1      44.657  26.016  34.995  1.00  0.00     0.173 A 
ATOM     91  F   UNL A   1      46.345  28.879  33.511  1.00  0.00    -0.203 F 
ATOM     92  C   UNL A   1      47.164  27.212  34.958  1.00  0.00     0.198 A 
ATOM     93  C   UNL A   1      45.701  25.474  35.739  1.00  0.00     0.198 A 
ATOM     94  F   UNL A   1      43.458  25.418  35.030  1.00  0.00    -0.203 F 
ATOM     95  F   UNL A   1      48.380  27.771  34.915  1.00  0.00    -0.200 F 
ATOM     96  C   UNL A   1      46.954  26.068  35.716  1.00  0.00     0.200 A 
ATOM     97  F   UNL A   1      45.492  24.378  36.481  1.00  0.00    -0.200 F 
ATOM     98  F   UNL A   1      47.961  25.535  36.419  1.00  0.00    -0.200 F 
ENDBRANCH  65  88
ENDBRANCH  39  40
ENDBRANCH  31  34
ENDBRANCH  29  30
ENDBRANCH  28  29
ENDBRANCH   1  28
TORSDOF 13
ENDMDL
MODEL 2
REMARK VINA RESULT:     -13.9      3.032      4.049
REMARK SMILES O=C(CCC(=O)Nc1cccc2c1C(=O)c1ccccc1C2=O)NCCCNC(=O)c1ccc(-c2c3nc(c(-c4c(F)c(F)c(F)c(F)c4F)c4ccc([nH]4)c(-c4c(F)c(F)c(F)c(F)c4F)c4nc(c(-c5c(F)c(F)c(F)c(F)c5F)c5ccc2[nH]5)C=C4)C=C3)cc1
REMARK SMILES IDX 25 1 24 2 1 3 2 4 3 6 4 7 5 8 6 9 7 10 8 12 9 13 13 14 10 15
REMARK SMILES IDX 12 16 14 17 11 18 22 19 15 20 16 21 21 22 23 23 17 24 20 25
REMARK SMILES IDX 18 26 19 27 26 28 27 29 28 30 29 31 30 33 31 34 32 35 93 36
REMARK SMILES IDX 33 37 92 38 34 39 35 40 36 41 86 42 37 43 91 44 85 45 87 46
REMARK SMILES IDX 38 47 90 48 84 49 83 50 39 52 71 53 51 54 70 55 52 56 55 57
REMARK SMILES IDX 69 58 88 59 53 60 54 61 68 63 89 64 56 65 40 66 41 67 49 68
REMARK SMILES IDX 42 69 43 70 47 71 50 72 44 73 45 74 48 75 46 76 72 77 73 78
REMARK SMILES IDX 81 79 74 80 75 81 79 82 82 83 76 84 77 85 80 86 78 87 57 88
REMARK SMILES IDX 58 89 66 90 59 91 60 92 64 93 67 94 61 95 62 96 65 97 63 98
REMARK H PARENT 24 5 7 11 28 32 87 51 55 62
REMARK Flexibility Score: inf
ROOT
ATOM      1  C   UNL A   1      32.759  28.919  24.976  1.00  0.00     0.117 C 
ENDROOT
BRANCH   1   2
ATOM      2  N   UNL A   1      31.457  28.467  25.411  1.00  0.00    -0.356 N 
ATOM      3  O   UNL A   1      30.812  26.925  23.826  1.00  0.00    -0.275 OA
ATOM      4  C   UNL A   1      31.041  27.219  24.991  1.00  0.00     0.220 C 
ATOM      5  H   UNL A   1      30.888  29.029  25.986  1.00  0.00     0.163 HD
BRANCH   4   6
ATOM      6  C   UNL A   1      31.129  26.151  26.050  1.00  0.00     0.110 C 
BRANCH   6   7
ATOM      7  C   UNL A   1      30.550  24.850  25.465  1.00  0.00     0.110 C 
BRANCH   7   8
ATOM      8  C   UNL A   1      30.604  23.762  26.499  1.00  0.00     0.224 C 
ATOM      9  O   UNL A   1      29.633  23.608  27.256  1.00  0.00    -0.275 OA
ATOM     10  N   UNL A   1      31.618  22.882  26.682  1.00  0.00    -0.325 N 
ATOM     11  H   UNL A   1      31.364  22.240  27.383  1.00  0.00     0.169 HD
BRANCH  10  12
ATOM     12  C   UNL A   1      32.920  22.568  26.211  1.00  0.00     0.053 A 
ATOM     13  C   UNL A   1      33.792  23.663  26.416  1.00  0.00     0.027 A 
ATOM     14  C   UNL A   1      33.480  21.413  25.615  1.00  0.00     0.057 A 
ATOM     15  C   UNL A   1      35.160  23.595  26.163  1.00  0.00     0.003 A 
ATOM     16  C   UNL A   1      34.885  21.303  25.498  1.00  0.00     0.036 A 
ATOM     17  C   UNL A   1      32.845  20.582  24.556  1.00  0.00     0.196 C 
ATOM     18  C   UNL A   1      35.716  22.395  25.757  1.00  0.00     0.013 A 
ATOM     19  C   UNL A   1      35.509  20.038  25.025  1.00  0.00     0.194 C 
ATOM     20  O   UNL A   1      32.248  21.119  23.631  1.00  0.00    -0.288 OA
ATOM     21  C   UNL A   1      33.301  19.202  24.341  1.00  0.00     0.034 A 
ATOM     22  C   UNL A   1      34.637  18.928  24.600  1.00  0.00     0.034 A 
ATOM     23  O   UNL A   1      36.728  19.913  24.998  1.00  0.00    -0.289 OA
ATOM     24  C   UNL A   1      32.495  18.235  23.735  1.00  0.00     0.013 A 
ATOM     25  C   UNL A   1      35.153  17.654  24.345  1.00  0.00     0.013 A 
ATOM     26  C   UNL A   1      32.998  16.955  23.501  1.00  0.00     0.001 A 
ATOM     27  C   UNL A   1      34.322  16.661  23.821  1.00  0.00     0.001 A 
ENDBRANCH  10  12
ENDBRANCH   7   8
ENDBRANCH   6   7
ENDBRANCH   4   6
ENDBRANCH   1   2
BRANCH   1  28
ATOM     28  C   UNL A   1      33.966  28.486  25.773  1.00  0.00     0.042 C 
BRANCH  28  29
ATOM     29  C   UNL A   1      33.688  28.579  27.247  1.00  0.00     0.118 C 
BRANCH  29  30
ATOM     30  N   UNL A   1      33.684  29.950  27.763  1.00  0.00    -0.352 N 
ATOM     31  C   UNL A   1      34.735  30.666  28.292  1.00  0.00     0.251 C 
ATOM     32  H   UNL A   1      32.820  30.422  27.726  1.00  0.00     0.163 HD
ATOM     33  O   UNL A   1      34.577  31.790  28.732  1.00  0.00    -0.269 OA
BRANCH  31  34
ATOM     34  C   UNL A   1      36.042  29.988  28.386  1.00  0.00     0.039 A 
ATOM     35  C   UNL A   1      36.945  30.118  27.332  1.00  0.00     0.014 A 
ATOM     36  C   UNL A   1      36.419  29.370  29.578  1.00  0.00     0.014 A 
ATOM     37  C   UNL A   1      38.263  29.704  27.515  1.00  0.00     0.010 A 
ATOM     38  C   UNL A   1      37.758  29.121  29.812  1.00  0.00     0.010 A 
ATOM     39  C   UNL A   1      38.688  29.254  28.776  1.00  0.00    -0.014 A 
BRANCH  39  40
ATOM     40  C   UNL A   1      40.090  28.857  29.037  1.00  0.00     0.031 A 
ATOM     41  C   UNL A   1      40.998  29.823  29.751  1.00  0.00     0.074 A 
ATOM     42  C   UNL A   1      40.564  27.693  28.555  1.00  0.00     0.049 A 
ATOM     43  N   UNL A   1      42.286  29.749  29.963  1.00  0.00    -0.248 NA
ATOM     44  C   UNL A   1      40.386  31.073  30.236  1.00  0.00     0.031 C 
ATOM     45  C   UNL A   1      39.797  26.719  27.776  1.00  0.00     0.029 A 
ATOM     46  N   UNL A   1      41.812  27.134  28.647  1.00  0.00    -0.354 N 
ATOM     47  C   UNL A   1      42.635  30.954  30.558  1.00  0.00     0.074 A 
ATOM     48  C   UNL A   1      41.448  31.774  30.599  1.00  0.00     0.031 C 
ATOM     49  C   UNL A   1      40.579  25.662  27.500  1.00  0.00     0.029 A 
ATOM     50  C   UNL A   1      41.910  25.903  28.047  1.00  0.00     0.049 A 
ATOM     51  H   UNL A   1      42.568  27.575  29.101  1.00  0.00     0.167 HD
ATOM     52  C   UNL A   1      43.830  31.327  31.068  1.00  0.00     0.037 A 
ATOM     53  C   UNL A   1      42.961  25.068  27.957  1.00  0.00     0.037 A 
ATOM     54  C   UNL A   1      44.982  30.469  31.096  1.00  0.00     0.049 A 
ATOM     55  C   UNL A   1      44.264  25.477  28.588  1.00  0.00     0.074 A 
ATOM     56  C   UNL A   1      46.216  30.698  31.673  1.00  0.00     0.029 A 
ATOM     57  N   UNL A   1      45.027  29.202  30.530  1.00  0.00    -0.354 N 
ATOM     58  N   UNL A   1      44.566  26.587  29.220  1.00  0.00    -0.248 NA
ATOM     59  C   UNL A   1      45.371  24.516  28.501  1.00  0.00     0.031 C 
ATOM     60  C   UNL A   1      47.020  29.581  31.431  1.00  0.00     0.029 A 
ATOM     61  C   UNL A   1      46.274  28.640  30.736  1.00  0.00     0.049 A 
ATOM     62  H   UNL A   1      44.282  28.769  30.054  1.00  0.00     0.167 HD
ATOM     63  C   UNL A   1      45.885  26.450  29.624  1.00  0.00     0.074 A 
ATOM     64  C   UNL A   1      46.322  25.141  29.183  1.00  0.00     0.031 C 
ATOM     65  C   UNL A   1      46.671  27.328  30.294  1.00  0.00     0.037 A 
BRANCH  52  66
ATOM     66  C   UNL A   1      43.933  32.703  31.660  1.00  0.00     0.064 A 
ATOM     67  C   UNL A   1      43.643  32.947  33.012  1.00  0.00     0.173 A 
ATOM     68  C   UNL A   1      44.329  33.790  30.868  1.00  0.00     0.173 A 
ATOM     69  F   UNL A   1      43.243  31.946  33.808  1.00  0.00    -0.203 F 
ATOM     70  C   UNL A   1      43.707  34.234  33.537  1.00  0.00     0.198 A 
ATOM     71  C   UNL A   1      44.425  35.071  31.405  1.00  0.00     0.198 A 
ATOM     72  F   UNL A   1      44.619  33.613  29.570  1.00  0.00    -0.203 F 
ATOM     73  F   UNL A   1      43.361  34.453  34.814  1.00  0.00    -0.200 F 
ATOM     74  C   UNL A   1      44.103  35.294  32.737  1.00  0.00     0.200 A 
ATOM     75  F   UNL A   1      44.819  36.093  30.633  1.00  0.00    -0.200 F 
ATOM     76  F   UNL A   1      44.167  36.532  33.245  1.00  0.00    -0.200 F 
ENDBRANCH  52  66
BRANCH  53  77
ATOM     77  C   UNL A   1      42.811  23.749  27.289  1.00  0.00     0.064 A 
ATOM     78  C   UNL A   1      43.209  23.573  25.956  1.00  0.00     0.173 A 
ATOM     79  C   UNL A   1      42.276  22.641  27.961  1.00  0.00     0.173 A 
ATOM     80  F   UNL A   1      43.711  24.608  25.266  1.00  0.00    -0.203 F 
ATOM     81  C   UNL A   1      43.057  22.346  25.314  1.00  0.00     0.198 A 
ATOM     82  C   UNL A   1      42.148  21.406  27.326  1.00  0.00     0.198 A 
ATOM     83  F   UNL A   1      41.887  22.754  29.239  1.00  0.00    -0.203 F 
ATOM     84  F   UNL A   1      43.405  22.219  24.026  1.00  0.00    -0.200 F 
ATOM     85  C   UNL A   1      42.531  21.262  26.001  1.00  0.00     0.200 A 
ATOM     86  F   UNL A   1      41.652  20.358  27.997  1.00  0.00    -0.200 F 
ATOM     87  F   UNL A   1      42.387  20.081  25.383  1.00  0.00    -0.200 F 
ENDBRANCH  53  77
BRANCH  65  88
ATOM     88  C   UNL A   1      48.067  26.891  30.614  1.00  0.00     0.064 A 
ATOM     89  C   UNL A   1      48.342  26.072  31.719  1.00  0.00     0.173 A 
ATOM     90  C   UNL A   1      49.132  27.248  29.774  1.00  0.00     0.173 A 
ATOM     91  F   UNL A   1      47.356  25.718  32.558  1.00  0.00    -0.203 F 
ATOM     92  C   UNL A   1      49.639  25.643  31.983  1.00  0.00     0.198 A 
ATOM     93  C   UNL A   1      50.423  26.792  30.025  1.00  0.00     0.198 A 
ATOM     94  F   UNL A   1      48.917  28.021  28.701  1.00  0.00    -0.203 F 
ATOM     95  F   UNL A   1      49.887  24.895  33.066  1.00  0.00    -0.200 F 
ATOM     96  C   UNL A   1      50.676  25.995  31.132  1.00  0.00     0.200 A 
ATOM     97  F   UNL A   1      51.421  27.122  29.194  1.00  0.00    -0.200 F 
ATOM     98  F   UNL A   1      51.922  25.572  31.381  1.00  0.00    -0.200 F 
ENDBRANCH  65  88
ENDBRANCH  39  40
ENDBRANCH  31  34
ENDBRANCH  29  30
ENDBRANCH  28  29
ENDBRANCH   1  28
TORSDOF 13
ENDMDL
MODEL 3
REMARK VINA RESULT:     -13.9      2.300      7.997
REMARK SMILES O=C(CCC(=O)Nc1cccc2c1C(=O)c1ccccc1C2=O)NCCCNC(=O)c1ccc(-c2c3nc(c(-c4c(F)c(F)c(F)c(F)c4F)c4ccc([nH]4)c(-c4c(F)c(F)c(F)c(F)c4F)c4nc(c(-c5c(F)c(F)c(F)c(F)c5F)c5ccc2[nH]5)C=C4)C=C3)cc1
REMARK SMILES IDX 25 1 24 2 1 3 2 4 3 6 4 7 5 8 6 9 7 10 8 12 9 13 13 14 10 15
REMARK SMILES IDX 12 16 14 17 11 18 22 19 15 20 16 21 21 22 23 23 17 24 20 25
REMARK SMILES IDX 18 26 19 27 26 28 27 29 28 30 29 31 30 33 31 34 32 35 93 36
REMARK SMILES IDX 33 37 92 38 34 39 35 40 36 41 86 42 37 43 91 44 85 45 87 46
REMARK SMILES IDX 38 47 90 48 84 49 83 50 39 52 71 53 51 54 70 55 52 56 55 57
REMARK SMILES IDX 69 58 88 59 53 60 54 61 68 63 89 64 56 65 40 66 41 67 49 68
REMARK SMILES IDX 42 69 43 70 47 71 50 72 44 73 45 74 48 75 46 76 72 77 73 78
REMARK SMILES IDX 81 79 74 80 75 81 79 82 82 83 76 84 77 85 80 86 78 87 57 88
REMARK SMILES IDX 58 89 66 90 59 91 60 92 64 93 67 94 61 95 62 96 65 97 63 98
REMARK H PARENT 24 5 7 11 28 32 87 51 55 62
REMARK Flexibility Score: inf
ROOT
ATOM      1  C   UNL A   1      32.661  30.116  26.898  1.00  0.00     0.117 C 
ENDROOT
BRANCH   1   2
ATOM      2  N   UNL A   1      31.769  29.046  26.511  1.00  0.00    -0.356 N 
ATOM      3  O   UNL A   1      31.191  29.528  24.333  1.00  0.00    -0.275 OA
ATOM      4  C   UNL A   1      31.662  28.763  25.163  1.00  0.00     0.220 C 
ATOM      5  H   UNL A   1      31.258  28.540  27.182  1.00  0.00     0.163 HD
BRANCH   4   6
ATOM      6  C   UNL A   1      32.404  27.524  24.732  1.00  0.00     0.110 C 
BRANCH   6   7
ATOM      7  C   UNL A   1      33.680  27.966  23.993  1.00  0.00     0.110 C 
BRANCH   7   8
ATOM      8  C   UNL A   1      33.708  27.354  22.621  1.00  0.00     0.224 C 
ATOM      9  O   UNL A   1      33.928  28.087  21.645  1.00  0.00    -0.275 OA
ATOM     10  N   UNL A   1      33.544  26.042  22.328  1.00  0.00    -0.325 N 
ATOM     11  H   UNL A   1      33.673  25.910  21.361  1.00  0.00     0.169 HD
BRANCH  10  12
ATOM     12  C   UNL A   1      33.250  24.792  22.934  1.00  0.00     0.053 A 
ATOM     13  C   UNL A   1      31.869  24.505  22.818  1.00  0.00     0.027 A 
ATOM     14  C   UNL A   1      34.048  23.824  23.588  1.00  0.00     0.057 A 
ATOM     15  C   UNL A   1      31.316  23.290  23.213  1.00  0.00     0.003 A 
ATOM     16  C   UNL A   1      33.508  22.543  23.852  1.00  0.00     0.036 A 
ATOM     17  C   UNL A   1      35.124  24.102  24.577  1.00  0.00     0.196 C 
ATOM     18  C   UNL A   1      32.146  22.286  23.678  1.00  0.00     0.013 A 
ATOM     19  C   UNL A   1      34.368  21.456  24.391  1.00  0.00     0.194 C 
ATOM     20  O   UNL A   1      34.962  24.964  25.433  1.00  0.00    -0.288 OA
ATOM     21  C   UNL A   1      36.151  23.087  24.843  1.00  0.00     0.034 A 
ATOM     22  C   UNL A   1      35.773  21.757  24.726  1.00  0.00     0.034 A 
ATOM     23  O   UNL A   1      33.924  20.325  24.546  1.00  0.00    -0.289 OA
ATOM     24  C   UNL A   1      37.406  23.412  25.364  1.00  0.00     0.013 A 
ATOM     25  C   UNL A   1      36.680  20.739  25.037  1.00  0.00     0.013 A 
ATOM     26  C   UNL A   1      38.324  22.402  25.653  1.00  0.00     0.001 A 
ATOM     27  C   UNL A   1      37.966  21.066  25.474  1.00  0.00     0.001 A 
ENDBRANCH  10  12
ENDBRANCH   7   8
ENDBRANCH   6   7
ENDBRANCH   4   6
ENDBRANCH   1   2
BRANCH   1  28
ATOM     28  C   UNL A   1      32.123  31.527  26.904  1.00  0.00     0.042 C 
BRANCH  28  29
ATOM     29  C   UNL A   1      33.114  32.470  27.525  1.00  0.00     0.118 C 
BRANCH  29  30
ATOM     30  N   UNL A   1      32.603  33.831  27.705  1.00  0.00    -0.352 N 
ATOM     31  C   UNL A   1      33.062  34.810  28.558  1.00  0.00     0.251 C 
ATOM     32  H   UNL A   1      31.833  34.079  27.143  1.00  0.00     0.163 HD
ATOM     33  O   UNL A   1      32.506  35.890  28.639  1.00  0.00    -0.269 OA
BRANCH  31  34
ATOM     34  C   UNL A   1      34.201  34.472  29.433  1.00  0.00     0.039 A 
ATOM     35  C   UNL A   1      33.947  33.887  30.672  1.00  0.00     0.014 A 
ATOM     36  C   UNL A   1      35.504  34.586  28.951  1.00  0.00     0.014 A 
ATOM     37  C   UNL A   1      35.005  33.332  31.389  1.00  0.00     0.010 A 
ATOM     38  C   UNL A   1      36.518  33.889  29.579  1.00  0.00     0.010 A 
ATOM     39  C   UNL A   1      36.288  33.283  30.819  1.00  0.00    -0.014 A 
BRANCH  39  40
ATOM     40  C   UNL A   1      37.433  32.654  31.515  1.00  0.00     0.031 A 
ATOM     41  C   UNL A   1      38.148  31.508  30.849  1.00  0.00     0.074 A 
ATOM     42  C   UNL A   1      37.761  33.040  32.762  1.00  0.00     0.049 A 
ATOM     43  N   UNL A   1      39.078  30.722  31.324  1.00  0.00    -0.248 NA
ATOM     44  C   UNL A   1      37.713  31.158  29.485  1.00  0.00     0.031 C 
ATOM     45  C   UNL A   1      37.083  34.081  33.537  1.00  0.00     0.029 A 
ATOM     46  N   UNL A   1      38.749  32.594  33.600  1.00  0.00    -0.354 N 
ATOM     47  C   UNL A   1      39.298  29.768  30.340  1.00  0.00     0.074 A 
ATOM     48  C   UNL A   1      38.352  30.018  29.279  1.00  0.00     0.031 C 
ATOM     49  C   UNL A   1      37.704  34.224  34.720  1.00  0.00     0.029 A 
ATOM     50  C   UNL A   1      38.795  33.259  34.801  1.00  0.00     0.049 A 
ATOM     51  H   UNL A   1      39.368  31.864  33.365  1.00  0.00     0.167 HD
ATOM     52  C   UNL A   1      40.238  28.796  30.303  1.00  0.00     0.037 A 
ATOM     53  C   UNL A   1      39.631  33.103  35.843  1.00  0.00     0.037 A 
ATOM     54  C   UNL A   1      41.226  28.611  31.328  1.00  0.00     0.049 A 
ATOM     55  C   UNL A   1      40.709  32.057  35.753  1.00  0.00     0.074 A 
ATOM     56  C   UNL A   1      42.288  27.728  31.354  1.00  0.00     0.029 A 
ATOM     57  N   UNL A   1      41.279  29.345  32.505  1.00  0.00    -0.354 N 
ATOM     58  N   UNL A   1      40.962  31.209  34.784  1.00  0.00    -0.248 NA
ATOM     59  C   UNL A   1      41.625  31.950  36.896  1.00  0.00     0.031 C 
ATOM     60  C   UNL A   1      42.968  27.905  32.563  1.00  0.00     0.029 A 
ATOM     61  C   UNL A   1      42.352  28.926  33.271  1.00  0.00     0.049 A 
ATOM     62  H   UNL A   1      40.648  30.058  32.756  1.00  0.00     0.167 HD
ATOM     63  C   UNL A   1      42.073  30.486  35.188  1.00  0.00     0.074 A 
ATOM     64  C   UNL A   1      42.460  31.007  36.484  1.00  0.00     0.031 C 
ATOM     65  C   UNL A   1      42.716  29.476  34.552  1.00  0.00     0.037 A 
BRANCH  52  66
ATOM     66  C   UNL A   1      40.252  27.890  29.106  1.00  0.00     0.064 A 
ATOM     67  C   UNL A   1      40.975  28.213  27.946  1.00  0.00     0.173 A 
ATOM     68  C   UNL A   1      39.536  26.684  29.117  1.00  0.00     0.173 A 
ATOM     69  F   UNL A   1      41.661  29.363  27.876  1.00  0.00    -0.203 F 
ATOM     70  C   UNL A   1      40.949  27.382  26.830  1.00  0.00     0.198 A 
ATOM     71  C   UNL A   1      39.541  25.838  28.012  1.00  0.00     0.198 A 
ATOM     72  F   UNL A   1      38.829  26.327  30.200  1.00  0.00    -0.203 F 
ATOM     73  F   UNL A   1      41.593  27.744  25.712  1.00  0.00    -0.200 F 
ATOM     74  C   UNL A   1      40.237  26.192  26.865  1.00  0.00     0.200 A 
ATOM     75  F   UNL A   1      38.861  24.684  28.050  1.00  0.00    -0.200 F 
ATOM     76  F   UNL A   1      40.216  25.392  25.791  1.00  0.00    -0.200 F 
ENDBRANCH  52  66
BRANCH  53  77
ATOM     77  C   UNL A   1      39.514  33.985  37.033  1.00  0.00     0.064 A 
ATOM     78  C   UNL A   1      38.808  33.563  38.169  1.00  0.00     0.173 A 
ATOM     79  C   UNL A   1      40.101  35.257  37.067  1.00  0.00     0.173 A 
ATOM     80  F   UNL A   1      38.213  32.361  38.179  1.00  0.00    -0.203 F 
ATOM     81  C   UNL A   1      38.676  34.388  39.284  1.00  0.00     0.198 A 
ATOM     82  C   UNL A   1      39.992  36.072  38.193  1.00  0.00     0.198 A 
ATOM     83  F   UNL A   1      40.794  35.704  36.009  1.00  0.00    -0.203 F 
ATOM     84  F   UNL A   1      37.958  33.977  40.338  1.00  0.00    -0.200 F 
ATOM     85  C   UNL A   1      39.272  35.640  39.296  1.00  0.00     0.200 A 
ATOM     86  F   UNL A   1      40.581  37.275  38.206  1.00  0.00    -0.200 F 
ATOM     87  F   UNL A   1      39.147  36.433  40.370  1.00  0.00    -0.200 F 
ENDBRANCH  53  77
BRANCH  65  88
ATOM     88  C   UNL A   1      43.915  28.892  35.233  1.00  0.00     0.064 A 
ATOM     89  C   UNL A   1      43.799  27.809  36.116  1.00  0.00     0.173 A 
ATOM     90  C   UNL A   1      45.199  29.385  34.955  1.00  0.00     0.173 A 
ATOM     91  F   UNL A   1      42.590  27.315  36.422  1.00  0.00    -0.203 F 
ATOM     92  C   UNL A   1      44.926  27.252  36.713  1.00  0.00     0.198 A 
ATOM     93  C   UNL A   1      46.325  28.806  35.531  1.00  0.00     0.198 A 
ATOM     94  F   UNL A   1      45.360  30.413  34.110  1.00  0.00    -0.203 F 
ATOM     95  F   UNL A   1      44.791  26.244  37.585  1.00  0.00    -0.200 F 
ATOM     96  C   UNL A   1      46.188  27.745  36.413  1.00  0.00     0.200 A 
ATOM     97  F   UNL A   1      47.544  29.274  35.230  1.00  0.00    -0.200 F 
ATOM     98  F   UNL A   1      47.272  27.200  36.981  1.00  0.00    -0.200 F 
ENDBRANCH  65  88
ENDBRANCH  39  40
ENDBRANCH  31  34
ENDBRANCH  29  30
ENDBRANCH  28  29
ENDBRANCH   1  28
TORSDOF 13
ENDMDL
