MODEL 1
REMARK VINA RESULT:     -11.0      0.000      0.000
REMARK SMILES C[C@H]([NH2+]CC(C)(C)C(=O)NCCCNC(=O)c1ccc(-c2c3nc(c(-c4c(F)c(F)c(F)c(F)c4F)c4ccc([nH]4)c(-c4c(F)c(F)c(F)c(F)c4F)c4nc(c(-c5c(F)c(F)c(F)c(F)c5F)c5ccc2[nH]5)C=C4)C=C3)cc1)c1nccs1
REMARK SMILES IDX 11 1 10 2 8 3 9 4 5 6 6 7 7 8 4 9 3 10 2 13 1 14 80 15 81 16
REMARK SMILES IDX 84 17 82 18 83 19 12 20 13 21 14 22 15 23 16 25 17 26 18 27
REMARK SMILES IDX 79 28 19 29 78 30 20 31 21 32 22 33 72 34 23 35 77 36 71 37
REMARK SMILES IDX 73 38 24 39 76 40 70 41 69 42 25 44 57 45 37 46 56 47 38 48
REMARK SMILES IDX 41 49 55 50 74 51 39 52 40 53 54 55 75 56 42 57 26 58 27 59
REMARK SMILES IDX 35 60 28 61 29 62 33 63 36 64 30 65 31 66 34 67 32 68 58 69
REMARK SMILES IDX 59 70 67 71 60 72 61 73 65 74 68 75 62 76 63 77 66 78 64 79
REMARK SMILES IDX 43 80 44 81 52 82 45 83 46 84 50 85 53 86 47 87 48 88 51 89
REMARK SMILES IDX 49 90
REMARK H PARENT 10 5 3 11 3 12 14 24 73 43 41 54
REMARK Flexibility Score: inf
ROOT
ATOM      1  C   UNL A   1      31.468  30.929  25.995  1.00  0.00     0.117 C 
ENDROOT
BRANCH   1   2
ATOM      2  N   UNL A   1      32.558  30.211  26.628  1.00  0.00    -0.355 N 
ATOM      3  C   UNL A   1      33.151  29.013  26.374  1.00  0.00     0.231 C 
ATOM      4  O   UNL A   1      33.843  28.577  27.299  1.00  0.00    -0.274 OA
ATOM      5  H   UNL A   1      32.946  30.686  27.397  1.00  0.00     0.163 HD
BRANCH   3   6
ATOM      6  C   UNL A   1      32.937  28.238  25.055  1.00  0.00     0.092 C 
ATOM      7  C   UNL A   1      33.338  26.758  25.177  1.00  0.00     0.027 C 
ATOM      8  C   UNL A   1      33.729  28.930  23.929  1.00  0.00     0.027 C 
BRANCH   6   9
ATOM      9  C   UNL A   1      31.427  28.308  24.637  1.00  0.00     0.277 C 
BRANCH   9  10
ATOM     10  N   UNL A   1      31.175  28.739  23.267  1.00  0.00    -0.337 N 
ATOM     11  H   UNL A   1      31.311  29.750  23.237  1.00  0.00     0.346 HD
ATOM     12  H   UNL A   1      31.822  28.190  22.702  1.00  0.00     0.346 HD
BRANCH  10  13
ATOM     13  C   UNL A   1      29.845  28.457  22.689  1.00  0.00     0.239 C 
ATOM     14  C   UNL A   1      28.971  27.472  23.474  1.00  0.00     0.083 C 
BRANCH  13  15
ATOM     15  C   UNL A   1      29.153  29.774  22.319  1.00  0.00     0.150 A 
ATOM     16  N   UNL A   1      28.728  30.027  21.091  1.00  0.00    -0.243 NA
ATOM     17  S   UNL A   1      28.833  31.032  23.454  1.00  0.00    -0.121 S 
ATOM     18  C   UNL A   1      28.080  31.244  21.047  1.00  0.00     0.123 A 
ATOM     19  C   UNL A   1      28.048  31.939  22.233  1.00  0.00     0.087 A 
ENDBRANCH  13  15
ENDBRANCH  10  13
ENDBRANCH   9  10
ENDBRANCH   6   9
ENDBRANCH   3   6
ENDBRANCH   1   2
BRANCH   1  20
ATOM     20  C   UNL A   1      31.286  32.315  26.607  1.00  0.00     0.042 C 
BRANCH  20  21
ATOM     21  C   UNL A   1      32.550  32.876  27.250  1.00  0.00     0.118 C 
BRANCH  21  22
ATOM     22  N   UNL A   1      32.399  34.268  27.655  1.00  0.00    -0.352 N 
ATOM     23  C   UNL A   1      33.015  34.974  28.655  1.00  0.00     0.251 C 
ATOM     24  H   UNL A   1      31.749  34.784  27.124  1.00  0.00     0.163 HD
ATOM     25  O   UNL A   1      32.586  36.084  28.970  1.00  0.00    -0.269 OA
BRANCH  23  26
ATOM     26  C   UNL A   1      34.181  34.413  29.369  1.00  0.00     0.039 A 
ATOM     27  C   UNL A   1      33.974  33.738  30.574  1.00  0.00     0.014 A 
ATOM     28  C   UNL A   1      35.478  34.583  28.879  1.00  0.00     0.014 A 
ATOM     29  C   UNL A   1      35.058  33.178  31.254  1.00  0.00     0.010 A 
ATOM     30  C   UNL A   1      36.547  33.953  29.510  1.00  0.00     0.010 A 
ATOM     31  C   UNL A   1      36.350  33.251  30.708  1.00  0.00    -0.014 A 
BRANCH  31  32
ATOM     32  C   UNL A   1      37.509  32.611  31.380  1.00  0.00     0.031 A 
ATOM     33  C   UNL A   1      38.240  31.480  30.712  1.00  0.00     0.074 A 
ATOM     34  C   UNL A   1      37.858  33.003  32.621  1.00  0.00     0.049 A 
ATOM     35  N   UNL A   1      39.221  30.743  31.167  1.00  0.00    -0.248 NA
ATOM     36  C   UNL A   1      37.787  31.106  29.363  1.00  0.00     0.031 C 
ATOM     37  C   UNL A   1      37.195  34.054  33.394  1.00  0.00     0.029 A 
ATOM     38  N   UNL A   1      38.852  32.555  33.454  1.00  0.00    -0.354 N 
ATOM     39  C   UNL A   1      39.489  29.812  30.172  1.00  0.00     0.074 A 
ATOM     40  C   UNL A   1      38.532  30.039  29.112  1.00  0.00     0.031 C 
ATOM     41  C   UNL A   1      37.814  34.186  34.578  1.00  0.00     0.029 A 
ATOM     42  C   UNL A   1      38.892  33.206  34.663  1.00  0.00     0.049 A 
ATOM     43  H   UNL A   1      39.478  31.836  33.208  1.00  0.00     0.167 HD
ATOM     44  C   UNL A   1      40.461  28.869  30.136  1.00  0.00     0.037 A 
ATOM     45  C   UNL A   1      39.703  33.028  35.722  1.00  0.00     0.037 A 
ATOM     46  C   UNL A   1      41.430  28.666  31.180  1.00  0.00     0.049 A 
ATOM     47  C   UNL A   1      40.779  31.978  35.653  1.00  0.00     0.074 A 
ATOM     48  C   UNL A   1      42.492  27.780  31.212  1.00  0.00     0.029 A 
ATOM     49  N   UNL A   1      41.454  29.363  32.379  1.00  0.00    -0.354 N 
ATOM     50  N   UNL A   1      41.064  31.148  34.679  1.00  0.00    -0.248 NA
ATOM     51  C   UNL A   1      41.648  31.844  36.830  1.00  0.00     0.031 C 
ATOM     52  C   UNL A   1      43.134  27.911  32.449  1.00  0.00     0.029 A 
ATOM     53  C   UNL A   1      42.501  28.913  33.167  1.00  0.00     0.049 A 
ATOM     54  H   UNL A   1      40.820  30.072  32.634  1.00  0.00     0.167 HD
ATOM     55  C   UNL A   1      42.161  30.415  35.111  1.00  0.00     0.074 A 
ATOM     56  C   UNL A   1      42.499  30.909  36.430  1.00  0.00     0.031 C 
ATOM     57  C   UNL A   1      42.828  29.423  34.474  1.00  0.00     0.037 A 
BRANCH  44  58
ATOM     58  C   UNL A   1      40.527  27.989  28.921  1.00  0.00     0.064 A 
ATOM     59  C   UNL A   1      39.797  26.793  28.839  1.00  0.00     0.173 A 
ATOM     60  C   UNL A   1      41.305  28.358  27.813  1.00  0.00     0.173 A 
ATOM     61  F   UNL A   1      39.046  26.387  29.875  1.00  0.00    -0.203 F 
ATOM     62  C   UNL A   1      39.865  25.987  27.705  1.00  0.00     0.198 A 
ATOM     63  C   UNL A   1      41.347  27.566  26.670  1.00  0.00     0.198 A 
ATOM     64  F   UNL A   1      42.018  29.495  27.837  1.00  0.00    -0.203 F 
ATOM     65  F   UNL A   1      39.199  24.825  27.671  1.00  0.00    -0.200 F 
ATOM     66  C   UNL A   1      40.634  26.377  26.619  1.00  0.00     0.200 A 
ATOM     67  F   UNL A   1      42.080  27.951  25.615  1.00  0.00    -0.200 F 
ATOM     68  F   UNL A   1      40.693  25.603  25.526  1.00  0.00    -0.200 F 
ENDBRANCH  44  58
BRANCH  45  69
ATOM     69  C   UNL A   1      39.550  33.884  36.927  1.00  0.00     0.064 A 
ATOM     70  C   UNL A   1      38.813  33.440  38.034  1.00  0.00     0.173 A 
ATOM     71  C   UNL A   1      40.132  35.159  36.998  1.00  0.00     0.173 A 
ATOM     72  F   UNL A   1      38.222  32.236  38.004  1.00  0.00    -0.203 F 
ATOM     73  C   UNL A   1      38.647  34.246  39.158  1.00  0.00     0.198 A 
ATOM     74  C   UNL A   1      39.988  35.952  38.135  1.00  0.00     0.198 A 
ATOM     75  F   UNL A   1      40.851  35.627  35.969  1.00  0.00    -0.203 F 
ATOM     76  F   UNL A   1      37.900  33.814  40.184  1.00  0.00    -0.200 F 
ATOM     77  C   UNL A   1      39.239  35.498  39.210  1.00  0.00     0.200 A 
ATOM     78  F   UNL A   1      40.573  37.155  38.187  1.00  0.00    -0.200 F 
ATOM     79  F   UNL A   1      39.082  36.271  40.294  1.00  0.00    -0.200 F 
ENDBRANCH  45  69
BRANCH  57  80
ATOM     80  C   UNL A   1      44.012  28.828  35.179  1.00  0.00     0.064 A 
ATOM     81  C   UNL A   1      45.309  29.326  34.991  1.00  0.00     0.173 A 
ATOM     82  C   UNL A   1      43.838  27.768  36.083  1.00  0.00     0.173 A 
ATOM     83  F   UNL A   1      45.528  30.327  34.126  1.00  0.00    -0.203 F 
ATOM     84  C   UNL A   1      46.393  28.768  35.662  1.00  0.00     0.198 A 
ATOM     85  C   UNL A   1      44.921  27.232  36.775  1.00  0.00     0.198 A 
ATOM     86  F   UNL A   1      42.617  27.260  36.304  1.00  0.00    -0.203 F 
ATOM     87  F   UNL A   1      47.631  29.227  35.430  1.00  0.00    -0.200 F 
ATOM     88  C   UNL A   1      46.197  27.727  36.558  1.00  0.00     0.200 A 
ATOM     89  F   UNL A   1      44.728  26.236  37.650  1.00  0.00    -0.200 F 
ATOM     90  F   UNL A   1      47.242  27.195  37.207  1.00  0.00    -0.200 F 
ENDBRANCH  57  80
ENDBRANCH  31  32
ENDBRANCH  23  26
ENDBRANCH  21  22
ENDBRANCH  20  21
ENDBRANCH   1  20
TORSDOF 14
ENDMDL
MODEL 2
REMARK VINA RESULT:     -11.0      1.768      2.815
REMARK SMILES C[C@H]([NH2+]CC(C)(C)C(=O)NCCCNC(=O)c1ccc(-c2c3nc(c(-c4c(F)c(F)c(F)c(F)c4F)c4ccc([nH]4)c(-c4c(F)c(F)c(F)c(F)c4F)c4nc(c(-c5c(F)c(F)c(F)c(F)c5F)c5ccc2[nH]5)C=C4)C=C3)cc1)c1nccs1
REMARK SMILES IDX 11 1 10 2 8 3 9 4 5 6 6 7 7 8 4 9 3 10 2 13 1 14 80 15 81 16
REMARK SMILES IDX 84 17 82 18 83 19 12 20 13 21 14 22 15 23 16 25 17 26 18 27
REMARK SMILES IDX 79 28 19 29 78 30 20 31 21 32 22 33 72 34 23 35 77 36 71 37
REMARK SMILES IDX 73 38 24 39 76 40 70 41 69 42 25 44 57 45 37 46 56 47 38 48
REMARK SMILES IDX 41 49 55 50 74 51 39 52 40 53 54 55 75 56 42 57 26 58 27 59
REMARK SMILES IDX 35 60 28 61 29 62 33 63 36 64 30 65 31 66 34 67 32 68 58 69
REMARK SMILES IDX 59 70 67 71 60 72 61 73 65 74 68 75 62 76 63 77 66 78 64 79
REMARK SMILES IDX 43 80 44 81 52 82 45 83 46 84 50 85 53 86 47 87 48 88 51 89
REMARK SMILES IDX 49 90
REMARK H PARENT 10 5 3 11 3 12 14 24 73 43 41 54
REMARK Flexibility Score: inf
ROOT
ATOM      1  C   UNL A   1      31.138  31.013  26.440  1.00  0.00     0.117 C 
ENDROOT
BRANCH   1   2
ATOM      2  N   UNL A   1      31.789  30.327  25.340  1.00  0.00    -0.355 N 
ATOM      3  C   UNL A   1      32.766  29.382  25.285  1.00  0.00     0.231 C 
ATOM      4  O   UNL A   1      33.290  29.250  24.174  1.00  0.00    -0.274 OA
ATOM      5  H   UNL A   1      31.457  30.601  24.455  1.00  0.00     0.163 HD
BRANCH   3   6
ATOM      6  C   UNL A   1      33.220  28.576  26.521  1.00  0.00     0.092 C 
ATOM      7  C   UNL A   1      32.049  28.243  27.462  1.00  0.00     0.027 C 
ATOM      8  C   UNL A   1      34.314  29.367  27.265  1.00  0.00     0.027 C 
BRANCH   6   9
ATOM      9  C   UNL A   1      33.884  27.230  26.066  1.00  0.00     0.277 C 
BRANCH   9  10
ATOM     10  N   UNL A   1      33.134  26.463  25.079  1.00  0.00    -0.337 N 
ATOM     11  H   UNL A   1      32.158  26.460  25.373  1.00  0.00     0.346 HD
ATOM     12  H   UNL A   1      33.326  26.928  24.192  1.00  0.00     0.346 HD
BRANCH  10  13
ATOM     13  C   UNL A   1      33.529  25.057  24.853  1.00  0.00     0.239 C 
ATOM     14  C   UNL A   1      34.960  24.691  25.267  1.00  0.00     0.083 C 
BRANCH  13  15
ATOM     15  C   UNL A   1      32.444  24.122  25.398  1.00  0.00     0.150 A 
ATOM     16  N   UNL A   1      31.869  24.319  26.573  1.00  0.00    -0.243 NA
ATOM     17  S   UNL A   1      31.847  22.753  24.535  1.00  0.00    -0.121 S 
ATOM     18  C   UNL A   1      30.881  23.381  26.788  1.00  0.00     0.123 A 
ATOM     19  C   UNL A   1      30.732  22.441  25.795  1.00  0.00     0.087 A 
ENDBRANCH  13  15
ENDBRANCH  10  13
ENDBRANCH   9  10
ENDBRANCH   6   9
ENDBRANCH   3   6
ENDBRANCH   1   2
BRANCH   1  20
ATOM     20  C   UNL A   1      31.391  32.517  26.385  1.00  0.00     0.042 C 
BRANCH  20  21
ATOM     21  C   UNL A   1      32.534  32.983  27.280  1.00  0.00     0.118 C 
BRANCH  21  22
ATOM     22  N   UNL A   1      32.389  34.373  27.692  1.00  0.00    -0.352 N 
ATOM     23  C   UNL A   1      33.008  35.073  28.694  1.00  0.00     0.251 C 
ATOM     24  H   UNL A   1      31.740  34.895  27.164  1.00  0.00     0.163 HD
ATOM     25  O   UNL A   1      32.584  36.182  29.016  1.00  0.00    -0.269 OA
BRANCH  23  26
ATOM     26  C   UNL A   1      34.173  34.504  29.405  1.00  0.00     0.039 A 
ATOM     27  C   UNL A   1      33.969  33.856  30.626  1.00  0.00     0.014 A 
ATOM     28  C   UNL A   1      35.466  34.640  28.895  1.00  0.00     0.014 A 
ATOM     29  C   UNL A   1      35.052  33.289  31.302  1.00  0.00     0.010 A 
ATOM     30  C   UNL A   1      36.532  34.003  29.524  1.00  0.00     0.010 A 
ATOM     31  C   UNL A   1      36.338  33.328  30.738  1.00  0.00    -0.014 A 
BRANCH  31  32
ATOM     32  C   UNL A   1      37.493  32.679  31.409  1.00  0.00     0.031 A 
ATOM     33  C   UNL A   1      38.210  31.538  30.742  1.00  0.00     0.074 A 
ATOM     34  C   UNL A   1      37.852  33.074  32.646  1.00  0.00     0.049 A 
ATOM     35  N   UNL A   1      39.186  30.794  31.196  1.00  0.00    -0.248 NA
ATOM     36  C   UNL A   1      37.747  31.162  29.397  1.00  0.00     0.031 C 
ATOM     37  C   UNL A   1      37.203  34.135  33.417  1.00  0.00     0.029 A 
ATOM     38  N   UNL A   1      38.846  32.620  33.476  1.00  0.00    -0.354 N 
ATOM     39  C   UNL A   1      39.440  29.855  30.205  1.00  0.00     0.074 A 
ATOM     40  C   UNL A   1      38.481  30.087  29.148  1.00  0.00     0.031 C 
ATOM     41  C   UNL A   1      37.829  34.267  34.597  1.00  0.00     0.029 A 
ATOM     42  C   UNL A   1      38.898  33.276  34.682  1.00  0.00     0.049 A 
ATOM     43  H   UNL A   1      39.463  31.894  33.231  1.00  0.00     0.167 HD
ATOM     44  C   UNL A   1      40.402  28.903  30.168  1.00  0.00     0.037 A 
ATOM     45  C   UNL A   1      39.712  33.095  35.738  1.00  0.00     0.037 A 
ATOM     46  C   UNL A   1      41.374  28.695  31.208  1.00  0.00     0.049 A 
ATOM     47  C   UNL A   1      40.776  32.034  35.669  1.00  0.00     0.074 A 
ATOM     48  C   UNL A   1      42.427  27.799  31.240  1.00  0.00     0.029 A 
ATOM     49  N   UNL A   1      41.410  29.397  32.405  1.00  0.00    -0.354 N 
ATOM     50  N   UNL A   1      41.049  31.197  34.698  1.00  0.00    -0.248 NA
ATOM     51  C   UNL A   1      41.650  31.897  36.842  1.00  0.00     0.031 C 
ATOM     52  C   UNL A   1      43.076  27.930  32.473  1.00  0.00     0.029 A 
ATOM     53  C   UNL A   1      42.457  28.941  33.190  1.00  0.00     0.049 A 
ATOM     54  H   UNL A   1      40.785  30.114  32.659  1.00  0.00     0.167 HD
ATOM     55  C   UNL A   1      42.141  30.455  35.128  1.00  0.00     0.074 A 
ATOM     56  C   UNL A   1      42.490  30.952  36.443  1.00  0.00     0.031 C 
ATOM     57  C   UNL A   1      42.795  29.453  34.493  1.00  0.00     0.037 A 
BRANCH  44  58
ATOM     58  C   UNL A   1      40.454  28.016  28.958  1.00  0.00     0.064 A 
ATOM     59  C   UNL A   1      39.734  26.814  28.895  1.00  0.00     0.173 A 
ATOM     60  C   UNL A   1      41.208  28.386  27.833  1.00  0.00     0.173 A 
ATOM     61  F   UNL A   1      39.006  26.406  29.947  1.00  0.00    -0.203 F 
ATOM     62  C   UNL A   1      39.788  26.001  27.765  1.00  0.00     0.198 A 
ATOM     63  C   UNL A   1      41.236  27.588  26.694  1.00  0.00     0.198 A 
ATOM     64  F   UNL A   1      41.911  29.529  27.837  1.00  0.00    -0.203 F 
ATOM     65  F   UNL A   1      39.132  24.834  27.749  1.00  0.00    -0.200 F 
ATOM     66  C   UNL A   1      40.533  26.392  26.663  1.00  0.00     0.200 A 
ATOM     67  F   UNL A   1      41.945  27.973  25.624  1.00  0.00    -0.200 F 
ATOM     68  F   UNL A   1      40.580  25.613  25.573  1.00  0.00    -0.200 F 
ENDBRANCH  44  58
BRANCH  45  69
ATOM     69  C   UNL A   1      39.573  33.958  36.940  1.00  0.00     0.064 A 
ATOM     70  C   UNL A   1      38.816  33.537  38.042  1.00  0.00     0.173 A 
ATOM     71  C   UNL A   1      40.188  35.217  37.012  1.00  0.00     0.173 A 
ATOM     72  F   UNL A   1      38.194  32.349  38.012  1.00  0.00    -0.203 F 
ATOM     73  C   UNL A   1      38.664  34.351  39.163  1.00  0.00     0.198 A 
ATOM     74  C   UNL A   1      40.057  36.017  38.145  1.00  0.00     0.198 A 
ATOM     75  F   UNL A   1      40.927  35.664  35.987  1.00  0.00    -0.203 F 
ATOM     76  F   UNL A   1      37.898  33.941  40.184  1.00  0.00    -0.200 F 
ATOM     77  C   UNL A   1      39.288  35.587  39.216  1.00  0.00     0.200 A 
ATOM     78  F   UNL A   1      40.674  37.205  38.199  1.00  0.00    -0.200 F 
ATOM     79  F   UNL A   1      39.144  36.367  40.297  1.00  0.00    -0.200 F 
ENDBRANCH  45  69
BRANCH  57  80
ATOM     80  C   UNL A   1      43.976  28.850  35.195  1.00  0.00     0.064 A 
ATOM     81  C   UNL A   1      43.840  27.752  36.056  1.00  0.00     0.173 A 
ATOM     82  C   UNL A   1      45.266  29.358  34.975  1.00  0.00     0.173 A 
ATOM     83  F   UNL A   1      42.626  27.242  36.311  1.00  0.00    -0.203 F 
ATOM     84  C   UNL A   1      44.949  27.200  36.691  1.00  0.00     0.198 A 
ATOM     85  C   UNL A   1      46.376  28.784  35.589  1.00  0.00     0.198 A 
ATOM     86  F   UNL A   1      45.451  30.404  34.155  1.00  0.00    -0.203 F 
ATOM     87  F   UNL A   1      44.789  26.182  37.548  1.00  0.00    -0.200 F 
ATOM     88  C   UNL A   1      46.216  27.712  36.451  1.00  0.00     0.200 A 
ATOM     89  F   UNL A   1      47.601  29.271  35.345  1.00  0.00    -0.200 F 
ATOM     90  F   UNL A   1      47.282  27.174  37.059  1.00  0.00    -0.200 F 
ENDBRANCH  57  80
ENDBRANCH  31  32
ENDBRANCH  23  26
ENDBRANCH  21  22
ENDBRANCH  20  21
ENDBRANCH   1  20
TORSDOF 14
ENDMDL
MODEL 3
REMARK VINA RESULT:     -10.9      0.581      1.792
REMARK SMILES C[C@H]([NH2+]CC(C)(C)C(=O)NCCCNC(=O)c1ccc(-c2c3nc(c(-c4c(F)c(F)c(F)c(F)c4F)c4ccc([nH]4)c(-c4c(F)c(F)c(F)c(F)c4F)c4nc(c(-c5c(F)c(F)c(F)c(F)c5F)c5ccc2[nH]5)C=C4)C=C3)cc1)c1nccs1
REMARK SMILES IDX 11 1 10 2 8 3 9 4 5 6 6 7 7 8 4 9 3 10 2 13 1 14 80 15 81 16
REMARK SMILES IDX 84 17 82 18 83 19 12 20 13 21 14 22 15 23 16 25 17 26 18 27
REMARK SMILES IDX 79 28 19 29 78 30 20 31 21 32 22 33 72 34 23 35 77 36 71 37
REMARK SMILES IDX 73 38 24 39 76 40 70 41 69 42 25 44 57 45 37 46 56 47 38 48
REMARK SMILES IDX 41 49 55 50 74 51 39 52 40 53 54 55 75 56 42 57 26 58 27 59
REMARK SMILES IDX 35 60 28 61 29 62 33 63 36 64 30 65 31 66 34 67 32 68 58 69
REMARK SMILES IDX 59 70 67 71 60 72 61 73 65 74 68 75 62 76 63 77 66 78 64 79
REMARK SMILES IDX 43 80 44 81 52 82 45 83 46 84 50 85 53 86 47 87 48 88 51 89
REMARK SMILES IDX 49 90
REMARK H PARENT 10 5 3 11 3 12 14 24 73 43 41 54
REMARK Flexibility Score: inf
ROOT
ATOM      1  C   UNL A   1      31.558  30.807  26.590  1.00  0.00     0.117 C 
ENDROOT
BRANCH   1   2
ATOM      2  N   UNL A   1      32.941  30.388  26.709  1.00  0.00    -0.355 N 
ATOM      3  C   UNL A   1      33.581  29.215  26.450  1.00  0.00     0.231 C 
ATOM      4  O   UNL A   1      34.703  29.120  26.956  1.00  0.00    -0.274 OA
ATOM      5  H   UNL A   1      33.538  31.095  27.045  1.00  0.00     0.163 HD
BRANCH   3   6
ATOM      6  C   UNL A   1      32.936  28.075  25.633  1.00  0.00     0.092 C 
ATOM      7  C   UNL A   1      31.483  27.801  26.058  1.00  0.00     0.027 C 
ATOM      8  C   UNL A   1      33.797  26.804  25.774  1.00  0.00     0.027 C 
BRANCH   6   9
ATOM      9  C   UNL A   1      32.943  28.442  24.108  1.00  0.00     0.277 C 
BRANCH   9  10
ATOM     10  N   UNL A   1      31.862  29.316  23.669  1.00  0.00    -0.337 N 
ATOM     11  H   UNL A   1      31.288  29.525  24.485  1.00  0.00     0.346 HD
ATOM     12  H   UNL A   1      32.333  30.114  23.245  1.00  0.00     0.346 HD
BRANCH  10  13
ATOM     13  C   UNL A   1      30.957  28.816  22.612  1.00  0.00     0.239 C 
ATOM     14  C   UNL A   1      31.026  27.310  22.333  1.00  0.00     0.083 C 
BRANCH  13  15
ATOM     15  C   UNL A   1      29.543  29.362  22.843  1.00  0.00     0.150 A 
ATOM     16  N   UNL A   1      28.462  28.626  22.641  1.00  0.00    -0.243 NA
ATOM     17  S   UNL A   1      29.221  30.959  23.409  1.00  0.00    -0.121 S 
ATOM     18  C   UNL A   1      27.329  29.330  22.992  1.00  0.00     0.123 A 
ATOM     19  C   UNL A   1      27.543  30.620  23.420  1.00  0.00     0.087 A 
ENDBRANCH  13  15
ENDBRANCH  10  13
ENDBRANCH   9  10
ENDBRANCH   6   9
ENDBRANCH   3   6
ENDBRANCH   1   2
BRANCH   1  20
ATOM     20  C   UNL A   1      31.420  32.319  26.741  1.00  0.00     0.042 C 
BRANCH  20  21
ATOM     21  C   UNL A   1      32.713  33.019  27.146  1.00  0.00     0.118 C 
BRANCH  21  22
ATOM     22  N   UNL A   1      32.483  34.365  27.653  1.00  0.00    -0.352 N 
ATOM     23  C   UNL A   1      33.028  35.014  28.730  1.00  0.00     0.251 C 
ATOM     24  H   UNL A   1      31.831  34.895  27.138  1.00  0.00     0.163 HD
ATOM     25  O   UNL A   1      32.537  36.076  29.114  1.00  0.00    -0.269 OA
BRANCH  23  26
ATOM     26  C   UNL A   1      34.190  34.448  29.446  1.00  0.00     0.039 A 
ATOM     27  C   UNL A   1      33.977  33.769  30.649  1.00  0.00     0.014 A 
ATOM     28  C   UNL A   1      35.489  34.616  28.961  1.00  0.00     0.014 A 
ATOM     29  C   UNL A   1      35.058  33.204  31.330  1.00  0.00     0.010 A 
ATOM     30  C   UNL A   1      36.554  33.981  29.593  1.00  0.00     0.010 A 
ATOM     31  C   UNL A   1      36.352  33.276  30.788  1.00  0.00    -0.014 A 
BRANCH  31  32
ATOM     32  C   UNL A   1      37.507  32.630  31.462  1.00  0.00     0.031 A 
ATOM     33  C   UNL A   1      38.221  31.482  30.803  1.00  0.00     0.074 A 
ATOM     34  C   UNL A   1      37.868  33.033  32.695  1.00  0.00     0.049 A 
ATOM     35  N   UNL A   1      39.196  30.740  31.262  1.00  0.00    -0.248 NA
ATOM     36  C   UNL A   1      37.756  31.097  29.461  1.00  0.00     0.031 C 
ATOM     37  C   UNL A   1      37.222  34.101  33.459  1.00  0.00     0.029 A 
ATOM     38  N   UNL A   1      38.862  32.584  33.528  1.00  0.00    -0.354 N 
ATOM     39  C   UNL A   1      39.447  29.793  30.277  1.00  0.00     0.074 A 
ATOM     40  C   UNL A   1      38.487  30.019  29.220  1.00  0.00     0.031 C 
ATOM     41  C   UNL A   1      37.849  34.241  34.638  1.00  0.00     0.029 A 
ATOM     42  C   UNL A   1      38.917  33.249  34.729  1.00  0.00     0.049 A 
ATOM     43  H   UNL A   1      39.477  31.854  33.288  1.00  0.00     0.167 HD
ATOM     44  C   UNL A   1      40.408  28.839  30.247  1.00  0.00     0.037 A 
ATOM     45  C   UNL A   1      39.732  33.075  35.785  1.00  0.00     0.037 A 
ATOM     46  C   UNL A   1      41.380  28.637  31.288  1.00  0.00     0.049 A 
ATOM     47  C   UNL A   1      40.794  32.011  35.724  1.00  0.00     0.074 A 
ATOM     48  C   UNL A   1      42.432  27.739  31.325  1.00  0.00     0.029 A 
ATOM     49  N   UNL A   1      41.419  29.348  32.479  1.00  0.00    -0.354 N 
ATOM     50  N   UNL A   1      41.064  31.166  34.758  1.00  0.00    -0.248 NA
ATOM     51  C   UNL A   1      41.669  31.881  36.897  1.00  0.00     0.031 C 
ATOM     52  C   UNL A   1      43.082  27.878  32.557  1.00  0.00     0.029 A 
ATOM     53  C   UNL A   1      42.466  28.896  33.266  1.00  0.00     0.049 A 
ATOM     54  H   UNL A   1      40.795  30.068  32.728  1.00  0.00     0.167 HD
ATOM     55  C   UNL A   1      42.155  30.426  35.193  1.00  0.00     0.074 A 
ATOM     56  C   UNL A   1      42.506  30.932  36.504  1.00  0.00     0.031 C 
ATOM     57  C   UNL A   1      42.807  29.418  34.565  1.00  0.00     0.037 A 
BRANCH  44  58
ATOM     58  C   UNL A   1      40.457  27.942  29.043  1.00  0.00     0.064 A 
ATOM     59  C   UNL A   1      41.264  28.243  27.935  1.00  0.00     0.173 A 
ATOM     60  C   UNL A   1      39.714  26.753  29.009  1.00  0.00     0.173 A 
ATOM     61  F   UNL A   1      41.985  29.374  27.911  1.00  0.00    -0.203 F 
ATOM     62  C   UNL A   1      41.302  27.401  26.825  1.00  0.00     0.198 A 
ATOM     63  C   UNL A   1      39.778  25.898  27.912  1.00  0.00     0.198 A 
ATOM     64  F   UNL A   1      38.931  26.414  30.045  1.00  0.00    -0.203 F 
ATOM     65  F   UNL A   1      42.040  27.735  25.759  1.00  0.00    -0.200 F 
ATOM     66  C   UNL A   1      40.565  26.226  26.817  1.00  0.00     0.200 A 
ATOM     67  F   UNL A   1      39.077  24.756  27.911  1.00  0.00    -0.200 F 
ATOM     68  F   UNL A   1      40.609  25.414  25.752  1.00  0.00    -0.200 F 
ENDBRANCH  44  58
BRANCH  45  69
ATOM     69  C   UNL A   1      39.595  33.947  36.981  1.00  0.00     0.064 A 
ATOM     70  C   UNL A   1      38.844  33.534  38.089  1.00  0.00     0.173 A 
ATOM     71  C   UNL A   1      40.208  35.208  37.040  1.00  0.00     0.173 A 
ATOM     72  F   UNL A   1      38.223  32.345  38.071  1.00  0.00    -0.203 F 
ATOM     73  C   UNL A   1      38.694  34.356  39.204  1.00  0.00     0.198 A 
ATOM     74  C   UNL A   1      40.080  36.017  38.168  1.00  0.00     0.198 A 
ATOM     75  F   UNL A   1      40.942  35.648  36.009  1.00  0.00    -0.203 F 
ATOM     76  F   UNL A   1      37.933  33.953  40.232  1.00  0.00    -0.200 F 
ATOM     77  C   UNL A   1      39.316  35.593  39.245  1.00  0.00     0.200 A 
ATOM     78  F   UNL A   1      40.695  37.205  38.209  1.00  0.00    -0.200 F 
ATOM     79  F   UNL A   1      39.175  36.382  40.319  1.00  0.00    -0.200 F 
ENDBRANCH  45  69
BRANCH  57  80
ATOM     80  C   UNL A   1      43.987  28.818  35.270  1.00  0.00     0.064 A 
ATOM     81  C   UNL A   1      43.847  27.741  36.158  1.00  0.00     0.173 A 
ATOM     82  C   UNL A   1      45.280  29.306  35.027  1.00  0.00     0.173 A 
ATOM     83  F   UNL A   1      42.630  27.250  36.435  1.00  0.00    -0.203 F 
ATOM     84  C   UNL A   1      44.955  27.191  36.795  1.00  0.00     0.198 A 
ATOM     85  C   UNL A   1      46.390  28.734  35.644  1.00  0.00     0.198 A 
ATOM     86  F   UNL A   1      45.470  30.331  34.182  1.00  0.00    -0.203 F 
ATOM     87  F   UNL A   1      44.792  26.195  37.677  1.00  0.00    -0.200 F 
ATOM     88  C   UNL A   1      46.225  27.683  36.533  1.00  0.00     0.200 A 
ATOM     89  F   UNL A   1      47.617  29.201  35.378  1.00  0.00    -0.200 F 
ATOM     90  F   UNL A   1      47.292  27.148  37.143  1.00  0.00    -0.200 F 
ENDBRANCH  57  80
ENDBRANCH  31  32
ENDBRANCH  23  26
ENDBRANCH  21  22
ENDBRANCH  20  21
ENDBRANCH   1  20
TORSDOF 14
ENDMDL
