MODEL 1
REMARK VINA RESULT:     -12.1      0.000      0.000
REMARK SMILES O=C(NCCCNC(=O)c1ccc(CNC(=O)c2cnns2)o1)c1ccc(-c2c3nc(c(-c4c(F)c(F)c(F)c(F)c4F)c4ccc([nH]4)c(-c4c(F)c(F)c(F)c(F)c4F)c4nc(c(-c5c(F)c(F)c(F)c(F)c5F)c5ccc2[nH]5)C=C4)C=C3)cc1
REMARK SMILES IDX 5 1 4 2 3 3 1 4 2 5 24 7 25 8 86 9 26 10 85 11 27 12 28 13
REMARK SMILES IDX 29 14 79 15 30 16 84 17 78 18 80 19 31 20 83 21 77 22 76 23
REMARK SMILES IDX 32 25 64 26 44 27 63 28 45 29 48 30 62 31 81 32 46 33 47 34
REMARK SMILES IDX 61 36 82 37 49 38 33 39 34 40 42 41 35 42 36 43 40 44 43 45
REMARK SMILES IDX 37 46 38 47 41 48 39 49 65 50 66 51 74 52 67 53 68 54 72 55
REMARK SMILES IDX 75 56 69 57 70 58 73 59 71 60 50 61 51 62 59 63 52 64 53 65
REMARK SMILES IDX 57 66 60 67 54 68 55 69 58 70 56 71 6 72 7 73 8 74 9 76
REMARK SMILES IDX 10 77 11 78 23 79 12 80 13 81 14 82 15 83 16 84 17 86 18 87
REMARK SMILES IDX 19 88 22 89 20 90 21 91
REMARK H PARENT 3 6 80 24 48 35 7 75 15 85
REMARK Flexibility Score: inf
ROOT
ATOM      1  C   UNL A   1      33.026  31.211  26.386  1.00  0.00     0.042 C 
ENDROOT
BRANCH   1   2
ATOM      2  C   UNL A   1      32.145  31.995  27.358  1.00  0.00     0.118 C 
BRANCH   2   3
ATOM      3  N   UNL A   1      32.461  33.415  27.373  1.00  0.00    -0.352 N 
ATOM      4  O   UNL A   1      33.408  35.332  28.048  1.00  0.00    -0.269 OA
ATOM      5  C   UNL A   1      33.469  34.106  27.997  1.00  0.00     0.251 C 
ATOM      6  H   UNL A   1      31.847  33.976  26.845  1.00  0.00     0.163 HD
BRANCH   5   7
ATOM      7  C   UNL A   1      34.618  33.409  28.616  1.00  0.00     0.039 A 
ATOM      8  C   UNL A   1      35.938  33.706  28.264  1.00  0.00     0.014 A 
ATOM      9  C   UNL A   1      34.365  32.500  29.650  1.00  0.00     0.014 A 
ATOM     10  C   UNL A   1      36.994  33.025  28.870  1.00  0.00     0.010 A 
ATOM     11  C   UNL A   1      35.425  31.856  30.294  1.00  0.00     0.010 A 
ATOM     12  C   UNL A   1      36.747  32.097  29.894  1.00  0.00    -0.014 A 
BRANCH  12  13
ATOM     13  C   UNL A   1      37.872  31.402  30.567  1.00  0.00     0.031 A 
ATOM     14  C   UNL A   1      38.229  31.727  31.988  1.00  0.00     0.074 A 
ATOM     15  C   UNL A   1      38.590  30.488  29.887  1.00  0.00     0.049 A 
ATOM     16  N   UNL A   1      39.210  31.265  32.722  1.00  0.00    -0.248 NA
ATOM     17  C   UNL A   1      37.376  32.708  32.676  1.00  0.00     0.031 C 
ATOM     18  C   UNL A   1      38.354  30.097  28.498  1.00  0.00     0.029 A 
ATOM     19  N   UNL A   1      39.665  29.729  30.272  1.00  0.00    -0.354 N 
ATOM     20  C   UNL A   1      39.110  31.915  33.944  1.00  0.00     0.074 A 
ATOM     21  C   UNL A   1      37.978  32.813  33.852  1.00  0.00     0.031 C 
ATOM     22  C   UNL A   1      39.250  29.160  28.150  1.00  0.00     0.029 A 
ATOM     23  C   UNL A   1      40.143  28.913  29.278  1.00  0.00     0.049 A 
ATOM     24  H   UNL A   1      40.057  29.765  31.175  1.00  0.00     0.167 HD
ATOM     25  C   UNL A   1      39.889  31.772  35.042  1.00  0.00     0.037 A 
ATOM     26  C   UNL A   1      41.192  28.069  29.270  1.00  0.00     0.037 A 
ATOM     27  C   UNL A   1      40.995  30.857  35.147  1.00  0.00     0.049 A 
ATOM     28  C   UNL A   1      42.034  27.920  30.504  1.00  0.00     0.074 A 
ATOM     29  C   UNL A   1      41.808  30.607  36.239  1.00  0.00     0.029 A 
ATOM     30  N   UNL A   1      41.442  30.041  34.120  1.00  0.00    -0.354 N 
ATOM     31  N   UNL A   1      41.912  28.522  31.661  1.00  0.00    -0.248 NA
ATOM     32  C   UNL A   1      43.160  26.980  30.430  1.00  0.00     0.031 C 
ATOM     33  C   UNL A   1      42.763  29.656  35.865  1.00  0.00     0.029 A 
ATOM     34  C   UNL A   1      42.529  29.296  34.548  1.00  0.00     0.049 A 
ATOM     35  H   UNL A   1      41.046  29.996  33.220  1.00  0.00     0.167 HD
ATOM     36  C   UNL A   1      42.936  28.029  32.456  1.00  0.00     0.074 A 
ATOM     37  C   UNL A   1      43.666  27.070  31.653  1.00  0.00     0.031 C 
ATOM     38  C   UNL A   1      43.243  28.346  33.737  1.00  0.00     0.037 A 
BRANCH  25  39
ATOM     39  C   UNL A   1      39.575  32.636  36.224  1.00  0.00     0.064 A 
ATOM     40  C   UNL A   1      40.229  33.857  36.433  1.00  0.00     0.173 A 
ATOM     41  C   UNL A   1      38.582  32.252  37.138  1.00  0.00     0.173 A 
ATOM     42  F   UNL A   1      41.196  34.257  35.593  1.00  0.00    -0.203 F 
ATOM     43  C   UNL A   1      39.914  34.657  37.529  1.00  0.00     0.198 A 
ATOM     44  C   UNL A   1      38.257  33.063  38.222  1.00  0.00     0.198 A 
ATOM     45  F   UNL A   1      37.928  31.091  36.978  1.00  0.00    -0.203 F 
ATOM     46  F   UNL A   1      40.576  35.805  37.730  1.00  0.00    -0.200 F 
ATOM     47  C   UNL A   1      38.926  34.262  38.419  1.00  0.00     0.200 A 
ATOM     48  F   UNL A   1      37.300  32.682  39.080  1.00  0.00    -0.200 F 
ATOM     49  F   UNL A   1      38.624  35.033  39.472  1.00  0.00    -0.200 F 
ENDBRANCH  25  39
BRANCH  26  50
ATOM     50  C   UNL A   1      41.494  27.302  28.039  1.00  0.00     0.064 A 
ATOM     51  C   UNL A   1      42.350  27.824  27.061  1.00  0.00     0.173 A 
ATOM     52  C   UNL A   1      40.971  26.017  27.841  1.00  0.00     0.173 A 
ATOM     53  F   UNL A   1      42.858  29.056  27.203  1.00  0.00    -0.203 F 
ATOM     54  C   UNL A   1      42.673  27.084  25.925  1.00  0.00     0.198 A 
ATOM     55  C   UNL A   1      41.309  25.272  26.714  1.00  0.00     0.198 A 
ATOM     56  F   UNL A   1      40.150  25.478  28.754  1.00  0.00    -0.203 F 
ATOM     57  F   UNL A   1      43.480  27.610  24.994  1.00  0.00    -0.200 F 
ATOM     58  C   UNL A   1      42.159  25.806  25.756  1.00  0.00     0.200 A 
ATOM     59  F   UNL A   1      40.818  24.035  26.558  1.00  0.00    -0.200 F 
ATOM     60  F   UNL A   1      42.481  25.091  24.670  1.00  0.00    -0.200 F 
ENDBRANCH  26  50
BRANCH  38  61
ATOM     61  C   UNL A   1      44.411  27.643  34.353  1.00  0.00     0.064 A 
ATOM     62  C   UNL A   1      44.266  26.388  34.959  1.00  0.00     0.173 A 
ATOM     63  C   UNL A   1      45.693  28.208  34.298  1.00  0.00     0.173 A 
ATOM     64  F   UNL A   1      43.055  25.817  35.046  1.00  0.00    -0.203 F 
ATOM     65  C   UNL A   1      45.365  25.723  35.496  1.00  0.00     0.198 A 
ATOM     66  C   UNL A   1      46.793  27.535  34.823  1.00  0.00     0.198 A 
ATOM     67  F   UNL A   1      45.878  29.407  33.727  1.00  0.00    -0.203 F 
ATOM     68  F   UNL A   1      45.202  24.534  36.092  1.00  0.00    -0.200 F 
ATOM     69  C   UNL A   1      46.627  26.296  35.423  1.00  0.00     0.200 A 
ATOM     70  F   UNL A   1      48.012  28.086  34.750  1.00  0.00    -0.200 F 
ATOM     71  F   UNL A   1      47.685  25.653  35.938  1.00  0.00    -0.200 F 
ENDBRANCH  38  61
ENDBRANCH  12  13
ENDBRANCH   5   7
ENDBRANCH   2   3
ENDBRANCH   1   2
BRANCH   1  72
ATOM     72  C   UNL A   1      33.761  30.025  27.012  1.00  0.00     0.118 C 
BRANCH  72  73
ATOM     73  N   UNL A   1      32.847  29.102  27.661  1.00  0.00    -0.349 N 
ATOM     74  C   UNL A   1      31.865  28.310  27.112  1.00  0.00     0.286 C 
ATOM     75  H   UNL A   1      32.946  29.032  28.639  1.00  0.00     0.163 HD
ATOM     76  O   UNL A   1      31.033  27.836  27.887  1.00  0.00    -0.266 OA
BRANCH  74  77
ATOM     77  C   UNL A   1      31.857  28.068  25.688  1.00  0.00     0.191 A 
ATOM     78  C   UNL A   1      32.501  27.140  24.888  1.00  0.00     0.056 A 
ATOM     79  O   UNL A   1      31.033  28.834  24.909  1.00  0.00    -0.454 OA
ATOM     80  C   UNL A   1      32.067  27.367  23.558  1.00  0.00     0.048 A 
ATOM     81  C   UNL A   1      31.171  28.414  23.620  1.00  0.00     0.124 A 
BRANCH  81  82
ATOM     82  C   UNL A   1      30.368  29.138  22.607  1.00  0.00     0.191 C 
BRANCH  82  83
ATOM     83  N   UNL A   1      28.975  28.780  22.778  1.00  0.00    -0.344 N 
ATOM     84  C   UNL A   1      27.878  29.595  22.899  1.00  0.00     0.265 C 
ATOM     85  H   UNL A   1      28.789  27.814  22.811  1.00  0.00     0.164 HD
ATOM     86  O   UNL A   1      26.828  29.069  23.270  1.00  0.00    -0.268 OA
BRANCH  84  87
ATOM     87  C   UNL A   1      27.989  30.990  22.582  1.00  0.00     0.133 A 
ATOM     88  C   UNL A   1      28.179  32.115  23.362  1.00  0.00     0.163 A 
ATOM     89  S   UNL A   1      27.975  31.514  20.950  1.00  0.00    -0.007 S 
ATOM     90  N   UNL A   1      28.237  33.315  22.673  1.00  0.00    -0.146 NA
ATOM     91  N   UNL A   1      28.131  33.130  21.368  1.00  0.00    -0.090 NA
ENDBRANCH  84  87
ENDBRANCH  82  83
ENDBRANCH  81  82
ENDBRANCH  74  77
ENDBRANCH  72  73
ENDBRANCH   1  72
TORSDOF 13
ENDMDL
MODEL 2
REMARK VINA RESULT:     -12.0      4.487      7.174
REMARK SMILES O=C(NCCCNC(=O)c1ccc(CNC(=O)c2cnns2)o1)c1ccc(-c2c3nc(c(-c4c(F)c(F)c(F)c(F)c4F)c4ccc([nH]4)c(-c4c(F)c(F)c(F)c(F)c4F)c4nc(c(-c5c(F)c(F)c(F)c(F)c5F)c5ccc2[nH]5)C=C4)C=C3)cc1
REMARK SMILES IDX 5 1 4 2 3 3 1 4 2 5 24 7 25 8 86 9 26 10 85 11 27 12 28 13
REMARK SMILES IDX 29 14 79 15 30 16 84 17 78 18 80 19 31 20 83 21 77 22 76 23
REMARK SMILES IDX 32 25 64 26 44 27 63 28 45 29 48 30 62 31 81 32 46 33 47 34
REMARK SMILES IDX 61 36 82 37 49 38 33 39 34 40 42 41 35 42 36 43 40 44 43 45
REMARK SMILES IDX 37 46 38 47 41 48 39 49 65 50 66 51 74 52 67 53 68 54 72 55
REMARK SMILES IDX 75 56 69 57 70 58 73 59 71 60 50 61 51 62 59 63 52 64 53 65
REMARK SMILES IDX 57 66 60 67 54 68 55 69 58 70 56 71 6 72 7 73 8 74 9 76
REMARK SMILES IDX 10 77 11 78 23 79 12 80 13 81 14 82 15 83 16 84 17 86 18 87
REMARK SMILES IDX 19 88 22 89 20 90 21 91
REMARK H PARENT 3 6 80 24 48 35 7 75 15 85
REMARK Flexibility Score: inf
ROOT
ATOM      1  C   UNL A   1      35.198  33.442  28.052  1.00  0.00     0.042 C 
ENDROOT
BRANCH   1   2
ATOM      2  C   UNL A   1      34.698  32.418  29.072  1.00  0.00     0.118 C 
BRANCH   2   3
ATOM      3  N   UNL A   1      34.141  31.232  28.441  1.00  0.00    -0.352 N 
ATOM      4  O   UNL A   1      34.100  29.309  27.288  1.00  0.00    -0.269 OA
ATOM      5  C   UNL A   1      34.743  30.085  27.991  1.00  0.00     0.251 C 
ATOM      6  H   UNL A   1      33.164  31.257  28.314  1.00  0.00     0.163 HD
BRANCH   5   7
ATOM      7  C   UNL A   1      36.150  29.766  28.324  1.00  0.00     0.039 A 
ATOM      8  C   UNL A   1      36.503  29.157  29.531  1.00  0.00     0.014 A 
ATOM      9  C   UNL A   1      37.131  29.999  27.352  1.00  0.00     0.014 A 
ATOM     10  C   UNL A   1      37.841  28.874  29.807  1.00  0.00     0.010 A 
ATOM     11  C   UNL A   1      38.464  29.668  27.608  1.00  0.00     0.010 A 
ATOM     12  C   UNL A   1      38.833  29.123  28.846  1.00  0.00    -0.014 A 
BRANCH  12  13
ATOM     13  C   UNL A   1      40.251  28.786  29.124  1.00  0.00     0.031 A 
ATOM     14  C   UNL A   1      41.127  29.737  29.887  1.00  0.00     0.074 A 
ATOM     15  C   UNL A   1      40.759  27.625  28.667  1.00  0.00     0.049 A 
ATOM     16  N   UNL A   1      42.400  29.639  30.175  1.00  0.00    -0.248 NA
ATOM     17  C   UNL A   1      40.491  30.965  30.385  1.00  0.00     0.031 C 
ATOM     18  C   UNL A   1      40.016  26.626  27.900  1.00  0.00     0.029 A 
ATOM     19  N   UNL A   1      42.018  27.095  28.778  1.00  0.00    -0.354 N 
ATOM     20  C   UNL A   1      42.724  30.800  30.863  1.00  0.00     0.074 A 
ATOM     21  C   UNL A   1      41.517  31.595  30.941  1.00  0.00     0.031 C 
ATOM     22  C   UNL A   1      40.830  25.596  27.620  1.00  0.00     0.029 A 
ATOM     23  C   UNL A   1      42.158  25.881  28.156  1.00  0.00     0.049 A 
ATOM     24  H   UNL A   1      42.752  27.542  29.259  1.00  0.00     0.167 HD
ATOM     25  C   UNL A   1      43.919  31.166  31.385  1.00  0.00     0.037 A 
ATOM     26  C   UNL A   1      43.238  25.089  28.018  1.00  0.00     0.037 A 
ATOM     27  C   UNL A   1      45.113  30.364  31.338  1.00  0.00     0.049 A 
ATOM     28  C   UNL A   1      44.549  25.512  28.615  1.00  0.00     0.074 A 
ATOM     29  C   UNL A   1      46.356  30.631  31.885  1.00  0.00     0.029 A 
ATOM     30  N   UNL A   1      45.211  29.134  30.705  1.00  0.00    -0.354 N 
ATOM     31  N   UNL A   1      44.835  26.600  29.286  1.00  0.00    -0.248 NA
ATOM     32  C   UNL A   1      45.687  24.600  28.433  1.00  0.00     0.031 C 
ATOM     33  C   UNL A   1      47.213  29.573  31.563  1.00  0.00     0.029 A 
ATOM     34  C   UNL A   1      46.498  28.636  30.837  1.00  0.00     0.049 A 
ATOM     35  H   UNL A   1      44.475  28.681  30.232  1.00  0.00     0.167 HD
ATOM     36  C   UNL A   1      46.179  26.503  29.614  1.00  0.00     0.074 A 
ATOM     37  C   UNL A   1      46.652  25.243  29.078  1.00  0.00     0.031 C 
ATOM     38  C   UNL A   1      46.951  27.382  30.298  1.00  0.00     0.037 A 
BRANCH  25  39
ATOM     39  C   UNL A   1      43.996  32.504  32.051  1.00  0.00     0.064 A 
ATOM     40  C   UNL A   1      44.289  33.668  31.325  1.00  0.00     0.173 A 
ATOM     41  C   UNL A   1      43.740  32.629  33.424  1.00  0.00     0.173 A 
ATOM     42  F   UNL A   1      44.555  33.594  30.012  1.00  0.00    -0.203 F 
ATOM     43  C   UNL A   1      44.340  34.907  31.956  1.00  0.00     0.198 A 
ATOM     44  C   UNL A   1      43.776  33.873  34.048  1.00  0.00     0.198 A 
ATOM     45  F   UNL A   1      43.456  31.543  34.160  1.00  0.00    -0.203 F 
ATOM     46  F   UNL A   1      44.656  36.003  31.251  1.00  0.00    -0.200 F 
ATOM     47  C   UNL A   1      44.080  35.010  33.314  1.00  0.00     0.200 A 
ATOM     48  F   UNL A   1      43.521  33.971  35.360  1.00  0.00    -0.200 F 
ATOM     49  F   UNL A   1      44.130  36.204  33.920  1.00  0.00    -0.200 F 
ENDBRANCH  25  39
BRANCH  26  50
ATOM     50  C   UNL A   1      43.110  23.811  27.279  1.00  0.00     0.064 A 
ATOM     51  C   UNL A   1      43.518  23.712  25.943  1.00  0.00     0.173 A 
ATOM     52  C   UNL A   1      42.622  22.657  27.907  1.00  0.00     0.173 A 
ATOM     53  F   UNL A   1      43.975  24.796  25.300  1.00  0.00    -0.203 F 
ATOM     54  C   UNL A   1      43.443  22.499  25.260  1.00  0.00     0.198 A 
ATOM     55  C   UNL A   1      42.563  21.443  27.229  1.00  0.00     0.198 A 
ATOM     56  F   UNL A   1      42.222  22.708  29.186  1.00  0.00    -0.203 F 
ATOM     57  F   UNL A   1      43.824  22.432  23.978  1.00  0.00    -0.200 F 
ATOM     58  C   UNL A   1      42.973  21.365  25.906  1.00  0.00     0.200 A 
ATOM     59  F   UNL A   1      42.117  20.346  27.858  1.00  0.00    -0.200 F 
ATOM     60  F   UNL A   1      42.914  20.197  25.252  1.00  0.00    -0.200 F 
ENDBRANCH  26  50
BRANCH  38  61
ATOM     61  C   UNL A   1      48.383  27.008  30.515  1.00  0.00     0.064 A 
ATOM     62  C   UNL A   1      48.773  26.235  31.617  1.00  0.00     0.173 A 
ATOM     63  C   UNL A   1      49.366  27.387  29.590  1.00  0.00     0.173 A 
ATOM     64  F   UNL A   1      47.866  25.862  32.533  1.00  0.00    -0.203 F 
ATOM     65  C   UNL A   1      50.102  25.859  31.790  1.00  0.00     0.198 A 
ATOM     66  C   UNL A   1      50.692  26.997  29.759  1.00  0.00     0.198 A 
ATOM     67  F   UNL A   1      49.038  28.126  28.521  1.00  0.00    -0.203 F 
ATOM     68  F   UNL A   1      50.459  25.139  32.863  1.00  0.00    -0.200 F 
ATOM     69  C   UNL A   1      51.058  26.237  30.859  1.00  0.00     0.200 A 
ATOM     70  F   UNL A   1      51.615  27.360  28.858  1.00  0.00    -0.200 F 
ATOM     71  F   UNL A   1      52.337  25.871  31.026  1.00  0.00    -0.200 F 
ENDBRANCH  38  61
ENDBRANCH  12  13
ENDBRANCH   5   7
ENDBRANCH   2   3
ENDBRANCH   1   2
BRANCH   1  72
ATOM     72  C   UNL A   1      35.344  34.862  28.599  1.00  0.00     0.118 C 
BRANCH  72  73
ATOM     73  N   UNL A   1      34.155  35.661  28.357  1.00  0.00    -0.349 N 
ATOM     74  C   UNL A   1      33.160  36.037  29.229  1.00  0.00     0.286 C 
ATOM     75  H   UNL A   1      34.046  35.981  27.432  1.00  0.00     0.163 HD
ATOM     76  O   UNL A   1      32.116  36.463  28.734  1.00  0.00    -0.266 OA
BRANCH  74  77
ATOM     77  C   UNL A   1      33.381  35.927  30.653  1.00  0.00     0.191 A 
ATOM     78  C   UNL A   1      33.529  36.867  31.657  1.00  0.00     0.056 A 
ATOM     79  O   UNL A   1      33.409  34.674  31.205  1.00  0.00    -0.454 OA
ATOM     80  C   UNL A   1      33.679  36.154  32.873  1.00  0.00     0.048 A 
ATOM     81  C   UNL A   1      33.601  34.817  32.546  1.00  0.00     0.124 A 
BRANCH  81  82
ATOM     82  C   UNL A   1      33.681  33.562  33.332  1.00  0.00     0.191 C 
BRANCH  82  83
ATOM     83  N   UNL A   1      34.664  33.735  34.381  1.00  0.00    -0.344 N 
ATOM     84  C   UNL A   1      36.010  33.470  34.362  1.00  0.00     0.265 C 
ATOM     85  H   UNL A   1      34.316  34.096  35.229  1.00  0.00     0.164 HD
ATOM     86  O   UNL A   1      36.597  33.476  35.445  1.00  0.00    -0.268 OA
BRANCH  84  87
ATOM     87  C   UNL A   1      36.668  33.218  33.112  1.00  0.00     0.133 A 
ATOM     88  C   UNL A   1      36.751  32.097  32.307  1.00  0.00     0.163 A 
ATOM     89  S   UNL A   1      37.496  34.478  32.296  1.00  0.00    -0.007 S 
ATOM     90  N   UNL A   1      37.495  32.249  31.149  1.00  0.00    -0.146 NA
ATOM     91  N   UNL A   1      37.959  33.482  31.029  1.00  0.00    -0.090 NA
ENDBRANCH  84  87
ENDBRANCH  82  83
ENDBRANCH  81  82
ENDBRANCH  74  77
ENDBRANCH  72  73
ENDBRANCH   1  72
TORSDOF 13
ENDMDL
MODEL 3
REMARK VINA RESULT:     -12.0      1.232      7.617
REMARK SMILES O=C(NCCCNC(=O)c1ccc(CNC(=O)c2cnns2)o1)c1ccc(-c2c3nc(c(-c4c(F)c(F)c(F)c(F)c4F)c4ccc([nH]4)c(-c4c(F)c(F)c(F)c(F)c4F)c4nc(c(-c5c(F)c(F)c(F)c(F)c5F)c5ccc2[nH]5)C=C4)C=C3)cc1
REMARK SMILES IDX 5 1 4 2 3 3 1 4 2 5 24 7 25 8 86 9 26 10 85 11 27 12 28 13
REMARK SMILES IDX 29 14 79 15 30 16 84 17 78 18 80 19 31 20 83 21 77 22 76 23
REMARK SMILES IDX 32 25 64 26 44 27 63 28 45 29 48 30 62 31 81 32 46 33 47 34
REMARK SMILES IDX 61 36 82 37 49 38 33 39 34 40 42 41 35 42 36 43 40 44 43 45
REMARK SMILES IDX 37 46 38 47 41 48 39 49 65 50 66 51 74 52 67 53 68 54 72 55
REMARK SMILES IDX 75 56 69 57 70 58 73 59 71 60 50 61 51 62 59 63 52 64 53 65
REMARK SMILES IDX 57 66 60 67 54 68 55 69 58 70 56 71 6 72 7 73 8 74 9 76
REMARK SMILES IDX 10 77 11 78 23 79 12 80 13 81 14 82 15 83 16 84 17 86 18 87
REMARK SMILES IDX 19 88 22 89 20 90 21 91
REMARK H PARENT 3 6 80 24 48 35 7 75 15 85
REMARK Flexibility Score: inf
ROOT
ATOM      1  C   UNL A   1      31.363  32.329  26.883  1.00  0.00     0.042 C 
ENDROOT
BRANCH   1   2
ATOM      2  C   UNL A   1      32.686  33.073  27.064  1.00  0.00     0.118 C 
BRANCH   2   3
ATOM      3  N   UNL A   1      32.508  34.384  27.667  1.00  0.00    -0.352 N 
ATOM      4  O   UNL A   1      32.598  35.989  29.230  1.00  0.00    -0.269 OA
ATOM      5  C   UNL A   1      33.068  34.944  28.787  1.00  0.00     0.251 C 
ATOM      6  H   UNL A   1      31.877  34.972  27.189  1.00  0.00     0.163 HD
BRANCH   5   7
ATOM      7  C   UNL A   1      34.214  34.313  29.478  1.00  0.00     0.039 A 
ATOM      8  C   UNL A   1      34.036  33.402  30.522  1.00  0.00     0.014 A 
ATOM      9  C   UNL A   1      35.503  34.572  28.996  1.00  0.00     0.014 A 
ATOM     10  C   UNL A   1      35.145  32.830  31.149  1.00  0.00     0.010 A 
ATOM     11  C   UNL A   1      36.610  33.960  29.589  1.00  0.00     0.010 A 
ATOM     12  C   UNL A   1      36.441  33.101  30.685  1.00  0.00    -0.014 A 
BRANCH  12  13
ATOM     13  C   UNL A   1      37.618  32.462  31.325  1.00  0.00     0.031 A 
ATOM     14  C   UNL A   1      38.369  31.369  30.622  1.00  0.00     0.074 A 
ATOM     15  C   UNL A   1      37.999  32.854  32.555  1.00  0.00     0.049 A 
ATOM     16  N   UNL A   1      39.383  30.657  31.045  1.00  0.00    -0.248 NA
ATOM     17  C   UNL A   1      37.916  31.022  29.267  1.00  0.00     0.031 C 
ATOM     18  C   UNL A   1      37.343  33.893  33.348  1.00  0.00     0.029 A 
ATOM     19  N   UNL A   1      39.027  32.422  33.353  1.00  0.00    -0.354 N 
ATOM     20  C   UNL A   1      39.673  29.764  30.024  1.00  0.00     0.074 A 
ATOM     21  C   UNL A   1      38.720  30.013  28.962  1.00  0.00     0.031 C 
ATOM     22  C   UNL A   1      37.992  34.027  34.515  1.00  0.00     0.029 A 
ATOM     23  C   UNL A   1      39.085  33.060  34.566  1.00  0.00     0.049 A 
ATOM     24  H   UNL A   1      39.663  31.720  33.082  1.00  0.00     0.167 HD
ATOM     25  C   UNL A   1      40.647  28.824  29.975  1.00  0.00     0.037 A 
ATOM     26  C   UNL A   1      39.916  32.879  35.609  1.00  0.00     0.037 A 
ATOM     27  C   UNL A   1      41.615  28.594  31.015  1.00  0.00     0.049 A 
ATOM     28  C   UNL A   1      40.994  31.838  35.528  1.00  0.00     0.074 A 
ATOM     29  C   UNL A   1      42.670  27.698  31.031  1.00  0.00     0.029 A 
ATOM     30  N   UNL A   1      41.645  29.269  32.226  1.00  0.00    -0.354 N 
ATOM     31  N   UNL A   1      41.273  31.018  34.545  1.00  0.00    -0.248 NA
ATOM     32  C   UNL A   1      41.869  31.695  36.699  1.00  0.00     0.031 C 
ATOM     33  C   UNL A   1      43.325  27.815  32.262  1.00  0.00     0.029 A 
ATOM     34  C   UNL A   1      42.692  28.800  33.002  1.00  0.00     0.049 A 
ATOM     35  H   UNL A   1      41.015  29.977  32.494  1.00  0.00     0.167 HD
ATOM     36  C   UNL A   1      42.358  30.268  34.972  1.00  0.00     0.074 A 
ATOM     37  C   UNL A   1      42.696  30.737  36.301  1.00  0.00     0.031 C 
ATOM     38  C   UNL A   1      43.014  29.277  34.320  1.00  0.00     0.037 A 
BRANCH  25  39
ATOM     39  C   UNL A   1      40.709  27.961  28.753  1.00  0.00     0.064 A 
ATOM     40  C   UNL A   1      39.980  26.768  28.660  1.00  0.00     0.173 A 
ATOM     41  C   UNL A   1      41.480  28.353  27.649  1.00  0.00     0.173 A 
ATOM     42  F   UNL A   1      39.240  26.347  29.697  1.00  0.00    -0.203 F 
ATOM     43  C   UNL A   1      40.035  25.986  27.509  1.00  0.00     0.198 A 
ATOM     44  C   UNL A   1      41.519  27.577  26.493  1.00  0.00     0.198 A 
ATOM     45  F   UNL A   1      42.195  29.488  27.691  1.00  0.00    -0.203 F 
ATOM     46  F   UNL A   1      39.358  24.830  27.454  1.00  0.00    -0.200 F 
ATOM     47  C   UNL A   1      40.800  26.393  26.426  1.00  0.00     0.200 A 
ATOM     48  F   UNL A   1      42.257  27.972  25.446  1.00  0.00    -0.200 F 
ATOM     49  F   UNL A   1      40.853  25.639  25.320  1.00  0.00    -0.200 F 
ENDBRANCH  25  39
BRANCH  26  50
ATOM     50  C   UNL A   1      39.748  33.715  36.822  1.00  0.00     0.064 A 
ATOM     51  C   UNL A   1      40.384  34.958  36.928  1.00  0.00     0.173 A 
ATOM     52  C   UNL A   1      38.915  33.308  37.873  1.00  0.00     0.173 A 
ATOM     53  F   UNL A   1      41.203  35.378  35.953  1.00  0.00    -0.203 F 
ATOM     54  C   UNL A   1      40.190  35.767  38.047  1.00  0.00     0.198 A 
ATOM     55  C   UNL A   1      38.709  34.124  38.981  1.00  0.00     0.198 A 
ATOM     56  F   UNL A   1      38.286  32.125  37.810  1.00  0.00    -0.203 F 
ATOM     57  F   UNL A   1      40.821  36.945  38.135  1.00  0.00    -0.200 F 
ATOM     58  C   UNL A   1      39.347  35.353  39.068  1.00  0.00     0.200 A 
ATOM     59  F   UNL A   1      37.887  33.725  39.962  1.00  0.00    -0.200 F 
ATOM     60  F   UNL A   1      39.151  36.137  40.136  1.00  0.00    -0.200 F 
ENDBRANCH  26  50
BRANCH  38  61
ATOM     61  C   UNL A   1      44.169  28.642  35.028  1.00  0.00     0.064 A 
ATOM     62  C   UNL A   1      45.465  29.164  34.917  1.00  0.00     0.173 A 
ATOM     63  C   UNL A   1      43.971  27.530  35.859  1.00  0.00     0.173 A 
ATOM     64  F   UNL A   1      45.701  30.218  34.122  1.00  0.00    -0.203 F 
ATOM     65  C   UNL A   1      46.527  28.589  35.610  1.00  0.00     0.198 A 
ATOM     66  C   UNL A   1      45.032  26.966  36.562  1.00  0.00     0.198 A 
ATOM     67  F   UNL A   1      42.747  26.998  35.995  1.00  0.00    -0.203 F 
ATOM     68  F   UNL A   1      47.763  29.088  35.473  1.00  0.00    -0.200 F 
ATOM     69  C   UNL A   1      46.308  27.494  36.435  1.00  0.00     0.200 A 
ATOM     70  F   UNL A   1      44.820  25.912  37.361  1.00  0.00    -0.200 F 
ATOM     71  F   UNL A   1      47.332  26.945  37.104  1.00  0.00    -0.200 F 
ENDBRANCH  38  61
ENDBRANCH  12  13
ENDBRANCH   5   7
ENDBRANCH   2   3
ENDBRANCH   1   2
BRANCH   1  72
ATOM     72  C   UNL A   1      31.495  30.808  26.809  1.00  0.00     0.118 C 
BRANCH  72  73
ATOM     73  N   UNL A   1      32.880  30.389  26.682  1.00  0.00    -0.349 N 
ATOM     74  C   UNL A   1      33.410  29.305  26.020  1.00  0.00     0.286 C 
ATOM     75  H   UNL A   1      33.536  30.967  27.136  1.00  0.00     0.163 HD
ATOM     76  O   UNL A   1      34.571  28.997  26.296  1.00  0.00    -0.266 OA
BRANCH  74  77
ATOM     77  C   UNL A   1      32.606  28.599  25.051  1.00  0.00     0.191 A 
ATOM     78  C   UNL A   1      32.349  27.255  24.842  1.00  0.00     0.056 A 
ATOM     79  O   UNL A   1      31.879  29.337  24.156  1.00  0.00    -0.454 OA
ATOM     80  C   UNL A   1      31.443  27.171  23.755  1.00  0.00     0.048 A 
ATOM     81  C   UNL A   1      31.186  28.469  23.368  1.00  0.00     0.124 A 
BRANCH  81  82
ATOM     82  C   UNL A   1      30.343  29.076  22.310  1.00  0.00     0.191 C 
BRANCH  82  83
ATOM     83  N   UNL A   1      28.963  28.708  22.549  1.00  0.00    -0.344 N 
ATOM     84  C   UNL A   1      27.880  29.512  22.797  1.00  0.00     0.265 C 
ATOM     85  H   UNL A   1      28.776  27.741  22.530  1.00  0.00     0.164 HD
ATOM     86  O   UNL A   1      26.855  28.963  23.201  1.00  0.00    -0.268 OA
BRANCH  84  87
ATOM     87  C   UNL A   1      27.977  30.926  22.567  1.00  0.00     0.133 A 
ATOM     88  C   UNL A   1      28.184  32.000  23.412  1.00  0.00     0.163 A 
ATOM     89  S   UNL A   1      27.913  31.553  20.973  1.00  0.00    -0.007 S 
ATOM     90  N   UNL A   1      28.217  33.242  22.801  1.00  0.00    -0.146 NA
ATOM     91  N   UNL A   1      28.074  33.140  21.490  1.00  0.00    -0.090 NA
ENDBRANCH  84  87
ENDBRANCH  82  83
ENDBRANCH  81  82
ENDBRANCH  74  77
ENDBRANCH  72  73
ENDBRANCH   1  72
TORSDOF 13
ENDMDL
