MODEL 1
REMARK VINA RESULT:     -11.3      0.000      0.000
REMARK SMILES CC(C)C[C@H](NC(=O)[C@@H](NC(=O)N1CC(NCCCNC(=O)c2ccc(-c3c4nc(c(-c5c(F)c(F)c(F)c(F)c5F)c5ccc([nH]5)c(-c5c(F)c(F)c(F)c(F)c5F)c5nc(c(-c6c(F)c(F)c(F)c(F)c6F)c6ccc3[nH]6)C=C5)C=C4)cc2)=[NH+]c2ccccc21)C(C)C)C(=O)[O-]
REMARK SMILES IDX 13 1 14 2 15 3 16 4 86 5 87 6 88 7 89 8 90 9 91 10 92 11
REMARK SMILES IDX 11 14 10 15 12 17 9 18 7 19 6 20 8 22 5 23 4 24 2 25 1 26
REMARK SMILES IDX 3 27 96 28 97 29 98 30 93 31 94 32 95 33 17 34 18 35 19 36
REMARK SMILES IDX 20 37 21 38 22 40 23 41 24 42 85 43 25 44 84 45 26 46 27 47
REMARK SMILES IDX 28 48 78 49 29 50 83 51 77 52 79 53 30 54 82 55 76 56 75 57
REMARK SMILES IDX 31 59 63 60 43 61 62 62 44 63 47 64 61 65 80 66 45 67 46 68
REMARK SMILES IDX 60 70 81 71 48 72 32 73 33 74 41 75 34 76 35 77 39 78 42 79
REMARK SMILES IDX 36 80 37 81 40 82 38 83 64 84 65 85 73 86 66 87 67 88 71 89
REMARK SMILES IDX 74 90 68 91 69 92 72 93 70 94 49 95 50 96 58 97 51 98 52 99
REMARK SMILES IDX 56 100 59 101 53 102 54 103 57 104 55 105
REMARK H PARENT 16 12 86 13 10 16 6 21 20 39 79 58 47 69
REMARK Flexibility Score: inf
ROOT
ATOM      1  N   UNL A   1      33.445  22.612  25.789  1.00  0.00    -0.278 N 
ATOM      2  C   UNL A   1      32.794  23.892  26.085  1.00  0.00     0.255 C 
ATOM      3  C   UNL A   1      33.263  24.834  24.969  1.00  0.00     0.268 C 
ATOM      4  N   UNL A   1      33.708  26.112  25.224  1.00  0.00    -0.277 N 
ATOM      5  N   UNL A   1      33.262  24.421  23.724  1.00  0.00    -0.241 N 
ATOM      6  C   UNL A   1      32.885  23.065  23.511  1.00  0.00     0.148 A 
ATOM      7  C   UNL A   1      32.539  22.627  22.238  1.00  0.00     0.054 A 
ATOM      8  C   UNL A   1      32.199  21.286  22.026  1.00  0.00     0.005 A 
ATOM      9  C   UNL A   1      32.185  20.378  23.090  1.00  0.00     0.002 A 
ATOM     10  C   UNL A   1      32.576  20.788  24.364  1.00  0.00     0.031 A 
ATOM     11  C   UNL A   1      32.963  22.112  24.556  1.00  0.00     0.093 A 
ATOM     12  H   UNL A   1      34.306  26.499  24.545  1.00  0.00     0.304 HD
ATOM     13  H   UNL A   1      33.508  25.014  22.979  1.00  0.00     0.312 HD
ENDROOT
BRANCH   1  14
ATOM     14  C   UNL A   1      34.028  21.865  26.762  1.00  0.00     0.323 C 
ATOM     15  N   UNL A   1      35.355  21.550  26.710  1.00  0.00    -0.326 N 
ATOM     16  H   UNL A   1      35.644  21.191  27.580  1.00  0.00     0.166 HD
ATOM     17  O   UNL A   1      33.425  21.584  27.799  1.00  0.00    -0.248 OA
BRANCH  15  18
ATOM     18  C   UNL A   1      36.515  21.572  25.761  1.00  0.00     0.175 C 
BRANCH  18  19
ATOM     19  C   UNL A   1      36.980  22.930  25.162  1.00  0.00     0.243 C 
ATOM     20  N   UNL A   1      37.908  23.740  25.718  1.00  0.00    -0.346 N 
ATOM     21  H   UNL A   1      37.935  24.647  25.336  1.00  0.00     0.164 HD
ATOM     22  O   UNL A   1      36.371  23.412  24.196  1.00  0.00    -0.273 OA
BRANCH  20  23
ATOM     23  C   UNL A   1      38.878  23.511  26.782  1.00  0.00     0.128 C 
BRANCH  23  24
ATOM     24  C   UNL A   1      39.859  22.417  26.302  1.00  0.00     0.034 C 
BRANCH  24  25
ATOM     25  C   UNL A   1      40.468  21.514  27.394  1.00  0.00    -0.015 C 
ATOM     26  C   UNL A   1      40.831  20.154  26.836  1.00  0.00     0.007 C 
ATOM     27  C   UNL A   1      41.747  22.127  27.961  1.00  0.00     0.007 C 
ENDBRANCH  24  25
ENDBRANCH  23  24
BRANCH  23  28
ATOM     28  C   UNL A   1      39.520  24.872  27.094  1.00  0.00     0.064 C 
ATOM     29  O   UNL A   1      40.158  25.565  26.311  1.00  0.00    -0.548 OA
ATOM     30  O   UNL A   1      39.440  25.260  28.381  1.00  0.00    -0.548 OA
ENDBRANCH  23  28
ENDBRANCH  20  23
ENDBRANCH  18  19
BRANCH  18  31
ATOM     31  C   UNL A   1      36.641  20.416  24.746  1.00  0.00     0.015 C 
ATOM     32  C   UNL A   1      37.970  19.651  24.692  1.00  0.00     0.010 C 
ATOM     33  C   UNL A   1      35.536  19.390  25.029  1.00  0.00     0.010 C 
ENDBRANCH  18  31
ENDBRANCH  15  18
ENDBRANCH   1  14
BRANCH   4  34
ATOM     34  C   UNL A   1      33.412  26.963  26.356  1.00  0.00     0.235 C 
BRANCH  34  35
ATOM     35  C   UNL A   1      32.687  28.245  25.942  1.00  0.00     0.067 C 
BRANCH  35  36
ATOM     36  C   UNL A   1      33.577  29.408  25.503  1.00  0.00     0.120 C 
BRANCH  36  37
ATOM     37  N   UNL A   1      33.135  30.686  26.037  1.00  0.00    -0.352 N 
ATOM     38  C   UNL A   1      33.601  31.426  27.098  1.00  0.00     0.251 C 
ATOM     39  H   UNL A   1      32.376  31.090  25.558  1.00  0.00     0.163 HD
ATOM     40  O   UNL A   1      32.952  32.401  27.473  1.00  0.00    -0.269 OA
BRANCH  38  41
ATOM     41  C   UNL A   1      34.849  31.072  27.818  1.00  0.00     0.039 A 
ATOM     42  C   UNL A   1      35.831  32.059  27.970  1.00  0.00     0.014 A 
ATOM     43  C   UNL A   1      35.106  29.777  28.278  1.00  0.00     0.014 A 
ATOM     44  C   UNL A   1      37.033  31.768  28.626  1.00  0.00     0.010 A 
ATOM     45  C   UNL A   1      36.281  29.504  28.988  1.00  0.00     0.010 A 
ATOM     46  C   UNL A   1      37.256  30.496  29.175  1.00  0.00    -0.014 A 
BRANCH  46  47
ATOM     47  C   UNL A   1      38.490  30.205  29.961  1.00  0.00     0.031 A 
ATOM     48  C   UNL A   1      38.646  30.705  31.373  1.00  0.00     0.074 A 
ATOM     49  C   UNL A   1      39.504  29.530  29.381  1.00  0.00     0.049 A 
ATOM     50  N   UNL A   1      39.674  30.601  32.181  1.00  0.00    -0.248 NA
ATOM     51  C   UNL A   1      37.507  31.436  31.946  1.00  0.00     0.031 C 
ATOM     52  C   UNL A   1      39.501  29.017  28.011  1.00  0.00     0.029 A 
ATOM     53  N   UNL A   1      40.740  29.169  29.865  1.00  0.00    -0.354 N 
ATOM     54  C   UNL A   1      39.311  31.265  33.346  1.00  0.00     0.074 A 
ATOM     55  C   UNL A   1      37.986  31.804  33.127  1.00  0.00     0.031 C 
ATOM     56  C   UNL A   1      40.668  28.400  27.768  1.00  0.00     0.029 A 
ATOM     57  C   UNL A   1      41.521  28.509  28.947  1.00  0.00     0.049 A 
ATOM     58  H   UNL A   1      41.037  29.366  30.783  1.00  0.00     0.167 HD
ATOM     59  C   UNL A   1      40.014  31.401  34.498  1.00  0.00     0.037 A 
ATOM     60  C   UNL A   1      42.788  28.058  29.034  1.00  0.00     0.037 A 
ATOM     61  C   UNL A   1      41.323  30.844  34.727  1.00  0.00     0.049 A 
ATOM     62  C   UNL A   1      43.550  28.238  30.321  1.00  0.00     0.074 A 
ATOM     63  C   UNL A   1      42.079  30.867  35.887  1.00  0.00     0.029 A 
ATOM     64  N   UNL A   1      42.077  30.173  33.775  1.00  0.00    -0.354 N 
ATOM     65  N   UNL A   1      43.164  28.798  31.441  1.00  0.00    -0.248 NA
ATOM     66  C   UNL A   1      44.924  27.715  30.358  1.00  0.00     0.031 C 
ATOM     67  C   UNL A   1      43.314  30.268  35.619  1.00  0.00     0.029 A 
ATOM     68  C   UNL A   1      43.304  29.811  34.313  1.00  0.00     0.049 A 
ATOM     69  H   UNL A   1      41.785  29.982  32.855  1.00  0.00     0.167 HD
ATOM     70  C   UNL A   1      44.231  28.668  32.321  1.00  0.00     0.074 A 
ATOM     71  C   UNL A   1      45.273  27.959  31.612  1.00  0.00     0.031 C 
ATOM     72  C   UNL A   1      44.335  29.098  33.602  1.00  0.00     0.037 A 
BRANCH  59  73
ATOM     73  C   UNL A   1      39.390  32.193  35.613  1.00  0.00     0.064 A 
ATOM     74  C   UNL A   1      38.549  31.598  36.565  1.00  0.00     0.173 A 
ATOM     75  C   UNL A   1      39.691  33.556  35.768  1.00  0.00     0.173 A 
ATOM     76  F   UNL A   1      38.225  30.300  36.463  1.00  0.00    -0.203 F 
ATOM     77  C   UNL A   1      38.014  32.341  37.616  1.00  0.00     0.198 A 
ATOM     78  C   UNL A   1      39.179  34.288  36.837  1.00  0.00     0.198 A 
ATOM     79  F   UNL A   1      40.498  34.175  34.893  1.00  0.00    -0.203 F 
ATOM     80  F   UNL A   1      37.178  31.760  38.487  1.00  0.00    -0.200 F 
ATOM     81  C   UNL A   1      38.335  33.682  37.754  1.00  0.00     0.200 A 
ATOM     82  F   UNL A   1      39.508  35.580  36.981  1.00  0.00    -0.200 F 
ATOM     83  F   UNL A   1      37.831  34.392  38.773  1.00  0.00    -0.200 F 
ENDBRANCH  59  73
BRANCH  60  84
ATOM     84  C   UNL A   1      43.426  27.392  27.867  1.00  0.00     0.064 A 
ATOM     85  C   UNL A   1      43.338  26.004  27.687  1.00  0.00     0.173 A 
ATOM     86  C   UNL A   1      44.160  28.125  26.922  1.00  0.00     0.173 A 
ATOM     87  F   UNL A   1      42.667  25.255  28.574  1.00  0.00    -0.203 F 
ATOM     88  C   UNL A   1      43.984  25.373  26.625  1.00  0.00     0.198 A 
ATOM     89  C   UNL A   1      44.775  27.497  25.842  1.00  0.00     0.198 A 
ATOM     90  F   UNL A   1      44.271  29.456  27.043  1.00  0.00    -0.203 F 
ATOM     91  F   UNL A   1      43.933  24.038  26.512  1.00  0.00    -0.200 F 
ATOM     92  C   UNL A   1      44.697  26.119  25.700  1.00  0.00     0.200 A 
ATOM     93  F   UNL A   1      45.449  28.225  24.941  1.00  0.00    -0.200 F 
ATOM     94  F   UNL A   1      45.317  25.512  24.680  1.00  0.00    -0.200 F 
ENDBRANCH  60  84
BRANCH  72  95
ATOM     95  C   UNL A   1      45.606  28.779  34.340  1.00  0.00     0.064 A 
ATOM     96  C   UNL A   1      46.696  29.662  34.355  1.00  0.00     0.173 A 
ATOM     97  C   UNL A   1      45.721  27.587  35.072  1.00  0.00     0.173 A 
ATOM     98  F   UNL A   1      46.645  30.808  33.660  1.00  0.00    -0.203 F 
ATOM     99  C   UNL A   1      47.861  29.351  35.050  1.00  0.00     0.198 A 
ATOM    100  C   UNL A   1      46.874  27.295  35.794  1.00  0.00     0.198 A 
ATOM    101  F   UNL A   1      44.707  26.709  35.098  1.00  0.00    -0.203 F 
ATOM    102  F   UNL A   1      48.909  30.185  35.004  1.00  0.00    -0.200 F 
ATOM    103  C   UNL A   1      47.947  28.172  35.775  1.00  0.00     0.200 A 
ATOM    104  F   UNL A   1      46.947  26.162  36.508  1.00  0.00    -0.200 F 
ATOM    105  F   UNL A   1      49.066  27.878  36.451  1.00  0.00    -0.200 F 
ENDBRANCH  72  95
ENDBRANCH  46  47
ENDBRANCH  38  41
ENDBRANCH  36  37
ENDBRANCH  35  36
ENDBRANCH  34  35
ENDBRANCH   4  34
TORSDOF 17
ENDMDL
MODEL 2
REMARK VINA RESULT:     -11.2      4.725      8.865
REMARK SMILES CC(C)C[C@H](NC(=O)[C@@H](NC(=O)N1CC(NCCCNC(=O)c2ccc(-c3c4nc(c(-c5c(F)c(F)c(F)c(F)c5F)c5ccc([nH]5)c(-c5c(F)c(F)c(F)c(F)c5F)c5nc(c(-c6c(F)c(F)c(F)c(F)c6F)c6ccc3[nH]6)C=C5)C=C4)cc2)=[NH+]c2ccccc21)C(C)C)C(=O)[O-]
REMARK SMILES IDX 13 1 14 2 15 3 16 4 86 5 87 6 88 7 89 8 90 9 91 10 92 11
REMARK SMILES IDX 11 14 10 15 12 17 9 18 7 19 6 20 8 22 5 23 4 24 2 25 1 26
REMARK SMILES IDX 3 27 96 28 97 29 98 30 93 31 94 32 95 33 17 34 18 35 19 36
REMARK SMILES IDX 20 37 21 38 22 40 23 41 24 42 85 43 25 44 84 45 26 46 27 47
REMARK SMILES IDX 28 48 78 49 29 50 83 51 77 52 79 53 30 54 82 55 76 56 75 57
REMARK SMILES IDX 31 59 63 60 43 61 62 62 44 63 47 64 61 65 80 66 45 67 46 68
REMARK SMILES IDX 60 70 81 71 48 72 32 73 33 74 41 75 34 76 35 77 39 78 42 79
REMARK SMILES IDX 36 80 37 81 40 82 38 83 64 84 65 85 73 86 66 87 67 88 71 89
REMARK SMILES IDX 74 90 68 91 69 92 72 93 70 94 49 95 50 96 58 97 51 98 52 99
REMARK SMILES IDX 56 100 59 101 53 102 54 103 57 104 55 105
REMARK H PARENT 16 12 86 13 10 16 6 21 20 39 79 58 47 69
REMARK Flexibility Score: inf
ROOT
ATOM      1  N   UNL A   1      38.723  31.830  35.062  1.00  0.00    -0.278 N 
ATOM      2  C   UNL A   1      38.277  31.624  33.681  1.00  0.00     0.255 C 
ATOM      3  C   UNL A   1      37.589  32.939  33.294  1.00  0.00     0.268 C 
ATOM      4  N   UNL A   1      36.370  32.972  32.654  1.00  0.00    -0.277 N 
ATOM      5  N   UNL A   1      38.158  34.084  33.590  1.00  0.00    -0.241 N 
ATOM      6  C   UNL A   1      39.369  34.012  34.333  1.00  0.00     0.148 A 
ATOM      7  C   UNL A   1      40.207  35.118  34.415  1.00  0.00     0.054 A 
ATOM      8  C   UNL A   1      41.382  35.053  35.173  1.00  0.00     0.005 A 
ATOM      9  C   UNL A   1      41.735  33.875  35.840  1.00  0.00     0.002 A 
ATOM     10  C   UNL A   1      40.883  32.773  35.810  1.00  0.00     0.031 A 
ATOM     11  C   UNL A   1      39.690  32.863  35.097  1.00  0.00     0.093 A 
ATOM     12  H   UNL A   1      35.849  33.800  32.768  1.00  0.00     0.304 HD
ATOM     13  H   UNL A   1      37.769  34.944  33.313  1.00  0.00     0.312 HD
ENDROOT
BRANCH   1  14
ATOM     14  C   UNL A   1      38.565  30.874  36.013  1.00  0.00     0.323 C 
ATOM     15  N   UNL A   1      39.424  29.817  36.103  1.00  0.00    -0.326 N 
ATOM     16  H   UNL A   1      39.284  29.349  36.958  1.00  0.00     0.166 HD
ATOM     17  O   UNL A   1      37.744  31.008  36.924  1.00  0.00    -0.248 OA
BRANCH  15  18
ATOM     18  C   UNL A   1      40.510  29.138  35.325  1.00  0.00     0.175 C 
BRANCH  18  19
ATOM     19  C   UNL A   1      41.812  28.706  36.057  1.00  0.00     0.243 C 
ATOM     20  N   UNL A   1      42.376  27.481  35.969  1.00  0.00    -0.346 N 
ATOM     21  H   UNL A   1      43.065  27.303  36.648  1.00  0.00     0.164 HD
ATOM     22  O   UNL A   1      42.310  29.455  36.911  1.00  0.00    -0.273 OA
BRANCH  20  23
ATOM     23  C   UNL A   1      42.145  26.376  35.046  1.00  0.00     0.128 C 
BRANCH  23  24
ATOM     24  C   UNL A   1      43.516  25.932  34.485  1.00  0.00     0.034 C 
BRANCH  24  25
ATOM     25  C   UNL A   1      43.939  26.552  33.138  1.00  0.00    -0.015 C 
ATOM     26  C   UNL A   1      45.024  27.590  33.333  1.00  0.00     0.007 C 
ATOM     27  C   UNL A   1      44.496  25.487  32.195  1.00  0.00     0.007 C 
ENDBRANCH  24  25
ENDBRANCH  23  24
BRANCH  23  28
ATOM     28  C   UNL A   1      41.382  25.297  35.832  1.00  0.00     0.064 C 
ATOM     29  O   UNL A   1      40.447  25.491  36.600  1.00  0.00    -0.548 OA
ATOM     30  O   UNL A   1      41.878  24.051  35.721  1.00  0.00    -0.548 OA
ENDBRANCH  23  28
ENDBRANCH  20  23
ENDBRANCH  18  19
BRANCH  18  31
ATOM     31  C   UNL A   1      40.788  29.632  33.889  1.00  0.00     0.015 C 
ATOM     32  C   UNL A   1      42.235  29.989  33.521  1.00  0.00     0.010 C 
ATOM     33  C   UNL A   1      40.319  28.556  32.900  1.00  0.00     0.010 C 
ENDBRANCH  18  31
ENDBRANCH  15  18
ENDBRANCH   1  14
BRANCH   4  34
ATOM     34  C   UNL A   1      35.753  31.951  31.835  1.00  0.00     0.235 C 
BRANCH  34  35
ATOM     35  C   UNL A   1      34.688  32.527  30.899  1.00  0.00     0.067 C 
BRANCH  35  36
ATOM     36  C   UNL A   1      34.988  32.435  29.403  1.00  0.00     0.120 C 
BRANCH  36  37
ATOM     37  N   UNL A   1      34.413  31.251  28.786  1.00  0.00    -0.352 N 
ATOM     38  C   UNL A   1      35.010  30.122  28.277  1.00  0.00     0.251 C 
ATOM     39  H   UNL A   1      33.431  31.259  28.722  1.00  0.00     0.163 HD
ATOM     40  O   UNL A   1      34.326  29.322  27.642  1.00  0.00    -0.269 OA
BRANCH  38  41
ATOM     41  C   UNL A   1      36.459  29.849  28.454  1.00  0.00     0.039 A 
ATOM     42  C   UNL A   1      36.903  29.402  29.704  1.00  0.00     0.014 A 
ATOM     43  C   UNL A   1      37.395  30.097  27.445  1.00  0.00     0.014 A 
ATOM     44  C   UNL A   1      38.262  29.148  29.924  1.00  0.00     0.010 A 
ATOM     45  C   UNL A   1      38.744  29.784  27.646  1.00  0.00     0.010 A 
ATOM     46  C   UNL A   1      39.194  29.301  28.886  1.00  0.00    -0.014 A 
BRANCH  46  47
ATOM     47  C   UNL A   1      40.627  28.940  29.082  1.00  0.00     0.031 A 
ATOM     48  C   UNL A   1      41.600  29.924  29.677  1.00  0.00     0.074 A 
ATOM     49  C   UNL A   1      41.072  27.734  28.673  1.00  0.00     0.049 A 
ATOM     50  N   UNL A   1      42.892  29.805  29.862  1.00  0.00    -0.248 NA
ATOM     51  C   UNL A   1      41.053  31.222  30.101  1.00  0.00     0.031 C 
ATOM     52  C   UNL A   1      40.247  26.699  28.051  1.00  0.00     0.029 A 
ATOM     53  N   UNL A   1      42.329  27.179  28.705  1.00  0.00    -0.354 N 
ATOM     54  C   UNL A   1      43.314  31.012  30.405  1.00  0.00     0.074 A 
ATOM     55  C   UNL A   1      42.148  31.866  30.483  1.00  0.00     0.031 C 
ATOM     56  C   UNL A   1      41.013  25.632  27.772  1.00  0.00     0.029 A 
ATOM     57  C   UNL A   1      42.392  25.921  28.154  1.00  0.00     0.049 A 
ATOM     58  H   UNL A   1      43.111  27.639  29.088  1.00  0.00     0.167 HD
ATOM     59  C   UNL A   1      44.556  31.370  30.815  1.00  0.00     0.037 A 
ATOM     60  C   UNL A   1      43.441  25.099  27.957  1.00  0.00     0.037 A 
ATOM     61  C   UNL A   1      45.712  30.511  30.762  1.00  0.00     0.049 A 
ATOM     62  C   UNL A   1      44.813  25.530  28.408  1.00  0.00     0.074 A 
ATOM     63  C   UNL A   1      46.993  30.762  31.223  1.00  0.00     0.029 A 
ATOM     64  N   UNL A   1      45.733  29.241  30.205  1.00  0.00    -0.354 N 
ATOM     65  N   UNL A   1      45.180  26.644  28.993  1.00  0.00    -0.248 NA
ATOM     66  C   UNL A   1      45.915  24.585  28.177  1.00  0.00     0.031 C 
ATOM     67  C   UNL A   1      47.804  29.672  30.888  1.00  0.00     0.029 A 
ATOM     68  C   UNL A   1      47.013  28.712  30.279  1.00  0.00     0.049 A 
ATOM     69  H   UNL A   1      44.954  28.782  29.815  1.00  0.00     0.167 HD
ATOM     70  C   UNL A   1      46.544  26.520  29.227  1.00  0.00     0.074 A 
ATOM     71  C   UNL A   1      46.936  25.217  28.738  1.00  0.00     0.031 C 
ATOM     72  C   UNL A   1      47.394  27.410  29.796  1.00  0.00     0.037 A 
BRANCH  59  73
ATOM     73  C   UNL A   1      44.745  32.760  31.356  1.00  0.00     0.064 A 
ATOM     74  C   UNL A   1      44.897  33.869  30.511  1.00  0.00     0.173 A 
ATOM     75  C   UNL A   1      44.706  32.993  32.740  1.00  0.00     0.173 A 
ATOM     76  F   UNL A   1      44.945  33.704  29.180  1.00  0.00    -0.203 F 
ATOM     77  C   UNL A   1      45.029  35.155  31.031  1.00  0.00     0.198 A 
ATOM     78  C   UNL A   1      44.807  34.283  33.255  1.00  0.00     0.198 A 
ATOM     79  F   UNL A   1      44.551  31.970  33.594  1.00  0.00    -0.203 F 
ATOM     80  F   UNL A   1      45.219  36.194  30.206  1.00  0.00    -0.200 F 
ATOM     81  C   UNL A   1      44.976  35.361  32.401  1.00  0.00     0.200 A 
ATOM     82  F   UNL A   1      44.734  34.482  34.578  1.00  0.00    -0.200 F 
ATOM     83  F   UNL A   1      45.089  36.600  32.899  1.00  0.00    -0.200 F 
ENDBRANCH  59  73
BRANCH  60  84
ATOM     84  C   UNL A   1      43.244  23.780  27.299  1.00  0.00     0.064 A 
ATOM     85  C   UNL A   1      43.573  23.586  25.950  1.00  0.00     0.173 A 
ATOM     86  C   UNL A   1      42.697  22.692  27.998  1.00  0.00     0.173 A 
ATOM     87  F   UNL A   1      44.078  24.599  25.232  1.00  0.00    -0.203 F 
ATOM     88  C   UNL A   1      43.334  22.366  25.318  1.00  0.00     0.198 A 
ATOM     89  C   UNL A   1      42.493  21.464  27.374  1.00  0.00     0.198 A 
ATOM     90  F   UNL A   1      42.370  22.822  29.293  1.00  0.00    -0.203 F 
ATOM     91  F   UNL A   1      43.603  22.228  24.012  1.00  0.00    -0.200 F 
ATOM     92  C   UNL A   1      42.800  21.305  26.031  1.00  0.00     0.200 A 
ATOM     93  F   UNL A   1      41.992  20.436  28.073  1.00  0.00    -0.200 F 
ATOM     94  F   UNL A   1      42.571  20.133  25.424  1.00  0.00    -0.200 F 
ENDBRANCH  60  84
BRANCH  72  95
ATOM     95  C   UNL A   1      48.829  26.989  29.961  1.00  0.00     0.064 A 
ATOM     96  C   UNL A   1      49.808  27.306  29.009  1.00  0.00     0.173 A 
ATOM     97  C   UNL A   1      49.235  26.291  31.109  1.00  0.00     0.173 A 
ATOM     98  F   UNL A   1      49.472  27.959  27.886  1.00  0.00    -0.203 F 
ATOM     99  C   UNL A   1      51.133  26.913  29.184  1.00  0.00     0.198 A 
ATOM    100  C   UNL A   1      50.566  25.930  31.298  1.00  0.00     0.198 A 
ATOM    101  F   UNL A   1      48.341  25.968  32.056  1.00  0.00    -0.203 F 
ATOM    102  F   UNL A   1      52.040  27.179  28.234  1.00  0.00    -0.200 F 
ATOM    103  C   UNL A   1      51.512  26.234  30.331  1.00  0.00     0.200 A 
ATOM    104  F   UNL A   1      50.933  25.288  32.416  1.00  0.00    -0.200 F 
ATOM    105  F   UNL A   1      52.789  25.864  30.503  1.00  0.00    -0.200 F 
ENDBRANCH  72  95
ENDBRANCH  46  47
ENDBRANCH  38  41
ENDBRANCH  36  37
ENDBRANCH  35  36
ENDBRANCH  34  35
ENDBRANCH   4  34
TORSDOF 17
ENDMDL
MODEL 3
REMARK VINA RESULT:     -11.1      0.417      6.973
REMARK SMILES CC(C)C[C@H](NC(=O)[C@@H](NC(=O)N1CC(NCCCNC(=O)c2ccc(-c3c4nc(c(-c5c(F)c(F)c(F)c(F)c5F)c5ccc([nH]5)c(-c5c(F)c(F)c(F)c(F)c5F)c5nc(c(-c6c(F)c(F)c(F)c(F)c6F)c6ccc3[nH]6)C=C5)C=C4)cc2)=[NH+]c2ccccc21)C(C)C)C(=O)[O-]
REMARK SMILES IDX 13 1 14 2 15 3 16 4 86 5 87 6 88 7 89 8 90 9 91 10 92 11
REMARK SMILES IDX 11 14 10 15 12 17 9 18 7 19 6 20 8 22 5 23 4 24 2 25 1 26
REMARK SMILES IDX 3 27 96 28 97 29 98 30 93 31 94 32 95 33 17 34 18 35 19 36
REMARK SMILES IDX 20 37 21 38 22 40 23 41 24 42 85 43 25 44 84 45 26 46 27 47
REMARK SMILES IDX 28 48 78 49 29 50 83 51 77 52 79 53 30 54 82 55 76 56 75 57
REMARK SMILES IDX 31 59 63 60 43 61 62 62 44 63 47 64 61 65 80 66 45 67 46 68
REMARK SMILES IDX 60 70 81 71 48 72 32 73 33 74 41 75 34 76 35 77 39 78 42 79
REMARK SMILES IDX 36 80 37 81 40 82 38 83 64 84 65 85 73 86 66 87 67 88 71 89
REMARK SMILES IDX 74 90 68 91 69 92 72 93 70 94 49 95 50 96 58 97 51 98 52 99
REMARK SMILES IDX 56 100 59 101 53 102 54 103 57 104 55 105
REMARK H PARENT 16 12 86 13 10 16 6 21 20 39 79 58 47 69
REMARK Flexibility Score: inf
ROOT
ATOM      1  N   UNL A   1      33.277  22.361  25.708  1.00  0.00    -0.278 N 
ATOM      2  C   UNL A   1      32.555  23.617  25.935  1.00  0.00     0.255 C 
ATOM      3  C   UNL A   1      32.974  24.523  24.770  1.00  0.00     0.268 C 
ATOM      4  N   UNL A   1      33.347  25.835  24.955  1.00  0.00    -0.277 N 
ATOM      5  N   UNL A   1      33.000  24.044  23.548  1.00  0.00    -0.241 N 
ATOM      6  C   UNL A   1      32.699  22.660  23.409  1.00  0.00     0.148 A 
ATOM      7  C   UNL A   1      32.382  22.135  22.161  1.00  0.00     0.054 A 
ATOM      8  C   UNL A   1      32.117  20.768  22.021  1.00  0.00     0.005 A 
ATOM      9  C   UNL A   1      32.150  19.919  23.132  1.00  0.00     0.002 A 
ATOM     10  C   UNL A   1      32.514  20.418  24.382  1.00  0.00     0.031 A 
ATOM     11  C   UNL A   1      32.827  21.770  24.503  1.00  0.00     0.093 A 
ATOM     12  H   UNL A   1      33.925  26.218  24.257  1.00  0.00     0.304 HD
ATOM     13  H   UNL A   1      33.215  24.609  22.773  1.00  0.00     0.312 HD
ENDROOT
BRANCH   1  14
ATOM     14  C   UNL A   1      33.897  21.701  26.719  1.00  0.00     0.323 C 
ATOM     15  N   UNL A   1      35.245  21.490  26.702  1.00  0.00    -0.326 N 
ATOM     16  H   UNL A   1      35.544  21.189  27.591  1.00  0.00     0.166 HD
ATOM     17  O   UNL A   1      33.297  21.412  27.757  1.00  0.00    -0.248 OA
BRANCH  15  18
ATOM     18  C   UNL A   1      36.418  21.569  25.773  1.00  0.00     0.175 C 
BRANCH  18  19
ATOM     19  C   UNL A   1      36.844  22.951  25.201  1.00  0.00     0.243 C 
ATOM     20  N   UNL A   1      37.833  23.722  25.705  1.00  0.00    -0.346 N 
ATOM     21  H   UNL A   1      37.836  24.647  25.369  1.00  0.00     0.164 HD
ATOM     22  O   UNL A   1      36.152  23.488  24.324  1.00  0.00    -0.273 OA
BRANCH  20  23
ATOM     23  C   UNL A   1      38.897  23.429  26.658  1.00  0.00     0.128 C 
BRANCH  23  24
ATOM     24  C   UNL A   1      39.907  22.485  25.966  1.00  0.00     0.034 C 
BRANCH  24  25
ATOM     25  C   UNL A   1      40.591  21.435  26.863  1.00  0.00    -0.015 C 
ATOM     26  C   UNL A   1      41.806  20.843  26.180  1.00  0.00     0.007 C 
ATOM     27  C   UNL A   1      41.069  22.061  28.173  1.00  0.00     0.007 C 
ENDBRANCH  24  25
ENDBRANCH  23  24
BRANCH  23  28
ATOM     28  C   UNL A   1      39.470  24.782  27.109  1.00  0.00     0.064 C 
ATOM     29  O   UNL A   1      39.257  25.333  28.182  1.00  0.00    -0.548 OA
ATOM     30  O   UNL A   1      40.184  25.439  26.177  1.00  0.00    -0.548 OA
ENDBRANCH  23  28
ENDBRANCH  20  23
ENDBRANCH  18  19
BRANCH  18  31
ATOM     31  C   UNL A   1      36.603  20.433  24.742  1.00  0.00     0.015 C 
ATOM     32  C   UNL A   1      37.966  19.731  24.685  1.00  0.00     0.010 C 
ATOM     33  C   UNL A   1      35.544  19.353  25.007  1.00  0.00     0.010 C 
ENDBRANCH  18  31
ENDBRANCH  15  18
ENDBRANCH   1  14
BRANCH   4  34
ATOM     34  C   UNL A   1      33.001  26.728  26.041  1.00  0.00     0.235 C 
BRANCH  34  35
ATOM     35  C   UNL A   1      32.601  28.117  25.541  1.00  0.00     0.067 C 
BRANCH  35  36
ATOM     36  C   UNL A   1      33.683  29.194  25.614  1.00  0.00     0.120 C 
BRANCH  36  37
ATOM     37  N   UNL A   1      33.181  30.462  26.118  1.00  0.00    -0.352 N 
ATOM     38  C   UNL A   1      33.631  31.266  27.139  1.00  0.00     0.251 C 
ATOM     39  H   UNL A   1      32.387  30.803  25.648  1.00  0.00     0.163 HD
ATOM     40  O   UNL A   1      32.936  32.214  27.500  1.00  0.00    -0.269 OA
BRANCH  38  41
ATOM     41  C   UNL A   1      34.918  31.011  27.834  1.00  0.00     0.039 A 
ATOM     42  C   UNL A   1      35.850  32.054  27.907  1.00  0.00     0.014 A 
ATOM     43  C   UNL A   1      35.257  29.755  28.343  1.00  0.00     0.014 A 
ATOM     44  C   UNL A   1      37.085  31.856  28.537  1.00  0.00     0.010 A 
ATOM     45  C   UNL A   1      36.465  29.576  29.027  1.00  0.00     0.010 A 
ATOM     46  C   UNL A   1      37.392  30.625  29.136  1.00  0.00    -0.014 A 
BRANCH  46  47
ATOM     47  C   UNL A   1      38.663  30.436  29.893  1.00  0.00     0.031 A 
ATOM     48  C   UNL A   1      39.802  29.643  29.309  1.00  0.00     0.074 A 
ATOM     49  C   UNL A   1      38.776  30.939  31.140  1.00  0.00     0.049 A 
ATOM     50  N   UNL A   1      40.953  29.324  29.849  1.00  0.00    -0.248 NA
ATOM     51  C   UNL A   1      39.616  29.121  27.947  1.00  0.00     0.031 C 
ATOM     52  C   UNL A   1      37.739  31.698  31.839  1.00  0.00     0.029 A 
ATOM     53  N   UNL A   1      39.808  30.875  32.047  1.00  0.00    -0.354 N 
ATOM     54  C   UNL A   1      41.618  28.553  28.903  1.00  0.00     0.074 A 
ATOM     55  C   UNL A   1      40.727  28.417  27.771  1.00  0.00     0.031 C 
ATOM     56  C   UNL A   1      38.189  32.040  33.057  1.00  0.00     0.029 A 
ATOM     57  C   UNL A   1      39.528  31.489  33.244  1.00  0.00     0.049 A 
ATOM     58  H   UNL A   1      40.665  30.432  31.856  1.00  0.00     0.167 HD
ATOM     59  C   UNL A   1      42.863  28.020  28.967  1.00  0.00     0.037 A 
ATOM     60  C   UNL A   1      40.256  31.582  34.375  1.00  0.00     0.037 A 
ATOM     61  C   UNL A   1      43.762  28.175  30.083  1.00  0.00     0.049 A 
ATOM     62  C   UNL A   1      41.630  30.965  34.423  1.00  0.00     0.074 A 
ATOM     63  C   UNL A   1      45.068  27.734  30.206  1.00  0.00     0.029 A 
ATOM     64  N   UNL A   1      43.445  28.812  31.274  1.00  0.00    -0.354 N 
ATOM     65  N   UNL A   1      42.275  30.308  33.491  1.00  0.00    -0.248 NA
ATOM     66  C   UNL A   1      42.379  31.110  35.679  1.00  0.00     0.031 C 
ATOM     67  C   UNL A   1      45.520  28.045  31.492  1.00  0.00     0.029 A 
ATOM     68  C   UNL A   1      44.520  28.742  32.149  1.00  0.00     0.049 A 
ATOM     69  H   UNL A   1      42.585  29.249  31.470  1.00  0.00     0.167 HD
ATOM     70  C   UNL A   1      43.513  29.990  34.036  1.00  0.00     0.074 A 
ATOM     71  C   UNL A   1      43.536  30.542  35.373  1.00  0.00     0.031 C 
ATOM     72  C   UNL A   1      44.538  29.301  33.477  1.00  0.00     0.037 A 
BRANCH  59  73
ATOM     73  C   UNL A   1      43.339  27.203  27.799  1.00  0.00     0.064 A 
ATOM     74  C   UNL A   1      44.022  27.782  26.719  1.00  0.00     0.173 A 
ATOM     75  C   UNL A   1      43.167  25.810  27.791  1.00  0.00     0.173 A 
ATOM     76  F   UNL A   1      44.211  29.110  26.672  1.00  0.00    -0.203 F 
ATOM     77  C   UNL A   1      44.492  27.001  25.664  1.00  0.00     0.198 A 
ATOM     78  C   UNL A   1      43.666  25.029  26.751  1.00  0.00     0.198 A 
ATOM     79  F   UNL A   1      42.531  25.201  28.804  1.00  0.00    -0.203 F 
ATOM     80  F   UNL A   1      45.102  27.583  24.623  1.00  0.00    -0.200 F 
ATOM     81  C   UNL A   1      44.320  25.626  25.686  1.00  0.00     0.200 A 
ATOM     82  F   UNL A   1      43.516  23.697  26.784  1.00  0.00    -0.200 F 
ATOM     83  F   UNL A   1      44.785  24.875  24.677  1.00  0.00    -0.200 F 
ENDBRANCH  59  73
BRANCH  60  84
ATOM     84  C   UNL A   1      39.704  32.286  35.563  1.00  0.00     0.064 A 
ATOM     85  C   UNL A   1      38.825  31.641  36.445  1.00  0.00     0.173 A 
ATOM     86  C   UNL A   1      40.021  33.628  35.826  1.00  0.00     0.173 A 
ATOM     87  F   UNL A   1      38.473  30.366  36.227  1.00  0.00    -0.203 F 
ATOM     88  C   UNL A   1      38.263  32.318  37.526  1.00  0.00     0.198 A 
ATOM     89  C   UNL A   1      39.485  34.292  36.927  1.00  0.00     0.198 A 
ATOM     90  F   UNL A   1      40.860  34.291  35.017  1.00  0.00    -0.203 F 
ATOM     91  F   UNL A   1      37.380  31.694  38.318  1.00  0.00    -0.200 F 
ATOM     92  C   UNL A   1      38.597  33.641  37.770  1.00  0.00     0.200 A 
ATOM     93  F   UNL A   1      39.825  35.566  37.168  1.00  0.00    -0.200 F 
ATOM     94  F   UNL A   1      38.057  34.291  38.809  1.00  0.00    -0.200 F 
ENDBRANCH  60  84
BRANCH  72  95
ATOM     95  C   UNL A   1      45.791  29.139  34.292  1.00  0.00     0.064 A 
ATOM     96  C   UNL A   1      46.828  30.083  34.251  1.00  0.00     0.173 A 
ATOM     97  C   UNL A   1      45.939  28.042  35.154  1.00  0.00     0.173 A 
ATOM     98  F   UNL A   1      46.744  31.143  33.433  1.00  0.00    -0.203 F 
ATOM     99  C   UNL A   1      47.978  29.919  35.019  1.00  0.00     0.198 A 
ATOM    100  C   UNL A   1      47.074  27.899  35.947  1.00  0.00     0.198 A 
ATOM    101  F   UNL A   1      44.975  27.113  35.238  1.00  0.00    -0.203 F 
ATOM    102  F   UNL A   1      48.979  30.805  34.922  1.00  0.00    -0.200 F 
ATOM    103  C   UNL A   1      48.096  28.832  35.872  1.00  0.00     0.200 A 
ATOM    104  F   UNL A   1      47.179  26.857  36.783  1.00  0.00    -0.200 F 
ATOM    105  F   UNL A   1      49.200  28.680  36.618  1.00  0.00    -0.200 F 
ENDBRANCH  72  95
ENDBRANCH  46  47
ENDBRANCH  38  41
ENDBRANCH  36  37
ENDBRANCH  35  36
ENDBRANCH  34  35
ENDBRANCH   4  34
TORSDOF 17
ENDMDL
