MODEL 1
REMARK VINA RESULT:     -13.4      0.000      0.000
REMARK SMILES CCC[N@@H+]1CC2(CCN(c3nccnc3C)CC2)C[C@H]1C(=O)NCCCNC(=O)c1ccc(-c2c3nc(c(-c4c(F)c(F)c(F)c(F)c4F)c4ccc([nH]4)c(-c4c(F)c(F)c(F)c(F)c4F)c4nc(c(-c5c(F)c(F)c(F)c(F)c5F)c5ccc2[nH]5)C=C4)C=C3)cc1
REMARK SMILES IDX 25 1 24 2 23 3 21 4 22 5 20 7 4 8 5 9 6 11 19 12 7 13 18 14
REMARK SMILES IDX 8 15 17 16 9 17 3 18 2 19 1 20 10 21 11 22 15 23 12 24 14 25
REMARK SMILES IDX 16 26 13 27 26 28 27 29 28 30 29 32 30 33 31 34 92 35 32 36
REMARK SMILES IDX 91 37 33 38 34 39 35 40 85 41 36 42 90 43 84 44 86 45 37 46
REMARK SMILES IDX 89 47 83 48 82 49 38 51 70 52 50 53 69 54 51 55 54 56 68 57
REMARK SMILES IDX 87 58 52 59 53 60 67 62 88 63 55 64 39 65 40 66 48 67 41 68
REMARK SMILES IDX 42 69 46 70 49 71 43 72 44 73 47 74 45 75 71 76 72 77 80 78
REMARK SMILES IDX 73 79 74 80 78 81 81 82 75 83 76 84 79 85 77 86 56 87 57 88
REMARK SMILES IDX 65 89 58 90 59 91 63 92 66 93 60 94 61 95 64 96 62 97
REMARK H PARENT 23 6 4 10 27 31 86 50 54 61
REMARK Flexibility Score: inf
ROOT
ATOM      1  C   UNL A   1      31.519  32.059  26.665  1.00  0.00     0.042 C 
ENDROOT
BRANCH   1   2
ATOM      2  C   UNL A   1      31.825  30.635  26.242  1.00  0.00     0.118 C 
BRANCH   2   3
ATOM      3  N   UNL A   1      31.692  29.633  27.256  1.00  0.00    -0.351 N 
ATOM      4  C   UNL A   1      31.603  28.278  27.127  1.00  0.00     0.278 C 
ATOM      5  O   UNL A   1      31.699  27.644  28.189  1.00  0.00    -0.268 OA
ATOM      6  H   UNL A   1      31.660  29.971  28.180  1.00  0.00     0.163 HD
BRANCH   4   7
ATOM      7  C   UNL A   1      31.401  27.498  25.786  1.00  0.00     0.274 C 
ATOM      8  N   UNL A   1      32.615  27.513  24.933  1.00  0.00    -0.324 N 
ATOM      9  C   UNL A   1      33.168  26.139  24.960  1.00  0.00     0.270 C 
ATOM     10  H   UNL A   1      33.297  28.188  25.280  1.00  0.00     0.348 HD
ATOM     11  C   UNL A   1      32.036  25.146  25.321  1.00  0.00     0.029 C 
ATOM     12  C   UNL A   1      30.886  26.058  25.798  1.00  0.00     0.088 C 
ATOM     13  C   UNL A   1      32.308  24.102  26.444  1.00  0.00     0.034 C 
ATOM     14  C   UNL A   1      31.710  24.301  24.046  1.00  0.00     0.034 C 
ATOM     15  C   UNL A   1      33.490  23.214  26.106  1.00  0.00     0.119 C 
ATOM     16  C   UNL A   1      32.813  23.248  23.736  1.00  0.00     0.119 C 
ATOM     17  N   UNL A   1      33.063  22.472  24.944  1.00  0.00    -0.355 N 
BRANCH   8  18
ATOM     18  C   UNL A   1      32.276  27.911  23.548  1.00  0.00     0.262 C 
BRANCH  18  19
ATOM     19  C   UNL A   1      31.057  28.840  23.403  1.00  0.00     0.058 C 
ATOM     20  C   UNL A   1      29.978  28.286  22.487  1.00  0.00     0.010 C 
ENDBRANCH  18  19
ENDBRANCH   8  18
BRANCH  17  21
ATOM     21  C   UNL A   1      33.251  21.112  24.886  1.00  0.00     0.150 A 
ATOM     22  N   UNL A   1      32.148  20.336  25.010  1.00  0.00    -0.236 NA
ATOM     23  C   UNL A   1      34.527  20.509  24.743  1.00  0.00     0.080 A 
ATOM     24  C   UNL A   1      32.333  18.997  24.975  1.00  0.00     0.133 A 
ATOM     25  N   UNL A   1      34.696  19.157  24.714  1.00  0.00    -0.256 NA
ATOM     26  C   UNL A   1      35.813  21.285  24.774  1.00  0.00     0.071 C 
ATOM     27  C   UNL A   1      33.577  18.421  24.833  1.00  0.00     0.131 A 
ENDBRANCH  17  21
ENDBRANCH   4   7
ENDBRANCH   2   3
ENDBRANCH   1   2
BRANCH   1  28
ATOM     28  C   UNL A   1      32.688  32.735  27.353  1.00  0.00     0.118 C 
BRANCH  28  29
ATOM     29  N   UNL A   1      32.425  34.140  27.661  1.00  0.00    -0.352 N 
ATOM     30  C   UNL A   1      32.983  34.974  28.603  1.00  0.00     0.251 C 
ATOM     31  H   UNL A   1      31.733  34.560  27.101  1.00  0.00     0.163 HD
ATOM     32  O   UNL A   1      32.494  36.077  28.804  1.00  0.00    -0.269 OA
BRANCH  30  33
ATOM     33  C   UNL A   1      34.151  34.527  29.393  1.00  0.00     0.039 A 
ATOM     34  C   UNL A   1      33.950  34.003  30.673  1.00  0.00     0.014 A 
ATOM     35  C   UNL A   1      35.442  34.611  28.870  1.00  0.00     0.014 A 
ATOM     36  C   UNL A   1      35.033  33.479  31.383  1.00  0.00     0.010 A 
ATOM     37  C   UNL A   1      36.493  33.983  29.521  1.00  0.00     0.010 A 
ATOM     38  C   UNL A   1      36.302  33.415  30.788  1.00  0.00    -0.014 A 
BRANCH  38  39
ATOM     39  C   UNL A   1      37.452  32.764  31.464  1.00  0.00     0.031 A 
ATOM     40  C   UNL A   1      38.145  31.600  30.812  1.00  0.00     0.074 A 
ATOM     41  C   UNL A   1      37.809  33.165  32.699  1.00  0.00     0.049 A 
ATOM     42  N   UNL A   1      39.097  30.834  31.280  1.00  0.00    -0.248 NA
ATOM     43  C   UNL A   1      37.681  31.221  29.467  1.00  0.00     0.031 C 
ATOM     44  C   UNL A   1      37.171  34.243  33.459  1.00  0.00     0.029 A 
ATOM     45  N   UNL A   1      38.789  32.703  33.543  1.00  0.00    -0.354 N 
ATOM     46  C   UNL A   1      39.330  29.879  30.298  1.00  0.00     0.074 A 
ATOM     47  C   UNL A   1      38.375  30.117  29.239  1.00  0.00     0.031 C 
ATOM     48  C   UNL A   1      37.793  34.379  34.640  1.00  0.00     0.029 A 
ATOM     49  C   UNL A   1      38.841  33.368  34.743  1.00  0.00     0.049 A 
ATOM     50  H   UNL A   1      39.397  31.965  33.309  1.00  0.00     0.167 HD
ATOM     51  C   UNL A   1      40.273  28.909  30.272  1.00  0.00     0.037 A 
ATOM     52  C   UNL A   1      39.637  33.175  35.812  1.00  0.00     0.037 A 
ATOM     53  C   UNL A   1      41.236  28.697  31.319  1.00  0.00     0.049 A 
ATOM     54  C   UNL A   1      40.671  32.083  35.760  1.00  0.00     0.074 A 
ATOM     55  C   UNL A   1      42.278  27.788  31.363  1.00  0.00     0.029 A 
ATOM     56  N   UNL A   1      41.270  29.405  32.513  1.00  0.00    -0.354 N 
ATOM     57  N   UNL A   1      40.934  31.237  34.794  1.00  0.00    -0.248 NA
ATOM     58  C   UNL A   1      41.522  31.921  36.947  1.00  0.00     0.031 C 
ATOM     59  C   UNL A   1      42.907  27.906  32.605  1.00  0.00     0.029 A 
ATOM     60  C   UNL A   1      42.297  28.930  33.313  1.00  0.00     0.049 A 
ATOM     61  H   UNL A   1      40.655  30.134  32.756  1.00  0.00     0.167 HD
ATOM     62  C   UNL A   1      41.996  30.463  35.242  1.00  0.00     0.074 A 
ATOM     63  C   UNL A   1      42.340  30.953  36.560  1.00  0.00     0.031 C 
ATOM     64  C   UNL A   1      42.628  29.437  34.621  1.00  0.00     0.037 A 
BRANCH  51  65
ATOM     65  C   UNL A   1      40.314  28.009  29.070  1.00  0.00     0.064 A 
ATOM     66  C   UNL A   1      39.601  26.800  29.027  1.00  0.00     0.173 A 
ATOM     67  C   UNL A   1      41.047  28.376  27.930  1.00  0.00     0.173 A 
ATOM     68  F   UNL A   1      38.895  26.394  30.093  1.00  0.00    -0.203 F 
ATOM     69  C   UNL A   1      39.645  25.979  27.904  1.00  0.00     0.198 A 
ATOM     70  C   UNL A   1      41.061  27.569  26.795  1.00  0.00     0.198 A 
ATOM     71  F   UNL A   1      41.743  29.522  27.913  1.00  0.00    -0.203 F 
ATOM     72  F   UNL A   1      39.001  24.804  27.908  1.00  0.00    -0.200 F 
ATOM     73  C   UNL A   1      40.367  26.368  26.786  1.00  0.00     0.200 A 
ATOM     74  F   UNL A   1      41.746  27.954  25.711  1.00  0.00    -0.200 F 
ATOM     75  F   UNL A   1      40.401  25.582  25.701  1.00  0.00    -0.200 F 
ENDBRANCH  51  65
BRANCH  52  76
ATOM     76  C   UNL A   1      39.500  34.043  37.012  1.00  0.00     0.064 A 
ATOM     77  C   UNL A   1      40.131  35.294  37.071  1.00  0.00     0.173 A 
ATOM     78  C   UNL A   1      38.747  33.642  38.125  1.00  0.00     0.173 A 
ATOM     79  F   UNL A   1      40.878  35.717  36.040  1.00  0.00    -0.203 F 
ATOM     80  C   UNL A   1      40.035  36.098  38.205  1.00  0.00     0.198 A 
ATOM     81  C   UNL A   1      38.625  34.461  39.246  1.00  0.00     0.198 A 
ATOM     82  F   UNL A   1      38.117  32.458  38.120  1.00  0.00    -0.203 F 
ATOM     83  F   UNL A   1      40.693  37.264  38.255  1.00  0.00    -0.200 F 
ATOM     84  C   UNL A   1      39.277  35.683  39.290  1.00  0.00     0.200 A 
ATOM     85  F   UNL A   1      37.878  34.063  40.285  1.00  0.00    -0.200 F 
ATOM     86  F   UNL A   1      39.185  36.457  40.380  1.00  0.00    -0.200 F 
ENDBRANCH  52  76
BRANCH  64  87
ATOM     87  C   UNL A   1      43.776  28.795  35.346  1.00  0.00     0.064 A 
ATOM     88  C   UNL A   1      45.100  29.211  35.146  1.00  0.00     0.173 A 
ATOM     89  C   UNL A   1      43.540  27.781  36.288  1.00  0.00     0.173 A 
ATOM     90  F   UNL A   1      45.379  30.166  34.247  1.00  0.00    -0.203 F 
ATOM     91  C   UNL A   1      46.148  28.616  35.842  1.00  0.00     0.198 A 
ATOM     92  C   UNL A   1      44.587  27.214  37.007  1.00  0.00     0.198 A 
ATOM     93  F   UNL A   1      42.291  27.353  36.523  1.00  0.00    -0.203 F 
ATOM     94  F   UNL A   1      47.411  28.993  35.596  1.00  0.00    -0.200 F 
ATOM     95  C   UNL A   1      45.891  27.625  36.777  1.00  0.00     0.200 A 
ATOM     96  F   UNL A   1      44.334  26.269  37.923  1.00  0.00    -0.200 F 
ATOM     97  F   UNL A   1      46.901  27.062  37.454  1.00  0.00    -0.200 F 
ENDBRANCH  64  87
ENDBRANCH  38  39
ENDBRANCH  30  33
ENDBRANCH  28  29
ENDBRANCH   1  28
TORSDOF 13
ENDMDL
MODEL 2
REMARK VINA RESULT:     -13.3      0.931      1.587
REMARK SMILES CCC[N@@H+]1CC2(CCN(c3nccnc3C)CC2)C[C@H]1C(=O)NCCCNC(=O)c1ccc(-c2c3nc(c(-c4c(F)c(F)c(F)c(F)c4F)c4ccc([nH]4)c(-c4c(F)c(F)c(F)c(F)c4F)c4nc(c(-c5c(F)c(F)c(F)c(F)c5F)c5ccc2[nH]5)C=C4)C=C3)cc1
REMARK SMILES IDX 25 1 24 2 23 3 21 4 22 5 20 7 4 8 5 9 6 11 19 12 7 13 18 14
REMARK SMILES IDX 8 15 17 16 9 17 3 18 2 19 1 20 10 21 11 22 15 23 12 24 14 25
REMARK SMILES IDX 16 26 13 27 26 28 27 29 28 30 29 32 30 33 31 34 92 35 32 36
REMARK SMILES IDX 91 37 33 38 34 39 35 40 85 41 36 42 90 43 84 44 86 45 37 46
REMARK SMILES IDX 89 47 83 48 82 49 38 51 70 52 50 53 69 54 51 55 54 56 68 57
REMARK SMILES IDX 87 58 52 59 53 60 67 62 88 63 55 64 39 65 40 66 48 67 41 68
REMARK SMILES IDX 42 69 46 70 49 71 43 72 44 73 47 74 45 75 71 76 72 77 80 78
REMARK SMILES IDX 73 79 74 80 78 81 81 82 75 83 76 84 79 85 77 86 56 87 57 88
REMARK SMILES IDX 65 89 58 90 59 91 63 92 66 93 60 94 61 95 64 96 62 97
REMARK H PARENT 23 6 4 10 27 31 86 50 54 61
REMARK Flexibility Score: inf
ROOT
ATOM      1  C   UNL A   1      31.622  32.121  26.690  1.00  0.00     0.042 C 
ENDROOT
BRANCH   1   2
ATOM      2  C   UNL A   1      31.858  30.632  26.536  1.00  0.00     0.118 C 
BRANCH   2   3
ATOM      3  N   UNL A   1      32.778  30.241  25.511  1.00  0.00    -0.351 N 
ATOM      4  C   UNL A   1      32.633  29.304  24.530  1.00  0.00     0.278 C 
ATOM      5  O   UNL A   1      33.515  29.320  23.658  1.00  0.00    -0.268 OA
ATOM      6  H   UNL A   1      33.639  30.718  25.514  1.00  0.00     0.163 HD
BRANCH   4   7
ATOM      7  C   UNL A   1      31.477  28.255  24.430  1.00  0.00     0.274 C 
ATOM      8  N   UNL A   1      31.228  27.817  23.034  1.00  0.00    -0.324 N 
ATOM      9  C   UNL A   1      31.706  26.419  22.937  1.00  0.00     0.270 C 
ATOM     10  H   UNL A   1      31.717  28.419  22.371  1.00  0.00     0.348 HD
ATOM     11  C   UNL A   1      31.708  25.787  24.351  1.00  0.00     0.029 C 
ATOM     12  C   UNL A   1      31.501  26.992  25.292  1.00  0.00     0.088 C 
ATOM     13  C   UNL A   1      32.993  25.039  24.816  1.00  0.00     0.034 C 
ATOM     14  C   UNL A   1      30.570  24.717  24.403  1.00  0.00     0.034 C 
ATOM     15  C   UNL A   1      33.334  23.886  23.891  1.00  0.00     0.119 C 
ATOM     16  C   UNL A   1      30.928  23.430  23.604  1.00  0.00     0.119 C 
ATOM     17  N   UNL A   1      32.236  22.963  24.046  1.00  0.00    -0.355 N 
BRANCH   8  18
ATOM     18  C   UNL A   1      29.785  27.898  22.711  1.00  0.00     0.262 C 
BRANCH  18  19
ATOM     19  C   UNL A   1      29.088  29.214  23.105  1.00  0.00     0.058 C 
ATOM     20  C   UNL A   1      27.597  29.219  22.816  1.00  0.00     0.010 C 
ENDBRANCH  18  19
ENDBRANCH   8  18
BRANCH  17  21
ATOM     21  C   UNL A   1      32.482  21.624  24.236  1.00  0.00     0.150 A 
ATOM     22  N   UNL A   1      32.236  20.802  23.188  1.00  0.00    -0.236 NA
ATOM     23  C   UNL A   1      32.934  21.084  25.467  1.00  0.00     0.080 A 
ATOM     24  C   UNL A   1      32.458  19.482  23.379  1.00  0.00     0.133 A 
ATOM     25  N   UNL A   1      33.147  19.749  25.644  1.00  0.00    -0.256 NA
ATOM     26  C   UNL A   1      33.063  21.895  26.725  1.00  0.00     0.071 C 
ATOM     27  C   UNL A   1      32.900  18.967  24.579  1.00  0.00     0.131 A 
ENDBRANCH  17  21
ENDBRANCH   4   7
ENDBRANCH   2   3
ENDBRANCH   1   2
BRANCH   1  28
ATOM     28  C   UNL A   1      32.809  32.849  27.288  1.00  0.00     0.118 C 
BRANCH  28  29
ATOM     29  N   UNL A   1      32.494  34.226  27.666  1.00  0.00    -0.352 N 
ATOM     30  C   UNL A   1      33.011  35.027  28.660  1.00  0.00     0.251 C 
ATOM     31  H   UNL A   1      31.796  34.652  27.119  1.00  0.00     0.163 HD
ATOM     32  O   UNL A   1      32.482  36.100  28.912  1.00  0.00    -0.269 OA
BRANCH  30  33
ATOM     33  C   UNL A   1      34.184  34.578  29.441  1.00  0.00     0.039 A 
ATOM     34  C   UNL A   1      33.991  34.063  30.727  1.00  0.00     0.014 A 
ATOM     35  C   UNL A   1      35.470  34.650  28.907  1.00  0.00     0.014 A 
ATOM     36  C   UNL A   1      35.077  33.536  31.430  1.00  0.00     0.010 A 
ATOM     37  C   UNL A   1      36.523  34.019  29.552  1.00  0.00     0.010 A 
ATOM     38  C   UNL A   1      36.340  33.460  30.824  1.00  0.00    -0.014 A 
BRANCH  38  39
ATOM     39  C   UNL A   1      37.492  32.806  31.494  1.00  0.00     0.031 A 
ATOM     40  C   UNL A   1      38.173  31.635  30.842  1.00  0.00     0.074 A 
ATOM     41  C   UNL A   1      37.863  33.212  32.724  1.00  0.00     0.049 A 
ATOM     42  N   UNL A   1      39.124  30.866  31.307  1.00  0.00    -0.248 NA
ATOM     43  C   UNL A   1      37.694  31.251  29.504  1.00  0.00     0.031 C 
ATOM     44  C   UNL A   1      37.237  34.299  33.482  1.00  0.00     0.029 A 
ATOM     45  N   UNL A   1      38.847  32.749  33.561  1.00  0.00    -0.354 N 
ATOM     46  C   UNL A   1      39.342  29.904  30.329  1.00  0.00     0.074 A 
ATOM     47  C   UNL A   1      38.379  30.141  29.277  1.00  0.00     0.031 C 
ATOM     48  C   UNL A   1      37.871  34.438  34.657  1.00  0.00     0.029 A 
ATOM     49  C   UNL A   1      38.913  33.422  34.758  1.00  0.00     0.049 A 
ATOM     50  H   UNL A   1      39.448  32.006  33.327  1.00  0.00     0.167 HD
ATOM     51  C   UNL A   1      40.279  28.927  30.300  1.00  0.00     0.037 A 
ATOM     52  C   UNL A   1      39.717  33.229  35.820  1.00  0.00     0.037 A 
ATOM     53  C   UNL A   1      41.250  28.716  31.340  1.00  0.00     0.049 A 
ATOM     54  C   UNL A   1      40.744  32.131  35.766  1.00  0.00     0.074 A 
ATOM     55  C   UNL A   1      42.287  27.801  31.380  1.00  0.00     0.029 A 
ATOM     56  N   UNL A   1      41.299  29.430  32.530  1.00  0.00    -0.354 N 
ATOM     57  N   UNL A   1      40.994  31.278  34.802  1.00  0.00    -0.248 NA
ATOM     58  C   UNL A   1      41.604  31.971  36.947  1.00  0.00     0.031 C 
ATOM     59  C   UNL A   1      42.928  27.922  32.616  1.00  0.00     0.029 A 
ATOM     60  C   UNL A   1      42.330  28.954  33.323  1.00  0.00     0.049 A 
ATOM     61  H   UNL A   1      40.691  30.165  32.773  1.00  0.00     0.167 HD
ATOM     62  C   UNL A   1      42.055  30.500  35.246  1.00  0.00     0.074 A 
ATOM     63  C   UNL A   1      42.414  30.996  36.558  1.00  0.00     0.031 C 
ATOM     64  C   UNL A   1      42.675  29.466  34.625  1.00  0.00     0.037 A 
BRANCH  51  65
ATOM     65  C   UNL A   1      40.304  28.020  29.103  1.00  0.00     0.064 A 
ATOM     66  C   UNL A   1      39.570  26.824  29.067  1.00  0.00     0.173 A 
ATOM     67  C   UNL A   1      41.043  28.368  27.962  1.00  0.00     0.173 A 
ATOM     68  F   UNL A   1      38.856  26.436  30.135  1.00  0.00    -0.203 F 
ATOM     69  C   UNL A   1      39.599  25.996  27.948  1.00  0.00     0.198 A 
ATOM     70  C   UNL A   1      41.043  27.555  26.831  1.00  0.00     0.198 A 
ATOM     71  F   UNL A   1      41.760  29.501  27.939  1.00  0.00    -0.203 F 
ATOM     72  F   UNL A   1      38.934  24.833  27.959  1.00  0.00    -0.200 F 
ATOM     73  C   UNL A   1      40.329  26.366  26.828  1.00  0.00     0.200 A 
ATOM     74  F   UNL A   1      41.736  27.921  25.745  1.00  0.00    -0.200 F 
ATOM     75  F   UNL A   1      40.348  25.574  25.747  1.00  0.00    -0.200 F 
ENDBRANCH  51  65
BRANCH  52  76
ATOM     76  C   UNL A   1      39.596  34.106  37.017  1.00  0.00     0.064 A 
ATOM     77  C   UNL A   1      38.837  33.707  38.127  1.00  0.00     0.173 A 
ATOM     78  C   UNL A   1      40.224  35.358  37.075  1.00  0.00     0.173 A 
ATOM     79  F   UNL A   1      38.201  32.526  38.114  1.00  0.00    -0.203 F 
ATOM     80  C   UNL A   1      38.691  34.537  39.236  1.00  0.00     0.198 A 
ATOM     81  C   UNL A   1      40.105  36.173  38.198  1.00  0.00     0.198 A 
ATOM     82  F   UNL A   1      40.968  35.785  36.044  1.00  0.00    -0.203 F 
ATOM     83  F   UNL A   1      37.916  34.153  40.260  1.00  0.00    -0.200 F 
ATOM     84  C   UNL A   1      39.330  35.767  39.274  1.00  0.00     0.200 A 
ATOM     85  F   UNL A   1      40.738  37.353  38.237  1.00  0.00    -0.200 F 
ATOM     86  F   UNL A   1      39.190  36.564  40.342  1.00  0.00    -0.200 F 
ENDBRANCH  52  76
BRANCH  64  87
ATOM     87  C   UNL A   1      43.825  28.823  35.344  1.00  0.00     0.064 A 
ATOM     88  C   UNL A   1      45.149  29.236  35.137  1.00  0.00     0.173 A 
ATOM     89  C   UNL A   1      43.593  27.808  36.286  1.00  0.00     0.173 A 
ATOM     90  F   UNL A   1      45.425  30.191  34.238  1.00  0.00    -0.203 F 
ATOM     91  C   UNL A   1      46.200  28.639  35.827  1.00  0.00     0.198 A 
ATOM     92  C   UNL A   1      44.642  27.238  37.000  1.00  0.00     0.198 A 
ATOM     93  F   UNL A   1      42.344  27.382  36.528  1.00  0.00    -0.203 F 
ATOM     94  F   UNL A   1      47.463  29.013  35.576  1.00  0.00    -0.200 F 
ATOM     95  C   UNL A   1      45.946  27.647  36.764  1.00  0.00     0.200 A 
ATOM     96  F   UNL A   1      44.392  26.293  37.916  1.00  0.00    -0.200 F 
ATOM     97  F   UNL A   1      46.958  27.081  37.434  1.00  0.00    -0.200 F 
ENDBRANCH  64  87
ENDBRANCH  38  39
ENDBRANCH  30  33
ENDBRANCH  28  29
ENDBRANCH   1  28
TORSDOF 13
ENDMDL
MODEL 3
REMARK VINA RESULT:     -13.2      5.748     11.415
REMARK SMILES CCC[N@@H+]1CC2(CCN(c3nccnc3C)CC2)C[C@H]1C(=O)NCCCNC(=O)c1ccc(-c2c3nc(c(-c4c(F)c(F)c(F)c(F)c4F)c4ccc([nH]4)c(-c4c(F)c(F)c(F)c(F)c4F)c4nc(c(-c5c(F)c(F)c(F)c(F)c5F)c5ccc2[nH]5)C=C4)C=C3)cc1
REMARK SMILES IDX 25 1 24 2 23 3 21 4 22 5 20 7 4 8 5 9 6 11 19 12 7 13 18 14
REMARK SMILES IDX 8 15 17 16 9 17 3 18 2 19 1 20 10 21 11 22 15 23 12 24 14 25
REMARK SMILES IDX 16 26 13 27 26 28 27 29 28 30 29 32 30 33 31 34 92 35 32 36
REMARK SMILES IDX 91 37 33 38 34 39 35 40 85 41 36 42 90 43 84 44 86 45 37 46
REMARK SMILES IDX 89 47 83 48 82 49 38 51 70 52 50 53 69 54 51 55 54 56 68 57
REMARK SMILES IDX 87 58 52 59 53 60 67 62 88 63 55 64 39 65 40 66 48 67 41 68
REMARK SMILES IDX 42 69 46 70 49 71 43 72 44 73 47 74 45 75 71 76 72 77 80 78
REMARK SMILES IDX 73 79 74 80 78 81 81 82 75 83 76 84 79 85 77 86 56 87 57 88
REMARK SMILES IDX 65 89 58 90 59 91 63 92 66 93 60 94 61 95 64 96 62 97
REMARK H PARENT 23 6 4 10 27 31 86 50 54 61
REMARK Flexibility Score: inf
ROOT
ATOM      1  C   UNL A   1      38.271  19.967  25.009  1.00  0.00     0.042 C 
ENDROOT
BRANCH   1   2
ATOM      2  C   UNL A   1      37.311  21.135  24.899  1.00  0.00     0.118 C 
BRANCH   2   3
ATOM      3  N   UNL A   1      36.461  21.361  26.029  1.00  0.00    -0.351 N 
ATOM      4  C   UNL A   1      35.101  21.459  26.083  1.00  0.00     0.278 C 
ATOM      5  O   UNL A   1      34.622  21.455  27.226  1.00  0.00    -0.268 OA
ATOM      6  H   UNL A   1      36.924  21.460  26.892  1.00  0.00     0.163 HD
BRANCH   4   7
ATOM      7  C   UNL A   1      34.142  21.566  24.851  1.00  0.00     0.274 C 
ATOM      8  N   UNL A   1      32.732  21.268  25.204  1.00  0.00    -0.324 N 
ATOM      9  C   UNL A   1      31.998  22.553  25.138  1.00  0.00     0.270 C 
ATOM     10  H   UNL A   1      32.667  20.857  26.136  1.00  0.00     0.348 HD
ATOM     11  C   UNL A   1      32.763  23.524  24.204  1.00  0.00     0.029 C 
ATOM     12  C   UNL A   1      34.126  22.830  23.991  1.00  0.00     0.088 C 
ATOM     13  C   UNL A   1      33.042  24.967  24.719  1.00  0.00     0.034 C 
ATOM     14  C   UNL A   1      31.917  23.710  22.903  1.00  0.00     0.034 C 
ATOM     15  C   UNL A   1      31.756  25.700  25.048  1.00  0.00     0.119 C 
ATOM     16  C   UNL A   1      30.660  24.598  23.135  1.00  0.00     0.119 C 
ATOM     17  N   UNL A   1      31.083  25.835  23.779  1.00  0.00    -0.355 N 
BRANCH   8  18
ATOM     18  C   UNL A   1      32.153  20.288  24.257  1.00  0.00     0.262 C 
BRANCH  18  19
ATOM     19  C   UNL A   1      32.881  18.933  24.174  1.00  0.00     0.058 C 
ATOM     20  C   UNL A   1      32.529  18.132  22.932  1.00  0.00     0.010 C 
ENDBRANCH  18  19
ENDBRANCH   8  18
BRANCH  17  21
ATOM     21  C   UNL A   1      30.550  27.046  23.405  1.00  0.00     0.150 A 
ATOM     22  N   UNL A   1      29.207  27.182  23.511  1.00  0.00    -0.236 NA
ATOM     23  C   UNL A   1      31.331  28.113  22.892  1.00  0.00     0.080 A 
ATOM     24  C   UNL A   1      28.678  28.364  23.125  1.00  0.00     0.133 A 
ATOM     25  N   UNL A   1      30.780  29.297  22.502  1.00  0.00    -0.256 NA
ATOM     26  C   UNL A   1      32.794  27.987  22.578  1.00  0.00     0.071 C 
ATOM     27  C   UNL A   1      29.445  29.397  22.630  1.00  0.00     0.131 A 
ENDBRANCH  17  21
ENDBRANCH   4   7
ENDBRANCH   2   3
ENDBRANCH   1   2
BRANCH   1  28
ATOM     28  C   UNL A   1      39.342  20.180  26.060  1.00  0.00     0.118 C 
BRANCH  28  29
ATOM     29  N   UNL A   1      40.367  19.136  26.040  1.00  0.00    -0.352 N 
ATOM     30  C   UNL A   1      41.739  19.221  26.114  1.00  0.00     0.251 C 
ATOM     31  H   UNL A   1      40.017  18.219  25.959  1.00  0.00     0.163 HD
ATOM     32  O   UNL A   1      42.421  18.228  25.908  1.00  0.00    -0.269 OA
BRANCH  30  33
ATOM     33  C   UNL A   1      42.388  20.517  26.412  1.00  0.00     0.039 A 
ATOM     34  C   UNL A   1      43.000  21.227  25.376  1.00  0.00     0.014 A 
ATOM     35  C   UNL A   1      42.384  21.038  27.706  1.00  0.00     0.014 A 
ATOM     36  C   UNL A   1      43.520  22.500  25.624  1.00  0.00     0.010 A 
ATOM     37  C   UNL A   1      42.789  22.346  27.925  1.00  0.00     0.010 A 
ATOM     38  C   UNL A   1      43.368  23.090  26.888  1.00  0.00    -0.014 A 
BRANCH  38  39
ATOM     39  C   UNL A   1      43.805  24.482  27.160  1.00  0.00     0.031 A 
ATOM     40  C   UNL A   1      42.814  25.495  27.662  1.00  0.00     0.074 A 
ATOM     41  C   UNL A   1      45.068  24.850  26.871  1.00  0.00     0.049 A 
ATOM     42  N   UNL A   1      42.971  26.779  27.863  1.00  0.00    -0.248 NA
ATOM     43  C   UNL A   1      41.452  25.010  27.939  1.00  0.00     0.031 C 
ATOM     44  C   UNL A   1      46.103  23.969  26.322  1.00  0.00     0.029 A 
ATOM     45  N   UNL A   1      45.696  26.065  26.984  1.00  0.00    -0.354 N 
ATOM     46  C   UNL A   1      41.730  27.251  28.270  1.00  0.00     0.074 A 
ATOM     47  C   UNL A   1      40.814  26.134  28.223  1.00  0.00     0.031 C 
ATOM     48  C   UNL A   1      47.241  24.664  26.175  1.00  0.00     0.029 A 
ATOM     49  C   UNL A   1      47.006  26.049  26.571  1.00  0.00     0.049 A 
ATOM     50  H   UNL A   1      45.250  26.872  27.328  1.00  0.00     0.167 HD
ATOM     51  C   UNL A   1      41.393  28.499  28.674  1.00  0.00     0.037 A 
ATOM     52  C   UNL A   1      47.911  27.044  26.509  1.00  0.00     0.037 A 
ATOM     53  C   UNL A   1      42.318  29.597  28.743  1.00  0.00     0.049 A 
ATOM     54  C   UNL A   1      47.508  28.423  26.954  1.00  0.00     0.074 A 
ATOM     55  C   UNL A   1      42.099  30.883  29.203  1.00  0.00     0.029 A 
ATOM     56  N   UNL A   1      43.644  29.538  28.335  1.00  0.00    -0.354 N 
ATOM     57  N   UNL A   1      46.353  28.840  27.414  1.00  0.00    -0.248 NA
ATOM     58  C   UNL A   1      48.536  29.470  26.877  1.00  0.00     0.031 C 
ATOM     59  C   UNL A   1      43.274  31.618  29.020  1.00  0.00     0.029 A 
ATOM     60  C   UNL A   1      44.245  30.775  28.504  1.00  0.00     0.049 A 
ATOM     61  H   UNL A   1      44.090  28.736  27.978  1.00  0.00     0.167 HD
ATOM     62  C   UNL A   1      46.522  30.187  27.706  1.00  0.00     0.074 A 
ATOM     63  C   UNL A   1      47.896  30.512  27.390  1.00  0.00     0.031 C 
ATOM     64  C   UNL A   1      45.619  31.076  28.190  1.00  0.00     0.037 A 
BRANCH  51  65
ATOM     65  C   UNL A   1      39.967  28.739  29.078  1.00  0.00     0.064 A 
ATOM     66  C   UNL A   1      38.994  29.148  28.152  1.00  0.00     0.173 A 
ATOM     67  C   UNL A   1      39.557  28.522  30.404  1.00  0.00     0.173 A 
ATOM     68  F   UNL A   1      39.333  29.381  26.875  1.00  0.00    -0.203 F 
ATOM     69  C   UNL A   1      37.675  29.361  28.542  1.00  0.00     0.198 A 
ATOM     70  C   UNL A   1      38.229  28.703  30.783  1.00  0.00     0.198 A 
ATOM     71  F   UNL A   1      40.442  28.127  31.330  1.00  0.00    -0.203 F 
ATOM     72  F   UNL A   1      36.777  29.805  27.651  1.00  0.00    -0.200 F 
ATOM     73  C   UNL A   1      37.291  29.130  29.854  1.00  0.00     0.200 A 
ATOM     74  F   UNL A   1      37.857  28.465  32.048  1.00  0.00    -0.200 F 
ATOM     75  F   UNL A   1      36.019  29.326  30.226  1.00  0.00    -0.200 F 
ENDBRANCH  51  65
BRANCH  52  76
ATOM     76  C   UNL A   1      49.290  26.769  26.021  1.00  0.00     0.064 A 
ATOM     77  C   UNL A   1      49.637  26.992  24.681  1.00  0.00     0.173 A 
ATOM     78  C   UNL A   1      50.285  26.274  26.877  1.00  0.00     0.173 A 
ATOM     79  F   UNL A   1      48.717  27.448  23.818  1.00  0.00    -0.203 F 
ATOM     80  C   UNL A   1      50.917  26.705  24.210  1.00  0.00     0.198 A 
ATOM     81  C   UNL A   1      51.573  26.018  26.412  1.00  0.00     0.198 A 
ATOM     82  F   UNL A   1      50.009  26.050  28.170  1.00  0.00    -0.203 F 
ATOM     83  F   UNL A   1      51.205  26.876  22.913  1.00  0.00    -0.200 F 
ATOM     84  C   UNL A   1      51.886  26.223  25.077  1.00  0.00     0.200 A 
ATOM     85  F   UNL A   1      52.511  25.570  27.258  1.00  0.00    -0.200 F 
ATOM     86  F   UNL A   1      53.117  25.949  24.624  1.00  0.00    -0.200 F 
ENDBRANCH  52  76
BRANCH  64  87
ATOM     87  C   UNL A   1      46.098  32.477  28.436  1.00  0.00     0.064 A 
ATOM     88  C   UNL A   1      46.677  32.856  29.656  1.00  0.00     0.173 A 
ATOM     89  C   UNL A   1      46.018  33.442  27.419  1.00  0.00     0.173 A 
ATOM     90  F   UNL A   1      46.763  31.975  30.663  1.00  0.00    -0.203 F 
ATOM     91  C   UNL A   1      47.132  34.155  29.858  1.00  0.00     0.198 A 
ATOM     92  C   UNL A   1      46.506  34.730  27.613  1.00  0.00     0.198 A 
ATOM     93  F   UNL A   1      45.481  33.129  26.230  1.00  0.00    -0.203 F 
ATOM     94  F   UNL A   1      47.633  34.509  31.050  1.00  0.00    -0.200 F 
ATOM     95  C   UNL A   1      47.054  35.089  28.835  1.00  0.00     0.200 A 
ATOM     96  F   UNL A   1      46.446  35.625  26.617  1.00  0.00    -0.200 F 
ATOM     97  F   UNL A   1      47.503  36.336  29.029  1.00  0.00    -0.200 F 
ENDBRANCH  64  87
ENDBRANCH  38  39
ENDBRANCH  30  33
ENDBRANCH  28  29
ENDBRANCH   1  28
TORSDOF 13
ENDMDL
