MODEL 1
REMARK VINA RESULT:     -13.3      0.000      0.000
REMARK SMILES CCc1cccc(C)c1Nc1ccccc1CC(=O)NCCCNC(=O)c1ccc(-c2c3nc(c(-c4c(F)c(F)c(F)c(F)c4F)c4ccc([nH]4)c(-c4c(F)c(F)c(F)c(F)c4F)c4nc(c(-c5c(F)c(F)c(F)c(F)c5F)c5ccc2[nH]5)C=C4)C=C3)cc1
REMARK SMILES IDX 21 1 20 2 18 3 19 4 17 6 16 7 11 8 12 9 13 10 15 11 14 12
REMARK SMILES IDX 10 13 9 15 3 16 4 17 5 18 7 19 6 20 8 21 2 22 1 23 22 24
REMARK SMILES IDX 23 25 24 26 25 27 26 29 27 30 28 31 89 32 29 33 88 34 30 35
REMARK SMILES IDX 31 36 32 37 82 38 33 39 87 40 81 41 83 42 34 43 86 44 80 45
REMARK SMILES IDX 79 46 35 48 67 49 47 50 66 51 48 52 51 53 65 54 84 55 49 56
REMARK SMILES IDX 50 57 64 59 85 60 52 61 36 62 37 63 45 64 38 65 39 66 43 67
REMARK SMILES IDX 46 68 40 69 41 70 44 71 42 72 68 73 69 74 77 75 70 76 71 77
REMARK SMILES IDX 75 78 78 79 72 80 73 81 76 82 74 83 53 84 54 85 62 86 55 87
REMARK SMILES IDX 56 88 60 89 63 90 57 91 58 92 61 93 59 94
REMARK H PARENT 20 5 10 14 24 28 83 47 51 58
REMARK Flexibility Score: inf
ROOT
ATOM      1  C   UNL A   1      31.971  28.969  26.385  1.00  0.00     0.117 C 
ENDROOT
BRANCH   1   2
ATOM      2  N   UNL A   1      31.403  27.642  26.543  1.00  0.00    -0.356 N 
ATOM      3  C   UNL A   1      31.958  26.409  26.338  1.00  0.00     0.224 C 
ATOM      4  O   UNL A   1      31.400  25.449  26.876  1.00  0.00    -0.275 OA
ATOM      5  H   UNL A   1      30.467  27.627  26.848  1.00  0.00     0.163 HD
BRANCH   3   6
ATOM      6  C   UNL A   1      33.268  26.231  25.590  1.00  0.00     0.137 C 
BRANCH   6   7
ATOM      7  C   UNL A   1      33.198  25.534  24.246  1.00  0.00    -0.015 A 
ATOM      8  C   UNL A   1      33.364  24.142  24.079  1.00  0.00     0.042 A 
ATOM      9  C   UNL A   1      33.342  23.603  22.781  1.00  0.00     0.026 A 
ATOM     10  C   UNL A   1      33.110  24.405  21.665  1.00  0.00     0.002 A 
ATOM     11  C   UNL A   1      33.006  26.334  23.100  1.00  0.00     0.006 A 
ATOM     12  C   UNL A   1      32.944  25.774  21.825  1.00  0.00     0.000 A 
BRANCH   8  13
ATOM     13  N   UNL A   1      33.729  23.277  25.130  1.00  0.00    -0.355 N 
ATOM     14  H   UNL A   1      33.143  23.339  25.918  1.00  0.00     0.167 HD
BRANCH  13  15
ATOM     15  C   UNL A   1      34.777  22.338  25.265  1.00  0.00     0.045 A 
ATOM     16  C   UNL A   1      34.478  20.952  25.213  1.00  0.00    -0.024 A 
ATOM     17  C   UNL A   1      35.533  20.037  25.000  1.00  0.00     0.006 A 
ATOM     18  C   UNL A   1      36.857  20.449  24.976  1.00  0.00     0.001 A 
ATOM     19  C   UNL A   1      36.127  22.711  25.474  1.00  0.00    -0.027 A 
ATOM     20  C   UNL A   1      37.153  21.770  25.269  1.00  0.00     0.005 A 
ATOM     21  C   UNL A   1      36.538  24.078  25.932  1.00  0.00     0.046 C 
BRANCH  16  22
ATOM     22  C   UNL A   1      33.109  20.311  25.383  1.00  0.00     0.034 C 
ATOM     23  C   UNL A   1      32.525  19.469  24.253  1.00  0.00     0.009 C 
ENDBRANCH  16  22
ENDBRANCH  13  15
ENDBRANCH   8  13
ENDBRANCH   6   7
ENDBRANCH   3   6
ENDBRANCH   1   2
BRANCH   1  24
ATOM     24  C   UNL A   1      32.856  29.426  27.540  1.00  0.00     0.042 C 
BRANCH  24  25
ATOM     25  C   UNL A   1      33.993  30.365  27.149  1.00  0.00     0.118 C 
BRANCH  25  26
ATOM     26  N   UNL A   1      34.408  31.270  28.216  1.00  0.00    -0.352 N 
ATOM     27  C   UNL A   1      35.502  31.190  29.060  1.00  0.00     0.251 C 
ATOM     28  H   UNL A   1      33.826  32.051  28.355  1.00  0.00     0.163 HD
ATOM     29  O   UNL A   1      35.710  32.065  29.885  1.00  0.00    -0.269 OA
BRANCH  27  30
ATOM     30  C   UNL A   1      36.488  30.101  28.871  1.00  0.00     0.039 A 
ATOM     31  C   UNL A   1      36.757  29.261  29.960  1.00  0.00     0.014 A 
ATOM     32  C   UNL A   1      37.242  29.998  27.704  1.00  0.00     0.014 A 
ATOM     33  C   UNL A   1      37.922  28.498  29.965  1.00  0.00     0.010 A 
ATOM     34  C   UNL A   1      38.436  29.303  27.735  1.00  0.00     0.010 A 
ATOM     35  C   UNL A   1      38.810  28.620  28.896  1.00  0.00    -0.014 A 
BRANCH  35  36
ATOM     36  C   UNL A   1      40.191  28.161  28.957  1.00  0.00     0.031 A 
ATOM     37  C   UNL A   1      40.554  26.795  28.534  1.00  0.00     0.074 A 
ATOM     38  C   UNL A   1      41.143  29.028  29.369  1.00  0.00     0.049 A 
ATOM     39  N   UNL A   1      41.648  26.203  28.877  1.00  0.00    -0.248 NA
ATOM     40  C   UNL A   1      39.659  25.940  27.760  1.00  0.00     0.031 C 
ATOM     41  C   UNL A   1      42.591  28.880  29.256  1.00  0.00     0.029 A 
ATOM     42  N   UNL A   1      40.971  30.152  30.200  1.00  0.00    -0.354 N 
ATOM     43  C   UNL A   1      41.738  25.038  28.153  1.00  0.00     0.074 A 
ATOM     44  C   UNL A   1      40.421  24.852  27.601  1.00  0.00     0.031 C 
ATOM     45  C   UNL A   1      43.178  29.641  30.194  1.00  0.00     0.029 A 
ATOM     46  C   UNL A   1      42.117  30.177  31.030  1.00  0.00     0.049 A 
ATOM     47  H   UNL A   1      40.216  30.783  30.204  1.00  0.00     0.167 HD
ATOM     48  C   UNL A   1      42.964  24.460  27.998  1.00  0.00     0.037 A 
ATOM     49  C   UNL A   1      42.033  30.013  32.382  1.00  0.00     0.037 A 
ATOM     50  C   UNL A   1      43.928  25.038  28.938  1.00  0.00     0.049 A 
ATOM     51  C   UNL A   1      42.857  28.869  32.917  1.00  0.00     0.074 A 
ATOM     52  C   UNL A   1      44.972  25.933  28.795  1.00  0.00     0.029 A 
ATOM     53  N   UNL A   1      43.711  24.895  30.306  1.00  0.00    -0.354 N 
ATOM     54  N   UNL A   1      43.271  27.872  32.187  1.00  0.00    -0.248 NA
ATOM     55  C   UNL A   1      43.247  28.736  34.319  1.00  0.00     0.031 C 
ATOM     56  C   UNL A   1      45.323  26.400  30.090  1.00  0.00     0.029 A 
ATOM     57  C   UNL A   1      44.525  25.752  31.019  1.00  0.00     0.049 A 
ATOM     58  H   UNL A   1      43.067  24.269  30.710  1.00  0.00     0.167 HD
ATOM     59  C   UNL A   1      43.943  26.978  32.977  1.00  0.00     0.074 A 
ATOM     60  C   UNL A   1      43.916  27.571  34.301  1.00  0.00     0.031 C 
ATOM     61  C   UNL A   1      44.453  25.817  32.471  1.00  0.00     0.037 A 
BRANCH  48  62
ATOM     62  C   UNL A   1      43.381  23.532  26.865  1.00  0.00     0.064 A 
ATOM     63  C   UNL A   1      43.013  22.166  26.902  1.00  0.00     0.173 A 
ATOM     64  C   UNL A   1      44.247  23.866  25.801  1.00  0.00     0.173 A 
ATOM     65  F   UNL A   1      42.181  21.693  27.840  1.00  0.00    -0.203 F 
ATOM     66  C   UNL A   1      43.505  21.223  25.989  1.00  0.00     0.198 A 
ATOM     67  C   UNL A   1      44.702  22.932  24.866  1.00  0.00     0.198 A 
ATOM     68  F   UNL A   1      44.739  25.094  25.632  1.00  0.00    -0.203 F 
ATOM     69  F   UNL A   1      43.168  19.932  26.117  1.00  0.00    -0.200 F 
ATOM     70  C   UNL A   1      44.348  21.607  24.969  1.00  0.00     0.200 A 
ATOM     71  F   UNL A   1      45.517  23.332  23.878  1.00  0.00    -0.200 F 
ATOM     72  F   UNL A   1      44.826  20.708  24.098  1.00  0.00    -0.200 F 
ENDBRANCH  48  62
BRANCH  49  73
ATOM     73  C   UNL A   1      40.738  30.465  32.953  1.00  0.00     0.064 A 
ATOM     74  C   UNL A   1      40.458  31.845  32.967  1.00  0.00     0.173 A 
ATOM     75  C   UNL A   1      39.662  29.585  33.117  1.00  0.00     0.173 A 
ATOM     76  F   UNL A   1      41.456  32.731  32.816  1.00  0.00    -0.203 F 
ATOM     77  C   UNL A   1      39.150  32.319  33.016  1.00  0.00     0.198 A 
ATOM     78  C   UNL A   1      38.352  30.065  33.184  1.00  0.00     0.198 A 
ATOM     79  F   UNL A   1      39.860  28.259  33.097  1.00  0.00    -0.203 F 
ATOM     80  F   UNL A   1      38.909  33.634  32.907  1.00  0.00    -0.200 F 
ATOM     81  C   UNL A   1      38.096  31.425  33.096  1.00  0.00     0.200 A 
ATOM     82  F   UNL A   1      37.328  29.200  33.235  1.00  0.00    -0.200 F 
ATOM     83  F   UNL A   1      36.833  31.872  33.047  1.00  0.00    -0.200 F 
ENDBRANCH  49  73
BRANCH  61  84
ATOM     84  C   UNL A   1      45.005  24.673  33.285  1.00  0.00     0.064 A 
ATOM     85  C   UNL A   1      44.300  23.487  33.549  1.00  0.00     0.173 A 
ATOM     86  C   UNL A   1      46.356  24.686  33.708  1.00  0.00     0.173 A 
ATOM     87  F   UNL A   1      43.051  23.305  33.098  1.00  0.00    -0.203 F 
ATOM     88  C   UNL A   1      44.880  22.419  34.239  1.00  0.00     0.198 A 
ATOM     89  C   UNL A   1      46.949  23.597  34.347  1.00  0.00     0.198 A 
ATOM     90  F   UNL A   1      47.146  25.748  33.491  1.00  0.00    -0.203 F 
ATOM     91  F   UNL A   1      44.153  21.323  34.501  1.00  0.00    -0.200 F 
ATOM     92  C   UNL A   1      46.207  22.470  34.627  1.00  0.00     0.200 A 
ATOM     93  F   UNL A   1      48.248  23.642  34.672  1.00  0.00    -0.200 F 
ATOM     94  F   UNL A   1      46.772  21.425  35.247  1.00  0.00    -0.200 F 
ENDBRANCH  61  84
ENDBRANCH  35  36
ENDBRANCH  27  30
ENDBRANCH  25  26
ENDBRANCH  24  25
ENDBRANCH   1  24
TORSDOF 14
ENDMDL
MODEL 2
REMARK VINA RESULT:     -13.0      3.700     10.101
REMARK SMILES CCc1cccc(C)c1Nc1ccccc1CC(=O)NCCCNC(=O)c1ccc(-c2c3nc(c(-c4c(F)c(F)c(F)c(F)c4F)c4ccc([nH]4)c(-c4c(F)c(F)c(F)c(F)c4F)c4nc(c(-c5c(F)c(F)c(F)c(F)c5F)c5ccc2[nH]5)C=C4)C=C3)cc1
REMARK SMILES IDX 21 1 20 2 18 3 19 4 17 6 16 7 11 8 12 9 13 10 15 11 14 12
REMARK SMILES IDX 10 13 9 15 3 16 4 17 5 18 7 19 6 20 8 21 2 22 1 23 22 24
REMARK SMILES IDX 23 25 24 26 25 27 26 29 27 30 28 31 89 32 29 33 88 34 30 35
REMARK SMILES IDX 31 36 32 37 82 38 33 39 87 40 81 41 83 42 34 43 86 44 80 45
REMARK SMILES IDX 79 46 35 48 67 49 47 50 66 51 48 52 51 53 65 54 84 55 49 56
REMARK SMILES IDX 50 57 64 59 85 60 52 61 36 62 37 63 45 64 38 65 39 66 43 67
REMARK SMILES IDX 46 68 40 69 41 70 44 71 42 72 68 73 69 74 77 75 70 76 71 77
REMARK SMILES IDX 75 78 78 79 72 80 73 81 76 82 74 83 53 84 54 85 62 86 55 87
REMARK SMILES IDX 56 88 60 89 63 90 57 91 58 92 61 93 59 94
REMARK H PARENT 20 5 10 14 24 28 83 47 51 58
REMARK Flexibility Score: inf
ROOT
ATOM      1  C   UNL A   1      36.589  22.305  24.599  1.00  0.00     0.117 C 
ENDROOT
BRANCH   1   2
ATOM      2  N   UNL A   1      35.697  22.950  23.653  1.00  0.00    -0.356 N 
ATOM      3  C   UNL A   1      34.836  23.999  23.818  1.00  0.00     0.224 C 
ATOM      4  O   UNL A   1      34.463  24.582  22.796  1.00  0.00    -0.275 OA
ATOM      5  H   UNL A   1      35.715  22.572  22.744  1.00  0.00     0.163 HD
BRANCH   3   6
ATOM      6  C   UNL A   1      34.448  24.512  25.193  1.00  0.00     0.137 C 
BRANCH   6   7
ATOM      7  C   UNL A   1      33.004  24.321  25.612  1.00  0.00    -0.015 A 
ATOM      8  C   UNL A   1      31.964  25.208  25.259  1.00  0.00     0.042 A 
ATOM      9  C   UNL A   1      30.669  24.971  25.751  1.00  0.00     0.026 A 
ATOM     10  C   UNL A   1      30.381  23.855  26.535  1.00  0.00     0.002 A 
ATOM     11  C   UNL A   1      32.701  23.220  26.442  1.00  0.00     0.006 A 
ATOM     12  C   UNL A   1      31.401  22.979  26.883  1.00  0.00     0.000 A 
BRANCH   8  13
ATOM     13  N   UNL A   1      32.184  26.423  24.581  1.00  0.00    -0.355 N 
ATOM     14  H   UNL A   1      32.864  26.366  23.871  1.00  0.00     0.167 HD
BRANCH  13  15
ATOM     15  C   UNL A   1      31.614  27.709  24.729  1.00  0.00     0.045 A 
ATOM     16  C   UNL A   1      32.104  28.572  25.742  1.00  0.00    -0.024 A 
ATOM     17  C   UNL A   1      31.792  29.948  25.672  1.00  0.00     0.006 A 
ATOM     18  C   UNL A   1      30.915  30.445  24.719  1.00  0.00     0.001 A 
ATOM     19  C   UNL A   1      30.551  28.180  23.923  1.00  0.00    -0.027 A 
ATOM     20  C   UNL A   1      30.254  29.555  23.887  1.00  0.00     0.005 A 
ATOM     21  C   UNL A   1      29.686  27.276  23.096  1.00  0.00     0.046 C 
BRANCH  16  22
ATOM     22  C   UNL A   1      32.943  28.175  26.948  1.00  0.00     0.034 C 
ATOM     23  C   UNL A   1      34.321  28.798  27.148  1.00  0.00     0.009 C 
ENDBRANCH  16  22
ENDBRANCH  13  15
ENDBRANCH   8  13
ENDBRANCH   6   7
ENDBRANCH   3   6
ENDBRANCH   1   2
BRANCH   1  24
ATOM     24  C   UNL A   1      37.748  23.175  25.078  1.00  0.00     0.042 C 
BRANCH  24  25
ATOM     25  C   UNL A   1      38.518  22.621  26.273  1.00  0.00     0.118 C 
BRANCH  25  26
ATOM     26  N   UNL A   1      39.969  22.692  26.128  1.00  0.00    -0.352 N 
ATOM     27  C   UNL A   1      40.821  23.763  26.334  1.00  0.00     0.251 C 
ATOM     28  H   UNL A   1      40.404  21.857  25.841  1.00  0.00     0.163 HD
ATOM     29  O   UNL A   1      42.026  23.629  26.190  1.00  0.00    -0.269 OA
BRANCH  27  30
ATOM     30  C   UNL A   1      40.274  25.038  26.853  1.00  0.00     0.039 A 
ATOM     31  C   UNL A   1      40.588  26.217  26.165  1.00  0.00     0.014 A 
ATOM     32  C   UNL A   1      39.596  25.096  28.068  1.00  0.00     0.014 A 
ATOM     33  C   UNL A   1      40.441  27.444  26.806  1.00  0.00     0.010 A 
ATOM     34  C   UNL A   1      39.518  26.303  28.737  1.00  0.00     0.010 A 
ATOM     35  C   UNL A   1      40.014  27.462  28.133  1.00  0.00    -0.014 A 
BRANCH  35  36
ATOM     36  C   UNL A   1      40.164  28.624  28.998  1.00  0.00     0.031 A 
ATOM     37  C   UNL A   1      39.138  29.684  29.024  1.00  0.00     0.074 A 
ATOM     38  C   UNL A   1      41.243  28.694  29.810  1.00  0.00     0.049 A 
ATOM     39  N   UNL A   1      39.347  30.877  29.470  1.00  0.00    -0.248 NA
ATOM     40  C   UNL A   1      37.804  29.513  28.456  1.00  0.00     0.031 C 
ATOM     41  C   UNL A   1      41.459  29.607  30.929  1.00  0.00     0.029 A 
ATOM     42  N   UNL A   1      42.490  28.067  29.625  1.00  0.00    -0.354 N 
ATOM     43  C   UNL A   1      38.135  31.524  29.521  1.00  0.00     0.074 A 
ATOM     44  C   UNL A   1      37.250  30.695  28.743  1.00  0.00     0.031 C 
ATOM     45  C   UNL A   1      42.780  29.726  31.140  1.00  0.00     0.029 A 
ATOM     46  C   UNL A   1      43.447  29.012  30.065  1.00  0.00     0.049 A 
ATOM     47  H   UNL A   1      42.660  27.167  29.266  1.00  0.00     0.167 HD
ATOM     48  C   UNL A   1      38.007  32.606  30.340  1.00  0.00     0.037 A 
ATOM     49  C   UNL A   1      44.362  29.562  29.215  1.00  0.00     0.037 A 
ATOM     50  C   UNL A   1      39.324  33.080  30.776  1.00  0.00     0.049 A 
ATOM     51  C   UNL A   1      44.323  31.069  29.157  1.00  0.00     0.074 A 
ATOM     52  C   UNL A   1      40.020  32.985  31.967  1.00  0.00     0.029 A 
ATOM     53  N   UNL A   1      40.227  33.544  29.823  1.00  0.00    -0.354 N 
ATOM     54  N   UNL A   1      43.291  31.780  29.518  1.00  0.00    -0.248 NA
ATOM     55  C   UNL A   1      45.421  31.890  28.654  1.00  0.00     0.031 C 
ATOM     56  C   UNL A   1      41.377  33.309  31.703  1.00  0.00     0.029 A 
ATOM     57  C   UNL A   1      41.493  33.645  30.363  1.00  0.00     0.049 A 
ATOM     58  H   UNL A   1      39.996  33.768  28.892  1.00  0.00     0.167 HD
ATOM     59  C   UNL A   1      43.552  33.105  29.294  1.00  0.00     0.074 A 
ATOM     60  C   UNL A   1      44.904  33.125  28.768  1.00  0.00     0.031 C 
ATOM     61  C   UNL A   1      42.622  34.071  29.550  1.00  0.00     0.037 A 
BRANCH  48  62
ATOM     62  C   UNL A   1      36.710  33.126  30.944  1.00  0.00     0.064 A 
ATOM     63  C   UNL A   1      35.826  33.901  30.156  1.00  0.00     0.173 A 
ATOM     64  C   UNL A   1      36.336  33.031  32.302  1.00  0.00     0.173 A 
ATOM     65  F   UNL A   1      36.031  34.072  28.842  1.00  0.00    -0.203 F 
ATOM     66  C   UNL A   1      34.706  34.553  30.689  1.00  0.00     0.198 A 
ATOM     67  C   UNL A   1      35.194  33.647  32.824  1.00  0.00     0.198 A 
ATOM     68  F   UNL A   1      37.070  32.383  33.208  1.00  0.00    -0.203 F 
ATOM     69  F   UNL A   1      33.945  35.325  29.901  1.00  0.00    -0.200 F 
ATOM     70  C   UNL A   1      34.389  34.424  32.024  1.00  0.00     0.200 A 
ATOM     71  F   UNL A   1      34.902  33.500  34.126  1.00  0.00    -0.200 F 
ATOM     72  F   UNL A   1      33.323  35.051  32.541  1.00  0.00    -0.200 F 
ENDBRANCH  48  62
BRANCH  49  73
ATOM     73  C   UNL A   1      44.715  28.679  28.074  1.00  0.00     0.064 A 
ATOM     74  C   UNL A   1      45.515  27.548  28.327  1.00  0.00     0.173 A 
ATOM     75  C   UNL A   1      43.995  28.707  26.875  1.00  0.00     0.173 A 
ATOM     76  F   UNL A   1      46.229  27.473  29.462  1.00  0.00    -0.203 F 
ATOM     77  C   UNL A   1      45.498  26.443  27.478  1.00  0.00     0.198 A 
ATOM     78  C   UNL A   1      43.993  27.604  26.018  1.00  0.00     0.198 A 
ATOM     79  F   UNL A   1      43.202  29.748  26.583  1.00  0.00    -0.203 F 
ATOM     80  F   UNL A   1      46.177  25.335  27.808  1.00  0.00    -0.200 F 
ATOM     81  C   UNL A   1      44.713  26.462  26.339  1.00  0.00     0.200 A 
ATOM     82  F   UNL A   1      43.213  27.610  24.927  1.00  0.00    -0.200 F 
ATOM     83  F   UNL A   1      44.617  25.367  25.572  1.00  0.00    -0.200 F 
ENDBRANCH  49  73
BRANCH  61  84
ATOM     84  C   UNL A   1      42.723  35.518  29.133  1.00  0.00     0.064 A 
ATOM     85  C   UNL A   1      42.054  36.062  28.023  1.00  0.00     0.173 A 
ATOM     86  C   UNL A   1      43.399  36.451  29.954  1.00  0.00     0.173 A 
ATOM     87  F   UNL A   1      41.283  35.301  27.234  1.00  0.00    -0.203 F 
ATOM     88  C   UNL A   1      42.110  37.425  27.721  1.00  0.00     0.198 A 
ATOM     89  C   UNL A   1      43.407  37.818  29.681  1.00  0.00     0.198 A 
ATOM     90  F   UNL A   1      44.053  36.063  31.059  1.00  0.00    -0.203 F 
ATOM     91  F   UNL A   1      41.488  37.890  26.628  1.00  0.00    -0.200 F 
ATOM     92  C   UNL A   1      42.776  38.304  28.556  1.00  0.00     0.200 A 
ATOM     93  F   UNL A   1      44.014  38.663  30.526  1.00  0.00    -0.200 F 
ATOM     94  F   UNL A   1      42.788  39.617  28.287  1.00  0.00    -0.200 F 
ENDBRANCH  61  84
ENDBRANCH  35  36
ENDBRANCH  27  30
ENDBRANCH  25  26
ENDBRANCH  24  25
ENDBRANCH   1  24
TORSDOF 14
ENDMDL
MODEL 3
REMARK VINA RESULT:     -13.0      3.588      9.955
REMARK SMILES CCc1cccc(C)c1Nc1ccccc1CC(=O)NCCCNC(=O)c1ccc(-c2c3nc(c(-c4c(F)c(F)c(F)c(F)c4F)c4ccc([nH]4)c(-c4c(F)c(F)c(F)c(F)c4F)c4nc(c(-c5c(F)c(F)c(F)c(F)c5F)c5ccc2[nH]5)C=C4)C=C3)cc1
REMARK SMILES IDX 21 1 20 2 18 3 19 4 17 6 16 7 11 8 12 9 13 10 15 11 14 12
REMARK SMILES IDX 10 13 9 15 3 16 4 17 5 18 7 19 6 20 8 21 2 22 1 23 22 24
REMARK SMILES IDX 23 25 24 26 25 27 26 29 27 30 28 31 89 32 29 33 88 34 30 35
REMARK SMILES IDX 31 36 32 37 82 38 33 39 87 40 81 41 83 42 34 43 86 44 80 45
REMARK SMILES IDX 79 46 35 48 67 49 47 50 66 51 48 52 51 53 65 54 84 55 49 56
REMARK SMILES IDX 50 57 64 59 85 60 52 61 36 62 37 63 45 64 38 65 39 66 43 67
REMARK SMILES IDX 46 68 40 69 41 70 44 71 42 72 68 73 69 74 77 75 70 76 71 77
REMARK SMILES IDX 75 78 78 79 72 80 73 81 76 82 74 83 53 84 54 85 62 86 55 87
REMARK SMILES IDX 56 88 60 89 63 90 57 91 58 92 61 93 59 94
REMARK H PARENT 20 5 10 14 24 28 83 47 51 58
REMARK Flexibility Score: inf
ROOT
ATOM      1  C   UNL A   1      36.377  21.369  25.299  1.00  0.00     0.117 C 
ENDROOT
BRANCH   1   2
ATOM      2  N   UNL A   1      35.794  22.026  26.455  1.00  0.00    -0.356 N 
ATOM      3  C   UNL A   1      34.489  22.308  26.750  1.00  0.00     0.224 C 
ATOM      4  O   UNL A   1      34.223  22.543  27.933  1.00  0.00    -0.275 OA
ATOM      5  H   UNL A   1      36.443  22.314  27.138  1.00  0.00     0.163 HD
BRANCH   3   6
ATOM      6  C   UNL A   1      33.390  22.219  25.707  1.00  0.00     0.137 C 
BRANCH   6   7
ATOM      7  C   UNL A   1      32.172  23.093  25.920  1.00  0.00    -0.015 A 
ATOM      8  C   UNL A   1      32.113  24.455  25.552  1.00  0.00     0.042 A 
ATOM      9  C   UNL A   1      30.955  25.193  25.850  1.00  0.00     0.026 A 
ATOM     10  C   UNL A   1      29.848  24.599  26.454  1.00  0.00     0.002 A 
ATOM     11  C   UNL A   1      31.056  22.520  26.568  1.00  0.00     0.006 A 
ATOM     12  C   UNL A   1      29.901  23.259  26.815  1.00  0.00     0.000 A 
BRANCH   8  13
ATOM     13  N   UNL A   1      33.223  25.168  25.057  1.00  0.00    -0.355 N 
ATOM     14  H   UNL A   1      34.090  24.760  25.279  1.00  0.00     0.167 HD
BRANCH  13  15
ATOM     15  C   UNL A   1      33.325  26.359  24.303  1.00  0.00     0.045 A 
ATOM     16  C   UNL A   1      33.622  27.578  24.966  1.00  0.00    -0.024 A 
ATOM     17  C   UNL A   1      34.062  28.680  24.200  1.00  0.00     0.006 A 
ATOM     18  C   UNL A   1      34.081  28.638  22.813  1.00  0.00     0.001 A 
ATOM     19  C   UNL A   1      33.124  26.408  22.902  1.00  0.00    -0.027 A 
ATOM     20  C   UNL A   1      33.559  27.528  22.170  1.00  0.00     0.005 A 
ATOM     21  C   UNL A   1      32.439  25.316  22.135  1.00  0.00     0.046 C 
BRANCH  16  22
ATOM     22  C   UNL A   1      33.501  27.852  26.458  1.00  0.00     0.034 C 
ATOM     23  C   UNL A   1      32.232  28.495  27.008  1.00  0.00     0.009 C 
ENDBRANCH  16  22
ENDBRANCH  13  15
ENDBRANCH   8  13
ENDBRANCH   6   7
ENDBRANCH   3   6
ENDBRANCH   1   2
BRANCH   1  24
ATOM     24  C   UNL A   1      37.872  21.611  25.115  1.00  0.00     0.042 C 
BRANCH  24  25
ATOM     25  C   UNL A   1      38.467  22.688  26.018  1.00  0.00     0.118 C 
BRANCH  25  26
ATOM     26  N   UNL A   1      39.926  22.693  26.053  1.00  0.00    -0.352 N 
ATOM     27  C   UNL A   1      40.793  23.713  26.406  1.00  0.00     0.251 C 
ATOM     28  H   UNL A   1      40.356  21.849  25.787  1.00  0.00     0.163 HD
ATOM     29  O   UNL A   1      41.999  23.526  26.404  1.00  0.00    -0.269 OA
BRANCH  27  30
ATOM     30  C   UNL A   1      40.243  24.994  26.907  1.00  0.00     0.039 A 
ATOM     31  C   UNL A   1      40.639  26.175  26.267  1.00  0.00     0.014 A 
ATOM     32  C   UNL A   1      39.478  25.050  28.070  1.00  0.00     0.014 A 
ATOM     33  C   UNL A   1      40.477  27.396  26.919  1.00  0.00     0.010 A 
ATOM     34  C   UNL A   1      39.382  26.247  28.754  1.00  0.00     0.010 A 
ATOM     35  C   UNL A   1      39.953  27.402  28.211  1.00  0.00    -0.014 A 
BRANCH  35  36
ATOM     36  C   UNL A   1      40.068  28.545  29.107  1.00  0.00     0.031 A 
ATOM     37  C   UNL A   1      39.044  29.606  29.115  1.00  0.00     0.074 A 
ATOM     38  C   UNL A   1      41.113  28.594  29.963  1.00  0.00     0.049 A 
ATOM     39  N   UNL A   1      39.236  30.788  29.595  1.00  0.00    -0.248 NA
ATOM     40  C   UNL A   1      37.734  29.450  28.488  1.00  0.00     0.031 C 
ATOM     41  C   UNL A   1      41.285  29.482  31.110  1.00  0.00     0.029 A 
ATOM     42  N   UNL A   1      42.366  27.969  29.816  1.00  0.00    -0.354 N 
ATOM     43  C   UNL A   1      38.024  31.437  29.610  1.00  0.00     0.074 A 
ATOM     44  C   UNL A   1      37.170  30.627  28.779  1.00  0.00     0.031 C 
ATOM     45  C   UNL A   1      42.596  29.593  31.377  1.00  0.00     0.029 A 
ATOM     46  C   UNL A   1      43.306  28.901  30.316  1.00  0.00     0.049 A 
ATOM     47  H   UNL A   1      42.550  27.076  29.444  1.00  0.00     0.167 HD
ATOM     48  C   UNL A   1      37.864  32.501  30.447  1.00  0.00     0.037 A 
ATOM     49  C   UNL A   1      44.256  29.468  29.517  1.00  0.00     0.037 A 
ATOM     50  C   UNL A   1      39.162  32.962  30.946  1.00  0.00     0.049 A 
ATOM     51  C   UNL A   1      44.221  30.976  29.490  1.00  0.00     0.074 A 
ATOM     52  C   UNL A   1      39.809  32.840  32.163  1.00  0.00     0.029 A 
ATOM     53  N   UNL A   1      40.105  33.445  30.042  1.00  0.00    -0.354 N 
ATOM     54  N   UNL A   1      43.176  31.681  29.823  1.00  0.00    -0.248 NA
ATOM     55  C   UNL A   1      45.340  31.806  29.051  1.00  0.00     0.031 C 
ATOM     56  C   UNL A   1      41.176  33.166  31.962  1.00  0.00     0.029 A 
ATOM     57  C   UNL A   1      41.347  33.532  30.636  1.00  0.00     0.049 A 
ATOM     58  H   UNL A   1      39.912  33.690  29.108  1.00  0.00     0.167 HD
ATOM     59  C   UNL A   1      43.447  33.010  29.640  1.00  0.00     0.074 A 
ATOM     60  C   UNL A   1      44.820  33.039  29.170  1.00  0.00     0.031 C 
ATOM     61  C   UNL A   1      42.509  33.973  29.879  1.00  0.00     0.037 A 
BRANCH  48  62
ATOM     62  C   UNL A   1      36.544  33.010  31.009  1.00  0.00     0.064 A 
ATOM     63  C   UNL A   1      35.745  33.892  30.242  1.00  0.00     0.173 A 
ATOM     64  C   UNL A   1      36.069  32.799  32.322  1.00  0.00     0.173 A 
ATOM     65  F   UNL A   1      36.049  34.180  28.970  1.00  0.00    -0.203 F 
ATOM     66  C   UNL A   1      34.610  34.532  30.759  1.00  0.00     0.198 A 
ATOM     67  C   UNL A   1      34.913  33.406  32.823  1.00  0.00     0.198 A 
ATOM     68  F   UNL A   1      36.715  32.039  33.207  1.00  0.00    -0.203 F 
ATOM     69  F   UNL A   1      33.934  35.406  30.001  1.00  0.00    -0.200 F 
ATOM     70  C   UNL A   1      34.193  34.287  32.050  1.00  0.00     0.200 A 
ATOM     71  F   UNL A   1      34.524  33.146  34.080  1.00  0.00    -0.200 F 
ATOM     72  F   UNL A   1      33.114  34.903  32.552  1.00  0.00    -0.200 F 
ENDBRANCH  48  62
BRANCH  49  73
ATOM     73  C   UNL A   1      44.654  28.609  28.372  1.00  0.00     0.064 A 
ATOM     74  C   UNL A   1      45.401  27.445  28.637  1.00  0.00     0.173 A 
ATOM     75  C   UNL A   1      44.013  28.698  27.130  1.00  0.00     0.173 A 
ATOM     76  F   UNL A   1      46.037  27.312  29.812  1.00  0.00    -0.203 F 
ATOM     77  C   UNL A   1      45.404  26.369  27.753  1.00  0.00     0.198 A 
ATOM     78  C   UNL A   1      44.033  27.623  26.239  1.00  0.00     0.198 A 
ATOM     79  F   UNL A   1      43.274  29.774  26.824  1.00  0.00    -0.203 F 
ATOM     80  F   UNL A   1      46.026  25.229  28.088  1.00  0.00    -0.200 F 
ATOM     81  C   UNL A   1      44.695  26.449  26.567  1.00  0.00     0.200 A 
ATOM     82  F   UNL A   1      43.325  27.689  25.102  1.00  0.00    -0.200 F 
ATOM     83  F   UNL A   1      44.615  25.382  25.760  1.00  0.00    -0.200 F 
ENDBRANCH  49  73
BRANCH  61  84
ATOM     84  C   UNL A   1      42.629  35.428  29.498  1.00  0.00     0.064 A 
ATOM     85  C   UNL A   1      43.453  36.348  30.168  1.00  0.00     0.173 A 
ATOM     86  C   UNL A   1      42.008  35.910  28.321  1.00  0.00     0.173 A 
ATOM     87  F   UNL A   1      44.186  35.981  31.229  1.00  0.00    -0.203 F 
ATOM     88  C   UNL A   1      43.597  37.667  29.731  1.00  0.00     0.198 A 
ATOM     89  C   UNL A   1      42.197  37.211  27.857  1.00  0.00     0.198 A 
ATOM     90  F   UNL A   1      41.219  35.123  27.575  1.00  0.00    -0.203 F 
ATOM     91  F   UNL A   1      44.365  38.518  30.427  1.00  0.00    -0.200 F 
ATOM     92  C   UNL A   1      42.979  38.095  28.570  1.00  0.00     0.200 A 
ATOM     93  F   UNL A   1      41.633  37.596  26.703  1.00  0.00    -0.200 F 
ATOM     94  F   UNL A   1      43.157  39.348  28.129  1.00  0.00    -0.200 F 
ENDBRANCH  61  84
ENDBRANCH  35  36
ENDBRANCH  27  30
ENDBRANCH  25  26
ENDBRANCH  24  25
ENDBRANCH   1  24
TORSDOF 14
ENDMDL
