MODEL 1
REMARK VINA RESULT:     -12.3      0.000      0.000
REMARK SMILES O=C(NCCCNC(=O)c1cccc(/C=N/NC(=S)Nc2ccccc2)c1O)c1ccc(-c2c3nc(c(-c4c(F)c(F)c(F)c(F)c4F)c4ccc([nH]4)c(-c4c(F)c(F)c(F)c(F)c4F)c4nc(c(-c5c(F)c(F)c(F)c(F)c5F)c5ccc2[nH]5)C=C4)C=C3)cc1
REMARK SMILES IDX 7 1 8 2 9 3 6 5 5 6 4 7 3 8 1 9 2 10 29 12 30 13 91 14 31 15
REMARK SMILES IDX 90 16 32 17 33 18 34 19 84 20 35 21 89 22 83 23 85 24 36 25
REMARK SMILES IDX 88 26 82 27 81 28 37 30 69 31 49 32 68 33 50 34 53 35 67 36
REMARK SMILES IDX 86 37 51 38 52 39 66 41 87 42 54 43 38 44 39 45 47 46 40 47
REMARK SMILES IDX 41 48 45 49 48 50 42 51 43 52 46 53 44 54 70 55 71 56 79 57
REMARK SMILES IDX 72 58 73 59 77 60 80 61 74 62 75 63 78 64 76 65 55 66 56 67
REMARK SMILES IDX 64 68 57 69 58 70 62 71 65 72 59 73 60 74 63 75 61 76 10 77
REMARK SMILES IDX 11 78 27 79 12 80 14 81 13 82 28 83 15 85 16 86 17 87 18 89
REMARK SMILES IDX 19 90 20 91 21 93 22 94 26 95 23 96 25 97 24 98
REMARK H PARENT 7 4 3 11 85 29 53 40 28 84 17 88 20 92
REMARK Flexibility Score: inf
ROOT
ATOM      1  N   UNL A   1      32.997  30.229  26.869  1.00  0.00    -0.352 N 
ATOM      2  C   UNL A   1      33.835  29.225  26.463  1.00  0.00     0.255 C 
ATOM      3  O   UNL A   1      34.791  28.949  27.188  1.00  0.00    -0.269 OA
ATOM      4  H   UNL A   1      33.311  30.723  27.661  1.00  0.00     0.163 HD
ENDROOT
BRANCH   1   5
ATOM      5  C   UNL A   1      31.722  30.698  26.340  1.00  0.00     0.118 C 
BRANCH   5   6
ATOM      6  C   UNL A   1      31.476  32.175  26.600  1.00  0.00     0.042 C 
BRANCH   6   7
ATOM      7  C   UNL A   1      32.708  32.920  27.090  1.00  0.00     0.118 C 
BRANCH   7   8
ATOM      8  N   UNL A   1      32.418  34.256  27.599  1.00  0.00    -0.352 N 
ATOM      9  O   UNL A   1      32.472  36.033  28.980  1.00  0.00    -0.269 OA
ATOM     10  C   UNL A   1      32.976  34.974  28.635  1.00  0.00     0.251 C 
ATOM     11  H   UNL A   1      31.699  34.727  27.119  1.00  0.00     0.163 HD
BRANCH  10  12
ATOM     12  C   UNL A   1      34.152  34.445  29.362  1.00  0.00     0.039 A 
ATOM     13  C   UNL A   1      35.439  34.622  28.865  1.00  0.00     0.014 A 
ATOM     14  C   UNL A   1      33.963  33.764  30.568  1.00  0.00     0.014 A 
ATOM     15  C   UNL A   1      36.500  33.925  29.425  1.00  0.00     0.010 A 
ATOM     16  C   UNL A   1      35.058  33.184  31.217  1.00  0.00     0.010 A 
ATOM     17  C   UNL A   1      36.329  33.217  30.623  1.00  0.00    -0.014 A 
BRANCH  17  18
ATOM     18  C   UNL A   1      37.505  32.573  31.262  1.00  0.00     0.031 A 
ATOM     19  C   UNL A   1      38.253  31.469  30.570  1.00  0.00     0.074 A 
ATOM     20  C   UNL A   1      37.905  33.008  32.472  1.00  0.00     0.049 A 
ATOM     21  N   UNL A   1      39.256  30.750  31.007  1.00  0.00    -0.248 NA
ATOM     22  C   UNL A   1      37.811  31.115  29.212  1.00  0.00     0.031 C 
ATOM     23  C   UNL A   1      37.264  34.082  33.235  1.00  0.00     0.029 A 
ATOM     24  N   UNL A   1      38.946  32.613  33.271  1.00  0.00    -0.354 N 
ATOM     25  C   UNL A   1      39.542  29.839  29.998  1.00  0.00     0.074 A 
ATOM     26  C   UNL A   1      38.593  30.082  28.932  1.00  0.00     0.031 C 
ATOM     27  C   UNL A   1      37.946  34.288  34.368  1.00  0.00     0.029 A 
ATOM     28  C   UNL A   1      39.014  33.301  34.458  1.00  0.00     0.049 A 
ATOM     29  H   UNL A   1      39.582  31.904  33.021  1.00  0.00     0.167 HD
ATOM     30  C   UNL A   1      40.509  28.889  29.969  1.00  0.00     0.037 A 
ATOM     31  C   UNL A   1      39.818  33.132  35.523  1.00  0.00     0.037 A 
ATOM     32  C   UNL A   1      41.456  28.671  31.034  1.00  0.00     0.049 A 
ATOM     33  C   UNL A   1      40.852  32.048  35.484  1.00  0.00     0.074 A 
ATOM     34  C   UNL A   1      42.493  27.757  31.093  1.00  0.00     0.029 A 
ATOM     35  N   UNL A   1      41.476  29.375  32.232  1.00  0.00    -0.354 N 
ATOM     36  N   UNL A   1      41.118  31.197  34.522  1.00  0.00    -0.248 NA
ATOM     37  C   UNL A   1      41.693  31.893  36.677  1.00  0.00     0.031 C 
ATOM     38  C   UNL A   1      43.102  27.867  32.348  1.00  0.00     0.029 A 
ATOM     39  C   UNL A   1      42.490  28.896  33.046  1.00  0.00     0.049 A 
ATOM     40  H   UNL A   1      40.861  30.106  32.467  1.00  0.00     0.167 HD
ATOM     41  C   UNL A   1      42.173  30.423  34.981  1.00  0.00     0.074 A 
ATOM     42  C   UNL A   1      42.503  30.912  36.305  1.00  0.00     0.031 C 
ATOM     43  C   UNL A   1      42.811  29.401  34.359  1.00  0.00     0.037 A 
BRANCH  30  44
ATOM     44  C   UNL A   1      40.566  27.989  28.766  1.00  0.00     0.064 A 
ATOM     45  C   UNL A   1      41.343  28.297  27.640  1.00  0.00     0.173 A 
ATOM     46  C   UNL A   1      39.844  26.784  28.750  1.00  0.00     0.173 A 
ATOM     47  F   UNL A   1      42.045  29.439  27.595  1.00  0.00    -0.203 F 
ATOM     48  C   UNL A   1      41.364  27.454  26.529  1.00  0.00     0.198 A 
ATOM     49  C   UNL A   1      39.894  25.928  27.653  1.00  0.00     0.198 A 
ATOM     50  F   UNL A   1      39.090  26.433  29.803  1.00  0.00    -0.203 F 
ATOM     51  F   UNL A   1      42.066  27.801  25.441  1.00  0.00    -0.200 F 
ATOM     52  C   UNL A   1      40.644  26.269  26.539  1.00  0.00     0.200 A 
ATOM     53  F   UNL A   1      39.210  24.776  27.671  1.00  0.00    -0.200 F 
ATOM     54  F   UNL A   1      40.667  25.460  25.471  1.00  0.00    -0.200 F 
ENDBRANCH  30  44
BRANCH  31  55
ATOM     55  C   UNL A   1      39.644  34.005  36.711  1.00  0.00     0.064 A 
ATOM     56  C   UNL A   1      38.848  33.606  37.792  1.00  0.00     0.173 A 
ATOM     57  C   UNL A   1      40.312  35.236  36.811  1.00  0.00     0.173 A 
ATOM     58  F   UNL A   1      38.180  32.445  37.738  1.00  0.00    -0.203 F 
ATOM     59  C   UNL A   1      38.723  34.406  38.926  1.00  0.00     0.198 A 
ATOM     60  C   UNL A   1      40.212  36.020  37.957  1.00  0.00     0.198 A 
ATOM     61  F   UNL A   1      41.096  35.659  35.808  1.00  0.00    -0.203 F 
ATOM     62  F   UNL A   1      37.934  34.013  39.935  1.00  0.00    -0.200 F 
ATOM     63  C   UNL A   1      39.413  35.606  39.012  1.00  0.00     0.200 A 
ATOM     64  F   UNL A   1      40.899  37.166  38.046  1.00  0.00    -0.200 F 
ATOM     65  F   UNL A   1      39.307  36.365  40.111  1.00  0.00    -0.200 F 
ENDBRANCH  31  55
BRANCH  43  66
ATOM     66  C   UNL A   1      43.968  28.775  35.081  1.00  0.00     0.064 A 
ATOM     67  C   UNL A   1      45.273  29.273  34.959  1.00  0.00     0.173 A 
ATOM     68  C   UNL A   1      43.755  27.688  35.941  1.00  0.00     0.173 A 
ATOM     69  F   UNL A   1      45.531  30.299  34.134  1.00  0.00    -0.203 F 
ATOM     70  C   UNL A   1      46.326  28.692  35.660  1.00  0.00     0.198 A 
ATOM     71  C   UNL A   1      44.805  27.130  36.664  1.00  0.00     0.198 A 
ATOM     72  F   UNL A   1      42.524  27.177  36.095  1.00  0.00    -0.203 F 
ATOM     73  F   UNL A   1      47.574  29.154  35.495  1.00  0.00    -0.200 F 
ATOM     74  C   UNL A   1      46.091  27.628  36.518  1.00  0.00     0.200 A 
ATOM     75  F   UNL A   1      44.572  26.111  37.503  1.00  0.00    -0.200 F 
ATOM     76  F   UNL A   1      47.104  27.078  37.200  1.00  0.00    -0.200 F 
ENDBRANCH  43  66
ENDBRANCH  17  18
ENDBRANCH  10  12
ENDBRANCH   7   8
ENDBRANCH   6   7
ENDBRANCH   5   6
ENDBRANCH   1   5
BRANCH   2  77
ATOM     77  C   UNL A   1      33.648  28.478  25.195  1.00  0.00     0.082 A 
ATOM     78  C   UNL A   1      33.553  29.243  24.022  1.00  0.00     0.018 A 
ATOM     79  C   UNL A   1      33.466  27.092  25.112  1.00  0.00     0.137 A 
ATOM     80  C   UNL A   1      33.304  28.633  22.789  1.00  0.00     0.002 A 
ATOM     81  C   UNL A   1      33.257  26.476  23.874  1.00  0.00     0.037 A 
ATOM     82  C   UNL A   1      33.159  27.248  22.715  1.00  0.00     0.014 A 
BRANCH  79  83
ATOM     83  O   UNL A   1      33.404  26.304  26.226  1.00  0.00    -0.506 OA
ATOM     84  H   UNL A   1      34.164  26.188  26.761  1.00  0.00     0.293 HD
ENDBRANCH  79  83
BRANCH  81  85
ATOM     85  C   UNL A   1      33.078  25.009  23.814  1.00  0.00     0.145 C 
ATOM     86  N   UNL A   1      34.064  24.205  24.054  1.00  0.00    -0.181 NA
BRANCH  86  87
ATOM     87  N   UNL A   1      33.885  22.859  23.898  1.00  0.00    -0.254 N 
ATOM     88  H   UNL A   1      34.084  22.537  22.989  1.00  0.00     0.193 HD
BRANCH  87  89
ATOM     89  C   UNL A   1      33.486  21.879  24.749  1.00  0.00     0.191 C 
ATOM     90  S   UNL A   1      33.832  22.080  26.380  1.00  0.00    -0.039 S 
BRANCH  89  91
ATOM     91  N   UNL A   1      32.796  20.772  24.392  1.00  0.00    -0.331 N 
ATOM     92  H   UNL A   1      31.823  20.909  24.330  1.00  0.00     0.169 HD
BRANCH  91  93
ATOM     93  C   UNL A   1      33.209  19.461  24.093  1.00  0.00     0.040 A 
ATOM     94  C   UNL A   1      32.444  18.741  23.166  1.00  0.00     0.026 A 
ATOM     95  C   UNL A   1      34.327  18.858  24.668  1.00  0.00     0.026 A 
ATOM     96  C   UNL A   1      32.856  17.474  22.742  1.00  0.00     0.002 A 
ATOM     97  C   UNL A   1      34.741  17.593  24.242  1.00  0.00     0.002 A 
ATOM     98  C   UNL A   1      34.018  16.910  23.266  1.00  0.00     0.000 A 
ENDBRANCH  91  93
ENDBRANCH  89  91
ENDBRANCH  87  89
ENDBRANCH  86  87
ENDBRANCH  81  85
ENDBRANCH   2  77
TORSDOF 16
ENDMDL
MODEL 2
REMARK VINA RESULT:     -12.2      1.201      2.095
REMARK SMILES O=C(NCCCNC(=O)c1cccc(/C=N/NC(=S)Nc2ccccc2)c1O)c1ccc(-c2c3nc(c(-c4c(F)c(F)c(F)c(F)c4F)c4ccc([nH]4)c(-c4c(F)c(F)c(F)c(F)c4F)c4nc(c(-c5c(F)c(F)c(F)c(F)c5F)c5ccc2[nH]5)C=C4)C=C3)cc1
REMARK SMILES IDX 7 1 8 2 9 3 6 5 5 6 4 7 3 8 1 9 2 10 29 12 30 13 91 14 31 15
REMARK SMILES IDX 90 16 32 17 33 18 34 19 84 20 35 21 89 22 83 23 85 24 36 25
REMARK SMILES IDX 88 26 82 27 81 28 37 30 69 31 49 32 68 33 50 34 53 35 67 36
REMARK SMILES IDX 86 37 51 38 52 39 66 41 87 42 54 43 38 44 39 45 47 46 40 47
REMARK SMILES IDX 41 48 45 49 48 50 42 51 43 52 46 53 44 54 70 55 71 56 79 57
REMARK SMILES IDX 72 58 73 59 77 60 80 61 74 62 75 63 78 64 76 65 55 66 56 67
REMARK SMILES IDX 64 68 57 69 58 70 62 71 65 72 59 73 60 74 63 75 61 76 10 77
REMARK SMILES IDX 11 78 27 79 12 80 14 81 13 82 28 83 15 85 16 86 17 87 18 89
REMARK SMILES IDX 19 90 20 91 21 93 22 94 26 95 23 96 25 97 24 98
REMARK H PARENT 7 4 3 11 85 29 53 40 28 84 17 88 20 92
REMARK Flexibility Score: inf
ROOT
ATOM      1  N   UNL A   1      32.538  30.067  25.139  1.00  0.00    -0.352 N 
ATOM      2  C   UNL A   1      32.707  28.976  24.329  1.00  0.00     0.255 C 
ATOM      3  O   UNL A   1      33.700  28.951  23.602  1.00  0.00    -0.269 OA
ATOM      4  H   UNL A   1      33.180  30.796  24.975  1.00  0.00     0.163 HD
ENDROOT
BRANCH   1   5
ATOM      5  C   UNL A   1      31.580  30.343  26.203  1.00  0.00     0.118 C 
BRANCH   5   6
ATOM      6  C   UNL A   1      31.420  31.827  26.492  1.00  0.00     0.042 C 
BRANCH   6   7
ATOM      7  C   UNL A   1      32.630  32.447  27.176  1.00  0.00     0.118 C 
BRANCH   7   8
ATOM      8  N   UNL A   1      32.432  33.840  27.561  1.00  0.00    -0.352 N 
ATOM      9  O   UNL A   1      32.636  35.736  28.756  1.00  0.00    -0.269 OA
ATOM     10  C   UNL A   1      33.069  34.622  28.499  1.00  0.00     0.251 C 
ATOM     11  H   UNL A   1      31.719  34.302  27.063  1.00  0.00     0.163 HD
BRANCH  10  12
ATOM     12  C   UNL A   1      34.245  34.100  29.232  1.00  0.00     0.039 A 
ATOM     13  C   UNL A   1      35.533  34.513  28.905  1.00  0.00     0.014 A 
ATOM     14  C   UNL A   1      34.055  33.184  30.271  1.00  0.00     0.014 A 
ATOM     15  C   UNL A   1      36.629  33.846  29.433  1.00  0.00     0.010 A 
ATOM     16  C   UNL A   1      35.163  32.618  30.910  1.00  0.00     0.010 A 
ATOM     17  C   UNL A   1      36.461  32.908  30.460  1.00  0.00    -0.014 A 
BRANCH  17  18
ATOM     18  C   UNL A   1      37.658  32.291  31.086  1.00  0.00     0.031 A 
ATOM     19  C   UNL A   1      38.444  31.230  30.370  1.00  0.00     0.074 A 
ATOM     20  C   UNL A   1      38.042  32.712  32.307  1.00  0.00     0.049 A 
ATOM     21  N   UNL A   1      39.472  30.536  30.792  1.00  0.00    -0.248 NA
ATOM     22  C   UNL A   1      38.016  30.892  29.003  1.00  0.00     0.031 C 
ATOM     23  C   UNL A   1      37.363  33.744  33.093  1.00  0.00     0.029 A 
ATOM     24  N   UNL A   1      39.096  32.335  33.098  1.00  0.00    -0.354 N 
ATOM     25  C   UNL A   1      39.790  29.659  29.763  1.00  0.00     0.074 A 
ATOM     26  C   UNL A   1      38.834  29.894  28.701  1.00  0.00     0.031 C 
ATOM     27  C   UNL A   1      38.036  33.948  34.231  1.00  0.00     0.029 A 
ATOM     28  C   UNL A   1      39.138  32.997  34.300  1.00  0.00     0.049 A 
ATOM     29  H   UNL A   1      39.756  31.655  32.832  1.00  0.00     0.167 HD
ATOM     30  C   UNL A   1      40.789  28.745  29.713  1.00  0.00     0.037 A 
ATOM     31  C   UNL A   1      39.947  32.832  35.362  1.00  0.00     0.037 A 
ATOM     32  C   UNL A   1      41.743  28.536  30.773  1.00  0.00     0.049 A 
ATOM     33  C   UNL A   1      41.018  31.785  35.299  1.00  0.00     0.074 A 
ATOM     34  C   UNL A   1      42.811  27.657  30.814  1.00  0.00     0.029 A 
ATOM     35  N   UNL A   1      41.737  29.212  31.988  1.00  0.00    -0.354 N 
ATOM     36  N   UNL A   1      41.315  30.967  34.319  1.00  0.00    -0.248 NA
ATOM     37  C   UNL A   1      41.863  31.633  36.489  1.00  0.00     0.031 C 
ATOM     38  C   UNL A   1      43.415  27.759  32.072  1.00  0.00     0.029 A 
ATOM     39  C   UNL A   1      42.767  28.750  32.792  1.00  0.00     0.049 A 
ATOM     40  H   UNL A   1      41.097  29.916  32.239  1.00  0.00     0.167 HD
ATOM     41  C   UNL A   1      42.396  30.220  34.761  1.00  0.00     0.074 A 
ATOM     42  C   UNL A   1      42.708  30.690  36.097  1.00  0.00     0.031 C 
ATOM     43  C   UNL A   1      43.069  29.236  34.117  1.00  0.00     0.037 A 
BRANCH  30  44
ATOM     44  C   UNL A   1      40.878  27.875  28.489  1.00  0.00     0.064 A 
ATOM     45  C   UNL A   1      40.224  26.638  28.404  1.00  0.00     0.173 A 
ATOM     46  C   UNL A   1      41.617  28.301  27.373  1.00  0.00     0.173 A 
ATOM     47  F   UNL A   1      39.512  26.177  29.443  1.00  0.00    -0.203 F 
ATOM     48  C   UNL A   1      40.337  25.842  27.264  1.00  0.00     0.198 A 
ATOM     49  C   UNL A   1      41.700  27.518  26.223  1.00  0.00     0.198 A 
ATOM     50  F   UNL A   1      42.257  29.480  27.393  1.00  0.00    -0.203 F 
ATOM     51  F   UNL A   1      39.752  24.637  27.231  1.00  0.00    -0.200 F 
ATOM     52  C   UNL A   1      41.070  26.285  26.174  1.00  0.00     0.200 A 
ATOM     53  F   UNL A   1      42.396  27.956  25.165  1.00  0.00    -0.200 F 
ATOM     54  F   UNL A   1      41.177  25.519  25.079  1.00  0.00    -0.200 F 
ENDBRANCH  30  44
BRANCH  31  55
ATOM     55  C   UNL A   1      39.742  33.671  36.570  1.00  0.00     0.064 A 
ATOM     56  C   UNL A   1      40.323  34.940  36.675  1.00  0.00     0.173 A 
ATOM     57  C   UNL A   1      38.917  33.240  37.621  1.00  0.00     0.173 A 
ATOM     58  F   UNL A   1      41.129  35.390  35.702  1.00  0.00    -0.203 F 
ATOM     59  C   UNL A   1      40.093  35.746  37.788  1.00  0.00     0.198 A 
ATOM     60  C   UNL A   1      38.661  34.059  38.718  1.00  0.00     0.198 A 
ATOM     61  F   UNL A   1      38.326  32.038  37.563  1.00  0.00    -0.203 F 
ATOM     62  F   UNL A   1      40.684  36.945  37.878  1.00  0.00    -0.200 F 
ATOM     63  C   UNL A   1      39.254  35.309  38.803  1.00  0.00     0.200 A 
ATOM     64  F   UNL A   1      37.831  33.643  39.683  1.00  0.00    -0.200 F 
ATOM     65  F   UNL A   1      39.018  36.093  39.863  1.00  0.00    -0.200 F 
ENDBRANCH  31  55
BRANCH  43  66
ATOM     66  C   UNL A   1      44.247  28.634  34.825  1.00  0.00     0.064 A 
ATOM     67  C   UNL A   1      45.532  29.187  34.727  1.00  0.00     0.173 A 
ATOM     68  C   UNL A   1      44.074  27.513  35.650  1.00  0.00     0.173 A 
ATOM     69  F   UNL A   1      45.752  30.248  33.936  1.00  0.00    -0.203 F 
ATOM     70  C   UNL A   1      46.604  28.626  35.415  1.00  0.00     0.198 A 
ATOM     71  C   UNL A   1      45.142  26.975  36.362  1.00  0.00     0.198 A 
ATOM     72  F   UNL A   1      42.864  26.948  35.780  1.00  0.00    -0.203 F 
ATOM     73  F   UNL A   1      47.833  29.143  35.272  1.00  0.00    -0.200 F 
ATOM     74  C   UNL A   1      46.407  27.528  36.238  1.00  0.00     0.200 A 
ATOM     75  F   UNL A   1      44.946  25.922  37.167  1.00  0.00    -0.200 F 
ATOM     76  F   UNL A   1      47.439  26.998  36.910  1.00  0.00    -0.200 F 
ENDBRANCH  43  66
ENDBRANCH  17  18
ENDBRANCH  10  12
ENDBRANCH   7   8
ENDBRANCH   6   7
ENDBRANCH   5   6
ENDBRANCH   1   5
BRANCH   2  77
ATOM     77  C   UNL A   1      31.747  27.846  24.283  1.00  0.00     0.082 A 
ATOM     78  C   UNL A   1      30.474  28.123  23.760  1.00  0.00     0.018 A 
ATOM     79  C   UNL A   1      31.996  26.573  24.810  1.00  0.00     0.137 A 
ATOM     80  C   UNL A   1      29.480  27.141  23.742  1.00  0.00     0.002 A 
ATOM     81  C   UNL A   1      31.016  25.577  24.756  1.00  0.00     0.037 A 
ATOM     82  C   UNL A   1      29.752  25.866  24.238  1.00  0.00     0.014 A 
BRANCH  79  83
ATOM     83  O   UNL A   1      33.159  26.276  25.461  1.00  0.00    -0.506 OA
ATOM     84  H   UNL A   1      33.894  25.948  24.982  1.00  0.00     0.293 HD
ENDBRANCH  79  83
BRANCH  81  85
ATOM     85  C   UNL A   1      31.309  24.238  25.310  1.00  0.00     0.145 C 
ATOM     86  N   UNL A   1      31.431  24.055  26.586  1.00  0.00    -0.181 NA
BRANCH  86  87
ATOM     87  N   UNL A   1      31.795  22.824  27.055  1.00  0.00    -0.254 N 
ATOM     88  H   UNL A   1      31.134  22.423  27.665  1.00  0.00     0.193 HD
BRANCH  87  89
ATOM     89  C   UNL A   1      32.888  22.046  26.848  1.00  0.00     0.191 C 
ATOM     90  S   UNL A   1      34.395  22.766  27.024  1.00  0.00    -0.039 S 
BRANCH  89  91
ATOM     91  N   UNL A   1      32.860  20.728  26.550  1.00  0.00    -0.331 N 
ATOM     92  H   UNL A   1      32.950  20.138  27.333  1.00  0.00     0.169 HD
BRANCH  91  93
ATOM     93  C   UNL A   1      32.728  20.041  25.330  1.00  0.00     0.040 A 
ATOM     94  C   UNL A   1      32.838  18.645  25.362  1.00  0.00     0.026 A 
ATOM     95  C   UNL A   1      32.494  20.678  24.112  1.00  0.00     0.026 A 
ATOM     96  C   UNL A   1      32.610  17.891  24.207  1.00  0.00     0.002 A 
ATOM     97  C   UNL A   1      32.264  19.926  22.957  1.00  0.00     0.002 A 
ATOM     98  C   UNL A   1      32.303  18.533  23.008  1.00  0.00     0.000 A 
ENDBRANCH  91  93
ENDBRANCH  89  91
ENDBRANCH  87  89
ENDBRANCH  86  87
ENDBRANCH  81  85
ENDBRANCH   2  77
TORSDOF 16
ENDMDL
MODEL 3
REMARK VINA RESULT:     -12.2      1.979      3.209
REMARK SMILES O=C(NCCCNC(=O)c1cccc(/C=N/NC(=S)Nc2ccccc2)c1O)c1ccc(-c2c3nc(c(-c4c(F)c(F)c(F)c(F)c4F)c4ccc([nH]4)c(-c4c(F)c(F)c(F)c(F)c4F)c4nc(c(-c5c(F)c(F)c(F)c(F)c5F)c5ccc2[nH]5)C=C4)C=C3)cc1
REMARK SMILES IDX 7 1 8 2 9 3 6 5 5 6 4 7 3 8 1 9 2 10 29 12 30 13 91 14 31 15
REMARK SMILES IDX 90 16 32 17 33 18 34 19 84 20 35 21 89 22 83 23 85 24 36 25
REMARK SMILES IDX 88 26 82 27 81 28 37 30 69 31 49 32 68 33 50 34 53 35 67 36
REMARK SMILES IDX 86 37 51 38 52 39 66 41 87 42 54 43 38 44 39 45 47 46 40 47
REMARK SMILES IDX 41 48 45 49 48 50 42 51 43 52 46 53 44 54 70 55 71 56 79 57
REMARK SMILES IDX 72 58 73 59 77 60 80 61 74 62 75 63 78 64 76 65 55 66 56 67
REMARK SMILES IDX 64 68 57 69 58 70 62 71 65 72 59 73 60 74 63 75 61 76 10 77
REMARK SMILES IDX 11 78 27 79 12 80 14 81 13 82 28 83 15 85 16 86 17 87 18 89
REMARK SMILES IDX 19 90 20 91 21 93 22 94 26 95 23 96 25 97 24 98
REMARK H PARENT 7 4 3 11 85 29 53 40 28 84 17 88 20 92
REMARK Flexibility Score: inf
ROOT
ATOM      1  N   UNL A   1      32.701  27.550  22.046  1.00  0.00    -0.352 N 
ATOM      2  C   UNL A   1      31.728  26.594  22.174  1.00  0.00     0.255 C 
ATOM      3  O   UNL A   1      31.068  26.311  21.175  1.00  0.00    -0.269 OA
ATOM      4  H   UNL A   1      32.701  28.013  21.177  1.00  0.00     0.163 HD
ENDROOT
BRANCH   1   5
ATOM      5  C   UNL A   1      33.737  28.005  22.965  1.00  0.00     0.118 C 
BRANCH   5   6
ATOM      6  C   UNL A   1      33.394  29.318  23.647  1.00  0.00     0.042 C 
BRANCH   6   7
ATOM      7  C   UNL A   1      33.223  29.194  25.154  1.00  0.00     0.118 C 
BRANCH   7   8
ATOM      8  N   UNL A   1      32.682  30.394  25.781  1.00  0.00    -0.352 N 
ATOM      9  O   UNL A   1      32.424  32.033  27.302  1.00  0.00    -0.269 OA
ATOM     10  C   UNL A   1      33.124  31.136  26.855  1.00  0.00     0.251 C 
ATOM     11  H   UNL A   1      31.858  30.735  25.363  1.00  0.00     0.163 HD
BRANCH  10  12
ATOM     12  C   UNL A   1      34.418  30.818  27.500  1.00  0.00     0.039 A 
ATOM     13  C   UNL A   1      34.693  29.534  27.958  1.00  0.00     0.014 A 
ATOM     14  C   UNL A   1      35.376  31.826  27.647  1.00  0.00     0.014 A 
ATOM     15  C   UNL A   1      35.799  29.308  28.765  1.00  0.00     0.010 A 
ATOM     16  C   UNL A   1      36.565  31.558  28.334  1.00  0.00     0.010 A 
ATOM     17  C   UNL A   1      36.763  30.310  28.943  1.00  0.00    -0.014 A 
BRANCH  17  18
ATOM     18  C   UNL A   1      37.992  30.007  29.718  1.00  0.00     0.031 A 
ATOM     19  C   UNL A   1      39.063  29.118  29.152  1.00  0.00     0.074 A 
ATOM     20  C   UNL A   1      38.144  30.558  30.938  1.00  0.00     0.049 A 
ATOM     21  N   UNL A   1      40.167  28.693  29.715  1.00  0.00    -0.248 NA
ATOM     22  C   UNL A   1      38.867  28.631  27.778  1.00  0.00     0.031 C 
ATOM     23  C   UNL A   1      37.175  31.447  31.586  1.00  0.00     0.029 A 
ATOM     24  N   UNL A   1      39.164  30.464  31.848  1.00  0.00    -0.354 N 
ATOM     25  C   UNL A   1      40.777  27.864  28.782  1.00  0.00     0.074 A 
ATOM     26  C   UNL A   1      39.911  27.829  27.622  1.00  0.00     0.031 C 
ATOM     27  C   UNL A   1      37.663  31.848  32.765  1.00  0.00     0.029 A 
ATOM     28  C   UNL A   1      38.933  31.173  33.001  1.00  0.00     0.049 A 
ATOM     29  H   UNL A   1      39.982  29.939  31.691  1.00  0.00     0.167 HD
ATOM     30  C   UNL A   1      41.952  27.196  28.888  1.00  0.00     0.037 A 
ATOM     31  C   UNL A   1      39.641  31.242  34.142  1.00  0.00     0.037 A 
ATOM     32  C   UNL A   1      42.810  27.256  30.044  1.00  0.00     0.049 A 
ATOM     33  C   UNL A   1      40.916  30.462  34.251  1.00  0.00     0.074 A 
ATOM     34  C   UNL A   1      44.035  26.642  30.244  1.00  0.00     0.029 A 
ATOM     35  N   UNL A   1      42.528  27.967  31.204  1.00  0.00    -0.354 N 
ATOM     36  N   UNL A   1      41.487  29.687  33.360  1.00  0.00    -0.248 NA
ATOM     37  C   UNL A   1      41.643  30.558  35.522  1.00  0.00     0.031 C 
ATOM     38  C   UNL A   1      44.464  26.935  31.542  1.00  0.00     0.029 A 
ATOM     39  C   UNL A   1      43.543  27.786  32.130  1.00  0.00     0.049 A 
ATOM     40  H   UNL A   1      41.726  28.520  31.346  1.00  0.00     0.167 HD
ATOM     41  C   UNL A   1      42.652  29.223  33.951  1.00  0.00     0.074 A 
ATOM     42  C   UNL A   1      42.710  29.811  35.275  1.00  0.00     0.031 C 
ATOM     43  C   UNL A   1      43.589  28.387  33.441  1.00  0.00     0.037 A 
BRANCH  30  44
ATOM     44  C   UNL A   1      42.359  26.314  27.740  1.00  0.00     0.064 A 
ATOM     45  C   UNL A   1      41.809  25.038  27.548  1.00  0.00     0.173 A 
ATOM     46  C   UNL A   1      43.302  26.766  26.801  1.00  0.00     0.173 A 
ATOM     47  F   UNL A   1      40.912  24.552  28.418  1.00  0.00    -0.203 F 
ATOM     48  C   UNL A   1      42.217  24.232  26.486  1.00  0.00     0.198 A 
ATOM     49  C   UNL A   1      43.681  25.971  25.722  1.00  0.00     0.198 A 
ATOM     50  F   UNL A   1      43.854  27.982  26.928  1.00  0.00    -0.203 F 
ATOM     51  F   UNL A   1      41.722  22.993  26.360  1.00  0.00    -0.200 F 
ATOM     52  C   UNL A   1      43.147  24.701  25.571  1.00  0.00     0.200 A 
ATOM     53  F   UNL A   1      44.569  26.434  24.831  1.00  0.00    -0.200 F 
ATOM     54  F   UNL A   1      43.537  23.926  24.550  1.00  0.00    -0.200 F 
ENDBRANCH  30  44
BRANCH  31  55
ATOM     55  C   UNL A   1      39.130  32.068  35.266  1.00  0.00     0.064 A 
ATOM     56  C   UNL A   1      38.397  31.493  36.311  1.00  0.00     0.173 A 
ATOM     57  C   UNL A   1      39.409  33.442  35.342  1.00  0.00     0.173 A 
ATOM     58  F   UNL A   1      38.095  30.187  36.277  1.00  0.00    -0.203 F 
ATOM     59  C   UNL A   1      37.959  32.261  37.388  1.00  0.00     0.198 A 
ATOM     60  C   UNL A   1      38.998  34.202  36.434  1.00  0.00     0.198 A 
ATOM     61  F   UNL A   1      40.118  34.039  34.372  1.00  0.00    -0.203 F 
ATOM     62  F   UNL A   1      37.235  31.692  38.362  1.00  0.00    -0.200 F 
ATOM     63  C   UNL A   1      38.268  33.611  37.454  1.00  0.00     0.200 A 
ATOM     64  F   UNL A   1      39.321  35.500  36.504  1.00  0.00    -0.200 F 
ATOM     65  F   UNL A   1      37.862  34.344  38.499  1.00  0.00    -0.200 F 
ENDBRANCH  31  55
BRANCH  43  66
ATOM     66  C   UNL A   1      44.788  28.099  34.296  1.00  0.00     0.064 A 
ATOM     67  C   UNL A   1      45.933  28.907  34.261  1.00  0.00     0.173 A 
ATOM     68  C   UNL A   1      44.769  27.022  35.194  1.00  0.00     0.173 A 
ATOM     69  F   UNL A   1      46.008  29.937  33.406  1.00  0.00    -0.203 F 
ATOM     70  C   UNL A   1      47.024  28.634  35.084  1.00  0.00     0.198 A 
ATOM     71  C   UNL A   1      45.847  26.772  36.037  1.00  0.00     0.198 A 
ATOM     72  F   UNL A   1      43.695  26.220  35.267  1.00  0.00    -0.203 F 
ATOM     73  F   UNL A   1      48.126  29.392  35.003  1.00  0.00    -0.200 F 
ATOM     74  C   UNL A   1      46.976  27.574  35.976  1.00  0.00     0.200 A 
ATOM     75  F   UNL A   1      45.793  25.755  36.908  1.00  0.00    -0.200 F 
ATOM     76  F   UNL A   1      48.022  27.321  36.775  1.00  0.00    -0.200 F 
ENDBRANCH  43  66
ENDBRANCH  17  18
ENDBRANCH  10  12
ENDBRANCH   7   8
ENDBRANCH   6   7
ENDBRANCH   5   6
ENDBRANCH   1   5
BRANCH   2  77
ATOM     77  C   UNL A   1      31.434  25.905  23.455  1.00  0.00     0.082 A 
ATOM     78  C   UNL A   1      30.348  26.394  24.197  1.00  0.00     0.018 A 
ATOM     79  C   UNL A   1      32.219  24.883  24.002  1.00  0.00     0.137 A 
ATOM     80  C   UNL A   1      30.039  25.856  25.450  1.00  0.00     0.002 A 
ATOM     81  C   UNL A   1      31.887  24.316  25.237  1.00  0.00     0.037 A 
ATOM     82  C   UNL A   1      30.808  24.814  25.969  1.00  0.00     0.014 A 
BRANCH  79  83
ATOM     83  O   UNL A   1      33.370  24.457  23.404  1.00  0.00    -0.506 OA
ATOM     84  H   UNL A   1      33.564  24.712  22.524  1.00  0.00     0.293 HD
ENDBRANCH  79  83
BRANCH  81  85
ATOM     85  C   UNL A   1      32.727  23.230  25.788  1.00  0.00     0.145 C 
ATOM     86  N   UNL A   1      34.008  23.373  25.910  1.00  0.00    -0.181 NA
BRANCH  86  87
ATOM     87  N   UNL A   1      34.764  22.316  26.334  1.00  0.00    -0.254 N 
ATOM     88  H   UNL A   1      35.145  22.440  27.233  1.00  0.00     0.193 HD
BRANCH  87  89
ATOM     89  C   UNL A   1      35.093  21.131  25.760  1.00  0.00     0.191 C 
ATOM     90  S   UNL A   1      36.599  21.018  25.025  1.00  0.00    -0.039 S 
BRANCH  89  91
ATOM     91  N   UNL A   1      34.321  20.022  25.767  1.00  0.00    -0.331 N 
ATOM     92  H   UNL A   1      34.098  19.694  26.669  1.00  0.00     0.169 HD
BRANCH  91  93
ATOM     93  C   UNL A   1      33.775  19.247  24.727  1.00  0.00     0.040 A 
ATOM     94  C   UNL A   1      32.709  19.799  24.005  1.00  0.00     0.026 A 
ATOM     95  C   UNL A   1      34.241  17.977  24.390  1.00  0.00     0.026 A 
ATOM     96  C   UNL A   1      32.189  19.131  22.892  1.00  0.00     0.002 A 
ATOM     97  C   UNL A   1      33.725  17.311  23.276  1.00  0.00     0.002 A 
ATOM     98  C   UNL A   1      32.713  17.896  22.516  1.00  0.00     0.000 A 
ENDBRANCH  91  93
ENDBRANCH  89  91
ENDBRANCH  87  89
ENDBRANCH  86  87
ENDBRANCH  81  85
ENDBRANCH   2  77
TORSDOF 16
ENDMDL
