MODEL 1
REMARK VINA RESULT:     -13.8      0.000      0.000
REMARK SMILES O=C(NCCCNC(=O)[C@H]1CCCN(C(=O)C2CCN(S(=O)(=O)c3ccccc3)CC2)C1)c1ccc(-c2c3nc(c(-c4c(F)c(F)c(F)c(F)c4F)c4ccc([nH]4)c(-c4c(F)c(F)c(F)c(F)c4F)c4nc(c(-c5c(F)c(F)c(F)c(F)c5F)c5ccc2[nH]5)C=C4)C=C3)cc1
REMARK SMILES IDX 6 1 5 2 4 3 3 4 1 5 2 6 33 8 34 9 95 10 35 11 94 12 36 13
REMARK SMILES IDX 37 14 38 15 88 16 39 17 93 18 87 19 89 20 40 21 92 22 86 23
REMARK SMILES IDX 85 24 41 26 73 27 53 28 72 29 54 30 57 31 71 32 90 33 55 34
REMARK SMILES IDX 56 35 70 37 91 38 58 39 42 40 43 41 51 42 44 43 45 44 49 45
REMARK SMILES IDX 52 46 46 47 47 48 50 49 48 50 74 51 75 52 83 53 76 54 77 55
REMARK SMILES IDX 81 56 84 57 78 58 79 59 82 60 80 61 59 62 60 63 68 64 61 65
REMARK SMILES IDX 62 66 66 67 69 68 63 69 64 70 67 71 65 72 7 73 8 74 9 76
REMARK SMILES IDX 10 77 11 78 32 79 12 80 14 81 13 82 15 83 16 84 17 85 18 86
REMARK SMILES IDX 31 87 19 88 30 89 20 90 21 91 22 92 23 93 24 94 25 95 29 96
REMARK SMILES IDX 26 97 28 98 27 99
REMARK H PARENT 3 7 89 25 57 36 7 75
REMARK Flexibility Score: inf
ROOT
ATOM      1  C   UNL A   1      31.644  30.758  26.713  1.00  0.00     0.117 C 
ENDROOT
BRANCH   1   2
ATOM      2  C   UNL A   1      31.490  32.278  26.683  1.00  0.00     0.042 C 
BRANCH   2   3
ATOM      3  C   UNL A   1      32.757  33.013  27.093  1.00  0.00     0.118 C 
BRANCH   3   4
ATOM      4  N   UNL A   1      32.473  34.324  27.660  1.00  0.00    -0.352 N 
ATOM      5  O   UNL A   1      32.499  35.980  29.181  1.00  0.00    -0.269 OA
ATOM      6  C   UNL A   1      33.018  34.953  28.752  1.00  0.00     0.251 C 
ATOM      7  H   UNL A   1      31.782  34.841  27.185  1.00  0.00     0.163 HD
BRANCH   6   8
ATOM      8  C   UNL A   1      34.220  34.404  29.418  1.00  0.00     0.039 A 
ATOM      9  C   UNL A   1      34.102  33.541  30.507  1.00  0.00     0.014 A 
ATOM     10  C   UNL A   1      35.488  34.711  28.909  1.00  0.00     0.014 A 
ATOM     11  C   UNL A   1      35.239  33.098  31.167  1.00  0.00     0.010 A 
ATOM     12  C   UNL A   1      36.633  34.173  29.506  1.00  0.00     0.010 A 
ATOM     13  C   UNL A   1      36.516  33.373  30.650  1.00  0.00    -0.014 A 
BRANCH  13  14
ATOM     14  C   UNL A   1      37.681  32.704  31.280  1.00  0.00     0.031 A 
ATOM     15  C   UNL A   1      38.121  33.037  32.674  1.00  0.00     0.074 A 
ATOM     16  C   UNL A   1      38.288  31.722  30.584  1.00  0.00     0.049 A 
ATOM     17  N   UNL A   1      39.060  32.475  33.393  1.00  0.00    -0.248 NA
ATOM     18  C   UNL A   1      37.430  34.144  33.351  1.00  0.00     0.031 C 
ATOM     19  C   UNL A   1      37.954  31.341  29.207  1.00  0.00     0.029 A 
ATOM     20  N   UNL A   1      39.271  30.836  30.939  1.00  0.00    -0.354 N 
ATOM     21  C   UNL A   1      39.083  33.165  34.597  1.00  0.00     0.074 A 
ATOM     22  C   UNL A   1      38.079  34.204  34.506  1.00  0.00     0.031 C 
ATOM     23  C   UNL A   1      38.656  30.253  28.865  1.00  0.00     0.029 A 
ATOM     24  C   UNL A   1      39.542  29.903  29.968  1.00  0.00     0.049 A 
ATOM     25  H   UNL A   1      39.738  30.866  31.805  1.00  0.00     0.167 HD
ATOM     26  C   UNL A   1      39.868  32.940  35.678  1.00  0.00     0.037 A 
ATOM     27  C   UNL A   1      40.413  28.878  29.963  1.00  0.00     0.037 A 
ATOM     28  C   UNL A   1      40.858  31.895  35.757  1.00  0.00     0.049 A 
ATOM     29  C   UNL A   1      41.256  28.648  31.183  1.00  0.00     0.074 A 
ATOM     30  C   UNL A   1      41.707  31.585  36.804  1.00  0.00     0.029 A 
ATOM     31  N   UNL A   1      41.126  30.984  34.743  1.00  0.00    -0.354 N 
ATOM     32  N   UNL A   1      41.259  29.304  32.317  1.00  0.00    -0.248 NA
ATOM     33  C   UNL A   1      42.218  27.542  31.120  1.00  0.00     0.031 C 
ATOM     34  C   UNL A   1      42.511  30.507  36.413  1.00  0.00     0.029 A 
ATOM     35  C   UNL A   1      42.134  30.119  35.138  1.00  0.00     0.049 A 
ATOM     36  H   UNL A   1      40.668  30.957  33.872  1.00  0.00     0.167 HD
ATOM     37  C   UNL A   1      42.226  28.698  33.103  1.00  0.00     0.074 A 
ATOM     38  C   UNL A   1      42.756  27.592  32.330  1.00  0.00     0.031 C 
ATOM     39  C   UNL A   1      42.652  29.035  34.343  1.00  0.00     0.037 A 
BRANCH  26  40
ATOM     40  C   UNL A   1      39.702  33.845  36.863  1.00  0.00     0.064 A 
ATOM     41  C   UNL A   1      40.322  35.102  36.920  1.00  0.00     0.173 A 
ATOM     42  C   UNL A   1      38.865  33.479  37.928  1.00  0.00     0.173 A 
ATOM     43  F   UNL A   1      41.143  35.495  35.935  1.00  0.00    -0.203 F 
ATOM     44  C   UNL A   1      40.119  35.954  38.004  1.00  0.00     0.198 A 
ATOM     45  C   UNL A   1      38.646  34.341  39.000  1.00  0.00     0.198 A 
ATOM     46  F   UNL A   1      38.247  32.288  37.923  1.00  0.00    -0.203 F 
ATOM     47  F   UNL A   1      40.747  37.137  38.052  1.00  0.00    -0.200 F 
ATOM     48  C   UNL A   1      39.275  35.576  39.038  1.00  0.00     0.200 A 
ATOM     49  F   UNL A   1      37.823  33.978  39.994  1.00  0.00    -0.200 F 
ATOM     50  F   UNL A   1      39.073  36.401  40.075  1.00  0.00    -0.200 F 
ENDBRANCH  26  40
BRANCH  27  51
ATOM     51  C   UNL A   1      40.536  28.015  28.759  1.00  0.00     0.064 A 
ATOM     52  C   UNL A   1      39.819  26.816  28.648  1.00  0.00     0.173 A 
ATOM     53  C   UNL A   1      41.364  28.382  27.688  1.00  0.00     0.173 A 
ATOM     54  F   UNL A   1      39.026  26.415  29.652  1.00  0.00    -0.203 F 
ATOM     55  C   UNL A   1      39.940  26.009  27.519  1.00  0.00     0.198 A 
ATOM     56  C   UNL A   1      41.458  27.591  26.545  1.00  0.00     0.198 A 
ATOM     57  F   UNL A   1      42.067  29.523  27.741  1.00  0.00    -0.203 F 
ATOM     58  F   UNL A   1      39.277  24.846  27.457  1.00  0.00    -0.200 F 
ATOM     59  C   UNL A   1      40.753  26.400  26.465  1.00  0.00     0.200 A 
ATOM     60  F   UNL A   1      42.229  27.984  25.522  1.00  0.00    -0.200 F 
ATOM     61  F   UNL A   1      40.860  25.628  25.376  1.00  0.00    -0.200 F 
ENDBRANCH  27  51
BRANCH  39  62
ATOM     62  C   UNL A   1      43.747  28.192  34.926  1.00  0.00     0.064 A 
ATOM     63  C   UNL A   1      43.461  27.025  35.651  1.00  0.00     0.173 A 
ATOM     64  C   UNL A   1      45.090  28.556  34.762  1.00  0.00     0.173 A 
ATOM     65  F   UNL A   1      42.188  26.650  35.850  1.00  0.00    -0.203 F 
ATOM     66  C   UNL A   1      44.481  26.272  36.221  1.00  0.00     0.198 A 
ATOM     67  C   UNL A   1      46.110  27.784  35.310  1.00  0.00     0.198 A 
ATOM     68  F   UNL A   1      45.414  29.661  34.074  1.00  0.00    -0.203 F 
ATOM     69  F   UNL A   1      44.182  25.194  36.960  1.00  0.00    -0.200 F 
ATOM     70  C   UNL A   1      45.804  26.649  36.048  1.00  0.00     0.200 A 
ATOM     71  F   UNL A   1      47.389  28.143  35.134  1.00  0.00    -0.200 F 
ATOM     72  F   UNL A   1      46.786  25.924  36.601  1.00  0.00    -0.200 F 
ENDBRANCH  39  62
ENDBRANCH  13  14
ENDBRANCH   6   8
ENDBRANCH   3   4
ENDBRANCH   2   3
ENDBRANCH   1   2
BRANCH   1  73
ATOM     73  N   UNL A   1      32.921  30.329  27.268  1.00  0.00    -0.356 N 
ATOM     74  C   UNL A   1      33.624  29.168  27.298  1.00  0.00     0.224 C 
ATOM     75  H   UNL A   1      33.388  31.059  27.736  1.00  0.00     0.163 HD
ATOM     76  O   UNL A   1      34.748  29.252  27.811  1.00  0.00    -0.275 OA
BRANCH  74  77
ATOM     77  C   UNL A   1      33.165  27.805  26.759  1.00  0.00     0.098 C 
ATOM     78  C   UNL A   1      31.697  27.431  26.969  1.00  0.00     0.017 C 
ATOM     79  C   UNL A   1      33.707  27.638  25.303  1.00  0.00     0.133 C 
ATOM     80  C   UNL A   1      31.206  26.339  26.053  1.00  0.00     0.022 C 
ATOM     81  N   UNL A   1      32.989  26.621  24.511  1.00  0.00    -0.342 N 
ATOM     82  C   UNL A   1      31.572  26.736  24.639  1.00  0.00     0.119 C 
BRANCH  81  83
ATOM     83  C   UNL A   1      33.640  25.659  23.759  1.00  0.00     0.225 C 
ATOM     84  O   UNL A   1      33.488  25.643  22.531  1.00  0.00    -0.275 OA
BRANCH  83  85
ATOM     85  C   UNL A   1      34.590  24.571  24.378  1.00  0.00     0.081 C 
ATOM     86  C   UNL A   1      35.147  23.478  23.478  1.00  0.00     0.030 C 
ATOM     87  C   UNL A   1      34.282  24.003  25.756  1.00  0.00     0.030 C 
ATOM     88  C   UNL A   1      34.462  22.117  23.502  1.00  0.00     0.103 C 
ATOM     89  C   UNL A   1      33.483  22.711  25.797  1.00  0.00     0.103 C 
ATOM     90  N   UNL A   1      33.805  21.675  24.789  1.00  0.00    -0.198 NA
BRANCH  90  91
ATOM     91  S   UNL A   1      32.525  20.533  24.393  1.00  0.00     0.243 S 
ATOM     92  O   UNL A   1      31.467  20.702  25.376  1.00  0.00    -0.207 OA
ATOM     93  O   UNL A   1      32.231  20.739  22.994  1.00  0.00    -0.207 OA
BRANCH  91  94
ATOM     94  C   UNL A   1      33.074  18.848  24.602  1.00  0.00     0.082 A 
ATOM     95  C   UNL A   1      33.624  18.192  23.496  1.00  0.00     0.022 A 
ATOM     96  C   UNL A   1      32.682  18.092  25.716  1.00  0.00     0.022 A 
ATOM     97  C   UNL A   1      33.801  16.805  23.519  1.00  0.00     0.001 A 
ATOM     98  C   UNL A   1      32.893  16.713  25.751  1.00  0.00     0.001 A 
ATOM     99  C   UNL A   1      33.445  16.068  24.648  1.00  0.00     0.000 A 
ENDBRANCH  91  94
ENDBRANCH  90  91
ENDBRANCH  83  85
ENDBRANCH  81  83
ENDBRANCH  74  77
ENDBRANCH   1  73
TORSDOF 14
ENDMDL
MODEL 2
REMARK VINA RESULT:     -13.7      5.316     11.307
REMARK SMILES O=C(NCCCNC(=O)[C@H]1CCCN(C(=O)C2CCN(S(=O)(=O)c3ccccc3)CC2)C1)c1ccc(-c2c3nc(c(-c4c(F)c(F)c(F)c(F)c4F)c4ccc([nH]4)c(-c4c(F)c(F)c(F)c(F)c4F)c4nc(c(-c5c(F)c(F)c(F)c(F)c5F)c5ccc2[nH]5)C=C4)C=C3)cc1
REMARK SMILES IDX 6 1 5 2 4 3 3 4 1 5 2 6 33 8 34 9 95 10 35 11 94 12 36 13
REMARK SMILES IDX 37 14 38 15 88 16 39 17 93 18 87 19 89 20 40 21 92 22 86 23
REMARK SMILES IDX 85 24 41 26 73 27 53 28 72 29 54 30 57 31 71 32 90 33 55 34
REMARK SMILES IDX 56 35 70 37 91 38 58 39 42 40 43 41 51 42 44 43 45 44 49 45
REMARK SMILES IDX 52 46 46 47 47 48 50 49 48 50 74 51 75 52 83 53 76 54 77 55
REMARK SMILES IDX 81 56 84 57 78 58 79 59 82 60 80 61 59 62 60 63 68 64 61 65
REMARK SMILES IDX 62 66 66 67 69 68 63 69 64 70 67 71 65 72 7 73 8 74 9 76
REMARK SMILES IDX 10 77 11 78 32 79 12 80 14 81 13 82 15 83 16 84 17 85 18 86
REMARK SMILES IDX 31 87 19 88 30 89 20 90 21 91 22 92 23 93 24 94 25 95 29 96
REMARK SMILES IDX 26 97 28 98 27 99
REMARK H PARENT 3 7 89 25 57 36 7 75
REMARK Flexibility Score: inf
ROOT
ATOM      1  C   UNL A   1      36.670  20.669  25.038  1.00  0.00     0.117 C 
ENDROOT
BRANCH   1   2
ATOM      2  C   UNL A   1      37.880  19.740  24.944  1.00  0.00     0.042 C 
BRANCH   2   3
ATOM      3  C   UNL A   1      39.069  20.225  25.758  1.00  0.00     0.118 C 
BRANCH   3   4
ATOM      4  N   UNL A   1      40.147  19.246  25.797  1.00  0.00    -0.352 N 
ATOM      5  O   UNL A   1      42.260  18.480  25.751  1.00  0.00    -0.269 OA
ATOM      6  C   UNL A   1      41.500  19.425  25.943  1.00  0.00     0.251 C 
ATOM      7  H   UNL A   1      39.859  18.309  25.702  1.00  0.00     0.163 HD
BRANCH   6   8
ATOM      8  C   UNL A   1      42.051  20.744  26.327  1.00  0.00     0.039 A 
ATOM      9  C   UNL A   1      42.226  21.749  25.376  1.00  0.00     0.014 A 
ATOM     10  C   UNL A   1      42.341  21.002  27.672  1.00  0.00     0.014 A 
ATOM     11  C   UNL A   1      42.815  22.951  25.738  1.00  0.00     0.010 A 
ATOM     12  C   UNL A   1      42.831  22.255  28.056  1.00  0.00     0.010 A 
ATOM     13  C   UNL A   1      43.084  23.235  27.087  1.00  0.00    -0.014 A 
BRANCH  13  14
ATOM     14  C   UNL A   1      43.521  24.609  27.436  1.00  0.00     0.031 A 
ATOM     15  C   UNL A   1      44.900  25.102  27.115  1.00  0.00     0.074 A 
ATOM     16  C   UNL A   1      42.607  25.435  27.984  1.00  0.00     0.049 A 
ATOM     17  N   UNL A   1      45.399  26.302  27.273  1.00  0.00    -0.248 NA
ATOM     18  C   UNL A   1      45.848  24.130  26.552  1.00  0.00     0.031 C 
ATOM     19  C   UNL A   1      41.245  25.043  28.363  1.00  0.00     0.029 A 
ATOM     20  N   UNL A   1      42.655  26.773  28.275  1.00  0.00    -0.354 N 
ATOM     21  C   UNL A   1      46.717  26.228  26.844  1.00  0.00     0.074 A 
ATOM     22  C   UNL A   1      46.951  24.858  26.439  1.00  0.00     0.031 C 
ATOM     23  C   UNL A   1      40.565  26.128  28.756  1.00  0.00     0.029 A 
ATOM     24  C   UNL A   1      41.460  27.277  28.727  1.00  0.00     0.049 A 
ATOM     25  H   UNL A   1      43.468  27.319  28.169  1.00  0.00     0.167 HD
ATOM     26  C   UNL A   1      47.638  27.219  26.789  1.00  0.00     0.037 A 
ATOM     27  C   UNL A   1      41.123  28.528  29.087  1.00  0.00     0.037 A 
ATOM     28  C   UNL A   1      47.388  28.582  27.187  1.00  0.00     0.049 A 
ATOM     29  C   UNL A   1      42.163  29.605  28.997  1.00  0.00     0.074 A 
ATOM     30  C   UNL A   1      48.254  29.660  27.173  1.00  0.00     0.029 A 
ATOM     31  N   UNL A   1      46.173  29.052  27.668  1.00  0.00    -0.354 N 
ATOM     32  N   UNL A   1      43.403  29.520  28.581  1.00  0.00    -0.248 NA
ATOM     33  C   UNL A   1      41.762  30.948  29.433  1.00  0.00     0.031 C 
ATOM     34  C   UNL A   1      47.574  30.776  27.675  1.00  0.00     0.029 A 
ATOM     35  C   UNL A   1      46.271  30.403  27.963  1.00  0.00     0.049 A 
ATOM     36  H   UNL A   1      45.361  28.507  27.783  1.00  0.00     0.167 HD
ATOM     37  C   UNL A   1      43.934  30.793  28.710  1.00  0.00     0.074 A 
ATOM     38  C   UNL A   1      42.867  31.641  29.201  1.00  0.00     0.031 C 
ATOM     39  C   UNL A   1      45.196  31.220  28.464  1.00  0.00     0.037 A 
BRANCH  26  40
ATOM     40  C   UNL A   1      49.011  26.871  26.290  1.00  0.00     0.064 A 
ATOM     41  C   UNL A   1      49.997  26.362  27.148  1.00  0.00     0.173 A 
ATOM     42  C   UNL A   1      49.326  26.990  24.928  1.00  0.00     0.173 A 
ATOM     43  F   UNL A   1      49.752  26.241  28.461  1.00  0.00    -0.203 F 
ATOM     44  C   UNL A   1      51.250  25.996  26.663  1.00  0.00     0.198 A 
ATOM     45  C   UNL A   1      50.572  26.602  24.442  1.00  0.00     0.198 A 
ATOM     46  F   UNL A   1      48.419  27.470  24.064  1.00  0.00    -0.203 F 
ATOM     47  F   UNL A   1      52.188  25.541  27.507  1.00  0.00    -0.200 F 
ATOM     48  C   UNL A   1      51.534  26.108  25.310  1.00  0.00     0.200 A 
ATOM     49  F   UNL A   1      50.841  26.703  23.132  1.00  0.00    -0.200 F 
ATOM     50  F   UNL A   1      52.737  25.746  24.844  1.00  0.00    -0.200 F 
ENDBRANCH  26  40
BRANCH  27  51
ATOM     51  C   UNL A   1      39.748  28.814  29.574  1.00  0.00     0.064 A 
ATOM     52  C   UNL A   1      38.742  29.250  28.701  1.00  0.00     0.173 A 
ATOM     53  C   UNL A   1      39.409  28.642  30.925  1.00  0.00     0.173 A 
ATOM     54  F   UNL A   1      39.020  29.444  27.404  1.00  0.00    -0.203 F 
ATOM     55  C   UNL A   1      37.456  29.519  29.164  1.00  0.00     0.198 A 
ATOM     56  C   UNL A   1      38.115  28.879  31.380  1.00  0.00     0.198 A 
ATOM     57  F   UNL A   1      40.334  28.221  31.801  1.00  0.00    -0.203 F 
ATOM     58  F   UNL A   1      36.525  29.977  28.316  1.00  0.00    -0.200 F 
ATOM     59  C   UNL A   1      37.141  29.327  30.501  1.00  0.00     0.200 A 
ATOM     60  F   UNL A   1      37.812  28.673  32.669  1.00  0.00    -0.200 F 
ATOM     61  F   UNL A   1      35.902  29.577  30.943  1.00  0.00    -0.200 F 
ENDBRANCH  27  51
BRANCH  39  62
ATOM     62  C   UNL A   1      45.475  32.669  28.730  1.00  0.00     0.064 A 
ATOM     63  C   UNL A   1      45.959  33.101  29.974  1.00  0.00     0.173 A 
ATOM     64  C   UNL A   1      45.254  33.631  27.735  1.00  0.00     0.173 A 
ATOM     65  F   UNL A   1      46.166  32.217  30.961  1.00  0.00    -0.203 F 
ATOM     66  C   UNL A   1      46.177  34.452  30.224  1.00  0.00     0.198 A 
ATOM     67  C   UNL A   1      45.501  34.979  27.981  1.00  0.00     0.198 A 
ATOM     68  F   UNL A   1      44.796  33.266  26.529  1.00  0.00    -0.203 F 
ATOM     69  F   UNL A   1      46.583  34.849  31.438  1.00  0.00    -0.200 F 
ATOM     70  C   UNL A   1      45.952  35.389  29.227  1.00  0.00     0.200 A 
ATOM     71  F   UNL A   1      45.291  35.884  27.014  1.00  0.00    -0.200 F 
ATOM     72  F   UNL A   1      46.158  36.690  29.471  1.00  0.00    -0.200 F 
ENDBRANCH  39  62
ENDBRANCH  13  14
ENDBRANCH   6   8
ENDBRANCH   3   4
ENDBRANCH   2   3
ENDBRANCH   1   2
BRANCH   1  73
ATOM     73  N   UNL A   1      35.402  19.952  25.001  1.00  0.00    -0.356 N 
ATOM     74  C   UNL A   1      34.103  20.291  24.799  1.00  0.00     0.224 C 
ATOM     75  H   UNL A   1      35.515  18.987  25.160  1.00  0.00     0.163 HD
ATOM     76  O   UNL A   1      33.316  19.335  24.755  1.00  0.00    -0.275 OA
BRANCH  74  77
ATOM     77  C   UNL A   1      33.544  21.709  24.617  1.00  0.00     0.098 C 
ATOM     78  C   UNL A   1      33.032  22.085  23.225  1.00  0.00     0.017 C 
ATOM     79  C   UNL A   1      32.573  22.017  25.803  1.00  0.00     0.133 C 
ATOM     80  C   UNL A   1      32.106  23.274  23.213  1.00  0.00     0.022 C 
ATOM     81  N   UNL A   1      31.633  23.123  25.534  1.00  0.00    -0.342 N 
ATOM     82  C   UNL A   1      31.029  23.019  24.245  1.00  0.00     0.119 C 
BRANCH  81  83
ATOM     83  C   UNL A   1      31.403  24.146  26.436  1.00  0.00     0.225 C 
ATOM     84  O   UNL A   1      30.477  24.040  27.251  1.00  0.00    -0.275 OA
BRANCH  83  85
ATOM     85  C   UNL A   1      32.268  25.456  26.501  1.00  0.00     0.081 C 
ATOM     86  C   UNL A   1      31.574  26.789  26.735  1.00  0.00     0.030 C 
ATOM     87  C   UNL A   1      33.429  25.637  25.536  1.00  0.00     0.030 C 
ATOM     88  C   UNL A   1      31.303  27.673  25.523  1.00  0.00     0.103 C 
ATOM     89  C   UNL A   1      33.139  26.406  24.258  1.00  0.00     0.103 C 
ATOM     90  N   UNL A   1      32.264  27.596  24.358  1.00  0.00    -0.198 NA
BRANCH  90  91
ATOM     91  S   UNL A   1      31.403  28.071  22.899  1.00  0.00     0.243 S 
ATOM     92  O   UNL A   1      32.210  29.073  22.221  1.00  0.00    -0.207 OA
ATOM     93  O   UNL A   1      31.079  26.842  22.213  1.00  0.00    -0.207 OA
BRANCH  91  94
ATOM     94  C   UNL A   1      29.877  28.908  23.291  1.00  0.00     0.082 A 
ATOM     95  C   UNL A   1      28.677  28.208  23.114  1.00  0.00     0.022 A 
ATOM     96  C   UNL A   1      29.834  30.299  23.453  1.00  0.00     0.022 A 
ATOM     97  C   UNL A   1      27.458  28.892  23.126  1.00  0.00     0.001 A 
ATOM     98  C   UNL A   1      28.614  30.975  23.501  1.00  0.00     0.001 A 
ATOM     99  C   UNL A   1      27.426  30.271  23.329  1.00  0.00     0.000 A 
ENDBRANCH  91  94
ENDBRANCH  90  91
ENDBRANCH  83  85
ENDBRANCH  81  83
ENDBRANCH  74  77
ENDBRANCH   1  73
TORSDOF 14
ENDMDL
MODEL 3
REMARK VINA RESULT:     -13.7      5.282     11.264
REMARK SMILES O=C(NCCCNC(=O)[C@H]1CCCN(C(=O)C2CCN(S(=O)(=O)c3ccccc3)CC2)C1)c1ccc(-c2c3nc(c(-c4c(F)c(F)c(F)c(F)c4F)c4ccc([nH]4)c(-c4c(F)c(F)c(F)c(F)c4F)c4nc(c(-c5c(F)c(F)c(F)c(F)c5F)c5ccc2[nH]5)C=C4)C=C3)cc1
REMARK SMILES IDX 6 1 5 2 4 3 3 4 1 5 2 6 33 8 34 9 95 10 35 11 94 12 36 13
REMARK SMILES IDX 37 14 38 15 88 16 39 17 93 18 87 19 89 20 40 21 92 22 86 23
REMARK SMILES IDX 85 24 41 26 73 27 53 28 72 29 54 30 57 31 71 32 90 33 55 34
REMARK SMILES IDX 56 35 70 37 91 38 58 39 42 40 43 41 51 42 44 43 45 44 49 45
REMARK SMILES IDX 52 46 46 47 47 48 50 49 48 50 74 51 75 52 83 53 76 54 77 55
REMARK SMILES IDX 81 56 84 57 78 58 79 59 82 60 80 61 59 62 60 63 68 64 61 65
REMARK SMILES IDX 62 66 66 67 69 68 63 69 64 70 67 71 65 72 7 73 8 74 9 76
REMARK SMILES IDX 10 77 11 78 32 79 12 80 14 81 13 82 15 83 16 84 17 85 18 86
REMARK SMILES IDX 31 87 19 88 30 89 20 90 21 91 22 92 23 93 24 94 25 95 29 96
REMARK SMILES IDX 26 97 28 98 27 99
REMARK H PARENT 3 7 89 25 57 36 7 75
REMARK Flexibility Score: inf
ROOT
ATOM      1  C   UNL A   1      36.631  20.637  25.004  1.00  0.00     0.117 C 
ENDROOT
BRANCH   1   2
ATOM      2  C   UNL A   1      37.810  19.665  24.998  1.00  0.00     0.042 C 
BRANCH   2   3
ATOM      3  C   UNL A   1      39.016  20.185  25.766  1.00  0.00     0.118 C 
BRANCH   3   4
ATOM      4  N   UNL A   1      40.086  19.200  25.843  1.00  0.00    -0.352 N 
ATOM      5  O   UNL A   1      42.195  18.422  25.864  1.00  0.00    -0.269 OA
ATOM      6  C   UNL A   1      41.436  19.373  26.027  1.00  0.00     0.251 C 
ATOM      7  H   UNL A   1      39.796  18.264  25.746  1.00  0.00     0.163 HD
BRANCH   6   8
ATOM      8  C   UNL A   1      41.982  20.692  26.417  1.00  0.00     0.039 A 
ATOM      9  C   UNL A   1      42.140  21.706  25.474  1.00  0.00     0.014 A 
ATOM     10  C   UNL A   1      42.287  20.939  27.761  1.00  0.00     0.014 A 
ATOM     11  C   UNL A   1      42.726  22.909  25.841  1.00  0.00     0.010 A 
ATOM     12  C   UNL A   1      42.773  22.191  28.152  1.00  0.00     0.010 A 
ATOM     13  C   UNL A   1      43.009  23.181  27.190  1.00  0.00    -0.014 A 
BRANCH  13  14
ATOM     14  C   UNL A   1      43.441  24.555  27.547  1.00  0.00     0.031 A 
ATOM     15  C   UNL A   1      44.830  25.042  27.263  1.00  0.00     0.074 A 
ATOM     16  C   UNL A   1      42.515  25.385  28.068  1.00  0.00     0.049 A 
ATOM     17  N   UNL A   1      45.329  26.241  27.431  1.00  0.00    -0.248 NA
ATOM     18  C   UNL A   1      45.789  24.065  26.729  1.00  0.00     0.031 C 
ATOM     19  C   UNL A   1      41.142  25.000  28.410  1.00  0.00     0.029 A 
ATOM     20  N   UNL A   1      42.560  26.724  28.356  1.00  0.00    -0.354 N 
ATOM     21  C   UNL A   1      46.658  26.160  27.039  1.00  0.00     0.074 A 
ATOM     22  C   UNL A   1      46.898  24.789  26.644  1.00  0.00     0.031 C 
ATOM     23  C   UNL A   1      40.455  26.088  28.781  1.00  0.00     0.029 A 
ATOM     24  C   UNL A   1      41.355  27.234  28.775  1.00  0.00     0.049 A 
ATOM     25  H   UNL A   1      43.377  27.267  28.272  1.00  0.00     0.167 HD
ATOM     26  C   UNL A   1      47.584  27.148  27.006  1.00  0.00     0.037 A 
ATOM     27  C   UNL A   1      41.012  28.487  29.122  1.00  0.00     0.037 A 
ATOM     28  C   UNL A   1      47.328  28.513  27.394  1.00  0.00     0.049 A 
ATOM     29  C   UNL A   1      42.059  29.560  29.058  1.00  0.00     0.074 A 
ATOM     30  C   UNL A   1      48.198  29.589  27.401  1.00  0.00     0.029 A 
ATOM     31  N   UNL A   1      46.102  28.989  27.841  1.00  0.00    -0.354 N 
ATOM     32  N   UNL A   1      43.309  29.469  28.676  1.00  0.00    -0.248 NA
ATOM     33  C   UNL A   1      41.651  30.905  29.479  1.00  0.00     0.031 C 
ATOM     34  C   UNL A   1      47.508  30.708  27.882  1.00  0.00     0.029 A 
ATOM     35  C   UNL A   1      46.197  30.340  28.135  1.00  0.00     0.049 A 
ATOM     36  H   UNL A   1      45.285  28.447  27.934  1.00  0.00     0.167 HD
ATOM     37  C   UNL A   1      43.842  30.740  28.816  1.00  0.00     0.074 A 
ATOM     38  C   UNL A   1      42.764  31.594  29.276  1.00  0.00     0.031 C 
ATOM     39  C   UNL A   1      45.111  31.162  28.603  1.00  0.00     0.037 A 
BRANCH  26  40
ATOM     40  C   UNL A   1      48.968  26.794  26.546  1.00  0.00     0.064 A 
ATOM     41  C   UNL A   1      49.922  26.266  27.429  1.00  0.00     0.173 A 
ATOM     42  C   UNL A   1      49.327  26.927  25.196  1.00  0.00     0.173 A 
ATOM     43  F   UNL A   1      49.636  26.132  28.732  1.00  0.00    -0.203 F 
ATOM     44  C   UNL A   1      51.187  25.894  26.978  1.00  0.00     0.198 A 
ATOM     45  C   UNL A   1      50.584  26.533  24.745  1.00  0.00     0.198 A 
ATOM     46  F   UNL A   1      48.451  27.425  24.310  1.00  0.00    -0.203 F 
ATOM     47  F   UNL A   1      52.094  25.422  27.845  1.00  0.00    -0.200 F 
ATOM     48  C   UNL A   1      51.514  26.021  25.636  1.00  0.00     0.200 A 
ATOM     49  F   UNL A   1      50.895  26.647  23.445  1.00  0.00    -0.200 F 
ATOM     50  F   UNL A   1      52.728  25.653  25.203  1.00  0.00    -0.200 F 
ENDBRANCH  26  40
BRANCH  27  51
ATOM     51  C   UNL A   1      39.626  28.779  29.570  1.00  0.00     0.064 A 
ATOM     52  C   UNL A   1      39.246  28.623  30.910  1.00  0.00     0.173 A 
ATOM     53  C   UNL A   1      38.655  29.236  28.667  1.00  0.00     0.173 A 
ATOM     54  F   UNL A   1      40.134  28.174  31.809  1.00  0.00    -0.203 F 
ATOM     55  C   UNL A   1      37.944  28.895  31.324  1.00  0.00     0.198 A 
ATOM     56  C   UNL A   1      37.363  29.541  29.089  1.00  0.00     0.198 A 
ATOM     57  F   UNL A   1      38.968  29.409  27.374  1.00  0.00    -0.203 F 
ATOM     58  F   UNL A   1      37.596  28.695  32.603  1.00  0.00    -0.200 F 
ATOM     59  C   UNL A   1      37.006  29.361  30.416  1.00  0.00     0.200 A 
ATOM     60  F   UNL A   1      36.467  30.010  28.209  1.00  0.00    -0.200 F 
ATOM     61  F   UNL A   1      35.758  29.632  30.817  1.00  0.00    -0.200 F 
ENDBRANCH  27  51
BRANCH  39  62
ATOM     62  C   UNL A   1      45.388  32.611  28.873  1.00  0.00     0.064 A 
ATOM     63  C   UNL A   1      45.146  33.593  27.900  1.00  0.00     0.173 A 
ATOM     64  C   UNL A   1      45.902  33.020  30.111  1.00  0.00     0.173 A 
ATOM     65  F   UNL A   1      44.673  33.244  26.694  1.00  0.00    -0.203 F 
ATOM     66  C   UNL A   1      45.443  34.929  28.146  1.00  0.00     0.198 A 
ATOM     67  C   UNL A   1      46.172  34.361  30.363  1.00  0.00     0.198 A 
ATOM     68  F   UNL A   1      46.147  32.118  31.074  1.00  0.00    -0.203 F 
ATOM     69  F   UNL A   1      45.260  35.842  27.182  1.00  0.00    -0.200 F 
ATOM     70  C   UNL A   1      45.952  35.313  29.378  1.00  0.00     0.200 A 
ATOM     71  F   UNL A   1      46.655  34.734  31.557  1.00  0.00    -0.200 F 
ATOM     72  F   UNL A   1      46.242  36.600  29.611  1.00  0.00    -0.200 F 
ENDBRANCH  39  62
ENDBRANCH  13  14
ENDBRANCH   6   8
ENDBRANCH   3   4
ENDBRANCH   2   3
ENDBRANCH   1   2
BRANCH   1  73
ATOM     73  N   UNL A   1      35.341  19.963  25.069  1.00  0.00    -0.356 N 
ATOM     74  C   UNL A   1      34.044  20.335  24.914  1.00  0.00     0.224 C 
ATOM     75  H   UNL A   1      35.432  19.005  25.274  1.00  0.00     0.163 HD
ATOM     76  O   UNL A   1      33.227  19.406  24.960  1.00  0.00    -0.275 OA
BRANCH  74  77
ATOM     77  C   UNL A   1      33.521  21.760  24.683  1.00  0.00     0.098 C 
ATOM     78  C   UNL A   1      33.132  22.137  23.253  1.00  0.00     0.017 C 
ATOM     79  C   UNL A   1      32.461  22.084  25.784  1.00  0.00     0.133 C 
ATOM     80  C   UNL A   1      32.225  23.338  23.162  1.00  0.00     0.022 C 
ATOM     81  N   UNL A   1      31.561  23.201  25.437  1.00  0.00    -0.342 N 
ATOM     82  C   UNL A   1      31.064  23.102  24.102  1.00  0.00     0.119 C 
BRANCH  81  83
ATOM     83  C   UNL A   1      31.271  24.230  26.314  1.00  0.00     0.225 C 
ATOM     84  O   UNL A   1      30.282  24.138  27.053  1.00  0.00    -0.275 OA
BRANCH  83  85
ATOM     85  C   UNL A   1      32.143  25.531  26.444  1.00  0.00     0.081 C 
ATOM     86  C   UNL A   1      31.453  26.859  26.720  1.00  0.00     0.030 C 
ATOM     87  C   UNL A   1      33.320  25.743  25.504  1.00  0.00     0.030 C 
ATOM     88  C   UNL A   1      31.206  27.792  25.540  1.00  0.00     0.103 C 
ATOM     89  C   UNL A   1      33.054  26.563  24.253  1.00  0.00     0.103 C 
ATOM     90  N   UNL A   1      32.184  27.754  24.388  1.00  0.00    -0.198 NA
BRANCH  90  91
ATOM     91  S   UNL A   1      31.349  28.293  22.936  1.00  0.00     0.243 S 
ATOM     92  O   UNL A   1      32.203  29.265  22.273  1.00  0.00    -0.207 OA
ATOM     93  O   UNL A   1      30.967  27.091  22.231  1.00  0.00    -0.207 OA
BRANCH  91  94
ATOM     94  C   UNL A   1      29.864  29.195  23.340  1.00  0.00     0.082 A 
ATOM     95  C   UNL A   1      28.634  28.643  22.963  1.00  0.00     0.022 A 
ATOM     96  C   UNL A   1      29.915  30.543  23.720  1.00  0.00     0.022 A 
ATOM     97  C   UNL A   1      27.475  29.426  22.992  1.00  0.00     0.001 A 
ATOM     98  C   UNL A   1      28.752  31.312  23.783  1.00  0.00     0.001 A 
ATOM     99  C   UNL A   1      27.533  30.754  23.411  1.00  0.00     0.000 A 
ENDBRANCH  91  94
ENDBRANCH  90  91
ENDBRANCH  83  85
ENDBRANCH  81  83
ENDBRANCH  74  77
ENDBRANCH   1  73
TORSDOF 14
ENDMDL
