MODEL 1
REMARK VINA RESULT:     -10.8      0.000      0.000
REMARK SMILES O=C(/C=C/c1c(Cl)cccc1Cl)NCC(=O)NCCCNC(=O)c1ccc(-c2c3nc(c(-c4c(F)c(F)c(F)c(F)c4F)c4ccc([nH]4)c(-c4c(F)c(F)c(F)c(F)c4F)c4nc(c(-c5c(F)c(F)c(F)c(F)c5F)c5ccc2[nH]5)C=C4)C=C3)cc1
REMARK SMILES IDX 18 1 17 2 15 3 16 4 14 6 13 7 1 8 2 9 3 11 4 12 5 13 6 14
REMARK SMILES IDX 11 15 7 16 8 17 10 18 12 19 9 20 19 21 20 22 21 23 22 24
REMARK SMILES IDX 23 26 24 27 25 28 86 29 26 30 85 31 27 32 28 33 29 34 79 35
REMARK SMILES IDX 30 36 84 37 78 38 80 39 31 40 83 41 77 42 76 43 32 45 64 46
REMARK SMILES IDX 44 47 63 48 45 49 48 50 62 51 81 52 46 53 47 54 61 56 82 57
REMARK SMILES IDX 49 58 33 59 34 60 42 61 35 62 36 63 40 64 43 65 37 66 38 67
REMARK SMILES IDX 41 68 39 69 65 70 66 71 74 72 67 73 68 74 72 75 75 76 69 77
REMARK SMILES IDX 70 78 73 79 71 80 50 81 51 82 59 83 52 84 53 85 57 86 60 87
REMARK SMILES IDX 54 88 55 89 58 90 56 91
REMARK H PARENT 17 5 13 10 21 25 80 44 48 55
REMARK Flexibility Score: inf
ROOT
ATOM      1  C   UNL A   1      33.047  34.637  29.023  1.00  0.00     0.117 C 
ENDROOT
BRANCH   1   2
ATOM      2  N   UNL A   1      33.212  36.015  29.447  1.00  0.00    -0.355 N 
ATOM      3  C   UNL A   1      32.973  36.565  30.675  1.00  0.00     0.239 C 
ATOM      4  O   UNL A   1      33.159  37.775  30.819  1.00  0.00    -0.273 OA
ATOM      5  H   UNL A   1      33.541  36.637  28.758  1.00  0.00     0.163 HD
BRANCH   3   6
ATOM      6  C   UNL A   1      32.495  35.687  31.831  1.00  0.00     0.216 C 
BRANCH   6   7
ATOM      7  N   UNL A   1      33.553  34.817  32.317  1.00  0.00    -0.343 N 
ATOM      8  O   UNL A   1      34.400  36.330  33.815  1.00  0.00    -0.270 OA
ATOM      9  C   UNL A   1      34.421  35.217  33.291  1.00  0.00     0.244 C 
ATOM     10  H   UNL A   1      33.645  33.915  31.933  1.00  0.00     0.164 HD
BRANCH   9  11
ATOM     11  C   UNL A   1      35.500  34.270  33.658  1.00  0.00     0.072 C 
ATOM     12  C   UNL A   1      36.522  33.891  32.874  1.00  0.00     0.017 C 
BRANCH  12  13
ATOM     13  C   UNL A   1      37.533  32.920  33.341  1.00  0.00     0.012 A 
ATOM     14  C   UNL A   1      38.715  33.325  33.993  1.00  0.00     0.049 A 
ATOM     15  C   UNL A   1      37.326  31.539  33.153  1.00  0.00     0.049 A 
ATOM     16  Cl  UNL A   1      39.062  34.988  34.332  1.00  0.00    -0.084 Cl
ATOM     17  C   UNL A   1      39.660  32.384  34.419  1.00  0.00     0.021 A 
ATOM     18  C   UNL A   1      38.270  30.601  33.590  1.00  0.00     0.021 A 
ATOM     19  Cl  UNL A   1      35.908  30.926  32.365  1.00  0.00    -0.084 Cl
ATOM     20  C   UNL A   1      39.439  31.024  34.219  1.00  0.00     0.003 A 
ENDBRANCH  12  13
ENDBRANCH   9  11
ENDBRANCH   6   7
ENDBRANCH   3   6
ENDBRANCH   1   2
BRANCH   1  21
ATOM     21  C   UNL A   1      34.367  34.014  28.571  1.00  0.00     0.042 C 
BRANCH  21  22
ATOM     22  C   UNL A   1      34.632  32.625  29.149  1.00  0.00     0.118 C 
BRANCH  22  23
ATOM     23  N   UNL A   1      34.005  31.563  28.376  1.00  0.00    -0.352 N 
ATOM     24  C   UNL A   1      34.524  30.397  27.878  1.00  0.00     0.251 C 
ATOM     25  H   UNL A   1      33.050  31.706  28.179  1.00  0.00     0.163 HD
ATOM     26  O   UNL A   1      33.848  29.715  27.107  1.00  0.00    -0.269 OA
BRANCH  24  27
ATOM     27  C   UNL A   1      35.889  29.949  28.233  1.00  0.00     0.039 A 
ATOM     28  C   UNL A   1      36.909  30.103  27.288  1.00  0.00     0.014 A 
ATOM     29  C   UNL A   1      36.163  29.333  29.457  1.00  0.00     0.014 A 
ATOM     30  C   UNL A   1      38.211  29.695  27.590  1.00  0.00     0.010 A 
ATOM     31  C   UNL A   1      37.473  28.981  29.782  1.00  0.00     0.010 A 
ATOM     32  C   UNL A   1      38.510  29.158  28.852  1.00  0.00    -0.014 A 
BRANCH  32  33
ATOM     33  C   UNL A   1      39.900  28.787  29.219  1.00  0.00     0.031 A 
ATOM     34  C   UNL A   1      40.762  29.738  30.000  1.00  0.00     0.074 A 
ATOM     35  C   UNL A   1      40.410  27.617  28.784  1.00  0.00     0.049 A 
ATOM     36  N   UNL A   1      42.022  29.626  30.340  1.00  0.00    -0.248 NA
ATOM     37  C   UNL A   1      40.133  30.994  30.437  1.00  0.00     0.031 C 
ATOM     38  C   UNL A   1      39.690  26.630  27.979  1.00  0.00     0.029 A 
ATOM     39  N   UNL A   1      41.659  27.069  28.944  1.00  0.00    -0.354 N 
ATOM     40  C   UNL A   1      42.341  30.802  31.006  1.00  0.00     0.074 A 
ATOM     41  C   UNL A   1      41.154  31.630  30.993  1.00  0.00     0.031 C 
ATOM     42  C   UNL A   1      40.505  25.593  27.723  1.00  0.00     0.029 A 
ATOM     43  C   UNL A   1      41.813  25.858  28.315  1.00  0.00     0.049 A 
ATOM     44  H   UNL A   1      42.376  27.504  29.460  1.00  0.00     0.167 HD
ATOM     45  C   UNL A   1      43.513  31.151  31.589  1.00  0.00     0.037 A 
ATOM     46  C   UNL A   1      42.891  25.058  28.214  1.00  0.00     0.037 A 
ATOM     47  C   UNL A   1      44.680  30.309  31.635  1.00  0.00     0.049 A 
ATOM     48  C   UNL A   1      44.174  25.463  28.888  1.00  0.00     0.074 A 
ATOM     49  C   UNL A   1      45.886  30.541  32.274  1.00  0.00     0.029 A 
ATOM     50  N   UNL A   1      44.787  29.073  31.016  1.00  0.00    -0.354 N 
ATOM     51  N   UNL A   1      44.440  26.543  29.578  1.00  0.00    -0.248 NA
ATOM     52  C   UNL A   1      45.307  24.533  28.771  1.00  0.00     0.031 C 
ATOM     53  C   UNL A   1      46.738  29.464  32.006  1.00  0.00     0.029 A 
ATOM     54  C   UNL A   1      46.048  28.541  31.238  1.00  0.00     0.049 A 
ATOM     55  H   UNL A   1      44.074  28.638  30.495  1.00  0.00     0.167 HD
ATOM     56  C   UNL A   1      45.756  26.412  30.002  1.00  0.00     0.074 A 
ATOM     57  C   UNL A   1      46.231  25.140  29.500  1.00  0.00     0.031 C 
ATOM     58  C   UNL A   1      46.503  27.269  30.739  1.00  0.00     0.037 A 
BRANCH  45  59
ATOM     59  C   UNL A   1      43.598  32.506  32.229  1.00  0.00     0.064 A 
ATOM     60  C   UNL A   1      43.956  33.646  31.495  1.00  0.00     0.173 A 
ATOM     61  C   UNL A   1      43.266  32.673  33.582  1.00  0.00     0.173 A 
ATOM     62  F   UNL A   1      44.291  33.536  30.200  1.00  0.00    -0.203 F 
ATOM     63  C   UNL A   1      43.999  34.901  32.096  1.00  0.00     0.198 A 
ATOM     64  C   UNL A   1      43.284  33.935  34.173  1.00  0.00     0.198 A 
ATOM     65  F   UNL A   1      42.910  31.617  34.328  1.00  0.00    -0.203 F 
ATOM     66  F   UNL A   1      44.382  35.970  31.384  1.00  0.00    -0.200 F 
ATOM     67  C   UNL A   1      43.656  35.045  33.432  1.00  0.00     0.200 A 
ATOM     68  F   UNL A   1      42.940  34.073  35.461  1.00  0.00    -0.200 F 
ATOM     69  F   UNL A   1      43.689  36.255  34.007  1.00  0.00    -0.200 F 
ENDBRANCH  45  59
BRANCH  46  70
ATOM     70  C   UNL A   1      42.800  23.783  27.457  1.00  0.00     0.064 A 
ATOM     71  C   UNL A   1      42.332  22.613  28.073  1.00  0.00     0.173 A 
ATOM     72  C   UNL A   1      43.183  23.705  26.111  1.00  0.00     0.173 A 
ATOM     73  F   UNL A   1      41.974  22.634  29.364  1.00  0.00    -0.203 F 
ATOM     74  C   UNL A   1      42.274  21.407  27.376  1.00  0.00     0.198 A 
ATOM     75  C   UNL A   1      43.097  22.506  25.407  1.00  0.00     0.198 A 
ATOM     76  F   UNL A   1      43.630  24.797  25.473  1.00  0.00    -0.203 F 
ATOM     77  F   UNL A   1      41.869  20.294  28.001  1.00  0.00    -0.200 F 
ATOM     78  C   UNL A   1      42.652  21.356  26.042  1.00  0.00     0.200 A 
ATOM     79  F   UNL A   1      43.448  22.463  24.114  1.00  0.00    -0.200 F 
ATOM     80  F   UNL A   1      42.595  20.198  25.372  1.00  0.00    -0.200 F 
ENDBRANCH  46  70
BRANCH  58  81
ATOM     81  C   UNL A   1      47.902  26.847  31.074  1.00  0.00     0.064 A 
ATOM     82  C   UNL A   1      48.180  26.043  32.190  1.00  0.00     0.173 A 
ATOM     83  C   UNL A   1      48.974  27.217  30.247  1.00  0.00     0.173 A 
ATOM     84  F   UNL A   1      47.191  25.677  33.020  1.00  0.00    -0.203 F 
ATOM     85  C   UNL A   1      49.482  25.646  32.479  1.00  0.00     0.198 A 
ATOM     86  C   UNL A   1      50.272  26.796  30.524  1.00  0.00     0.198 A 
ATOM     87  F   UNL A   1      48.760  27.980  29.165  1.00  0.00    -0.203 F 
ATOM     88  F   UNL A   1      49.730  24.917  33.575  1.00  0.00    -0.200 F 
ATOM     89  C   UNL A   1      50.525  26.016  31.642  1.00  0.00     0.200 A 
ATOM     90  F   UNL A   1      51.276  27.145  29.709  1.00  0.00    -0.200 F 
ATOM     91  F   UNL A   1      51.778  25.627  31.919  1.00  0.00    -0.200 F 
ENDBRANCH  58  81
ENDBRANCH  32  33
ENDBRANCH  24  27
ENDBRANCH  22  23
ENDBRANCH  21  22
ENDBRANCH   1  21
TORSDOF 13
ENDMDL
MODEL 2
REMARK VINA RESULT:     -10.6      4.541     11.535
REMARK SMILES O=C(/C=C/c1c(Cl)cccc1Cl)NCC(=O)NCCCNC(=O)c1ccc(-c2c3nc(c(-c4c(F)c(F)c(F)c(F)c4F)c4ccc([nH]4)c(-c4c(F)c(F)c(F)c(F)c4F)c4nc(c(-c5c(F)c(F)c(F)c(F)c5F)c5ccc2[nH]5)C=C4)C=C3)cc1
REMARK SMILES IDX 18 1 17 2 15 3 16 4 14 6 13 7 1 8 2 9 3 11 4 12 5 13 6 14
REMARK SMILES IDX 11 15 7 16 8 17 10 18 12 19 9 20 19 21 20 22 21 23 22 24
REMARK SMILES IDX 23 26 24 27 25 28 86 29 26 30 85 31 27 32 28 33 29 34 79 35
REMARK SMILES IDX 30 36 84 37 78 38 80 39 31 40 83 41 77 42 76 43 32 45 64 46
REMARK SMILES IDX 44 47 63 48 45 49 48 50 62 51 81 52 46 53 47 54 61 56 82 57
REMARK SMILES IDX 49 58 33 59 34 60 42 61 35 62 36 63 40 64 43 65 37 66 38 67
REMARK SMILES IDX 41 68 39 69 65 70 66 71 74 72 67 73 68 74 72 75 75 76 69 77
REMARK SMILES IDX 70 78 73 79 71 80 50 81 51 82 59 83 52 84 53 85 57 86 60 87
REMARK SMILES IDX 54 88 55 89 58 90 56 91
REMARK H PARENT 17 5 13 10 21 25 80 44 48 55
REMARK Flexibility Score: inf
ROOT
ATOM      1  C   UNL A   1      41.109  19.549  26.088  1.00  0.00     0.117 C 
ENDROOT
BRANCH   1   2
ATOM      2  N   UNL A   1      42.193  18.658  26.460  1.00  0.00    -0.355 N 
ATOM      3  C   UNL A   1      43.440  18.554  25.909  1.00  0.00     0.239 C 
ATOM      4  O   UNL A   1      44.211  17.706  26.365  1.00  0.00    -0.273 OA
ATOM      5  H   UNL A   1      42.006  18.047  27.208  1.00  0.00     0.163 HD
BRANCH   3   6
ATOM      6  C   UNL A   1      43.855  19.477  24.764  1.00  0.00     0.216 C 
BRANCH   6   7
ATOM      7  N   UNL A   1      44.006  20.851  25.212  1.00  0.00    -0.343 N 
ATOM      8  O   UNL A   1      46.292  20.781  25.342  1.00  0.00    -0.270 OA
ATOM      9  C   UNL A   1      45.233  21.397  25.455  1.00  0.00     0.244 C 
ATOM     10  H   UNL A   1      43.201  21.404  25.342  1.00  0.00     0.164 HD
BRANCH   9  11
ATOM     11  C   UNL A   1      45.260  22.785  25.972  1.00  0.00     0.072 C 
ATOM     12  C   UNL A   1      45.850  23.838  25.385  1.00  0.00     0.017 C 
BRANCH  12  13
ATOM     13  C   UNL A   1      45.830  25.178  26.006  1.00  0.00     0.012 A 
ATOM     14  C   UNL A   1      46.913  25.670  26.762  1.00  0.00     0.049 A 
ATOM     15  C   UNL A   1      44.709  26.018  25.842  1.00  0.00     0.049 A 
ATOM     16  Cl  UNL A   1      48.368  24.759  26.993  1.00  0.00    -0.084 Cl
ATOM     17  C   UNL A   1      46.865  26.942  27.347  1.00  0.00     0.021 A 
ATOM     18  C   UNL A   1      44.670  27.292  26.421  1.00  0.00     0.021 A 
ATOM     19  Cl  UNL A   1      43.320  25.518  24.932  1.00  0.00    -0.084 Cl
ATOM     20  C   UNL A   1      45.747  27.752  27.176  1.00  0.00     0.003 A 
ENDBRANCH  12  13
ENDBRANCH   9  11
ENDBRANCH   6   7
ENDBRANCH   3   6
ENDBRANCH   1   2
BRANCH   1  21
ATOM     21  C   UNL A   1      40.925  20.680  27.099  1.00  0.00     0.042 C 
BRANCH  21  22
ATOM     22  C   UNL A   1      40.904  22.075  26.477  1.00  0.00     0.118 C 
BRANCH  22  23
ATOM     23  N   UNL A   1      39.607  22.422  25.914  1.00  0.00    -0.352 N 
ATOM     24  C   UNL A   1      38.802  23.509  26.134  1.00  0.00     0.251 C 
ATOM     25  H   UNL A   1      39.250  21.769  25.269  1.00  0.00     0.163 HD
ATOM     26  O   UNL A   1      37.662  23.520  25.668  1.00  0.00    -0.269 OA
BRANCH  24  27
ATOM     27  C   UNL A   1      39.268  24.662  26.935  1.00  0.00     0.039 A 
ATOM     28  C   UNL A   1      40.066  25.629  26.312  1.00  0.00     0.014 A 
ATOM     29  C   UNL A   1      38.978  24.774  28.297  1.00  0.00     0.014 A 
ATOM     30  C   UNL A   1      40.521  26.733  27.037  1.00  0.00     0.010 A 
ATOM     31  C   UNL A   1      39.380  25.907  29.005  1.00  0.00     0.010 A 
ATOM     32  C   UNL A   1      40.157  26.897  28.382  1.00  0.00    -0.014 A 
BRANCH  32  33
ATOM     33  C   UNL A   1      40.570  28.100  29.148  1.00  0.00     0.031 A 
ATOM     34  C   UNL A   1      41.943  28.184  29.754  1.00  0.00     0.074 A 
ATOM     35  C   UNL A   1      39.680  29.090  29.360  1.00  0.00     0.049 A 
ATOM     36  N   UNL A   1      42.454  29.112  30.524  1.00  0.00    -0.248 NA
ATOM     37  C   UNL A   1      42.856  27.063  29.479  1.00  0.00     0.031 C 
ATOM     38  C   UNL A   1      38.302  29.105  28.864  1.00  0.00     0.029 A 
ATOM     39  N   UNL A   1      39.794  30.265  30.060  1.00  0.00    -0.354 N 
ATOM     40  C   UNL A   1      43.733  28.677  30.843  1.00  0.00     0.074 A 
ATOM     41  C   UNL A   1      43.911  27.386  30.213  1.00  0.00     0.031 C 
ATOM     42  C   UNL A   1      37.703  30.238  29.268  1.00  0.00     0.029 A 
ATOM     43  C   UNL A   1      38.640  31.009  30.079  1.00  0.00     0.049 A 
ATOM     44  H   UNL A   1      40.625  30.546  30.507  1.00  0.00     0.167 HD
ATOM     45  C   UNL A   1      44.679  29.306  31.581  1.00  0.00     0.037 A 
ATOM     46  C   UNL A   1      38.365  32.176  30.692  1.00  0.00     0.037 A 
ATOM     47  C   UNL A   1      44.514  30.608  32.173  1.00  0.00     0.049 A 
ATOM     48  C   UNL A   1      39.440  32.861  31.490  1.00  0.00     0.074 A 
ATOM     49  C   UNL A   1      45.444  31.364  32.868  1.00  0.00     0.029 A 
ATOM     50  N   UNL A   1      43.342  31.348  32.141  1.00  0.00    -0.354 N 
ATOM     51  N   UNL A   1      40.670  32.475  31.722  1.00  0.00    -0.248 NA
ATOM     52  C   UNL A   1      39.090  34.148  32.108  1.00  0.00     0.031 C 
ATOM     53  C   UNL A   1      44.821  32.542  33.293  1.00  0.00     0.029 A 
ATOM     54  C   UNL A   1      43.518  32.541  32.825  1.00  0.00     0.049 A 
ATOM     55  H   UNL A   1      42.508  31.067  31.700  1.00  0.00     0.167 HD
ATOM     56  C   UNL A   1      41.249  33.481  32.485  1.00  0.00     0.074 A 
ATOM     57  C   UNL A   1      40.238  34.500  32.668  1.00  0.00     0.031 C 
ATOM     58  C   UNL A   1      42.504  33.551  32.991  1.00  0.00     0.037 A 
BRANCH  45  59
ATOM     59  C   UNL A   1      45.984  28.597  31.795  1.00  0.00     0.064 A 
ATOM     60  C   UNL A   1      46.202  27.774  32.909  1.00  0.00     0.173 A 
ATOM     61  C   UNL A   1      47.011  28.700  30.844  1.00  0.00     0.173 A 
ATOM     62  F   UNL A   1      45.254  27.651  33.851  1.00  0.00    -0.203 F 
ATOM     63  C   UNL A   1      47.407  27.098  33.076  1.00  0.00     0.198 A 
ATOM     64  C   UNL A   1      48.205  28.000  31.000  1.00  0.00     0.198 A 
ATOM     65  F   UNL A   1      46.852  29.468  29.755  1.00  0.00    -0.203 F 
ATOM     66  F   UNL A   1      47.608  26.349  34.169  1.00  0.00    -0.200 F 
ATOM     67  C   UNL A   1      48.405  27.206  32.118  1.00  0.00     0.200 A 
ATOM     68  F   UNL A   1      49.162  28.095  30.067  1.00  0.00    -0.200 F 
ATOM     69  F   UNL A   1      49.561  26.546  32.276  1.00  0.00    -0.200 F 
ENDBRANCH  45  59
BRANCH  46  70
ATOM     70  C   UNL A   1      37.013  32.780  30.562  1.00  0.00     0.064 A 
ATOM     71  C   UNL A   1      36.682  33.567  29.451  1.00  0.00     0.173 A 
ATOM     72  C   UNL A   1      36.032  32.590  31.546  1.00  0.00     0.173 A 
ATOM     73  F   UNL A   1      37.593  33.794  28.494  1.00  0.00    -0.203 F 
ATOM     74  C   UNL A   1      35.426  34.162  29.339  1.00  0.00     0.198 A 
ATOM     75  C   UNL A   1      34.768  33.162  31.419  1.00  0.00     0.198 A 
ATOM     76  F   UNL A   1      36.297  31.840  32.626  1.00  0.00    -0.203 F 
ATOM     77  F   UNL A   1      35.150  34.949  28.290  1.00  0.00    -0.200 F 
ATOM     78  C   UNL A   1      34.468  33.955  30.322  1.00  0.00     0.200 A 
ATOM     79  F   UNL A   1      33.840  32.946  32.363  1.00  0.00    -0.200 F 
ATOM     80  F   UNL A   1      33.261  34.525  30.214  1.00  0.00    -0.200 F 
ENDBRANCH  46  70
BRANCH  58  81
ATOM     81  C   UNL A   1      42.866  34.784  33.763  1.00  0.00     0.064 A 
ATOM     82  C   UNL A   1      43.285  35.958  33.119  1.00  0.00     0.173 A 
ATOM     83  C   UNL A   1      42.753  34.806  35.162  1.00  0.00     0.173 A 
ATOM     84  F   UNL A   1      43.424  35.982  31.784  1.00  0.00    -0.203 F 
ATOM     85  C   UNL A   1      43.601  37.100  33.849  1.00  0.00     0.198 A 
ATOM     86  C   UNL A   1      43.045  35.958  35.886  1.00  0.00     0.198 A 
ATOM     87  F   UNL A   1      42.351  33.711  35.824  1.00  0.00    -0.203 F 
ATOM     88  F   UNL A   1      44.043  38.196  33.216  1.00  0.00    -0.200 F 
ATOM     89  C   UNL A   1      43.474  37.102  35.230  1.00  0.00     0.200 A 
ATOM     90  F   UNL A   1      42.911  35.961  37.219  1.00  0.00    -0.200 F 
ATOM     91  F   UNL A   1      43.773  38.204  35.930  1.00  0.00    -0.200 F 
ENDBRANCH  58  81
ENDBRANCH  32  33
ENDBRANCH  24  27
ENDBRANCH  22  23
ENDBRANCH  21  22
ENDBRANCH   1  21
TORSDOF 13
ENDMDL
MODEL 3
REMARK VINA RESULT:     -10.6      4.330     10.474
REMARK SMILES O=C(/C=C/c1c(Cl)cccc1Cl)NCC(=O)NCCCNC(=O)c1ccc(-c2c3nc(c(-c4c(F)c(F)c(F)c(F)c4F)c4ccc([nH]4)c(-c4c(F)c(F)c(F)c(F)c4F)c4nc(c(-c5c(F)c(F)c(F)c(F)c5F)c5ccc2[nH]5)C=C4)C=C3)cc1
REMARK SMILES IDX 18 1 17 2 15 3 16 4 14 6 13 7 1 8 2 9 3 11 4 12 5 13 6 14
REMARK SMILES IDX 11 15 7 16 8 17 10 18 12 19 9 20 19 21 20 22 21 23 22 24
REMARK SMILES IDX 23 26 24 27 25 28 86 29 26 30 85 31 27 32 28 33 29 34 79 35
REMARK SMILES IDX 30 36 84 37 78 38 80 39 31 40 83 41 77 42 76 43 32 45 64 46
REMARK SMILES IDX 44 47 63 48 45 49 48 50 62 51 81 52 46 53 47 54 61 56 82 57
REMARK SMILES IDX 49 58 33 59 34 60 42 61 35 62 36 63 40 64 43 65 37 66 38 67
REMARK SMILES IDX 41 68 39 69 65 70 66 71 74 72 67 73 68 74 72 75 75 76 69 77
REMARK SMILES IDX 70 78 73 79 71 80 50 81 51 82 59 83 52 84 53 85 57 86 60 87
REMARK SMILES IDX 54 88 55 89 58 90 56 91
REMARK H PARENT 17 5 13 10 21 25 80 44 48 55
REMARK Flexibility Score: inf
ROOT
ATOM      1  C   UNL A   1      31.545  30.863  25.978  1.00  0.00     0.117 C 
ENDROOT
BRANCH   1   2
ATOM      2  N   UNL A   1      31.663  29.815  26.975  1.00  0.00    -0.355 N 
ATOM      3  C   UNL A   1      31.654  28.461  26.796  1.00  0.00     0.239 C 
ATOM      4  O   UNL A   1      31.746  27.738  27.791  1.00  0.00    -0.273 OA
ATOM      5  H   UNL A   1      31.762  30.121  27.905  1.00  0.00     0.163 HD
BRANCH   3   6
ATOM      6  C   UNL A   1      31.541  27.871  25.390  1.00  0.00     0.216 C 
BRANCH   6   7
ATOM      7  N   UNL A   1      32.169  26.563  25.306  1.00  0.00    -0.343 N 
ATOM      8  O   UNL A   1      33.876  27.236  23.935  1.00  0.00    -0.270 OA
ATOM      9  C   UNL A   1      33.308  26.359  24.583  1.00  0.00     0.244 C 
ATOM     10  H   UNL A   1      31.762  25.804  25.784  1.00  0.00     0.164 HD
BRANCH   9  11
ATOM     11  C   UNL A   1      33.819  24.970  24.514  1.00  0.00     0.072 C 
ATOM     12  C   UNL A   1      34.246  24.230  25.549  1.00  0.00     0.017 C 
BRANCH  12  13
ATOM     13  C   UNL A   1      34.756  22.857  25.358  1.00  0.00     0.012 A 
ATOM     14  C   UNL A   1      33.895  21.748  25.231  1.00  0.00     0.049 A 
ATOM     15  C   UNL A   1      36.144  22.622  25.282  1.00  0.00     0.049 A 
ATOM     16  Cl  UNL A   1      32.170  21.910  25.253  1.00  0.00    -0.084 Cl
ATOM     17  C   UNL A   1      34.405  20.456  25.058  1.00  0.00     0.021 A 
ATOM     18  C   UNL A   1      36.649  21.329  25.100  1.00  0.00     0.021 A 
ATOM     19  Cl  UNL A   1      37.297  23.910  25.425  1.00  0.00    -0.084 Cl
ATOM     20  C   UNL A   1      35.779  20.246  24.991  1.00  0.00     0.003 A 
ENDBRANCH  12  13
ENDBRANCH   9  11
ENDBRANCH   6   7
ENDBRANCH   3   6
ENDBRANCH   1   2
BRANCH   1  21
ATOM     21  C   UNL A   1      31.339  32.238  26.612  1.00  0.00     0.042 C 
BRANCH  21  22
ATOM     22  C   UNL A   1      32.609  32.853  27.198  1.00  0.00     0.118 C 
BRANCH  22  23
ATOM     23  N   UNL A   1      32.410  34.215  27.670  1.00  0.00    -0.352 N 
ATOM     24  C   UNL A   1      33.028  34.908  28.678  1.00  0.00     0.251 C 
ATOM     25  H   UNL A   1      31.718  34.722  27.186  1.00  0.00     0.163 HD
ATOM     26  O   UNL A   1      32.586  36.007  29.015  1.00  0.00    -0.269 OA
BRANCH  24  27
ATOM     27  C   UNL A   1      34.205  34.354  29.383  1.00  0.00     0.039 A 
ATOM     28  C   UNL A   1      34.000  33.648  30.573  1.00  0.00     0.014 A 
ATOM     29  C   UNL A   1      35.505  34.568  28.917  1.00  0.00     0.014 A 
ATOM     30  C   UNL A   1      35.087  33.108  31.263  1.00  0.00     0.010 A 
ATOM     31  C   UNL A   1      36.586  33.977  29.573  1.00  0.00     0.010 A 
ATOM     32  C   UNL A   1      36.388  33.241  30.753  1.00  0.00    -0.014 A 
BRANCH  32  33
ATOM     33  C   UNL A   1      37.548  32.612  31.433  1.00  0.00     0.031 A 
ATOM     34  C   UNL A   1      38.259  31.446  30.805  1.00  0.00     0.074 A 
ATOM     35  C   UNL A   1      37.919  33.048  32.653  1.00  0.00     0.049 A 
ATOM     36  N   UNL A   1      39.235  30.715  31.284  1.00  0.00    -0.248 NA
ATOM     37  C   UNL A   1      37.795  31.029  29.472  1.00  0.00     0.031 C 
ATOM     38  C   UNL A   1      37.280  34.141  33.388  1.00  0.00     0.029 A 
ATOM     39  N   UNL A   1      38.910  32.615  33.498  1.00  0.00    -0.354 N 
ATOM     40  C   UNL A   1      39.483  29.741  30.325  1.00  0.00     0.074 A 
ATOM     41  C   UNL A   1      38.535  29.951  29.253  1.00  0.00     0.031 C 
ATOM     42  C   UNL A   1      37.900  34.298  34.569  1.00  0.00     0.029 A 
ATOM     43  C   UNL A   1      38.956  33.296  34.689  1.00  0.00     0.049 A 
ATOM     44  H   UNL A   1      39.529  31.883  33.271  1.00  0.00     0.167 HD
ATOM     45  C   UNL A   1      40.429  28.771  30.333  1.00  0.00     0.037 A 
ATOM     46  C   UNL A   1      39.750  33.125  35.763  1.00  0.00     0.037 A 
ATOM     47  C   UNL A   1      41.397  28.589  31.383  1.00  0.00     0.049 A 
ATOM     48  C   UNL A   1      40.803  32.052  35.736  1.00  0.00     0.074 A 
ATOM     49  C   UNL A   1      42.447  27.687  31.441  1.00  0.00     0.029 A 
ATOM     50  N   UNL A   1      41.434  29.322  32.559  1.00  0.00    -0.354 N 
ATOM     51  N   UNL A   1      41.078  31.186  34.792  1.00  0.00    -0.248 NA
ATOM     52  C   UNL A   1      41.662  31.934  36.924  1.00  0.00     0.031 C 
ATOM     53  C   UNL A   1      43.092  27.847  32.672  1.00  0.00     0.029 A 
ATOM     54  C   UNL A   1      42.474  28.877  33.360  1.00  0.00     0.049 A 
ATOM     55  H   UNL A   1      40.814  30.051  32.791  1.00  0.00     0.167 HD
ATOM     56  C   UNL A   1      42.154  30.442  35.257  1.00  0.00     0.074 A 
ATOM     57  C   UNL A   1      42.491  30.966  36.563  1.00  0.00     0.031 C 
ATOM     58  C   UNL A   1      42.803  29.415  34.655  1.00  0.00     0.037 A 
BRANCH  45  59
ATOM     59  C   UNL A   1      40.467  27.824  29.170  1.00  0.00     0.064 A 
ATOM     60  C   UNL A   1      39.665  26.674  29.129  1.00  0.00     0.173 A 
ATOM     61  C   UNL A   1      41.277  28.099  28.058  1.00  0.00     0.173 A 
ATOM     62  F   UNL A   1      38.880  26.363  30.172  1.00  0.00    -0.203 F 
ATOM     63  C   UNL A   1      39.688  25.822  28.028  1.00  0.00     0.198 A 
ATOM     64  C   UNL A   1      41.278  27.259  26.946  1.00  0.00     0.198 A 
ATOM     65  F   UNL A   1      42.059  29.189  28.042  1.00  0.00    -0.203 F 
ATOM     66  F   UNL A   1      38.943  24.708  28.029  1.00  0.00    -0.200 F 
ATOM     67  C   UNL A   1      40.489  26.119  26.935  1.00  0.00     0.200 A 
ATOM     68  F   UNL A   1      42.042  27.555  25.886  1.00  0.00    -0.200 F 
ATOM     69  F   UNL A   1      40.503  25.303  25.872  1.00  0.00    -0.200 F 
ENDBRANCH  45  59
BRANCH  46  70
ATOM     70  C   UNL A   1      39.590  34.004  36.950  1.00  0.00     0.064 A 
ATOM     71  C   UNL A   1      38.818  33.596  38.047  1.00  0.00     0.173 A 
ATOM     72  C   UNL A   1      40.197  35.266  37.010  1.00  0.00     0.173 A 
ATOM     73  F   UNL A   1      38.202  32.406  38.027  1.00  0.00    -0.203 F 
ATOM     74  C   UNL A   1      38.639  34.430  39.150  1.00  0.00     0.198 A 
ATOM     75  C   UNL A   1      40.041  36.086  38.125  1.00  0.00     0.198 A 
ATOM     76  F   UNL A   1      40.952  35.701  35.990  1.00  0.00    -0.203 F 
ATOM     77  F   UNL A   1      37.858  34.036  40.164  1.00  0.00    -0.200 F 
ATOM     78  C   UNL A   1      39.255  35.673  39.190  1.00  0.00     0.200 A 
ATOM     79  F   UNL A   1      40.650  37.280  38.167  1.00  0.00    -0.200 F 
ATOM     80  F   UNL A   1      39.085  36.473  40.251  1.00  0.00    -0.200 F 
ENDBRANCH  46  70
BRANCH  58  81
ATOM     81  C   UNL A   1      43.963  28.812  35.389  1.00  0.00     0.064 A 
ATOM     82  C   UNL A   1      45.276  29.261  35.184  1.00  0.00     0.173 A 
ATOM     83  C   UNL A   1      43.755  27.801  36.339  1.00  0.00     0.173 A 
ATOM     84  F   UNL A   1      45.528  30.215  34.273  1.00  0.00    -0.203 F 
ATOM     85  C   UNL A   1      46.341  28.702  35.885  1.00  0.00     0.198 A 
ATOM     86  C   UNL A   1      44.819  27.263  37.058  1.00  0.00     0.198 A 
ATOM     87  F   UNL A   1      42.518  27.341  36.577  1.00  0.00    -0.203 F 
ATOM     88  F   UNL A   1      47.592  29.114  35.639  1.00  0.00    -0.200 F 
ATOM     89  C   UNL A   1      46.111  27.710  36.826  1.00  0.00     0.200 A 
ATOM     90  F   UNL A   1      44.593  26.312  37.975  1.00  0.00    -0.200 F 
ATOM     91  F   UNL A   1      47.137  27.177  37.504  1.00  0.00    -0.200 F 
ENDBRANCH  58  81
ENDBRANCH  32  33
ENDBRANCH  24  27
ENDBRANCH  22  23
ENDBRANCH  21  22
ENDBRANCH   1  21
TORSDOF 13
ENDMDL
