MODEL 1
REMARK VINA RESULT:     -12.9      0.000      0.000
REMARK SMILES O=C(NC[C@H]1CCOC1)N[C@H]1C=C[C@@H](C(=O)NCCCNC(=O)c2ccc(-c3c4nc(c(-c5c(F)c(F)c(F)c(F)c5F)c5ccc([nH]5)c(-c5c(F)c(F)c(F)c(F)c5F)c5nc(c(-c6c(F)c(F)c(F)c(F)c6F)c6ccc3[nH]6)C=C5)C=C4)cc2)C1
REMARK SMILES IDX 18 1 17 2 15 3 16 4 14 6 11 7 12 8 87 9 13 10 10 11 1 12
REMARK SMILES IDX 2 13 3 14 4 17 5 18 6 19 9 20 7 21 8 22 19 23 20 24 21 25
REMARK SMILES IDX 22 26 23 28 24 29 25 30 86 31 26 32 85 33 27 34 28 35 29 36
REMARK SMILES IDX 79 37 30 38 84 39 78 40 80 41 31 42 83 43 77 44 76 45 32 47
REMARK SMILES IDX 64 48 44 49 63 50 45 51 48 52 62 53 81 54 46 55 47 56 61 58
REMARK SMILES IDX 82 59 49 60 33 61 34 62 42 63 35 64 36 65 40 66 43 67 37 68
REMARK SMILES IDX 38 69 41 70 39 71 65 72 66 73 74 74 67 75 68 76 72 77 75 78
REMARK SMILES IDX 69 79 70 80 73 81 71 82 50 83 51 84 59 85 52 86 53 87 57 88
REMARK SMILES IDX 60 89 54 90 55 91 58 92 56 93
REMARK H PARENT 17 5 3 15 10 16 21 27 80 46 48 57
REMARK Flexibility Score: inf
ROOT
ATOM      1  C   UNL A   1      31.742  30.657  26.526  1.00  0.00     0.117 C 
ENDROOT
BRANCH   1   2
ATOM      2  N   UNL A   1      32.932  30.187  27.208  1.00  0.00    -0.356 N 
ATOM      3  C   UNL A   1      33.748  29.127  26.956  1.00  0.00     0.227 C 
ATOM      4  O   UNL A   1      34.710  28.973  27.715  1.00  0.00    -0.274 OA
ATOM      5  H   UNL A   1      33.195  30.727  27.988  1.00  0.00     0.163 HD
BRANCH   3   6
ATOM      6  C   UNL A   1      33.504  28.147  25.806  1.00  0.00     0.103 C 
ATOM      7  C   UNL A   1      31.718  27.744  24.166  1.00  0.00     0.107 C 
ATOM      8  C   UNL A   1      32.872  28.485  23.570  1.00  0.00    -0.006 C 
ATOM      9  C   UNL A   1      32.048  27.689  25.665  1.00  0.00     0.047 C 
ATOM     10  C   UNL A   1      33.852  28.694  24.456  1.00  0.00    -0.016 C 
BRANCH   7  11
ATOM     11  N   UNL A   1      30.499  28.475  23.893  1.00  0.00    -0.332 N 
ATOM     12  O   UNL A   1      30.401  27.854  21.702  1.00  0.00    -0.249 OA
ATOM     13  C   UNL A   1      29.928  28.452  22.664  1.00  0.00     0.315 C 
ATOM     14  N   UNL A   1      28.764  29.116  22.497  1.00  0.00    -0.338 N 
ATOM     15  H   UNL A   1      28.448  29.126  21.564  1.00  0.00     0.165 HD
ATOM     16  H   UNL A   1      30.076  28.997  24.612  1.00  0.00     0.165 HD
BRANCH  14  17
ATOM     17  C   UNL A   1      27.885  29.816  23.413  1.00  0.00     0.123 C 
BRANCH  17  18
ATOM     18  C   UNL A   1      27.854  31.331  23.225  1.00  0.00     0.036 C 
ATOM     19  C   UNL A   1      29.052  32.081  23.769  1.00  0.00     0.036 C 
ATOM     20  C   UNL A   1      27.817  31.835  21.793  1.00  0.00     0.165 C 
ATOM     21  C   UNL A   1      28.919  33.428  23.083  1.00  0.00     0.160 C 
ATOM     22  O   UNL A   1      28.214  33.213  21.852  1.00  0.00    -0.381 OA
ENDBRANCH  17  18
ENDBRANCH  14  17
ENDBRANCH   7  11
ENDBRANCH   3   6
ENDBRANCH   1   2
BRANCH   1  23
ATOM     23  C   UNL A   1      31.537  32.153  26.705  1.00  0.00     0.042 C 
BRANCH  23  24
ATOM     24  C   UNL A   1      32.762  32.859  27.264  1.00  0.00     0.118 C 
BRANCH  24  25
ATOM     25  N   UNL A   1      32.481  34.243  27.625  1.00  0.00    -0.352 N 
ATOM     26  C   UNL A   1      33.009  35.009  28.635  1.00  0.00     0.251 C 
ATOM     27  H   UNL A   1      31.814  34.696  27.060  1.00  0.00     0.163 HD
ATOM     28  O   UNL A   1      32.490  36.082  28.928  1.00  0.00    -0.269 OA
BRANCH  26  29
ATOM     29  C   UNL A   1      34.187  34.525  29.381  1.00  0.00     0.039 A 
ATOM     30  C   UNL A   1      34.008  33.933  30.634  1.00  0.00     0.014 A 
ATOM     31  C   UNL A   1      35.466  34.653  28.839  1.00  0.00     0.014 A 
ATOM     32  C   UNL A   1      35.109  33.402  31.311  1.00  0.00     0.010 A 
ATOM     33  C   UNL A   1      36.544  34.041  29.466  1.00  0.00     0.010 A 
ATOM     34  C   UNL A   1      36.378  33.417  30.712  1.00  0.00    -0.014 A 
BRANCH  34  35
ATOM     35  C   UNL A   1      37.568  32.819  31.367  1.00  0.00     0.031 A 
ATOM     36  C   UNL A   1      38.278  31.672  30.701  1.00  0.00     0.074 A 
ATOM     37  C   UNL A   1      37.942  33.229  32.594  1.00  0.00     0.049 A 
ATOM     38  N   UNL A   1      39.218  30.892  31.169  1.00  0.00    -0.248 NA
ATOM     39  C   UNL A   1      37.843  31.336  29.335  1.00  0.00     0.031 C 
ATOM     40  C   UNL A   1      37.316  34.311  33.355  1.00  0.00     0.029 A 
ATOM     41  N   UNL A   1      38.929  32.764  33.428  1.00  0.00    -0.354 N 
ATOM     42  C   UNL A   1      39.464  29.960  30.169  1.00  0.00     0.074 A 
ATOM     43  C   UNL A   1      38.539  30.237  29.093  1.00  0.00     0.031 C 
ATOM     44  C   UNL A   1      37.939  34.434  34.537  1.00  0.00     0.029 A 
ATOM     45  C   UNL A   1      38.972  33.408  34.641  1.00  0.00     0.049 A 
ATOM     46  H   UNL A   1      39.546  32.039  33.181  1.00  0.00     0.167 HD
ATOM     47  C   UNL A   1      40.394  28.975  30.144  1.00  0.00     0.037 A 
ATOM     48  C   UNL A   1      39.745  33.180  35.721  1.00  0.00     0.037 A 
ATOM     49  C   UNL A   1      41.330  28.726  31.208  1.00  0.00     0.049 A 
ATOM     50  C   UNL A   1      40.757  32.066  35.675  1.00  0.00     0.074 A 
ATOM     51  C   UNL A   1      42.344  27.788  31.260  1.00  0.00     0.029 A 
ATOM     52  N   UNL A   1      41.361  29.420  32.408  1.00  0.00    -0.354 N 
ATOM     53  N   UNL A   1      41.017  31.221  34.707  1.00  0.00    -0.248 NA
ATOM     54  C   UNL A   1      41.587  31.874  36.874  1.00  0.00     0.031 C 
ATOM     55  C   UNL A   1      42.957  27.879  32.514  1.00  0.00     0.029 A 
ATOM     56  C   UNL A   1      42.368  28.917  33.216  1.00  0.00     0.049 A 
ATOM     57  H   UNL A   1      40.759  30.161  32.650  1.00  0.00     0.167 HD
ATOM     58  C   UNL A   1      42.066  30.431  35.160  1.00  0.00     0.074 A 
ATOM     59  C   UNL A   1      42.395  30.898  36.489  1.00  0.00     0.031 C 
ATOM     60  C   UNL A   1      42.700  29.413  34.528  1.00  0.00     0.037 A 
BRANCH  47  61
ATOM     61  C   UNL A   1      40.442  28.095  28.928  1.00  0.00     0.064 A 
ATOM     62  C   UNL A   1      39.711  26.899  28.852  1.00  0.00     0.173 A 
ATOM     63  C   UNL A   1      41.205  28.467  27.811  1.00  0.00     0.173 A 
ATOM     64  F   UNL A   1      38.975  26.489  29.897  1.00  0.00    -0.203 F 
ATOM     65  C   UNL A   1      39.772  26.092  27.719  1.00  0.00     0.198 A 
ATOM     66  C   UNL A   1      41.234  27.676  26.665  1.00  0.00     0.198 A 
ATOM     67  F   UNL A   1      41.919  29.603  27.827  1.00  0.00    -0.203 F 
ATOM     68  F   UNL A   1      39.111  24.925  27.693  1.00  0.00    -0.200 F 
ATOM     69  C   UNL A   1      40.526  26.485  26.624  1.00  0.00     0.200 A 
ATOM     70  F   UNL A   1      41.951  28.066  25.602  1.00  0.00    -0.200 F 
ATOM     71  F   UNL A   1      40.575  25.712  25.530  1.00  0.00    -0.200 F 
ENDBRANCH  47  61
BRANCH  48  72
ATOM     72  C   UNL A   1      39.603  34.031  36.932  1.00  0.00     0.064 A 
ATOM     73  C   UNL A   1      38.808  33.617  38.011  1.00  0.00     0.173 A 
ATOM     74  C   UNL A   1      40.242  35.275  37.034  1.00  0.00     0.173 A 
ATOM     75  F   UNL A   1      38.162  32.444  37.955  1.00  0.00    -0.203 F 
ATOM     76  C   UNL A   1      38.639  34.425  39.134  1.00  0.00     0.198 A 
ATOM     77  C   UNL A   1      40.098  36.068  38.172  1.00  0.00     0.198 A 
ATOM     78  F   UNL A   1      41.021  35.714  36.036  1.00  0.00    -0.203 F 
ATOM     79  F   UNL A   1      37.833  34.027  40.127  1.00  0.00    -0.200 F 
ATOM     80  C   UNL A   1      39.288  35.648  39.215  1.00  0.00     0.200 A 
ATOM     81  F   UNL A   1      40.743  37.239  38.254  1.00  0.00    -0.200 F 
ATOM     82  F   UNL A   1      39.128  36.424  40.296  1.00  0.00    -0.200 F 
ENDBRANCH  48  72
BRANCH  60  83
ATOM     83  C   UNL A   1      43.864  28.776  35.232  1.00  0.00     0.064 A 
ATOM     84  C   UNL A   1      45.180  29.225  35.049  1.00  0.00     0.173 A 
ATOM     85  C   UNL A   1      43.646  27.739  36.154  1.00  0.00     0.173 A 
ATOM     86  F   UNL A   1      45.443  30.204  34.170  1.00  0.00    -0.203 F 
ATOM     87  C   UNL A   1      46.236  28.646  35.747  1.00  0.00     0.198 A 
ATOM     88  C   UNL A   1      44.700  27.186  36.874  1.00  0.00     0.198 A 
ATOM     89  F   UNL A   1      42.406  27.278  36.371  1.00  0.00    -0.203 F 
ATOM     90  F   UNL A   1      47.491  29.061  35.523  1.00  0.00    -0.200 F 
ATOM     91  C   UNL A   1      45.995  27.635  36.665  1.00  0.00     0.200 A 
ATOM     92  F   UNL A   1      44.461  26.222  37.773  1.00  0.00    -0.200 F 
ATOM     93  F   UNL A   1      47.011  27.089  37.347  1.00  0.00    -0.200 F 
ENDBRANCH  60  83
ENDBRANCH  34  35
ENDBRANCH  26  29
ENDBRANCH  24  25
ENDBRANCH  23  24
ENDBRANCH   1  23
TORSDOF 13
ENDMDL
MODEL 2
REMARK VINA RESULT:     -12.5      6.809     11.717
REMARK SMILES O=C(NC[C@H]1CCOC1)N[C@H]1C=C[C@@H](C(=O)NCCCNC(=O)c2ccc(-c3c4nc(c(-c5c(F)c(F)c(F)c(F)c5F)c5ccc([nH]5)c(-c5c(F)c(F)c(F)c(F)c5F)c5nc(c(-c6c(F)c(F)c(F)c(F)c6F)c6ccc3[nH]6)C=C5)C=C4)cc2)C1
REMARK SMILES IDX 18 1 17 2 15 3 16 4 14 6 11 7 12 8 87 9 13 10 10 11 1 12
REMARK SMILES IDX 2 13 3 14 4 17 5 18 6 19 9 20 7 21 8 22 19 23 20 24 21 25
REMARK SMILES IDX 22 26 23 28 24 29 25 30 86 31 26 32 85 33 27 34 28 35 29 36
REMARK SMILES IDX 79 37 30 38 84 39 78 40 80 41 31 42 83 43 77 44 76 45 32 47
REMARK SMILES IDX 64 48 44 49 63 50 45 51 48 52 62 53 81 54 46 55 47 56 61 58
REMARK SMILES IDX 82 59 49 60 33 61 34 62 42 63 35 64 36 65 40 66 43 67 37 68
REMARK SMILES IDX 38 69 41 70 39 71 65 72 66 73 74 74 67 75 68 76 72 77 75 78
REMARK SMILES IDX 69 79 70 80 73 81 71 82 50 83 51 84 59 85 52 86 53 87 57 88
REMARK SMILES IDX 60 89 54 90 55 91 58 92 56 93
REMARK H PARENT 17 5 3 15 10 16 21 27 80 46 48 57
REMARK Flexibility Score: inf
ROOT
ATOM      1  C   UNL A   1      37.288  20.681  24.699  1.00  0.00     0.117 C 
ENDROOT
BRANCH   1   2
ATOM      2  N   UNL A   1      37.892  21.944  25.076  1.00  0.00    -0.356 N 
ATOM      3  C   UNL A   1      37.335  23.150  25.370  1.00  0.00     0.227 C 
ATOM      4  O   UNL A   1      38.110  24.062  25.671  1.00  0.00    -0.274 OA
ATOM      5  H   UNL A   1      38.875  21.925  25.129  1.00  0.00     0.163 HD
BRANCH   3   6
ATOM      6  C   UNL A   1      35.825  23.400  25.325  1.00  0.00     0.103 C 
ATOM      7  C   UNL A   1      33.836  22.126  24.644  1.00  0.00     0.107 C 
ATOM      8  C   UNL A   1      34.007  22.150  26.129  1.00  0.00    -0.006 C 
ATOM      9  C   UNL A   1      35.120  22.780  24.112  1.00  0.00     0.047 C 
ATOM     10  C   UNL A   1      35.082  22.854  26.504  1.00  0.00    -0.016 C 
BRANCH   7  11
ATOM     11  N   UNL A   1      33.691  20.753  24.210  1.00  0.00    -0.332 N 
ATOM     12  O   UNL A   1      31.728  20.417  25.317  1.00  0.00    -0.249 OA
ATOM     13  C   UNL A   1      32.620  20.010  24.580  1.00  0.00     0.315 C 
ATOM     14  N   UNL A   1      32.527  18.753  24.094  1.00  0.00    -0.338 N 
ATOM     15  H   UNL A   1      31.771  18.243  24.466  1.00  0.00     0.165 HD
ATOM     16  H   UNL A   1      34.382  20.352  23.635  1.00  0.00     0.165 HD
BRANCH  14  17
ATOM     17  C   UNL A   1      33.315  18.002  23.135  1.00  0.00     0.123 C 
BRANCH  17  18
ATOM     18  C   UNL A   1      34.064  16.812  23.727  1.00  0.00     0.036 C 
ATOM     19  C   UNL A   1      35.193  17.157  24.676  1.00  0.00     0.036 C 
ATOM     20  C   UNL A   1      33.248  15.852  24.577  1.00  0.00     0.165 C 
ATOM     21  C   UNL A   1      35.435  15.831  25.374  1.00  0.00     0.160 C 
ATOM     22  O   UNL A   1      34.201  15.099  25.342  1.00  0.00    -0.381 OA
ENDBRANCH  17  18
ENDBRANCH  14  17
ENDBRANCH   7  11
ENDBRANCH   3   6
ENDBRANCH   1   2
BRANCH   1  23
ATOM     23  C   UNL A   1      38.202  19.501  24.994  1.00  0.00     0.042 C 
BRANCH  23  24
ATOM     24  C   UNL A   1      39.227  19.800  26.076  1.00  0.00     0.118 C 
BRANCH  24  25
ATOM     25  N   UNL A   1      40.445  19.017  25.909  1.00  0.00    -0.352 N 
ATOM     26  C   UNL A   1      41.757  19.418  25.958  1.00  0.00     0.251 C 
ATOM     27  H   UNL A   1      40.306  18.057  25.737  1.00  0.00     0.163 HD
ATOM     28  O   UNL A   1      42.646  18.664  25.571  1.00  0.00    -0.269 OA
BRANCH  26  29
ATOM     29  C   UNL A   1      42.093  20.767  26.453  1.00  0.00     0.039 A 
ATOM     30  C   UNL A   1      42.214  20.982  27.829  1.00  0.00     0.014 A 
ATOM     31  C   UNL A   1      42.292  21.818  25.557  1.00  0.00     0.014 A 
ATOM     32  C   UNL A   1      42.610  22.236  28.300  1.00  0.00     0.010 A 
ATOM     33  C   UNL A   1      42.778  23.035  26.019  1.00  0.00     0.010 A 
ATOM     34  C   UNL A   1      42.933  23.259  27.396  1.00  0.00    -0.014 A 
BRANCH  34  35
ATOM     35  C   UNL A   1      43.408  24.591  27.846  1.00  0.00     0.031 A 
ATOM     36  C   UNL A   1      42.402  25.657  28.185  1.00  0.00     0.074 A 
ATOM     37  C   UNL A   1      44.725  24.873  27.849  1.00  0.00     0.049 A 
ATOM     38  N   UNL A   1      42.589  26.929  28.427  1.00  0.00    -0.248 NA
ATOM     39  C   UNL A   1      40.991  25.239  28.220  1.00  0.00     0.031 C 
ATOM     40  C   UNL A   1      45.795  23.933  27.513  1.00  0.00     0.029 A 
ATOM     41  N   UNL A   1      45.385  26.045  28.122  1.00  0.00    -0.354 N 
ATOM     42  C   UNL A   1      41.322  27.465  28.613  1.00  0.00     0.074 A 
ATOM     43  C   UNL A   1      40.372  26.395  28.402  1.00  0.00     0.031 C 
ATOM     44  C   UNL A   1      46.978  24.562  27.610  1.00  0.00     0.029 A 
ATOM     45  C   UNL A   1      46.748  25.959  27.963  1.00  0.00     0.049 A 
ATOM     46  H   UNL A   1      44.927  26.869  28.405  1.00  0.00     0.167 HD
ATOM     47  C   UNL A   1      40.983  28.732  28.950  1.00  0.00     0.037 A 
ATOM     48  C   UNL A   1      47.698  26.908  28.070  1.00  0.00     0.037 A 
ATOM     49  C   UNL A   1      41.936  29.783  29.186  1.00  0.00     0.049 A 
ATOM     50  C   UNL A   1      47.294  28.314  28.426  1.00  0.00     0.074 A 
ATOM     51  C   UNL A   1      41.701  31.087  29.582  1.00  0.00     0.029 A 
ATOM     52  N   UNL A   1      43.309  29.648  29.045  1.00  0.00    -0.354 N 
ATOM     53  N   UNL A   1      46.098  28.801  28.649  1.00  0.00    -0.248 NA
ATOM     54  C   UNL A   1      48.374  29.303  28.548  1.00  0.00     0.031 C 
ATOM     55  C   UNL A   1      42.928  31.757  29.629  1.00  0.00     0.029 A 
ATOM     56  C   UNL A   1      43.933  30.853  29.328  1.00  0.00     0.049 A 
ATOM     57  H   UNL A   1      43.772  28.819  28.783  1.00  0.00     0.167 HD
ATOM     58  C   UNL A   1      46.284  30.137  28.980  1.00  0.00     0.074 A 
ATOM     59  C   UNL A   1      47.708  30.384  28.931  1.00  0.00     0.031 C 
ATOM     60  C   UNL A   1      45.357  31.073  29.300  1.00  0.00     0.037 A 
BRANCH  47  61
ATOM     61  C   UNL A   1      39.521  29.050  29.082  1.00  0.00     0.064 A 
ATOM     62  C   UNL A   1      38.865  29.016  30.323  1.00  0.00     0.173 A 
ATOM     63  C   UNL A   1      38.771  29.423  27.956  1.00  0.00     0.173 A 
ATOM     64  F   UNL A   1      39.532  28.653  31.429  1.00  0.00    -0.203 F 
ATOM     65  C   UNL A   1      37.508  29.309  30.425  1.00  0.00     0.198 A 
ATOM     66  C   UNL A   1      37.422  29.751  28.068  1.00  0.00     0.198 A 
ATOM     67  F   UNL A   1      39.348  29.477  26.746  1.00  0.00    -0.203 F 
ATOM     68  F   UNL A   1      36.891  29.212  31.611  1.00  0.00    -0.200 F 
ATOM     69  C   UNL A   1      36.790  29.683  29.300  1.00  0.00     0.200 A 
ATOM     70  F   UNL A   1      36.733  30.128  26.982  1.00  0.00    -0.200 F 
ATOM     71  F   UNL A   1      35.485  29.974  29.402  1.00  0.00    -0.200 F 
ENDBRANCH  47  61
BRANCH  48  72
ATOM     72  C   UNL A   1      49.127  26.559  27.850  1.00  0.00     0.064 A 
ATOM     73  C   UNL A   1      49.641  26.415  26.553  1.00  0.00     0.173 A 
ATOM     74  C   UNL A   1      50.004  26.348  28.925  1.00  0.00     0.173 A 
ATOM     75  F   UNL A   1      48.838  26.590  25.494  1.00  0.00    -0.203 F 
ATOM     76  C   UNL A   1      50.969  26.051  26.339  1.00  0.00     0.198 A 
ATOM     77  C   UNL A   1      51.341  26.015  28.709  1.00  0.00     0.198 A 
ATOM     78  F   UNL A   1      49.568  26.481  30.185  1.00  0.00    -0.203 F 
ATOM     79  F   UNL A   1      51.418  25.872  25.090  1.00  0.00    -0.200 F 
ATOM     80  C   UNL A   1      51.819  25.855  27.418  1.00  0.00     0.200 A 
ATOM     81  F   UNL A   1      52.163  25.847  29.753  1.00  0.00    -0.200 F 
ATOM     82  F   UNL A   1      53.097  25.509  27.212  1.00  0.00    -0.200 F 
ENDBRANCH  48  72
BRANCH  60  83
ATOM     83  C   UNL A   1      45.852  32.435  29.694  1.00  0.00     0.064 A 
ATOM     84  C   UNL A   1      46.221  32.740  31.012  1.00  0.00     0.173 A 
ATOM     85  C   UNL A   1      46.017  33.432  28.718  1.00  0.00     0.173 A 
ATOM     86  F   UNL A   1      46.069  31.827  31.983  1.00  0.00    -0.203 F 
ATOM     87  C   UNL A   1      46.718  33.998  31.342  1.00  0.00     0.198 A 
ATOM     88  C   UNL A   1      46.546  34.676  29.046  1.00  0.00     0.198 A 
ATOM     89  F   UNL A   1      45.686  33.189  27.441  1.00  0.00    -0.203 F 
ATOM     90  F   UNL A   1      47.023  34.281  32.616  1.00  0.00    -0.200 F 
ATOM     91  C   UNL A   1      46.890  34.961  30.358  1.00  0.00     0.200 A 
ATOM     92  F   UNL A   1      46.727  35.598  28.090  1.00  0.00    -0.200 F 
ATOM     93  F   UNL A   1      47.383  36.165  30.676  1.00  0.00    -0.200 F 
ENDBRANCH  60  83
ENDBRANCH  34  35
ENDBRANCH  26  29
ENDBRANCH  24  25
ENDBRANCH  23  24
ENDBRANCH   1  23
TORSDOF 13
ENDMDL
MODEL 3
REMARK VINA RESULT:     -12.5      0.594      2.114
REMARK SMILES O=C(NC[C@H]1CCOC1)N[C@H]1C=C[C@@H](C(=O)NCCCNC(=O)c2ccc(-c3c4nc(c(-c5c(F)c(F)c(F)c(F)c5F)c5ccc([nH]5)c(-c5c(F)c(F)c(F)c(F)c5F)c5nc(c(-c6c(F)c(F)c(F)c(F)c6F)c6ccc3[nH]6)C=C5)C=C4)cc2)C1
REMARK SMILES IDX 18 1 17 2 15 3 16 4 14 6 11 7 12 8 87 9 13 10 10 11 1 12
REMARK SMILES IDX 2 13 3 14 4 17 5 18 6 19 9 20 7 21 8 22 19 23 20 24 21 25
REMARK SMILES IDX 22 26 23 28 24 29 25 30 86 31 26 32 85 33 27 34 28 35 29 36
REMARK SMILES IDX 79 37 30 38 84 39 78 40 80 41 31 42 83 43 77 44 76 45 32 47
REMARK SMILES IDX 64 48 44 49 63 50 45 51 48 52 62 53 81 54 46 55 47 56 61 58
REMARK SMILES IDX 82 59 49 60 33 61 34 62 42 63 35 64 36 65 40 66 43 67 37 68
REMARK SMILES IDX 38 69 41 70 39 71 65 72 66 73 74 74 67 75 68 76 72 77 75 78
REMARK SMILES IDX 69 79 70 80 73 81 71 82 50 83 51 84 59 85 52 86 53 87 57 88
REMARK SMILES IDX 60 89 54 90 55 91 58 92 56 93
REMARK H PARENT 17 5 3 15 10 16 21 27 80 46 48 57
REMARK Flexibility Score: inf
ROOT
ATOM      1  C   UNL A   1      31.728  30.478  26.760  1.00  0.00     0.117 C 
ENDROOT
BRANCH   1   2
ATOM      2  N   UNL A   1      33.039  30.148  27.282  1.00  0.00    -0.356 N 
ATOM      3  C   UNL A   1      33.912  29.160  26.947  1.00  0.00     0.227 C 
ATOM      4  O   UNL A   1      34.979  29.125  27.567  1.00  0.00    -0.274 OA
ATOM      5  H   UNL A   1      33.351  30.741  28.003  1.00  0.00     0.163 HD
BRANCH   3   6
ATOM      6  C   UNL A   1      33.611  28.117  25.867  1.00  0.00     0.103 C 
ATOM      7  C   UNL A   1      31.773  27.668  24.298  1.00  0.00     0.107 C 
ATOM      8  C   UNL A   1      32.933  28.332  23.629  1.00  0.00    -0.006 C 
ATOM      9  C   UNL A   1      32.138  27.697  25.790  1.00  0.00     0.047 C 
ATOM     10  C   UNL A   1      33.941  28.566  24.477  1.00  0.00    -0.016 C 
BRANCH   7  11
ATOM     11  N   UNL A   1      30.570  28.418  24.006  1.00  0.00    -0.332 N 
ATOM     12  O   UNL A   1      30.514  27.826  21.806  1.00  0.00    -0.249 OA
ATOM     13  C   UNL A   1      30.028  28.418  22.765  1.00  0.00     0.315 C 
ATOM     14  N   UNL A   1      28.875  29.099  22.580  1.00  0.00    -0.338 N 
ATOM     15  H   UNL A   1      28.582  29.126  21.641  1.00  0.00     0.165 HD
ATOM     16  H   UNL A   1      30.137  28.936  24.723  1.00  0.00     0.165 HD
BRANCH  14  17
ATOM     17  C   UNL A   1      27.985  29.799  23.485  1.00  0.00     0.123 C 
BRANCH  17  18
ATOM     18  C   UNL A   1      27.909  31.307  23.257  1.00  0.00     0.036 C 
ATOM     19  C   UNL A   1      29.087  32.106  23.776  1.00  0.00     0.036 C 
ATOM     20  C   UNL A   1      27.852  31.771  21.812  1.00  0.00     0.165 C 
ATOM     21  C   UNL A   1      28.912  33.430  23.055  1.00  0.00     0.160 C 
ATOM     22  O   UNL A   1      28.209  33.161  21.833  1.00  0.00    -0.381 OA
ENDBRANCH  17  18
ENDBRANCH  14  17
ENDBRANCH   7  11
ENDBRANCH   3   6
ENDBRANCH   1   2
BRANCH   1  23
ATOM     23  C   UNL A   1      31.427  31.965  26.875  1.00  0.00     0.042 C 
BRANCH  23  24
ATOM     24  C   UNL A   1      32.681  32.825  26.904  1.00  0.00     0.118 C 
BRANCH  24  25
ATOM     25  N   UNL A   1      32.457  34.099  27.575  1.00  0.00    -0.352 N 
ATOM     26  C   UNL A   1      33.075  34.627  28.681  1.00  0.00     0.251 C 
ATOM     27  H   UNL A   1      31.758  34.666  27.174  1.00  0.00     0.163 HD
ATOM     28  O   UNL A   1      32.603  35.614  29.238  1.00  0.00    -0.269 OA
BRANCH  26  29
ATOM     29  C   UNL A   1      34.296  33.990  29.211  1.00  0.00     0.039 A 
ATOM     30  C   UNL A   1      35.547  34.472  28.817  1.00  0.00     0.014 A 
ATOM     31  C   UNL A   1      34.204  32.920  30.102  1.00  0.00     0.014 A 
ATOM     32  C   UNL A   1      36.706  33.927  29.376  1.00  0.00     0.010 A 
ATOM     33  C   UNL A   1      35.348  32.444  30.728  1.00  0.00     0.010 A 
ATOM     34  C   UNL A   1      36.611  32.936  30.365  1.00  0.00    -0.014 A 
BRANCH  34  35
ATOM     35  C   UNL A   1      37.810  32.363  31.026  1.00  0.00     0.031 A 
ATOM     36  C   UNL A   1      38.576  31.264  30.342  1.00  0.00     0.074 A 
ATOM     37  C   UNL A   1      38.145  32.751  32.272  1.00  0.00     0.049 A 
ATOM     38  N   UNL A   1      39.535  30.506  30.806  1.00  0.00    -0.248 NA
ATOM     39  C   UNL A   1      38.180  30.953  28.958  1.00  0.00     0.031 C 
ATOM     40  C   UNL A   1      37.464  33.786  33.051  1.00  0.00     0.029 A 
ATOM     41  N   UNL A   1      39.132  32.298  33.112  1.00  0.00    -0.354 N 
ATOM     42  C   UNL A   1      39.836  29.614  29.785  1.00  0.00     0.074 A 
ATOM     43  C   UNL A   1      38.921  29.888  28.698  1.00  0.00     0.031 C 
ATOM     44  C   UNL A   1      38.059  33.896  34.250  1.00  0.00     0.029 A 
ATOM     45  C   UNL A   1      39.128  32.907  34.344  1.00  0.00     0.049 A 
ATOM     46  H   UNL A   1      39.781  31.604  32.857  1.00  0.00     0.167 HD
ATOM     47  C   UNL A   1      40.802  28.666  29.750  1.00  0.00     0.037 A 
ATOM     48  C   UNL A   1      39.887  32.675  35.432  1.00  0.00     0.037 A 
ATOM     49  C   UNL A   1      41.726  28.420  30.825  1.00  0.00     0.049 A 
ATOM     50  C   UNL A   1      40.941  31.601  35.375  1.00  0.00     0.074 A 
ATOM     51  C   UNL A   1      42.774  27.519  30.871  1.00  0.00     0.029 A 
ATOM     52  N   UNL A   1      41.708  29.079  32.045  1.00  0.00    -0.354 N 
ATOM     53  N   UNL A   1      41.252  30.797  34.388  1.00  0.00    -0.248 NA
ATOM     54  C   UNL A   1      41.755  31.405  36.584  1.00  0.00     0.031 C 
ATOM     55  C   UNL A   1      43.359  27.596  32.139  1.00  0.00     0.029 A 
ATOM     56  C   UNL A   1      42.718  28.590  32.859  1.00  0.00     0.049 A 
ATOM     57  H   UNL A   1      41.074  29.789  32.296  1.00  0.00     0.167 HD
ATOM     58  C   UNL A   1      42.321  30.032  34.839  1.00  0.00     0.074 A 
ATOM     59  C   UNL A   1      42.607  30.471  36.187  1.00  0.00     0.031 C 
ATOM     60  C   UNL A   1      43.005  29.058  34.191  1.00  0.00     0.037 A 
BRANCH  47  61
ATOM     61  C   UNL A   1      40.907  27.825  28.511  1.00  0.00     0.064 A 
ATOM     62  C   UNL A   1      41.708  28.207  27.423  1.00  0.00     0.173 A 
ATOM     63  C   UNL A   1      40.220  26.605  28.420  1.00  0.00     0.173 A 
ATOM     64  F   UNL A   1      42.376  29.370  27.451  1.00  0.00    -0.203 F 
ATOM     65  C   UNL A   1      41.788  27.416  26.279  1.00  0.00     0.198 A 
ATOM     66  C   UNL A   1      40.332  25.799  27.290  1.00  0.00     0.198 A 
ATOM     67  F   UNL A   1      39.444  26.188  29.432  1.00  0.00    -0.203 F 
ATOM     68  F   UNL A   1      42.514  27.831  25.230  1.00  0.00    -0.200 F 
ATOM     69  C   UNL A   1      41.108  26.210  26.217  1.00  0.00     0.200 A 
ATOM     70  F   UNL A   1      39.686  24.626  27.238  1.00  0.00    -0.200 F 
ATOM     71  F   UNL A   1      41.194  25.446  25.119  1.00  0.00    -0.200 F 
ENDBRANCH  47  61
BRANCH  48  72
ATOM     72  C   UNL A   1      39.690  33.483  36.665  1.00  0.00     0.064 A 
ATOM     73  C   UNL A   1      40.418  34.664  36.874  1.00  0.00     0.173 A 
ATOM     74  C   UNL A   1      38.785  33.091  37.663  1.00  0.00     0.173 A 
ATOM     75  F   UNL A   1      41.307  35.072  35.958  1.00  0.00    -0.203 F 
ATOM     76  C   UNL A   1      40.266  35.407  38.043  1.00  0.00     0.198 A 
ATOM     77  C   UNL A   1      38.611  33.853  38.817  1.00  0.00     0.198 A 
ATOM     78  F   UNL A   1      38.057  31.977  37.510  1.00  0.00    -0.203 F 
ATOM     79  F   UNL A   1      41.012  36.503  38.238  1.00  0.00    -0.200 F 
ATOM     80  C   UNL A   1      39.360  35.003  39.012  1.00  0.00     0.200 A 
ATOM     81  F   UNL A   1      37.720  33.470  39.741  1.00  0.00    -0.200 F 
ATOM     82  F   UNL A   1      39.212  35.720  40.134  1.00  0.00    -0.200 F 
ENDBRANCH  48  72
BRANCH  60  83
ATOM     83  C   UNL A   1      44.179  28.444  34.899  1.00  0.00     0.064 A 
ATOM     84  C   UNL A   1      44.057  27.279  35.669  1.00  0.00     0.173 A 
ATOM     85  C   UNL A   1      45.460  29.002  34.749  1.00  0.00     0.173 A 
ATOM     86  F   UNL A   1      42.854  26.715  35.854  1.00  0.00    -0.203 F 
ATOM     87  C   UNL A   1      45.170  26.706  36.279  1.00  0.00     0.198 A 
ATOM     88  C   UNL A   1      46.574  28.406  35.332  1.00  0.00     0.198 A 
ATOM     89  F   UNL A   1      45.632  30.112  34.017  1.00  0.00    -0.203 F 
ATOM     90  F   UNL A   1      45.023  25.616  37.046  1.00  0.00    -0.200 F 
ATOM     91  C   UNL A   1      46.427  27.263  36.102  1.00  0.00     0.200 A 
ATOM     92  F   UNL A   1      47.790  28.938  35.145  1.00  0.00    -0.200 F 
ATOM     93  F   UNL A   1      47.499  26.700  36.677  1.00  0.00    -0.200 F 
ENDBRANCH  60  83
ENDBRANCH  34  35
ENDBRANCH  26  29
ENDBRANCH  24  25
ENDBRANCH  23  24
ENDBRANCH   1  23
TORSDOF 13
ENDMDL
