MODEL 1
REMARK VINA RESULT:     -12.7      0.000      0.000
REMARK SMILES C[C@](C(=O)NCCCNC(=O)c1ccc(-c2c3nc(c(-c4c(F)c(F)c(F)c(F)c4F)c4ccc([nH]4)c(-c4c(F)c(F)c(F)c(F)c4F)c4nc(c(-c5c(F)c(F)c(F)c(F)c5F)c5ccc2[nH]5)C=C4)C=C3)cc1)(c1cc(F)cc(F)c1)[NH+]1CCCC1
REMARK SMILES IDX 7 1 6 2 5 3 3 4 4 5 2 7 1 8 75 9 76 10 82 11 77 12 80 13
REMARK SMILES IDX 78 14 79 15 81 16 83 17 84 18 87 19 85 21 86 22 8 23 9 24
REMARK SMILES IDX 10 25 11 27 12 28 13 29 74 30 14 31 73 32 15 33 16 34 17 35
REMARK SMILES IDX 67 36 18 37 72 38 66 39 68 40 19 41 71 42 65 43 64 44 20 46
REMARK SMILES IDX 52 47 32 48 51 49 33 50 36 51 50 52 69 53 34 54 35 55 49 57
REMARK SMILES IDX 70 58 37 59 21 60 22 61 30 62 23 63 24 64 28 65 31 66 25 67
REMARK SMILES IDX 26 68 29 69 27 70 53 71 54 72 62 73 55 74 56 75 60 76 63 77
REMARK SMILES IDX 57 78 58 79 61 80 59 81 38 82 39 83 47 84 40 85 41 86 45 87
REMARK SMILES IDX 48 88 42 89 43 90 46 91 44 92
REMARK H PARENT 5 6 83 20 9 26 68 45 36 56
REMARK Flexibility Score: inf
ROOT
ATOM      1  C   UNL A   1      31.487  32.116  26.675  1.00  0.00     0.042 C 
ENDROOT
BRANCH   1   2
ATOM      2  C   UNL A   1      31.809  30.758  26.077  1.00  0.00     0.118 C 
BRANCH   2   3
ATOM      3  N   UNL A   1      31.477  29.664  26.976  1.00  0.00    -0.350 N 
ATOM      4  C   UNL A   1      31.867  28.351  27.006  1.00  0.00     0.286 C 
ATOM      5  O   UNL A   1      31.536  27.748  28.035  1.00  0.00    -0.267 OA
ATOM      6  H   UNL A   1      30.856  29.914  27.697  1.00  0.00     0.163 HD
BRANCH   4   7
ATOM      7  C   UNL A   1      32.671  27.660  25.811  1.00  0.00     0.200 C 
ATOM      8  C   UNL A   1      34.060  28.357  25.787  1.00  0.00     0.096 C 
BRANCH   7   9
ATOM      9  C   UNL A   1      32.834  26.130  25.997  1.00  0.00     0.028 A 
ATOM     10  C   UNL A   1      34.037  25.490  25.647  1.00  0.00     0.050 A 
ATOM     11  C   UNL A   1      31.794  25.306  26.476  1.00  0.00     0.050 A 
ATOM     12  C   UNL A   1      34.193  24.112  25.809  1.00  0.00     0.126 A 
ATOM     13  C   UNL A   1      31.989  23.940  26.680  1.00  0.00     0.126 A 
ATOM     14  F   UNL A   1      35.342  23.536  25.435  1.00  0.00    -0.207 F 
ATOM     15  C   UNL A   1      33.184  23.331  26.347  1.00  0.00     0.078 A 
ATOM     16  F   UNL A   1      31.001  23.212  27.217  1.00  0.00    -0.207 F 
ENDBRANCH   7   9
BRANCH   7  17
ATOM     17  N   UNL A   1      31.922  27.976  24.569  1.00  0.00    -0.319 N 
ATOM     18  C   UNL A   1      30.562  27.487  24.401  1.00  0.00     0.263 C 
ATOM     19  C   UNL A   1      32.528  28.098  23.260  1.00  0.00     0.263 C 
ATOM     20  H   UNL A   1      31.946  28.925  24.942  1.00  0.00     0.349 HD
ATOM     21  C   UNL A   1      30.654  26.556  23.200  1.00  0.00     0.067 C 
ATOM     22  C   UNL A   1      31.855  27.041  22.400  1.00  0.00     0.067 C 
ENDBRANCH   7  17
ENDBRANCH   4   7
ENDBRANCH   2   3
ENDBRANCH   1   2
BRANCH   1  23
ATOM     23  C   UNL A   1      32.687  32.800  27.315  1.00  0.00     0.118 C 
BRANCH  23  24
ATOM     24  N   UNL A   1      32.432  34.194  27.656  1.00  0.00    -0.352 N 
ATOM     25  C   UNL A   1      32.999  34.998  28.617  1.00  0.00     0.251 C 
ATOM     26  H   UNL A   1      31.741  34.632  27.108  1.00  0.00     0.163 HD
ATOM     27  O   UNL A   1      32.517  36.096  28.857  1.00  0.00    -0.269 OA
BRANCH  25  28
ATOM     28  C   UNL A   1      34.174  34.526  29.382  1.00  0.00     0.039 A 
ATOM     29  C   UNL A   1      33.979  33.972  30.650  1.00  0.00     0.014 A 
ATOM     30  C   UNL A   1      35.462  34.625  28.854  1.00  0.00     0.014 A 
ATOM     31  C   UNL A   1      35.066  33.440  31.348  1.00  0.00     0.010 A 
ATOM     32  C   UNL A   1      36.522  33.999  29.499  1.00  0.00     0.010 A 
ATOM     33  C   UNL A   1      36.338  33.404  30.756  1.00  0.00    -0.014 A 
BRANCH  33  34
ATOM     34  C   UNL A   1      37.494  32.757  31.428  1.00  0.00     0.031 A 
ATOM     35  C   UNL A   1      38.204  31.610  30.764  1.00  0.00     0.074 A 
ATOM     36  C   UNL A   1      37.847  33.145  32.669  1.00  0.00     0.049 A 
ATOM     37  N   UNL A   1      39.161  30.846  31.227  1.00  0.00    -0.248 NA
ATOM     38  C   UNL A   1      37.755  31.249  29.409  1.00  0.00     0.031 C 
ATOM     39  C   UNL A   1      37.202  34.206  33.444  1.00  0.00     0.029 A 
ATOM     40  N   UNL A   1      38.833  32.680  33.506  1.00  0.00    -0.354 N 
ATOM     41  C   UNL A   1      39.409  29.907  30.235  1.00  0.00     0.074 A 
ATOM     42  C   UNL A   1      38.462  30.156  29.170  1.00  0.00     0.031 C 
ATOM     43  C   UNL A   1      37.822  34.329  34.628  1.00  0.00     0.029 A 
ATOM     44  C   UNL A   1      38.880  33.328  34.717  1.00  0.00     0.049 A 
ATOM     45  H   UNL A   1      39.447  31.950  33.261  1.00  0.00     0.167 HD
ATOM     46  C   UNL A   1      40.356  28.940  30.203  1.00  0.00     0.037 A 
ATOM     47  C   UNL A   1      39.680  33.131  35.780  1.00  0.00     0.037 A 
ATOM     48  C   UNL A   1      41.319  28.720  31.249  1.00  0.00     0.049 A 
ATOM     49  C   UNL A   1      40.730  32.054  35.717  1.00  0.00     0.074 A 
ATOM     50  C   UNL A   1      42.362  27.812  31.285  1.00  0.00     0.029 A 
ATOM     51  N   UNL A   1      41.354  29.419  32.447  1.00  0.00    -0.354 N 
ATOM     52  N   UNL A   1      41.000  31.217  34.745  1.00  0.00    -0.248 NA
ATOM     53  C   UNL A   1      41.592  31.898  36.897  1.00  0.00     0.031 C 
ATOM     54  C   UNL A   1      43.001  27.930  32.524  1.00  0.00     0.029 A 
ATOM     55  C   UNL A   1      42.391  28.948  33.238  1.00  0.00     0.049 A 
ATOM     56  H   UNL A   1      40.736  30.142  32.699  1.00  0.00     0.167 HD
ATOM     57  C   UNL A   1      42.079  30.461  35.179  1.00  0.00     0.074 A 
ATOM     58  C   UNL A   1      42.424  30.946  36.500  1.00  0.00     0.031 C 
ATOM     59  C   UNL A   1      42.728  29.454  34.543  1.00  0.00     0.037 A 
BRANCH  46  60
ATOM     60  C   UNL A   1      40.407  28.054  28.992  1.00  0.00     0.064 A 
ATOM     61  C   UNL A   1      39.689  26.849  28.931  1.00  0.00     0.173 A 
ATOM     62  C   UNL A   1      41.153  28.429  27.864  1.00  0.00     0.173 A 
ATOM     63  F   UNL A   1      38.970  26.436  29.985  1.00  0.00    -0.203 F 
ATOM     64  C   UNL A   1      39.742  26.040  27.799  1.00  0.00     0.198 A 
ATOM     65  C   UNL A   1      41.176  27.634  26.722  1.00  0.00     0.198 A 
ATOM     66  F   UNL A   1      41.853  29.574  27.867  1.00  0.00    -0.203 F 
ATOM     67  F   UNL A   1      39.091  24.868  27.785  1.00  0.00    -0.200 F 
ATOM     68  C   UNL A   1      40.478  26.436  26.693  1.00  0.00     0.200 A 
ATOM     69  F   UNL A   1      41.877  28.026  25.649  1.00  0.00    -0.200 F 
ATOM     70  F   UNL A   1      40.519  25.661  25.600  1.00  0.00    -0.200 F 
ENDBRANCH  46  60
BRANCH  47  71
ATOM     71  C   UNL A   1      39.540  33.987  36.988  1.00  0.00     0.064 A 
ATOM     72  C   UNL A   1      38.778  33.561  38.086  1.00  0.00     0.173 A 
ATOM     73  C   UNL A   1      40.152  35.246  37.068  1.00  0.00     0.173 A 
ATOM     74  F   UNL A   1      38.158  32.373  38.049  1.00  0.00    -0.203 F 
ATOM     75  C   UNL A   1      38.614  34.372  39.207  1.00  0.00     0.198 A 
ATOM     76  C   UNL A   1      40.012  36.043  38.203  1.00  0.00     0.198 A 
ATOM     77  F   UNL A   1      40.896  35.698  36.049  1.00  0.00    -0.203 F 
ATOM     78  F   UNL A   1      37.841  33.961  40.220  1.00  0.00    -0.200 F 
ATOM     79  C   UNL A   1      39.236  35.610  39.267  1.00  0.00     0.200 A 
ATOM     80  F   UNL A   1      40.627  37.232  38.263  1.00  0.00    -0.200 F 
ATOM     81  F   UNL A   1      39.080  36.388  40.346  1.00  0.00    -0.200 F 
ENDBRANCH  47  71
BRANCH  59  82
ATOM     82  C   UNL A   1      43.904  28.840  35.246  1.00  0.00     0.064 A 
ATOM     83  C   UNL A   1      45.207  29.329  35.071  1.00  0.00     0.173 A 
ATOM     84  C   UNL A   1      43.715  27.776  36.141  1.00  0.00     0.173 A 
ATOM     85  F   UNL A   1      45.441  30.335  34.215  1.00  0.00    -0.203 F 
ATOM     86  C   UNL A   1      46.281  28.758  35.749  1.00  0.00     0.198 A 
ATOM     87  C   UNL A   1      44.787  27.229  36.840  1.00  0.00     0.198 A 
ATOM     88  F   UNL A   1      42.487  27.276  36.350  1.00  0.00    -0.203 F 
ATOM     89  F   UNL A   1      47.524  29.209  35.530  1.00  0.00    -0.200 F 
ATOM     90  C   UNL A   1      46.070  27.715  36.639  1.00  0.00     0.200 A 
ATOM     91  F   UNL A   1      44.578  26.232  37.711  1.00  0.00    -0.200 F 
ATOM     92  F   UNL A   1      47.104  27.173  37.296  1.00  0.00    -0.200 F 
ENDBRANCH  59  82
ENDBRANCH  33  34
ENDBRANCH  25  28
ENDBRANCH  23  24
ENDBRANCH   1  23
TORSDOF 12
ENDMDL
MODEL 2
REMARK VINA RESULT:     -12.7      0.099      1.143
REMARK SMILES C[C@](C(=O)NCCCNC(=O)c1ccc(-c2c3nc(c(-c4c(F)c(F)c(F)c(F)c4F)c4ccc([nH]4)c(-c4c(F)c(F)c(F)c(F)c4F)c4nc(c(-c5c(F)c(F)c(F)c(F)c5F)c5ccc2[nH]5)C=C4)C=C3)cc1)(c1cc(F)cc(F)c1)[NH+]1CCCC1
REMARK SMILES IDX 7 1 6 2 5 3 3 4 4 5 2 7 1 8 75 9 76 10 82 11 77 12 80 13
REMARK SMILES IDX 78 14 79 15 81 16 83 17 84 18 87 19 85 21 86 22 8 23 9 24
REMARK SMILES IDX 10 25 11 27 12 28 13 29 74 30 14 31 73 32 15 33 16 34 17 35
REMARK SMILES IDX 67 36 18 37 72 38 66 39 68 40 19 41 71 42 65 43 64 44 20 46
REMARK SMILES IDX 52 47 32 48 51 49 33 50 36 51 50 52 69 53 34 54 35 55 49 57
REMARK SMILES IDX 70 58 37 59 21 60 22 61 30 62 23 63 24 64 28 65 31 66 25 67
REMARK SMILES IDX 26 68 29 69 27 70 53 71 54 72 62 73 55 74 56 75 60 76 63 77
REMARK SMILES IDX 57 78 58 79 61 80 59 81 38 82 39 83 47 84 40 85 41 86 45 87
REMARK SMILES IDX 48 88 42 89 43 90 46 91 44 92
REMARK H PARENT 5 6 83 20 9 26 68 45 36 56
REMARK Flexibility Score: inf
ROOT
ATOM      1  C   UNL A   1      31.470  32.147  26.606  1.00  0.00     0.042 C 
ENDROOT
BRANCH   1   2
ATOM      2  C   UNL A   1      31.793  30.779  26.031  1.00  0.00     0.118 C 
BRANCH   2   3
ATOM      3  N   UNL A   1      31.471  29.700  26.952  1.00  0.00    -0.350 N 
ATOM      4  C   UNL A   1      31.869  28.391  27.006  1.00  0.00     0.286 C 
ATOM      5  O   UNL A   1      31.546  27.806  28.048  1.00  0.00    -0.267 OA
ATOM      6  H   UNL A   1      30.851  29.961  27.671  1.00  0.00     0.163 HD
BRANCH   4   7
ATOM      7  C   UNL A   1      32.673  27.681  25.821  1.00  0.00     0.200 C 
ATOM      8  C   UNL A   1      34.071  28.360  25.804  1.00  0.00     0.096 C 
BRANCH   7   9
ATOM      9  C   UNL A   1      32.813  26.151  26.018  1.00  0.00     0.028 A 
ATOM     10  C   UNL A   1      34.014  25.495  25.691  1.00  0.00     0.050 A 
ATOM     11  C   UNL A   1      31.755  25.342  26.483  1.00  0.00     0.050 A 
ATOM     12  C   UNL A   1      34.150  24.116  25.862  1.00  0.00     0.126 A 
ATOM     13  C   UNL A   1      31.929  23.975  26.697  1.00  0.00     0.126 A 
ATOM     14  F   UNL A   1      35.298  23.523  25.511  1.00  0.00    -0.207 F 
ATOM     15  C   UNL A   1      33.123  23.350  26.387  1.00  0.00     0.078 A 
ATOM     16  F   UNL A   1      30.924  23.262  27.220  1.00  0.00    -0.207 F 
ENDBRANCH   7   9
BRANCH   7  17
ATOM     17  N   UNL A   1      31.938  28.001  24.572  1.00  0.00    -0.319 N 
ATOM     18  C   UNL A   1      30.583  27.503  24.383  1.00  0.00     0.263 C 
ATOM     19  C   UNL A   1      32.559  28.134  23.271  1.00  0.00     0.263 C 
ATOM     20  H   UNL A   1      31.950  28.948  24.951  1.00  0.00     0.349 HD
ATOM     21  C   UNL A   1      30.697  26.580  23.178  1.00  0.00     0.067 C 
ATOM     22  C   UNL A   1      31.904  27.078  22.396  1.00  0.00     0.067 C 
ENDBRANCH   7  17
ENDBRANCH   4   7
ENDBRANCH   2   3
ENDBRANCH   1   2
BRANCH   1  23
ATOM     23  C   UNL A   1      32.641  32.793  27.334  1.00  0.00     0.118 C 
BRANCH  23  24
ATOM     24  N   UNL A   1      32.400  34.191  27.670  1.00  0.00    -0.352 N 
ATOM     25  C   UNL A   1      32.982  34.995  28.622  1.00  0.00     0.251 C 
ATOM     26  H   UNL A   1      31.707  34.632  27.126  1.00  0.00     0.163 HD
ATOM     27  O   UNL A   1      32.511  36.098  28.861  1.00  0.00    -0.269 OA
BRANCH  25  28
ATOM     28  C   UNL A   1      34.159  34.517  29.380  1.00  0.00     0.039 A 
ATOM     29  C   UNL A   1      33.971  33.981  30.656  1.00  0.00     0.014 A 
ATOM     30  C   UNL A   1      35.443  34.595  28.837  1.00  0.00     0.014 A 
ATOM     31  C   UNL A   1      35.059  33.443  31.348  1.00  0.00     0.010 A 
ATOM     32  C   UNL A   1      36.502  33.964  29.477  1.00  0.00     0.010 A 
ATOM     33  C   UNL A   1      36.325  33.385  30.742  1.00  0.00    -0.014 A 
BRANCH  33  34
ATOM     34  C   UNL A   1      37.480  32.731  31.409  1.00  0.00     0.031 A 
ATOM     35  C   UNL A   1      38.171  31.570  30.749  1.00  0.00     0.074 A 
ATOM     36  C   UNL A   1      37.851  33.128  32.643  1.00  0.00     0.049 A 
ATOM     37  N   UNL A   1      39.123  30.801  31.210  1.00  0.00    -0.248 NA
ATOM     38  C   UNL A   1      37.703  31.201  29.403  1.00  0.00     0.031 C 
ATOM     39  C   UNL A   1      37.225  34.204  33.413  1.00  0.00     0.029 A 
ATOM     40  N   UNL A   1      38.839  32.660  33.474  1.00  0.00    -0.354 N 
ATOM     41  C   UNL A   1      39.350  29.849  30.225  1.00  0.00     0.074 A 
ATOM     42  C   UNL A   1      38.396  30.098  29.167  1.00  0.00     0.031 C 
ATOM     43  C   UNL A   1      37.859  34.332  34.589  1.00  0.00     0.029 A 
ATOM     44  C   UNL A   1      38.906  33.320  34.677  1.00  0.00     0.049 A 
ATOM     45  H   UNL A   1      39.443  31.921  33.230  1.00  0.00     0.167 HD
ATOM     46  C   UNL A   1      40.287  28.871  30.193  1.00  0.00     0.037 A 
ATOM     47  C   UNL A   1      39.716  33.124  35.735  1.00  0.00     0.037 A 
ATOM     48  C   UNL A   1      41.258  28.650  31.232  1.00  0.00     0.049 A 
ATOM     49  C   UNL A   1      40.753  32.035  35.671  1.00  0.00     0.074 A 
ATOM     50  C   UNL A   1      42.291  27.731  31.266  1.00  0.00     0.029 A 
ATOM     51  N   UNL A   1      41.313  29.361  32.422  1.00  0.00    -0.354 N 
ATOM     52  N   UNL A   1      41.004  31.185  34.705  1.00  0.00    -0.248 NA
ATOM     53  C   UNL A   1      41.625  31.881  36.844  1.00  0.00     0.031 C 
ATOM     54  C   UNL A   1      42.944  27.854  32.497  1.00  0.00     0.029 A 
ATOM     55  C   UNL A   1      42.353  28.886  33.207  1.00  0.00     0.049 A 
ATOM     56  H   UNL A   1      40.705  30.093  32.673  1.00  0.00     0.167 HD
ATOM     57  C   UNL A   1      42.078  30.422  35.136  1.00  0.00     0.074 A 
ATOM     58  C   UNL A   1      42.442  30.916  36.448  1.00  0.00     0.031 C 
ATOM     59  C   UNL A   1      42.709  29.401  34.504  1.00  0.00     0.037 A 
BRANCH  46  60
ATOM     60  C   UNL A   1      40.315  27.972  28.991  1.00  0.00     0.064 A 
ATOM     61  C   UNL A   1      41.068  28.292  27.849  1.00  0.00     0.173 A 
ATOM     62  C   UNL A   1      39.610  26.759  28.991  1.00  0.00     0.173 A 
ATOM     63  F   UNL A   1      41.749  29.446  27.791  1.00  0.00    -0.203 F 
ATOM     64  C   UNL A   1      41.087  27.446  26.744  1.00  0.00     0.198 A 
ATOM     65  C   UNL A   1      39.661  25.900  27.897  1.00  0.00     0.198 A 
ATOM     66  F   UNL A   1      38.880  26.402  30.058  1.00  0.00    -0.203 F 
ATOM     67  F   UNL A   1      41.770  27.799  25.645  1.00  0.00    -0.200 F 
ATOM     68  C   UNL A   1      40.392  26.248  26.771  1.00  0.00     0.200 A 
ATOM     69  F   UNL A   1      38.998  24.735  27.931  1.00  0.00    -0.200 F 
ATOM     70  F   UNL A   1      40.420  25.430  25.709  1.00  0.00    -0.200 F 
ENDBRANCH  46  60
BRANCH  47  71
ATOM     71  C   UNL A   1      39.598  33.994  36.935  1.00  0.00     0.064 A 
ATOM     72  C   UNL A   1      38.831  33.593  38.040  1.00  0.00     0.173 A 
ATOM     73  C   UNL A   1      40.235  35.240  37.002  1.00  0.00     0.173 A 
ATOM     74  F   UNL A   1      38.187  32.418  38.016  1.00  0.00    -0.203 F 
ATOM     75  C   UNL A   1      38.688  34.418  39.154  1.00  0.00     0.198 A 
ATOM     76  C   UNL A   1      40.116  36.050  38.130  1.00  0.00     0.198 A 
ATOM     77  F   UNL A   1      40.985  35.668  35.976  1.00  0.00    -0.203 F 
ATOM     78  F   UNL A   1      37.910  34.032  40.173  1.00  0.00    -0.200 F 
ATOM     79  C   UNL A   1      39.335  35.643  39.200  1.00  0.00     0.200 A 
ATOM     80  F   UNL A   1      40.755  37.227  38.177  1.00  0.00    -0.200 F 
ATOM     81  F   UNL A   1      39.199  36.434  40.273  1.00  0.00    -0.200 F 
ENDBRANCH  47  71
BRANCH  59  82
ATOM     82  C   UNL A   1      43.885  28.781  35.200  1.00  0.00     0.064 A 
ATOM     83  C   UNL A   1      45.185  29.285  35.047  1.00  0.00     0.173 A 
ATOM     84  C   UNL A   1      43.699  27.694  36.069  1.00  0.00     0.173 A 
ATOM     85  F   UNL A   1      45.417  30.314  34.217  1.00  0.00    -0.203 F 
ATOM     86  C   UNL A   1      46.260  28.708  35.719  1.00  0.00     0.198 A 
ATOM     87  C   UNL A   1      44.771  27.140  36.762  1.00  0.00     0.198 A 
ATOM     88  F   UNL A   1      42.475  27.178  36.255  1.00  0.00    -0.203 F 
ATOM     89  F   UNL A   1      47.500  29.175  35.520  1.00  0.00    -0.200 F 
ATOM     90  C   UNL A   1      46.051  27.642  36.582  1.00  0.00     0.200 A 
ATOM     91  F   UNL A   1      44.565  26.121  37.607  1.00  0.00    -0.200 F 
ATOM     92  F   UNL A   1      47.085  27.094  37.234  1.00  0.00    -0.200 F 
ENDBRANCH  59  82
ENDBRANCH  33  34
ENDBRANCH  25  28
ENDBRANCH  23  24
ENDBRANCH   1  23
TORSDOF 12
ENDMDL
MODEL 3
REMARK VINA RESULT:     -12.7      1.563      2.348
REMARK SMILES C[C@](C(=O)NCCCNC(=O)c1ccc(-c2c3nc(c(-c4c(F)c(F)c(F)c(F)c4F)c4ccc([nH]4)c(-c4c(F)c(F)c(F)c(F)c4F)c4nc(c(-c5c(F)c(F)c(F)c(F)c5F)c5ccc2[nH]5)C=C4)C=C3)cc1)(c1cc(F)cc(F)c1)[NH+]1CCCC1
REMARK SMILES IDX 7 1 6 2 5 3 3 4 4 5 2 7 1 8 75 9 76 10 82 11 77 12 80 13
REMARK SMILES IDX 78 14 79 15 81 16 83 17 84 18 87 19 85 21 86 22 8 23 9 24
REMARK SMILES IDX 10 25 11 27 12 28 13 29 74 30 14 31 73 32 15 33 16 34 17 35
REMARK SMILES IDX 67 36 18 37 72 38 66 39 68 40 19 41 71 42 65 43 64 44 20 46
REMARK SMILES IDX 52 47 32 48 51 49 33 50 36 51 50 52 69 53 34 54 35 55 49 57
REMARK SMILES IDX 70 58 37 59 21 60 22 61 30 62 23 63 24 64 28 65 31 66 25 67
REMARK SMILES IDX 26 68 29 69 27 70 53 71 54 72 62 73 55 74 56 75 60 76 63 77
REMARK SMILES IDX 57 78 58 79 61 80 59 81 38 82 39 83 47 84 40 85 41 86 45 87
REMARK SMILES IDX 48 88 42 89 43 90 46 91 44 92
REMARK H PARENT 5 6 83 20 9 26 68 45 36 56
REMARK Flexibility Score: inf
ROOT
ATOM      1  C   UNL A   1      31.566  31.752  26.465  1.00  0.00     0.042 C 
ENDROOT
BRANCH   1   2
ATOM      2  C   UNL A   1      31.810  30.280  26.179  1.00  0.00     0.118 C 
BRANCH   2   3
ATOM      3  N   UNL A   1      32.836  30.076  25.168  1.00  0.00    -0.350 N 
ATOM      4  C   UNL A   1      33.024  29.087  24.240  1.00  0.00     0.286 C 
ATOM      5  O   UNL A   1      33.905  29.336  23.406  1.00  0.00    -0.267 OA
ATOM      6  H   UNL A   1      33.524  30.780  25.148  1.00  0.00     0.163 HD
BRANCH   4   7
ATOM      7  C   UNL A   1      32.185  27.727  24.242  1.00  0.00     0.200 C 
ATOM      8  C   UNL A   1      32.223  27.219  25.710  1.00  0.00     0.096 C 
BRANCH   7   9
ATOM      9  C   UNL A   1      30.721  27.920  23.770  1.00  0.00     0.028 A 
ATOM     10  C   UNL A   1      29.712  27.035  24.191  1.00  0.00     0.050 A 
ATOM     11  C   UNL A   1      30.336  28.943  22.879  1.00  0.00     0.050 A 
ATOM     12  C   UNL A   1      28.391  27.199  23.770  1.00  0.00     0.126 A 
ATOM     13  C   UNL A   1      29.002  29.121  22.514  1.00  0.00     0.126 A 
ATOM     14  F   UNL A   1      27.464  26.317  24.167  1.00  0.00    -0.207 F 
ATOM     15  C   UNL A   1      28.020  28.252  22.951  1.00  0.00     0.078 A 
ATOM     16  F   UNL A   1      28.671  30.157  21.733  1.00  0.00    -0.207 F 
ENDBRANCH   7   9
BRANCH   7  17
ATOM     17  N   UNL A   1      32.918  26.786  23.359  1.00  0.00    -0.319 N 
ATOM     18  C   UNL A   1      32.305  26.333  22.119  1.00  0.00     0.263 C 
ATOM     19  C   UNL A   1      33.807  25.747  23.834  1.00  0.00     0.263 C 
ATOM     20  H   UNL A   1      33.529  27.589  23.215  1.00  0.00     0.349 HD
ATOM     21  C   UNL A   1      32.149  24.832  22.314  1.00  0.00     0.067 C 
ATOM     22  C   UNL A   1      33.212  24.441  23.331  1.00  0.00     0.067 C 
ENDBRANCH   7  17
ENDBRANCH   4   7
ENDBRANCH   2   3
ENDBRANCH   1   2
BRANCH   1  23
ATOM     23  C   UNL A   1      32.714  32.429  27.200  1.00  0.00     0.118 C 
BRANCH  23  24
ATOM     24  N   UNL A   1      32.440  33.823  27.523  1.00  0.00    -0.352 N 
ATOM     25  C   UNL A   1      33.001  34.650  28.468  1.00  0.00     0.251 C 
ATOM     26  H   UNL A   1      31.739  34.243  26.973  1.00  0.00     0.163 HD
ATOM     27  O   UNL A   1      32.503  35.744  28.695  1.00  0.00    -0.269 OA
BRANCH  25  28
ATOM     28  C   UNL A   1      34.187  34.207  29.233  1.00  0.00     0.039 A 
ATOM     29  C   UNL A   1      34.001  33.506  30.426  1.00  0.00     0.014 A 
ATOM     30  C   UNL A   1      35.478  34.478  28.776  1.00  0.00     0.014 A 
ATOM     31  C   UNL A   1      35.108  33.002  31.114  1.00  0.00     0.010 A 
ATOM     32  C   UNL A   1      36.569  33.886  29.400  1.00  0.00     0.010 A 
ATOM     33  C   UNL A   1      36.398  33.146  30.579  1.00  0.00    -0.014 A 
BRANCH  33  34
ATOM     34  C   UNL A   1      37.586  32.537  31.232  1.00  0.00     0.031 A 
ATOM     35  C   UNL A   1      38.326  31.418  30.554  1.00  0.00     0.074 A 
ATOM     36  C   UNL A   1      37.944  32.935  32.469  1.00  0.00     0.049 A 
ATOM     37  N   UNL A   1      39.315  30.687  31.001  1.00  0.00    -0.248 NA
ATOM     38  C   UNL A   1      37.869  31.044  29.205  1.00  0.00     0.031 C 
ATOM     39  C   UNL A   1      37.273  33.971  33.256  1.00  0.00     0.029 A 
ATOM     40  N   UNL A   1      38.957  32.503  33.290  1.00  0.00    -0.354 N 
ATOM     41  C   UNL A   1      39.581  29.759  30.003  1.00  0.00     0.074 A 
ATOM     42  C   UNL A   1      38.611  29.977  28.952  1.00  0.00     0.031 C 
ATOM     43  C   UNL A   1      37.906  34.113  34.431  1.00  0.00     0.029 A 
ATOM     44  C   UNL A   1      39.000  33.149  34.501  1.00  0.00     0.049 A 
ATOM     45  H   UNL A   1      39.593  31.795  33.034  1.00  0.00     0.167 HD
ATOM     46  C   UNL A   1      40.562  28.827  29.953  1.00  0.00     0.037 A 
ATOM     47  C   UNL A   1      39.823  32.977  35.552  1.00  0.00     0.037 A 
ATOM     48  C   UNL A   1      41.547  28.637  30.985  1.00  0.00     0.049 A 
ATOM     49  C   UNL A   1      40.909  31.938  35.470  1.00  0.00     0.074 A 
ATOM     50  C   UNL A   1      42.622  27.767  31.003  1.00  0.00     0.029 A 
ATOM     51  N   UNL A   1      41.576  29.334  32.184  1.00  0.00    -0.354 N 
ATOM     52  N   UNL A   1      41.194  31.113  34.491  1.00  0.00    -0.248 NA
ATOM     53  C   UNL A   1      41.793  31.809  36.637  1.00  0.00     0.031 C 
ATOM     54  C   UNL A   1      43.274  27.904  32.232  1.00  0.00     0.029 A 
ATOM     55  C   UNL A   1      42.640  28.898  32.958  1.00  0.00     0.049 A 
ATOM     56  H   UNL A   1      40.936  30.035  32.447  1.00  0.00     0.167 HD
ATOM     57  C   UNL A   1      42.305  30.395  34.908  1.00  0.00     0.074 A 
ATOM     58  C   UNL A   1      42.652  30.888  36.225  1.00  0.00     0.031 C 
ATOM     59  C   UNL A   1      42.979  29.413  34.259  1.00  0.00     0.037 A 
BRANCH  46  60
ATOM     60  C   UNL A   1      40.625  27.945  28.739  1.00  0.00     0.064 A 
ATOM     61  C   UNL A   1      39.914  26.737  28.668  1.00  0.00     0.173 A 
ATOM     62  C   UNL A   1      41.377  28.329  27.618  1.00  0.00     0.173 A 
ATOM     63  F   UNL A   1      39.190  26.316  29.716  1.00  0.00    -0.203 F 
ATOM     64  C   UNL A   1      39.979  25.933  27.533  1.00  0.00     0.198 A 
ATOM     65  C   UNL A   1      41.411  27.539  26.473  1.00  0.00     0.198 A 
ATOM     66  F   UNL A   1      42.070  29.478  27.630  1.00  0.00    -0.203 F 
ATOM     67  F   UNL A   1      39.334  24.758  27.510  1.00  0.00    -0.200 F 
ATOM     68  C   UNL A   1      40.720  26.337  26.434  1.00  0.00     0.200 A 
ATOM     69  F   UNL A   1      42.117  27.939  25.406  1.00  0.00    -0.200 F 
ATOM     70  F   UNL A   1      40.773  25.567  25.339  1.00  0.00    -0.200 F 
ENDBRANCH  46  60
BRANCH  47  71
ATOM     71  C   UNL A   1      39.671  33.825  36.764  1.00  0.00     0.064 A 
ATOM     72  C   UNL A   1      38.897  33.393  37.851  1.00  0.00     0.173 A 
ATOM     73  C   UNL A   1      40.284  35.083  36.860  1.00  0.00     0.173 A 
ATOM     74  F   UNL A   1      38.275  32.206  37.799  1.00  0.00    -0.203 F 
ATOM     75  C   UNL A   1      38.722  34.197  38.976  1.00  0.00     0.198 A 
ATOM     76  C   UNL A   1      40.133  35.872  37.999  1.00  0.00     0.198 A 
ATOM     77  F   UNL A   1      41.040  35.540  35.852  1.00  0.00    -0.203 F 
ATOM     78  F   UNL A   1      37.936  33.779  39.978  1.00  0.00    -0.200 F 
ATOM     79  C   UNL A   1      39.344  35.433  39.051  1.00  0.00     0.200 A 
ATOM     80  F   UNL A   1      40.749  37.060  38.074  1.00  0.00    -0.200 F 
ATOM     81  F   UNL A   1      39.178  36.204  40.135  1.00  0.00    -0.200 F 
ENDBRANCH  47  71
BRANCH  59  82
ATOM     82  C   UNL A   1      44.185  28.838  34.942  1.00  0.00     0.064 A 
ATOM     83  C   UNL A   1      45.460  29.405  34.791  1.00  0.00     0.173 A 
ATOM     84  C   UNL A   1      44.055  27.732  35.796  1.00  0.00     0.173 A 
ATOM     85  F   UNL A   1      45.639  30.455  33.975  1.00  0.00    -0.203 F 
ATOM     86  C   UNL A   1      46.563  28.870  35.451  1.00  0.00     0.198 A 
ATOM     87  C   UNL A   1      45.154  27.219  36.478  1.00  0.00     0.198 A 
ATOM     88  F   UNL A   1      42.856  27.157  35.981  1.00  0.00    -0.203 F 
ATOM     89  F   UNL A   1      47.779  29.397  35.254  1.00  0.00    -0.200 F 
ATOM     90  C   UNL A   1      46.408  27.783  36.300  1.00  0.00     0.200 A 
ATOM     91  F   UNL A   1      45.000  26.180  37.309  1.00  0.00    -0.200 F 
ATOM     92  F   UNL A   1      47.470  27.275  36.940  1.00  0.00    -0.200 F 
ENDBRANCH  59  82
ENDBRANCH  33  34
ENDBRANCH  25  28
ENDBRANCH  23  24
ENDBRANCH   1  23
TORSDOF 12
ENDMDL
