MODEL 1
REMARK VINA RESULT:     -13.2      0.000      0.000
REMARK SMILES O=C(NCCCNC(=O)c1cccc(S(=O)(=O)NNC(=O)c2ccc3c(c2)OCO3)c1)c1ccc(-c2c3nc(c(-c4c(F)c(F)c(F)c(F)c4F)c4ccc([nH]4)c(-c4c(F)c(F)c(F)c(F)c4F)c4nc(c(-c5c(F)c(F)c(F)c(F)c5F)c5ccc2[nH]5)C=C4)C=C3)cc1
REMARK SMILES IDX 6 1 5 2 4 3 3 4 1 5 2 6 32 8 33 9 94 10 34 11 93 12 35 13
REMARK SMILES IDX 36 14 37 15 87 16 38 17 92 18 86 19 88 20 39 21 91 22 85 23
REMARK SMILES IDX 84 24 40 26 72 27 52 28 71 29 53 30 56 31 70 32 89 33 54 34
REMARK SMILES IDX 55 35 69 37 90 38 57 39 41 40 42 41 50 42 43 43 44 44 48 45
REMARK SMILES IDX 51 46 45 47 46 48 49 49 47 50 73 51 74 52 82 53 75 54 76 55
REMARK SMILES IDX 80 56 83 57 77 58 78 59 81 60 79 61 58 62 59 63 67 64 60 65
REMARK SMILES IDX 61 66 65 67 68 68 62 69 63 70 66 71 64 72 7 73 8 74 9 76
REMARK SMILES IDX 10 77 11 78 31 79 12 80 14 81 13 82 15 83 16 84 17 85 18 86
REMARK SMILES IDX 19 88 20 89 21 91 22 92 23 93 27 94 24 95 26 96 25 97 28 98
REMARK SMILES IDX 30 99 29 100
REMARK H PARENT 3 7 88 25 56 36 7 75 18 87 19 90
REMARK Flexibility Score: inf
ROOT
ATOM      1  C   UNL A   1      36.841  20.487  25.016  1.00  0.00     0.118 C 
ENDROOT
BRANCH   1   2
ATOM      2  C   UNL A   1      38.143  19.724  24.853  1.00  0.00     0.042 C 
BRANCH   2   3
ATOM      3  C   UNL A   1      39.182  20.087  25.898  1.00  0.00     0.118 C 
BRANCH   3   4
ATOM      4  N   UNL A   1      40.294  19.143  25.943  1.00  0.00    -0.352 N 
ATOM      5  O   UNL A   1      42.436  18.443  25.902  1.00  0.00    -0.269 OA
ATOM      6  C   UNL A   1      41.645  19.365  26.074  1.00  0.00     0.251 C 
ATOM      7  H   UNL A   1      40.035  18.195  25.866  1.00  0.00     0.163 HD
BRANCH   6   8
ATOM      8  C   UNL A   1      42.146  20.718  26.398  1.00  0.00     0.039 A 
ATOM      9  C   UNL A   1      42.437  21.062  27.716  1.00  0.00     0.014 A 
ATOM     10  C   UNL A   1      42.335  21.654  25.377  1.00  0.00     0.014 A 
ATOM     11  C   UNL A   1      42.708  22.380  28.039  1.00  0.00     0.010 A 
ATOM     12  C   UNL A   1      42.748  22.953  25.691  1.00  0.00     0.010 A 
ATOM     13  C   UNL A   1      42.904  23.338  27.030  1.00  0.00    -0.014 A 
BRANCH  13  14
ATOM     14  C   UNL A   1      43.354  24.694  27.433  1.00  0.00     0.031 A 
ATOM     15  C   UNL A   1      44.750  25.179  27.162  1.00  0.00     0.074 A 
ATOM     16  C   UNL A   1      42.442  25.522  27.981  1.00  0.00     0.049 A 
ATOM     17  N   UNL A   1      45.265  26.364  27.380  1.00  0.00    -0.248 NA
ATOM     18  C   UNL A   1      45.698  24.215  26.582  1.00  0.00     0.031 C 
ATOM     19  C   UNL A   1      41.063  25.149  28.311  1.00  0.00     0.029 A 
ATOM     20  N   UNL A   1      42.512  26.849  28.317  1.00  0.00    -0.354 N 
ATOM     21  C   UNL A   1      46.592  26.287  26.978  1.00  0.00     0.074 A 
ATOM     22  C   UNL A   1      46.815  24.930  26.529  1.00  0.00     0.031 C 
ATOM     23  C   UNL A   1      40.398  26.235  28.724  1.00  0.00     0.029 A 
ATOM     24  C   UNL A   1      41.319  27.362  28.766  1.00  0.00     0.049 A 
ATOM     25  H   UNL A   1      43.336  27.383  28.242  1.00  0.00     0.167 HD
ATOM     26  C   UNL A   1      47.529  27.265  26.978  1.00  0.00     0.037 A 
ATOM     27  C   UNL A   1      41.002  28.601  29.183  1.00  0.00     0.037 A 
ATOM     28  C   UNL A   1      47.293  28.618  27.417  1.00  0.00     0.049 A 
ATOM     29  C   UNL A   1      42.065  29.659  29.168  1.00  0.00     0.074 A 
ATOM     30  C   UNL A   1      48.176  29.683  27.450  1.00  0.00     0.029 A 
ATOM     31  N   UNL A   1      46.081  29.092  27.899  1.00  0.00    -0.354 N 
ATOM     32  N   UNL A   1      43.311  29.572  28.771  1.00  0.00    -0.248 NA
ATOM     33  C   UNL A   1      41.680  30.985  29.665  1.00  0.00     0.031 C 
ATOM     34  C   UNL A   1      47.512  30.791  27.985  1.00  0.00     0.029 A 
ATOM     35  C   UNL A   1      46.199  30.431  28.243  1.00  0.00     0.049 A 
ATOM     36  H   UNL A   1      45.258  28.559  27.983  1.00  0.00     0.167 HD
ATOM     37  C   UNL A   1      43.860  30.830  28.969  1.00  0.00     0.074 A 
ATOM     38  C   UNL A   1      42.797  31.672  29.481  1.00  0.00     0.031 C 
ATOM     39  C   UNL A   1      45.132  31.248  28.762  1.00  0.00     0.037 A 
BRANCH  26  40
ATOM     40  C   UNL A   1      48.907  26.917  26.493  1.00  0.00     0.064 A 
ATOM     41  C   UNL A   1      49.870  26.367  27.351  1.00  0.00     0.173 A 
ATOM     42  C   UNL A   1      49.245  27.067  25.139  1.00  0.00     0.173 A 
ATOM     43  F   UNL A   1      49.603  26.214  28.657  1.00  0.00    -0.203 F 
ATOM     44  C   UNL A   1      51.124  25.989  26.875  1.00  0.00     0.198 A 
ATOM     45  C   UNL A   1      50.491  26.665  24.661  1.00  0.00     0.198 A 
ATOM     46  F   UNL A   1      48.360  27.583  24.275  1.00  0.00    -0.203 F 
ATOM     47  F   UNL A   1      52.038  25.493  27.720  1.00  0.00    -0.200 F 
ATOM     48  C   UNL A   1      51.430  26.129  25.529  1.00  0.00     0.200 A 
ATOM     49  F   UNL A   1      50.779  26.790  23.358  1.00  0.00    -0.200 F 
ATOM     50  F   UNL A   1      52.630  25.751  25.070  1.00  0.00    -0.200 F 
ENDBRANCH  26  40
BRANCH  27  51
ATOM     51  C   UNL A   1      39.628  28.891  29.666  1.00  0.00     0.064 A 
ATOM     52  C   UNL A   1      38.652  29.419  28.811  1.00  0.00     0.173 A 
ATOM     53  C   UNL A   1      39.263  28.641  30.998  1.00  0.00     0.173 A 
ATOM     54  F   UNL A   1      38.956  29.691  27.533  1.00  0.00    -0.203 F 
ATOM     55  C   UNL A   1      37.370  29.708  29.276  1.00  0.00     0.198 A 
ATOM     56  C   UNL A   1      37.972  28.895  31.451  1.00  0.00     0.198 A 
ATOM     57  F   UNL A   1      40.158  28.128  31.855  1.00  0.00    -0.203 F 
ATOM     58  F   UNL A   1      36.469  30.259  28.451  1.00  0.00    -0.200 F 
ATOM     59  C   UNL A   1      37.029  29.439  30.594  1.00  0.00     0.200 A 
ATOM     60  F   UNL A   1      37.642  28.614  32.720  1.00  0.00    -0.200 F 
ATOM     61  F   UNL A   1      35.794  29.710  31.037  1.00  0.00    -0.200 F 
ENDBRANCH  27  51
BRANCH  39  62
ATOM     62  C   UNL A   1      45.429  32.682  29.085  1.00  0.00     0.064 A 
ATOM     63  C   UNL A   1      45.894  33.064  30.352  1.00  0.00     0.173 A 
ATOM     64  C   UNL A   1      45.240  33.684  28.122  1.00  0.00     0.173 A 
ATOM     65  F   UNL A   1      46.072  32.143  31.312  1.00  0.00    -0.203 F 
ATOM     66  C   UNL A   1      46.123  34.403  30.656  1.00  0.00     0.198 A 
ATOM     67  C   UNL A   1      45.500  35.018  28.419  1.00  0.00     0.198 A 
ATOM     68  F   UNL A   1      44.801  33.369  26.895  1.00  0.00    -0.203 F 
ATOM     69  F   UNL A   1      46.507  34.751  31.891  1.00  0.00    -0.200 F 
ATOM     70  C   UNL A   1      45.930  35.378  29.689  1.00  0.00     0.200 A 
ATOM     71  F   UNL A   1      45.323  35.959  27.482  1.00  0.00    -0.200 F 
ATOM     72  F   UNL A   1      46.146  36.667  29.984  1.00  0.00    -0.200 F 
ENDBRANCH  39  62
ENDBRANCH  13  14
ENDBRANCH   6   8
ENDBRANCH   3   4
ENDBRANCH   2   3
ENDBRANCH   1   2
BRANCH   1  73
ATOM     73  N   UNL A   1      37.065  21.838  25.515  1.00  0.00    -0.352 N 
ATOM     74  C   UNL A   1      36.338  22.984  25.317  1.00  0.00     0.251 C 
ATOM     75  H   UNL A   1      37.862  21.944  26.082  1.00  0.00     0.163 HD
ATOM     76  O   UNL A   1      36.832  24.075  25.583  1.00  0.00    -0.269 OA
BRANCH  74  77
ATOM     77  C   UNL A   1      34.955  22.909  24.804  1.00  0.00     0.041 A 
ATOM     78  C   UNL A   1      34.739  22.838  23.424  1.00  0.00     0.014 A 
ATOM     79  C   UNL A   1      33.872  22.980  25.683  1.00  0.00     0.035 A 
ATOM     80  C   UNL A   1      33.436  22.771  22.927  1.00  0.00     0.002 A 
ATOM     81  C   UNL A   1      32.577  22.886  25.184  1.00  0.00     0.084 A 
ATOM     82  C   UNL A   1      32.353  22.782  23.807  1.00  0.00     0.022 A 
BRANCH  81  83
ATOM     83  S   UNL A   1      31.171  22.931  26.255  1.00  0.00     0.257 S 
ATOM     84  O   UNL A   1      30.287  21.862  25.852  1.00  0.00    -0.205 OA
ATOM     85  O   UNL A   1      31.677  23.058  27.605  1.00  0.00    -0.205 OA
BRANCH  83  86
ATOM     86  N   UNL A   1      30.389  24.391  25.921  1.00  0.00    -0.123 NA
ATOM     87  H   UNL A   1      29.393  24.175  25.864  1.00  0.00     0.167 HD
BRANCH  86  88
ATOM     88  N   UNL A   1      30.508  25.538  26.796  1.00  0.00    -0.273 N 
ATOM     89  C   UNL A   1      31.043  26.749  26.404  1.00  0.00     0.266 C 
ATOM     90  H   UNL A   1      30.189  25.450  27.725  1.00  0.00     0.186 HD
ATOM     91  O   UNL A   1      31.025  27.744  27.115  1.00  0.00    -0.268 OA
BRANCH  89  92
ATOM     92  C   UNL A   1      31.790  26.753  25.134  1.00  0.00     0.045 A 
ATOM     93  C   UNL A   1      33.191  26.620  25.221  1.00  0.00     0.018 A 
ATOM     94  C   UNL A   1      31.119  26.707  23.909  1.00  0.00     0.064 A 
ATOM     95  C   UNL A   1      33.942  26.386  24.071  1.00  0.00     0.051 A 
ATOM     96  C   UNL A   1      31.891  26.440  22.800  1.00  0.00     0.166 A 
ATOM     97  C   UNL A   1      33.258  26.275  22.879  1.00  0.00     0.165 A 
ATOM     98  O   UNL A   1      31.421  26.242  21.539  1.00  0.00    -0.454 OA
ATOM     99  O   UNL A   1      33.811  25.958  21.678  1.00  0.00    -0.454 OA
ATOM    100  C   UNL A   1      32.628  25.817  20.865  1.00  0.00     0.468 C 
ENDBRANCH  89  92
ENDBRANCH  86  88
ENDBRANCH  83  86
ENDBRANCH  81  83
ENDBRANCH  74  77
ENDBRANCH   1  73
TORSDOF 14
ENDMDL
MODEL 2
REMARK VINA RESULT:     -13.1      1.381      2.788
REMARK SMILES O=C(NCCCNC(=O)c1cccc(S(=O)(=O)NNC(=O)c2ccc3c(c2)OCO3)c1)c1ccc(-c2c3nc(c(-c4c(F)c(F)c(F)c(F)c4F)c4ccc([nH]4)c(-c4c(F)c(F)c(F)c(F)c4F)c4nc(c(-c5c(F)c(F)c(F)c(F)c5F)c5ccc2[nH]5)C=C4)C=C3)cc1
REMARK SMILES IDX 6 1 5 2 4 3 3 4 1 5 2 6 32 8 33 9 94 10 34 11 93 12 35 13
REMARK SMILES IDX 36 14 37 15 87 16 38 17 92 18 86 19 88 20 39 21 91 22 85 23
REMARK SMILES IDX 84 24 40 26 72 27 52 28 71 29 53 30 56 31 70 32 89 33 54 34
REMARK SMILES IDX 55 35 69 37 90 38 57 39 41 40 42 41 50 42 43 43 44 44 48 45
REMARK SMILES IDX 51 46 45 47 46 48 49 49 47 50 73 51 74 52 82 53 75 54 76 55
REMARK SMILES IDX 80 56 83 57 77 58 78 59 81 60 79 61 58 62 59 63 67 64 60 65
REMARK SMILES IDX 61 66 65 67 68 68 62 69 63 70 66 71 64 72 7 73 8 74 9 76
REMARK SMILES IDX 10 77 11 78 31 79 12 80 14 81 13 82 15 83 16 84 17 85 18 86
REMARK SMILES IDX 19 88 20 89 21 91 22 92 23 93 27 94 24 95 26 96 25 97 28 98
REMARK SMILES IDX 30 99 29 100
REMARK H PARENT 3 7 88 25 56 36 7 75 18 87 19 90
REMARK Flexibility Score: inf
ROOT
ATOM      1  C   UNL A   1      37.207  20.665  24.960  1.00  0.00     0.118 C 
ENDROOT
BRANCH   1   2
ATOM      2  C   UNL A   1      38.295  19.607  24.991  1.00  0.00     0.042 C 
BRANCH   2   3
ATOM      3  C   UNL A   1      39.347  19.864  26.055  1.00  0.00     0.118 C 
BRANCH   3   4
ATOM      4  N   UNL A   1      40.483  18.953  25.959  1.00  0.00    -0.352 N 
ATOM      5  O   UNL A   1      42.635  18.323  25.738  1.00  0.00    -0.269 OA
ATOM      6  C   UNL A   1      41.833  19.204  26.029  1.00  0.00     0.251 C 
ATOM      7  H   UNL A   1      40.244  18.007  25.821  1.00  0.00     0.163 HD
BRANCH   6   8
ATOM      8  C   UNL A   1      42.318  20.542  26.432  1.00  0.00     0.039 A 
ATOM      9  C   UNL A   1      42.355  20.900  27.778  1.00  0.00     0.014 A 
ATOM     10  C   UNL A   1      42.748  21.449  25.459  1.00  0.00     0.014 A 
ATOM     11  C   UNL A   1      42.614  22.212  28.134  1.00  0.00     0.010 A 
ATOM     12  C   UNL A   1      43.147  22.737  25.834  1.00  0.00     0.010 A 
ATOM     13  C   UNL A   1      43.049  23.141  27.173  1.00  0.00    -0.014 A 
BRANCH  13  14
ATOM     14  C   UNL A   1      43.469  24.486  27.644  1.00  0.00     0.031 A 
ATOM     15  C   UNL A   1      44.911  24.908  27.649  1.00  0.00     0.074 A 
ATOM     16  C   UNL A   1      42.503  25.360  27.991  1.00  0.00     0.049 A 
ATOM     17  N   UNL A   1      45.422  26.076  27.953  1.00  0.00    -0.248 NA
ATOM     18  C   UNL A   1      45.912  23.896  27.279  1.00  0.00     0.031 C 
ATOM     19  C   UNL A   1      41.071  25.049  28.045  1.00  0.00     0.029 A 
ATOM     20  N   UNL A   1      42.562  26.689  28.320  1.00  0.00    -0.354 N 
ATOM     21  C   UNL A   1      46.798  25.938  27.823  1.00  0.00     0.074 A 
ATOM     22  C   UNL A   1      47.047  24.565  27.441  1.00  0.00     0.031 C 
ATOM     23  C   UNL A   1      40.385  26.168  28.306  1.00  0.00     0.029 A 
ATOM     24  C   UNL A   1      41.328  27.258  28.518  1.00  0.00     0.049 A 
ATOM     25  H   UNL A   1      43.407  27.188  28.404  1.00  0.00     0.167 HD
ATOM     26  C   UNL A   1      47.758  26.878  27.998  1.00  0.00     0.037 A 
ATOM     27  C   UNL A   1      40.988  28.516  28.850  1.00  0.00     0.037 A 
ATOM     28  C   UNL A   1      47.498  28.247  28.367  1.00  0.00     0.049 A 
ATOM     29  C   UNL A   1      42.077  29.530  29.035  1.00  0.00     0.074 A 
ATOM     30  C   UNL A   1      48.403  29.276  28.563  1.00  0.00     0.029 A 
ATOM     31  N   UNL A   1      46.237  28.779  28.594  1.00  0.00    -0.354 N 
ATOM     32  N   UNL A   1      43.372  29.386  28.894  1.00  0.00    -0.248 NA
ATOM     33  C   UNL A   1      41.659  30.880  29.432  1.00  0.00     0.031 C 
ATOM     34  C   UNL A   1      47.694  30.420  28.944  1.00  0.00     0.029 A 
ATOM     35  C   UNL A   1      46.342  30.118  28.940  1.00  0.00     0.049 A 
ATOM     36  H   UNL A   1      45.391  28.280  28.519  1.00  0.00     0.167 HD
ATOM     37  C   UNL A   1      43.925  30.625  29.184  1.00  0.00     0.074 A 
ATOM     38  C   UNL A   1      42.819  31.518  29.466  1.00  0.00     0.031 C 
ATOM     39  C   UNL A   1      45.230  30.987  29.228  1.00  0.00     0.037 A 
BRANCH  26  40
ATOM     40  C   UNL A   1      49.188  26.465  27.799  1.00  0.00     0.064 A 
ATOM     41  C   UNL A   1      49.755  26.371  26.520  1.00  0.00     0.173 A 
ATOM     42  C   UNL A   1      50.022  26.231  28.904  1.00  0.00     0.173 A 
ATOM     43  F   UNL A   1      49.000  26.574  25.430  1.00  0.00    -0.203 F 
ATOM     44  C   UNL A   1      51.100  26.049  26.353  1.00  0.00     0.198 A 
ATOM     45  C   UNL A   1      51.372  25.933  28.735  1.00  0.00     0.198 A 
ATOM     46  F   UNL A   1      49.532  26.311  30.150  1.00  0.00    -0.203 F 
ATOM     47  F   UNL A   1      51.613  25.937  25.120  1.00  0.00    -0.200 F 
ATOM     48  C   UNL A   1      51.910  25.839  27.460  1.00  0.00     0.200 A 
ATOM     49  F   UNL A   1      52.155  25.743  29.807  1.00  0.00    -0.200 F 
ATOM     50  F   UNL A   1      53.207  25.545  27.298  1.00  0.00    -0.200 F 
ENDBRANCH  26  40
BRANCH  27  51
ATOM     51  C   UNL A   1      39.559  28.870  29.049  1.00  0.00     0.064 A 
ATOM     52  C   UNL A   1      38.951  28.763  30.306  1.00  0.00     0.173 A 
ATOM     53  C   UNL A   1      38.773  29.328  27.980  1.00  0.00     0.173 A 
ATOM     54  F   UNL A   1      39.655  28.315  31.356  1.00  0.00    -0.203 F 
ATOM     55  C   UNL A   1      37.605  29.078  30.482  1.00  0.00     0.198 A 
ATOM     56  C   UNL A   1      37.438  29.677  28.165  1.00  0.00     0.198 A 
ATOM     57  F   UNL A   1      39.309  29.457  26.758  1.00  0.00    -0.203 F 
ATOM     58  F   UNL A   1      37.033  28.919  31.684  1.00  0.00    -0.200 F 
ATOM     59  C   UNL A   1      36.851  29.541  29.413  1.00  0.00     0.200 A 
ATOM     60  F   UNL A   1      36.721  30.145  27.133  1.00  0.00    -0.200 F 
ATOM     61  F   UNL A   1      35.560  29.851  29.585  1.00  0.00    -0.200 F 
ENDBRANCH  27  51
BRANCH  39  62
ATOM     62  C   UNL A   1      45.518  32.414  29.589  1.00  0.00     0.064 A 
ATOM     63  C   UNL A   1      45.727  32.803  30.921  1.00  0.00     0.173 A 
ATOM     64  C   UNL A   1      45.581  33.401  28.595  1.00  0.00     0.173 A 
ATOM     65  F   UNL A   1      45.658  31.896  31.907  1.00  0.00    -0.203 F 
ATOM     66  C   UNL A   1      45.949  34.137  31.248  1.00  0.00     0.198 A 
ATOM     67  C   UNL A   1      45.834  34.730  28.924  1.00  0.00     0.198 A 
ATOM     68  F   UNL A   1      45.393  33.079  27.307  1.00  0.00    -0.203 F 
ATOM     69  F   UNL A   1      46.082  34.495  32.532  1.00  0.00    -0.200 F 
ATOM     70  C   UNL A   1      46.007  35.098  30.251  1.00  0.00     0.200 A 
ATOM     71  F   UNL A   1      45.899  35.656  27.959  1.00  0.00    -0.200 F 
ATOM     72  F   UNL A   1      46.215  36.383  30.568  1.00  0.00    -0.200 F 
ENDBRANCH  39  62
ENDBRANCH  13  14
ENDBRANCH   6   8
ENDBRANCH   3   4
ENDBRANCH   2   3
ENDBRANCH   1   2
BRANCH   1  73
ATOM     73  N   UNL A   1      37.577  21.843  25.733  1.00  0.00    -0.352 N 
ATOM     74  C   UNL A   1      37.190  23.152  25.589  1.00  0.00     0.251 C 
ATOM     75  H   UNL A   1      38.202  21.675  26.474  1.00  0.00     0.163 HD
ATOM     76  O   UNL A   1      37.819  24.041  26.153  1.00  0.00    -0.269 OA
BRANCH  74  77
ATOM     77  C   UNL A   1      36.006  23.491  24.774  1.00  0.00     0.041 A 
ATOM     78  C   UNL A   1      35.805  22.840  23.553  1.00  0.00     0.014 A 
ATOM     79  C   UNL A   1      35.135  24.503  25.183  1.00  0.00     0.035 A 
ATOM     80  C   UNL A   1      34.692  23.156  22.772  1.00  0.00     0.002 A 
ATOM     81  C   UNL A   1      34.015  24.796  24.414  1.00  0.00     0.084 A 
ATOM     82  C   UNL A   1      33.787  24.126  23.207  1.00  0.00     0.022 A 
BRANCH  81  83
ATOM     83  S   UNL A   1      32.858  26.041  24.904  1.00  0.00     0.257 S 
ATOM     84  O   UNL A   1      33.570  27.297  24.952  1.00  0.00    -0.205 OA
ATOM     85  O   UNL A   1      31.671  25.849  24.101  1.00  0.00    -0.205 OA
BRANCH  83  86
ATOM     86  N   UNL A   1      32.410  25.651  26.485  1.00  0.00    -0.123 NA
ATOM     87  H   UNL A   1      32.553  26.495  27.040  1.00  0.00     0.167 HD
BRANCH  86  88
ATOM     88  N   UNL A   1      31.081  25.173  26.805  1.00  0.00    -0.273 N 
ATOM     89  C   UNL A   1      30.754  23.836  26.917  1.00  0.00     0.266 C 
ATOM     90  H   UNL A   1      30.370  25.839  26.951  1.00  0.00     0.186 HD
ATOM     91  O   UNL A   1      29.661  23.450  27.307  1.00  0.00    -0.268 OA
BRANCH  89  92
ATOM     92  C   UNL A   1      31.738  22.875  26.390  1.00  0.00     0.045 A 
ATOM     93  C   UNL A   1      32.821  22.548  27.233  1.00  0.00     0.018 A 
ATOM     94  C   UNL A   1      31.504  22.193  25.193  1.00  0.00     0.064 A 
ATOM     95  C   UNL A   1      33.663  21.486  26.907  1.00  0.00     0.051 A 
ATOM     96  C   UNL A   1      32.336  21.129  24.923  1.00  0.00     0.166 A 
ATOM     97  C   UNL A   1      33.376  20.780  25.757  1.00  0.00     0.165 A 
ATOM     98  O   UNL A   1      32.206  20.270  23.876  1.00  0.00    -0.454 OA
ATOM     99  O   UNL A   1      34.027  19.664  25.334  1.00  0.00    -0.454 OA
ATOM    100  C   UNL A   1      33.203  19.280  24.214  1.00  0.00     0.468 C 
ENDBRANCH  89  92
ENDBRANCH  86  88
ENDBRANCH  83  86
ENDBRANCH  81  83
ENDBRANCH  74  77
ENDBRANCH   1  73
TORSDOF 14
ENDMDL
MODEL 3
REMARK VINA RESULT:     -12.9      1.189      2.489
REMARK SMILES O=C(NCCCNC(=O)c1cccc(S(=O)(=O)NNC(=O)c2ccc3c(c2)OCO3)c1)c1ccc(-c2c3nc(c(-c4c(F)c(F)c(F)c(F)c4F)c4ccc([nH]4)c(-c4c(F)c(F)c(F)c(F)c4F)c4nc(c(-c5c(F)c(F)c(F)c(F)c5F)c5ccc2[nH]5)C=C4)C=C3)cc1
REMARK SMILES IDX 6 1 5 2 4 3 3 4 1 5 2 6 32 8 33 9 94 10 34 11 93 12 35 13
REMARK SMILES IDX 36 14 37 15 87 16 38 17 92 18 86 19 88 20 39 21 91 22 85 23
REMARK SMILES IDX 84 24 40 26 72 27 52 28 71 29 53 30 56 31 70 32 89 33 54 34
REMARK SMILES IDX 55 35 69 37 90 38 57 39 41 40 42 41 50 42 43 43 44 44 48 45
REMARK SMILES IDX 51 46 45 47 46 48 49 49 47 50 73 51 74 52 82 53 75 54 76 55
REMARK SMILES IDX 80 56 83 57 77 58 78 59 81 60 79 61 58 62 59 63 67 64 60 65
REMARK SMILES IDX 61 66 65 67 68 68 62 69 63 70 66 71 64 72 7 73 8 74 9 76
REMARK SMILES IDX 10 77 11 78 31 79 12 80 14 81 13 82 15 83 16 84 17 85 18 86
REMARK SMILES IDX 19 88 20 89 21 91 22 92 23 93 27 94 24 95 26 96 25 97 28 98
REMARK SMILES IDX 30 99 29 100
REMARK H PARENT 3 7 88 25 56 36 7 75 18 87 19 90
REMARK Flexibility Score: inf
ROOT
ATOM      1  C   UNL A   1      37.139  20.679  25.025  1.00  0.00     0.118 C 
ENDROOT
BRANCH   1   2
ATOM      2  C   UNL A   1      38.271  19.669  24.959  1.00  0.00     0.042 C 
BRANCH   2   3
ATOM      3  C   UNL A   1      39.259  19.806  26.104  1.00  0.00     0.118 C 
BRANCH   3   4
ATOM      4  N   UNL A   1      40.470  19.016  25.904  1.00  0.00    -0.352 N 
ATOM      5  O   UNL A   1      42.654  18.611  25.528  1.00  0.00    -0.269 OA
ATOM      6  C   UNL A   1      41.791  19.398  25.902  1.00  0.00     0.251 C 
ATOM      7  H   UNL A   1      40.316  18.056  25.745  1.00  0.00     0.163 HD
BRANCH   6   8
ATOM      8  C   UNL A   1      42.168  20.763  26.326  1.00  0.00     0.039 A 
ATOM      9  C   UNL A   1      42.271  21.787  25.388  1.00  0.00     0.014 A 
ATOM     10  C   UNL A   1      42.417  21.029  27.676  1.00  0.00     0.014 A 
ATOM     11  C   UNL A   1      42.818  23.005  25.756  1.00  0.00     0.010 A 
ATOM     12  C   UNL A   1      42.837  22.305  28.069  1.00  0.00     0.010 A 
ATOM     13  C   UNL A   1      43.075  23.295  27.106  1.00  0.00    -0.014 A 
BRANCH  13  14
ATOM     14  C   UNL A   1      43.506  24.673  27.454  1.00  0.00     0.031 A 
ATOM     15  C   UNL A   1      44.886  25.174  27.138  1.00  0.00     0.074 A 
ATOM     16  C   UNL A   1      42.588  25.502  27.991  1.00  0.00     0.049 A 
ATOM     17  N   UNL A   1      45.381  26.376  27.305  1.00  0.00    -0.248 NA
ATOM     18  C   UNL A   1      45.841  24.209  26.572  1.00  0.00     0.031 C 
ATOM     19  C   UNL A   1      41.224  25.114  28.362  1.00  0.00     0.029 A 
ATOM     20  N   UNL A   1      42.638  26.841  28.279  1.00  0.00    -0.354 N 
ATOM     21  C   UNL A   1      46.701  26.310  26.879  1.00  0.00     0.074 A 
ATOM     22  C   UNL A   1      46.943  24.943  26.472  1.00  0.00     0.031 C 
ATOM     23  C   UNL A   1      40.545  26.201  28.750  1.00  0.00     0.029 A 
ATOM     24  C   UNL A   1      41.445  27.346  28.735  1.00  0.00     0.049 A 
ATOM     25  H   UNL A   1      43.450  27.387  28.170  1.00  0.00     0.167 HD
ATOM     26  C   UNL A   1      47.619  27.306  26.826  1.00  0.00     0.037 A 
ATOM     27  C   UNL A   1      41.111  28.592  29.115  1.00  0.00     0.037 A 
ATOM     28  C   UNL A   1      47.365  28.668  27.223  1.00  0.00     0.049 A 
ATOM     29  C   UNL A   1      42.153  29.669  29.042  1.00  0.00     0.074 A 
ATOM     30  C   UNL A   1      48.227  29.751  27.201  1.00  0.00     0.029 A 
ATOM     31  N   UNL A   1      46.153  29.136  27.713  1.00  0.00    -0.354 N 
ATOM     32  N   UNL A   1      43.392  29.593  28.623  1.00  0.00    -0.248 NA
ATOM     33  C   UNL A   1      41.751  31.004  29.501  1.00  0.00     0.031 C 
ATOM     34  C   UNL A   1      47.551  30.863  27.711  1.00  0.00     0.029 A 
ATOM     35  C   UNL A   1      46.251  30.488  28.008  1.00  0.00     0.049 A 
ATOM     36  H   UNL A   1      45.342  28.590  27.832  1.00  0.00     0.167 HD
ATOM     37  C   UNL A   1      43.919  30.867  28.767  1.00  0.00     0.074 A 
ATOM     38  C   UNL A   1      42.851  31.706  29.271  1.00  0.00     0.031 C 
ATOM     39  C   UNL A   1      45.179  31.302  28.519  1.00  0.00     0.037 A 
BRANCH  26  40
ATOM     40  C   UNL A   1      48.994  26.967  26.326  1.00  0.00     0.064 A 
ATOM     41  C   UNL A   1      49.978  26.447  27.178  1.00  0.00     0.173 A 
ATOM     42  C   UNL A   1      49.309  27.096  24.963  1.00  0.00     0.173 A 
ATOM     43  F   UNL A   1      49.734  26.315  28.491  1.00  0.00    -0.203 F 
ATOM     44  C   UNL A   1      51.229  26.078  26.689  1.00  0.00     0.198 A 
ATOM     45  C   UNL A   1      50.552  26.703  24.473  1.00  0.00     0.198 A 
ATOM     46  F   UNL A   1      48.402  27.584  24.104  1.00  0.00    -0.203 F 
ATOM     47  F   UNL A   1      52.164  25.610  27.528  1.00  0.00    -0.200 F 
ATOM     48  C   UNL A   1      51.512  26.196  25.336  1.00  0.00     0.200 A 
ATOM     49  F   UNL A   1      50.818  26.807  23.163  1.00  0.00    -0.200 F 
ATOM     50  F   UNL A   1      52.710  25.826  24.865  1.00  0.00    -0.200 F 
ENDBRANCH  26  40
BRANCH  27  51
ATOM     51  C   UNL A   1      39.741  28.873  29.616  1.00  0.00     0.064 A 
ATOM     52  C   UNL A   1      38.749  29.390  28.772  1.00  0.00     0.173 A 
ATOM     53  C   UNL A   1      39.396  28.624  30.953  1.00  0.00     0.173 A 
ATOM     54  F   UNL A   1      39.034  29.660  27.490  1.00  0.00    -0.203 F 
ATOM     55  C   UNL A   1      37.472  29.670  29.253  1.00  0.00     0.198 A 
ATOM     56  C   UNL A   1      38.109  28.869  31.423  1.00  0.00     0.198 A 
ATOM     57  F   UNL A   1      40.306  28.121  31.800  1.00  0.00    -0.203 F 
ATOM     58  F   UNL A   1      36.556  30.211  28.439  1.00  0.00    -0.200 F 
ATOM     59  C   UNL A   1      37.150  29.402  30.576  1.00  0.00     0.200 A 
ATOM     60  F   UNL A   1      37.799  28.589  32.697  1.00  0.00    -0.200 F 
ATOM     61  F   UNL A   1      35.920  29.664  31.035  1.00  0.00    -0.200 F 
ENDBRANCH  27  51
BRANCH  39  62
ATOM     62  C   UNL A   1      45.453  32.752  28.787  1.00  0.00     0.064 A 
ATOM     63  C   UNL A   1      45.231  33.731  27.807  1.00  0.00     0.173 A 
ATOM     64  C   UNL A   1      45.947  33.165  30.032  1.00  0.00     0.173 A 
ATOM     65  F   UNL A   1      44.776  33.380  26.594  1.00  0.00    -0.203 F 
ATOM     66  C   UNL A   1      45.531  35.067  28.051  1.00  0.00     0.198 A 
ATOM     67  C   UNL A   1      46.218  34.507  30.284  1.00  0.00     0.198 A 
ATOM     68  F   UNL A   1      46.173  32.269  31.004  1.00  0.00    -0.203 F 
ATOM     69  F   UNL A   1      45.371  35.976  27.080  1.00  0.00    -0.200 F 
ATOM     70  C   UNL A   1      46.020  35.455  29.290  1.00  0.00     0.200 A 
ATOM     71  F   UNL A   1      46.680  34.883  31.483  1.00  0.00    -0.200 F 
ATOM     72  F   UNL A   1      46.314  36.742  29.522  1.00  0.00    -0.200 F 
ENDBRANCH  39  62
ENDBRANCH  13  14
ENDBRANCH   6   8
ENDBRANCH   3   4
ENDBRANCH   2   3
ENDBRANCH   1   2
BRANCH   1  73
ATOM     73  N   UNL A   1      37.521  21.871  25.771  1.00  0.00    -0.352 N 
ATOM     74  C   UNL A   1      37.151  23.180  25.593  1.00  0.00     0.251 C 
ATOM     75  H   UNL A   1      38.142  21.714  26.518  1.00  0.00     0.163 HD
ATOM     76  O   UNL A   1      37.789  24.076  26.136  1.00  0.00    -0.269 OA
BRANCH  74  77
ATOM     77  C   UNL A   1      35.974  23.514  24.765  1.00  0.00     0.041 A 
ATOM     78  C   UNL A   1      35.786  22.857  23.544  1.00  0.00     0.014 A 
ATOM     79  C   UNL A   1      35.098  24.526  25.161  1.00  0.00     0.035 A 
ATOM     80  C   UNL A   1      34.680  23.168  22.751  1.00  0.00     0.002 A 
ATOM     81  C   UNL A   1      33.984  24.814  24.380  1.00  0.00     0.084 A 
ATOM     82  C   UNL A   1      33.770  24.138  23.173  1.00  0.00     0.022 A 
BRANCH  81  83
ATOM     83  S   UNL A   1      32.821  26.058  24.854  1.00  0.00     0.257 S 
ATOM     84  O   UNL A   1      33.527  27.317  24.895  1.00  0.00    -0.205 OA
ATOM     85  O   UNL A   1      31.638  25.855  24.046  1.00  0.00    -0.205 OA
BRANCH  83  86
ATOM     86  N   UNL A   1      32.365  25.679  26.436  1.00  0.00    -0.123 NA
ATOM     87  H   UNL A   1      32.505  26.528  26.985  1.00  0.00     0.167 HD
BRANCH  86  88
ATOM     88  N   UNL A   1      31.036  25.202  26.753  1.00  0.00    -0.273 N 
ATOM     89  C   UNL A   1      30.710  23.866  26.875  1.00  0.00     0.266 C 
ATOM     90  H   UNL A   1      30.323  25.868  26.890  1.00  0.00     0.186 HD
ATOM     91  O   UNL A   1      29.616  23.481  27.263  1.00  0.00    -0.268 OA
BRANCH  89  92
ATOM     92  C   UNL A   1      31.699  22.902  26.361  1.00  0.00     0.045 A 
ATOM     93  C   UNL A   1      32.774  22.578  27.215  1.00  0.00     0.018 A 
ATOM     94  C   UNL A   1      31.474  22.214  25.165  1.00  0.00     0.064 A 
ATOM     95  C   UNL A   1      33.618  21.514  26.900  1.00  0.00     0.051 A 
ATOM     96  C   UNL A   1      32.308  21.148  24.907  1.00  0.00     0.166 A 
ATOM     97  C   UNL A   1      33.341  20.803  25.752  1.00  0.00     0.165 A 
ATOM     98  O   UNL A   1      32.187  20.285  23.863  1.00  0.00    -0.454 OA
ATOM     99  O   UNL A   1      33.995  19.685  25.339  1.00  0.00    -0.454 OA
ATOM    100  C   UNL A   1      33.180  19.296  24.214  1.00  0.00     0.468 C 
ENDBRANCH  89  92
ENDBRANCH  86  88
ENDBRANCH  83  86
ENDBRANCH  81  83
ENDBRANCH  74  77
ENDBRANCH   1  73
TORSDOF 14
ENDMDL
