MODEL 1
REMARK VINA RESULT:     -12.0      0.000      0.000
REMARK SMILES CCc1csc(N2[C@@H]3CC[C@H]2C[C@H](CC(=O)NCCCNC(=O)c2ccc(-c4c5nc(c(-c6c(F)c(F)c(F)c(F)c6F)c6ccc([nH]6)c(-c6c(F)c(F)c(F)c(F)c6F)c6nc(c(-c7c(F)c(F)c(F)c(F)c7F)c7ccc4[nH]7)C=C6)C=C5)cc2)C3)n1
REMARK SMILES IDX 18 1 17 2 15 3 16 4 14 6 13 7 7 8 8 9 11 10 9 11 87 12 10 13
REMARK SMILES IDX 12 14 6 15 3 16 4 17 88 18 5 19 2 20 1 21 19 22 20 23 21 24
REMARK SMILES IDX 22 25 23 27 24 28 25 29 86 30 26 31 85 32 27 33 28 34 29 35
REMARK SMILES IDX 79 36 30 37 84 38 78 39 80 40 31 41 83 42 77 43 76 44 32 46
REMARK SMILES IDX 64 47 44 48 63 49 45 50 48 51 62 52 81 53 46 54 47 55 61 57
REMARK SMILES IDX 82 58 49 59 33 60 34 61 42 62 35 63 36 64 40 65 43 66 37 67
REMARK SMILES IDX 38 68 41 69 39 70 65 71 66 72 74 73 67 74 68 75 72 76 75 77
REMARK SMILES IDX 69 78 70 79 73 80 71 81 50 82 51 83 59 84 52 85 53 86 57 87
REMARK SMILES IDX 60 88 54 89 55 90 58 91 56 92
REMARK H PARENT 17 5 21 26 80 45 48 56
REMARK Flexibility Score: inf
ROOT
ATOM      1  C   UNL A   1      32.849  27.748  24.870  1.00  0.00     0.117 C 
ENDROOT
BRANCH   1   2
ATOM      2  N   UNL A   1      33.314  27.529  23.505  1.00  0.00    -0.356 N 
ATOM      3  C   UNL A   1      33.414  26.392  22.760  1.00  0.00     0.220 C 
ATOM      4  O   UNL A   1      33.818  26.501  21.600  1.00  0.00    -0.275 OA
ATOM      5  H   UNL A   1      33.606  28.346  23.040  1.00  0.00     0.163 HD
BRANCH   3   6
ATOM      6  C   UNL A   1      33.082  25.024  23.336  1.00  0.00     0.103 C 
BRANCH   6   7
ATOM      7  C   UNL A   1      34.300  24.374  24.020  1.00  0.00     0.002 C 
ATOM      8  N   UNL A   1      35.131  21.764  24.986  1.00  0.00    -0.342 N 
ATOM      9  C   UNL A   1      35.915  22.366  23.924  1.00  0.00     0.085 C 
ATOM     10  C   UNL A   1      34.894  22.787  25.975  1.00  0.00     0.085 C 
ATOM     11  C   UNL A   1      36.958  23.158  24.738  1.00  0.00     0.027 C 
ATOM     12  C   UNL A   1      34.964  23.296  23.130  1.00  0.00     0.029 C 
ATOM     13  C   UNL A   1      36.296  23.403  26.107  1.00  0.00     0.027 C 
ATOM     14  C   UNL A   1      33.909  23.803  25.395  1.00  0.00     0.029 C 
BRANCH   8  15
ATOM     15  C   UNL A   1      34.434  20.612  24.890  1.00  0.00     0.186 A 
ATOM     16  C   UNL A   1      33.976  18.445  24.629  1.00  0.00     0.053 A 
ATOM     17  C   UNL A   1      32.686  18.932  24.685  1.00  0.00     0.092 A 
ATOM     18  N   UNL A   1      34.962  19.424  24.674  1.00  0.00    -0.225 NA
ATOM     19  S   UNL A   1      32.704  20.613  24.964  1.00  0.00    -0.105 S 
BRANCH  16  20
ATOM     20  C   UNL A   1      34.348  17.001  24.508  1.00  0.00     0.054 C 
ATOM     21  C   UNL A   1      33.555  16.090  25.433  1.00  0.00     0.011 C 
ENDBRANCH  16  20
ENDBRANCH   8  15
ENDBRANCH   6   7
ENDBRANCH   3   6
ENDBRANCH   1   2
BRANCH   1  22
ATOM     22  C   UNL A   1      33.958  28.217  25.815  1.00  0.00     0.042 C 
BRANCH  22  23
ATOM     23  C   UNL A   1      33.507  28.477  27.248  1.00  0.00     0.118 C 
BRANCH  23  24
ATOM     24  N   UNL A   1      33.571  29.889  27.573  1.00  0.00    -0.352 N 
ATOM     25  C   UNL A   1      34.551  30.613  28.209  1.00  0.00     0.251 C 
ATOM     26  H   UNL A   1      32.786  30.414  27.294  1.00  0.00     0.163 HD
ATOM     27  O   UNL A   1      34.275  31.732  28.633  1.00  0.00    -0.269 OA
BRANCH  25  28
ATOM     28  C   UNL A   1      35.931  30.090  28.392  1.00  0.00     0.039 A 
ATOM     29  C   UNL A   1      36.276  29.554  29.640  1.00  0.00     0.014 A 
ATOM     30  C   UNL A   1      36.920  30.224  27.414  1.00  0.00     0.014 A 
ATOM     31  C   UNL A   1      37.591  29.151  29.900  1.00  0.00     0.010 A 
ATOM     32  C   UNL A   1      38.214  29.749  27.647  1.00  0.00     0.010 A 
ATOM     33  C   UNL A   1      38.574  29.240  28.904  1.00  0.00    -0.014 A 
BRANCH  33  34
ATOM     34  C   UNL A   1      39.991  28.881  29.189  1.00  0.00     0.031 A 
ATOM     35  C   UNL A   1      40.867  29.825  29.972  1.00  0.00     0.074 A 
ATOM     36  C   UNL A   1      40.506  27.726  28.727  1.00  0.00     0.049 A 
ATOM     37  N   UNL A   1      42.137  29.721  30.281  1.00  0.00    -0.248 NA
ATOM     38  C   UNL A   1      40.238  31.066  30.449  1.00  0.00     0.031 C 
ATOM     39  C   UNL A   1      39.784  26.740  27.923  1.00  0.00     0.029 A 
ATOM     40  N   UNL A   1      41.764  27.190  28.863  1.00  0.00    -0.354 N 
ATOM     41  C   UNL A   1      42.459  30.886  30.965  1.00  0.00     0.074 A 
ATOM     42  C   UNL A   1      41.267  31.707  30.984  1.00  0.00     0.031 C 
ATOM     43  C   UNL A   1      40.605  25.712  27.651  1.00  0.00     0.029 A 
ATOM     44  C   UNL A   1      41.916  25.977  28.237  1.00  0.00     0.049 A 
ATOM     45  H   UNL A   1      42.488  27.633  29.361  1.00  0.00     0.167 HD
ATOM     46  C   UNL A   1      43.632  31.234  31.548  1.00  0.00     0.037 A 
ATOM     47  C   UNL A   1      42.990  25.170  28.146  1.00  0.00     0.037 A 
ATOM     48  C   UNL A   1      44.808  30.406  31.568  1.00  0.00     0.049 A 
ATOM     49  C   UNL A   1      44.273  25.561  28.830  1.00  0.00     0.074 A 
ATOM     50  C   UNL A   1      46.029  30.651  32.172  1.00  0.00     0.029 A 
ATOM     51  N   UNL A   1      44.906  29.164  30.958  1.00  0.00    -0.354 N 
ATOM     52  N   UNL A   1      44.549  26.644  29.514  1.00  0.00    -0.248 NA
ATOM     53  C   UNL A   1      45.390  24.608  28.739  1.00  0.00     0.031 C 
ATOM     54  C   UNL A   1      46.876  29.570  31.904  1.00  0.00     0.029 A 
ATOM     55  C   UNL A   1      46.170  28.634  31.167  1.00  0.00     0.049 A 
ATOM     56  H   UNL A   1      44.186  28.724  30.452  1.00  0.00     0.167 HD
ATOM     57  C   UNL A   1      45.857  26.495  29.954  1.00  0.00     0.074 A 
ATOM     58  C   UNL A   1      46.317  25.209  29.472  1.00  0.00     0.031 C 
ATOM     59  C   UNL A   1      46.610  27.349  30.690  1.00  0.00     0.037 A 
BRANCH  46  60
ATOM     60  C   UNL A   1      43.694  32.573  32.225  1.00  0.00     0.064 A 
ATOM     61  C   UNL A   1      43.371  32.725  33.583  1.00  0.00     0.173 A 
ATOM     62  C   UNL A   1      44.104  33.713  31.517  1.00  0.00     0.173 A 
ATOM     63  F   UNL A   1      42.963  31.668  34.302  1.00  0.00    -0.203 F 
ATOM     64  C   UNL A   1      43.421  33.973  34.197  1.00  0.00     0.198 A 
ATOM     65  C   UNL A   1      44.182  34.955  32.142  1.00  0.00     0.198 A 
ATOM     66  F   UNL A   1      44.432  33.622  30.220  1.00  0.00    -0.203 F 
ATOM     67  F   UNL A   1      43.056  34.103  35.480  1.00  0.00    -0.200 F 
ATOM     68  C   UNL A   1      43.832  35.086  33.478  1.00  0.00     0.200 A 
ATOM     69  F   UNL A   1      44.589  36.028  31.450  1.00  0.00    -0.200 F 
ATOM     70  F   UNL A   1      43.882  36.286  34.071  1.00  0.00    -0.200 F 
ENDBRANCH  46  60
BRANCH  47  71
ATOM     71  C   UNL A   1      42.887  23.890  27.401  1.00  0.00     0.064 A 
ATOM     72  C   UNL A   1      43.231  23.816  26.044  1.00  0.00     0.173 A 
ATOM     73  C   UNL A   1      42.453  22.714  28.030  1.00  0.00     0.173 A 
ATOM     74  F   UNL A   1      43.630  24.920  25.395  1.00  0.00    -0.203 F 
ATOM     75  C   UNL A   1      43.130  22.618  25.340  1.00  0.00     0.198 A 
ATOM     76  C   UNL A   1      42.376  21.511  27.332  1.00  0.00     0.198 A 
ATOM     77  F   UNL A   1      42.116  22.733  29.328  1.00  0.00    -0.203 F 
ATOM     78  F   UNL A   1      43.428  22.585  24.034  1.00  0.00    -0.200 F 
ATOM     79  C   UNL A   1      42.709  21.466  25.985  1.00  0.00     0.200 A 
ATOM     80  F   UNL A   1      41.980  20.397  27.960  1.00  0.00    -0.200 F 
ATOM     81  F   UNL A   1      42.618  20.312  25.309  1.00  0.00    -0.200 F 
ENDBRANCH  47  71
BRANCH  59  82
ATOM     82  C   UNL A   1      48.000  26.909  31.046  1.00  0.00     0.064 A 
ATOM     83  C   UNL A   1      48.247  26.077  32.147  1.00  0.00     0.173 A 
ATOM     84  C   UNL A   1      49.091  27.295  30.252  1.00  0.00     0.173 A 
ATOM     85  F   UNL A   1      47.238  25.693  32.943  1.00  0.00    -0.203 F 
ATOM     86  C   UNL A   1      49.542  25.666  32.454  1.00  0.00     0.198 A 
ATOM     87  C   UNL A   1      50.380  26.862  30.549  1.00  0.00     0.198 A 
ATOM     88  F   UNL A   1      48.904  28.086  29.185  1.00  0.00    -0.203 F 
ATOM     89  F   UNL A   1      49.761  24.903  33.535  1.00  0.00    -0.200 F 
ATOM     90  C   UNL A   1      50.605  26.052  31.652  1.00  0.00     0.200 A 
ATOM     91  F   UNL A   1      51.404  27.228  29.767  1.00  0.00    -0.200 F 
ATOM     92  F   UNL A   1      51.849  25.651  31.946  1.00  0.00    -0.200 F 
ENDBRANCH  59  82
ENDBRANCH  33  34
ENDBRANCH  25  28
ENDBRANCH  23  24
ENDBRANCH  22  23
ENDBRANCH   1  22
TORSDOF 13
ENDMDL
MODEL 2
REMARK VINA RESULT:     -11.9      2.841      3.984
REMARK SMILES CCc1csc(N2[C@@H]3CC[C@H]2C[C@H](CC(=O)NCCCNC(=O)c2ccc(-c4c5nc(c(-c6c(F)c(F)c(F)c(F)c6F)c6ccc([nH]6)c(-c6c(F)c(F)c(F)c(F)c6F)c6nc(c(-c7c(F)c(F)c(F)c(F)c7F)c7ccc4[nH]7)C=C6)C=C5)cc2)C3)n1
REMARK SMILES IDX 18 1 17 2 15 3 16 4 14 6 13 7 7 8 8 9 11 10 9 11 87 12 10 13
REMARK SMILES IDX 12 14 6 15 3 16 4 17 88 18 5 19 2 20 1 21 19 22 20 23 21 24
REMARK SMILES IDX 22 25 23 27 24 28 25 29 86 30 26 31 85 32 27 33 28 34 29 35
REMARK SMILES IDX 79 36 30 37 84 38 78 39 80 40 31 41 83 42 77 43 76 44 32 46
REMARK SMILES IDX 64 47 44 48 63 49 45 50 48 51 62 52 81 53 46 54 47 55 61 57
REMARK SMILES IDX 82 58 49 59 33 60 34 61 42 62 35 63 36 64 40 65 43 66 37 67
REMARK SMILES IDX 38 68 41 69 39 70 65 71 66 72 74 73 67 74 68 75 72 76 75 77
REMARK SMILES IDX 69 78 70 79 73 80 71 81 50 82 51 83 59 84 52 85 53 86 57 87
REMARK SMILES IDX 60 88 54 89 55 90 58 91 56 92
REMARK H PARENT 17 5 21 26 80 45 48 56
REMARK Flexibility Score: inf
ROOT
ATOM      1  C   UNL A   1      32.505  27.954  22.930  1.00  0.00     0.117 C 
ENDROOT
BRANCH   1   2
ATOM      2  N   UNL A   1      32.913  27.188  21.757  1.00  0.00    -0.356 N 
ATOM      3  C   UNL A   1      32.898  25.847  21.508  1.00  0.00     0.220 C 
ATOM      4  O   UNL A   1      33.277  25.468  20.397  1.00  0.00    -0.275 OA
ATOM      5  H   UNL A   1      33.259  27.735  21.016  1.00  0.00     0.163 HD
BRANCH   3   6
ATOM      6  C   UNL A   1      32.470  24.841  22.564  1.00  0.00     0.103 C 
BRANCH   6   7
ATOM      7  C   UNL A   1      33.639  24.435  23.482  1.00  0.00     0.002 C 
ATOM      8  N   UNL A   1      34.599  22.082  24.890  1.00  0.00    -0.342 N 
ATOM      9  C   UNL A   1      35.458  22.649  23.868  1.00  0.00     0.085 C 
ATOM     10  C   UNL A   1      34.110  23.176  25.693  1.00  0.00     0.085 C 
ATOM     11  C   UNL A   1      36.280  23.656  24.698  1.00  0.00     0.027 C 
ATOM     12  C   UNL A   1      34.538  23.352  22.839  1.00  0.00     0.029 C 
ATOM     13  C   UNL A   1      35.403  23.975  25.923  1.00  0.00     0.027 C 
ATOM     14  C   UNL A   1      33.116  23.985  24.858  1.00  0.00     0.029 C 
BRANCH   8  15
ATOM     15  C   UNL A   1      34.052  20.848  24.859  1.00  0.00     0.186 A 
ATOM     16  C   UNL A   1      33.862  18.635  24.659  1.00  0.00     0.053 A 
ATOM     17  C   UNL A   1      32.527  18.952  24.800  1.00  0.00     0.092 A 
ATOM     18  N   UNL A   1      34.714  19.734  24.620  1.00  0.00    -0.225 NA
ATOM     19  S   UNL A   1      32.346  20.628  25.056  1.00  0.00    -0.105 S 
BRANCH  16  20
ATOM     20  C   UNL A   1      34.410  17.249  24.530  1.00  0.00     0.054 C 
ATOM     21  C   UNL A   1      34.058  16.577  23.211  1.00  0.00     0.011 C 
ENDBRANCH  16  20
ENDBRANCH   8  15
ENDBRANCH   6   7
ENDBRANCH   3   6
ENDBRANCH   1   2
BRANCH   1  22
ATOM     22  C   UNL A   1      33.630  28.820  23.503  1.00  0.00     0.042 C 
BRANCH  22  23
ATOM     23  C   UNL A   1      33.658  28.903  25.024  1.00  0.00     0.118 C 
BRANCH  23  24
ATOM     24  N   UNL A   1      33.106  30.160  25.495  1.00  0.00    -0.352 N 
ATOM     25  C   UNL A   1      33.321  30.845  26.666  1.00  0.00     0.251 C 
ATOM     26  H   UNL A   1      32.476  30.592  24.874  1.00  0.00     0.163 HD
ATOM     27  O   UNL A   1      32.538  31.737  26.980  1.00  0.00    -0.269 OA
BRANCH  25  28
ATOM     28  C   UNL A   1      34.473  30.547  27.559  1.00  0.00     0.039 A 
ATOM     29  C   UNL A   1      35.517  31.479  27.626  1.00  0.00     0.014 A 
ATOM     30  C   UNL A   1      34.606  29.329  28.231  1.00  0.00     0.014 A 
ATOM     31  C   UNL A   1      36.674  31.198  28.363  1.00  0.00     0.010 A 
ATOM     32  C   UNL A   1      35.727  29.081  29.030  1.00  0.00     0.010 A 
ATOM     33  C   UNL A   1      36.789  29.996  29.077  1.00  0.00    -0.014 A 
BRANCH  33  34
ATOM     34  C   UNL A   1      38.040  29.653  29.807  1.00  0.00     0.031 A 
ATOM     35  C   UNL A   1      38.291  30.217  31.183  1.00  0.00     0.074 A 
ATOM     36  C   UNL A   1      38.966  28.860  29.236  1.00  0.00     0.049 A 
ATOM     37  N   UNL A   1      39.337  30.082  31.961  1.00  0.00    -0.248 NA
ATOM     38  C   UNL A   1      37.236  31.072  31.748  1.00  0.00     0.031 C 
ATOM     39  C   UNL A   1      38.872  28.279  27.898  1.00  0.00     0.029 A 
ATOM     40  N   UNL A   1      40.176  28.413  29.710  1.00  0.00    -0.354 N 
ATOM     41  C   UNL A   1      39.073  30.847  33.090  1.00  0.00     0.074 A 
ATOM     42  C   UNL A   1      37.793  31.486  32.876  1.00  0.00     0.031 C 
ATOM     43  C   UNL A   1      39.968  27.539  27.663  1.00  0.00     0.029 A 
ATOM     44  C   UNL A   1      40.854  27.614  28.822  1.00  0.00     0.049 A 
ATOM     45  H   UNL A   1      40.525  28.644  30.601  1.00  0.00     0.167 HD
ATOM     46  C   UNL A   1      39.816  30.988  34.215  1.00  0.00     0.037 A 
ATOM     47  C   UNL A   1      42.053  27.011  28.929  1.00  0.00     0.037 A 
ATOM     48  C   UNL A   1      41.071  30.325  34.450  1.00  0.00     0.049 A 
ATOM     49  C   UNL A   1      42.845  27.154  30.201  1.00  0.00     0.074 A 
ATOM     50  C   UNL A   1      41.875  30.368  35.576  1.00  0.00     0.029 A 
ATOM     51  N   UNL A   1      41.702  29.489  33.541  1.00  0.00    -0.354 N 
ATOM     52  N   UNL A   1      42.561  27.842  31.279  1.00  0.00    -0.248 NA
ATOM     53  C   UNL A   1      44.120  26.424  30.274  1.00  0.00     0.031 C 
ATOM     54  C   UNL A   1      43.007  29.580  35.338  1.00  0.00     0.029 A 
ATOM     55  C   UNL A   1      42.888  29.016  34.079  1.00  0.00     0.049 A 
ATOM     56  H   UNL A   1      41.359  29.265  32.646  1.00  0.00     0.167 HD
ATOM     57  C   UNL A   1      43.605  27.612  32.166  1.00  0.00     0.074 A 
ATOM     58  C   UNL A   1      44.523  26.707  31.505  1.00  0.00     0.031 C 
ATOM     59  C   UNL A   1      43.786  28.108  33.414  1.00  0.00     0.037 A 
BRANCH  46  60
ATOM     60  C   UNL A   1      39.279  31.893  35.286  1.00  0.00     0.064 A 
ATOM     61  C   UNL A   1      39.557  33.268  35.293  1.00  0.00     0.173 A 
ATOM     62  C   UNL A   1      38.458  31.385  36.305  1.00  0.00     0.173 A 
ATOM     63  F   UNL A   1      40.345  33.802  34.347  1.00  0.00    -0.203 F 
ATOM     64  C   UNL A   1      39.063  34.096  36.298  1.00  0.00     0.198 A 
ATOM     65  C   UNL A   1      37.942  32.220  37.292  1.00  0.00     0.198 A 
ATOM     66  F   UNL A   1      38.156  30.078  36.342  1.00  0.00    -0.203 F 
ATOM     67  F   UNL A   1      39.386  35.396  36.313  1.00  0.00    -0.200 F 
ATOM     68  C   UNL A   1      38.252  33.571  37.294  1.00  0.00     0.200 A 
ATOM     69  F   UNL A   1      37.149  31.715  38.248  1.00  0.00    -0.200 F 
ATOM     70  F   UNL A   1      37.775  34.369  38.259  1.00  0.00    -0.200 F 
ENDBRANCH  46  60
BRANCH  47  71
ATOM     71  C   UNL A   1      42.565  26.186  27.806  1.00  0.00     0.064 A 
ATOM     72  C   UNL A   1      43.429  26.731  26.846  1.00  0.00     0.173 A 
ATOM     73  C   UNL A   1      42.209  24.836  27.673  1.00  0.00     0.173 A 
ATOM     74  F   UNL A   1      43.778  28.024  26.920  1.00  0.00    -0.203 F 
ATOM     75  C   UNL A   1      43.906  25.961  25.787  1.00  0.00     0.198 A 
ATOM     76  C   UNL A   1      42.706  24.061  26.628  1.00  0.00     0.198 A 
ATOM     77  F   UNL A   1      41.387  24.268  28.568  1.00  0.00    -0.203 F 
ATOM     78  F   UNL A   1      44.699  26.519  24.862  1.00  0.00    -0.200 F 
ATOM     79  C   UNL A   1      43.549  24.626  25.683  1.00  0.00     0.200 A 
ATOM     80  F   UNL A   1      42.368  22.768  26.535  1.00  0.00    -0.200 F 
ATOM     81  F   UNL A   1      44.013  23.884  24.667  1.00  0.00    -0.200 F 
ENDBRANCH  47  71
BRANCH  59  82
ATOM     82  C   UNL A   1      45.008  27.660  34.162  1.00  0.00     0.064 A 
ATOM     83  C   UNL A   1      46.210  28.379  34.102  1.00  0.00     0.173 A 
ATOM     84  C   UNL A   1      44.962  26.519  34.977  1.00  0.00     0.173 A 
ATOM     85  F   UNL A   1      46.307  29.469  33.326  1.00  0.00    -0.203 F 
ATOM     86  C   UNL A   1      47.330  27.959  34.816  1.00  0.00     0.198 A 
ATOM     87  C   UNL A   1      46.076  26.115  35.707  1.00  0.00     0.198 A 
ATOM     88  F   UNL A   1      43.833  25.801  35.071  1.00  0.00    -0.203 F 
ATOM     89  F   UNL A   1      48.481  28.638  34.712  1.00  0.00    -0.200 F 
ATOM     90  C   UNL A   1      47.260  26.832  35.621  1.00  0.00     0.200 A 
ATOM     91  F   UNL A   1      46.004  25.033  36.493  1.00  0.00    -0.200 F 
ATOM     92  F   UNL A   1      48.338  26.432  36.311  1.00  0.00    -0.200 F 
ENDBRANCH  59  82
ENDBRANCH  33  34
ENDBRANCH  25  28
ENDBRANCH  23  24
ENDBRANCH  22  23
ENDBRANCH   1  22
TORSDOF 13
ENDMDL
MODEL 3
REMARK VINA RESULT:     -11.9      4.523      9.625
REMARK SMILES CCc1csc(N2[C@@H]3CC[C@H]2C[C@H](CC(=O)NCCCNC(=O)c2ccc(-c4c5nc(c(-c6c(F)c(F)c(F)c(F)c6F)c6ccc([nH]6)c(-c6c(F)c(F)c(F)c(F)c6F)c6nc(c(-c7c(F)c(F)c(F)c(F)c7F)c7ccc4[nH]7)C=C6)C=C5)cc2)C3)n1
REMARK SMILES IDX 18 1 17 2 15 3 16 4 14 6 13 7 7 8 8 9 11 10 9 11 87 12 10 13
REMARK SMILES IDX 12 14 6 15 3 16 4 17 88 18 5 19 2 20 1 21 19 22 20 23 21 24
REMARK SMILES IDX 22 25 23 27 24 28 25 29 86 30 26 31 85 32 27 33 28 34 29 35
REMARK SMILES IDX 79 36 30 37 84 38 78 39 80 40 31 41 83 42 77 43 76 44 32 46
REMARK SMILES IDX 64 47 44 48 63 49 45 50 48 51 62 52 81 53 46 54 47 55 61 57
REMARK SMILES IDX 82 58 49 59 33 60 34 61 42 62 35 63 36 64 40 65 43 66 37 67
REMARK SMILES IDX 38 68 41 69 39 70 65 71 66 72 74 73 67 74 68 75 72 76 75 77
REMARK SMILES IDX 69 78 70 79 73 80 71 81 50 82 51 83 59 84 52 85 53 86 57 87
REMARK SMILES IDX 60 88 54 89 55 90 58 91 56 92
REMARK H PARENT 17 5 21 26 80 45 48 56
REMARK Flexibility Score: inf
ROOT
ATOM      1  C   UNL A   1      31.553  30.857  25.868  1.00  0.00     0.117 C 
ENDROOT
BRANCH   1   2
ATOM      2  N   UNL A   1      31.384  29.738  26.788  1.00  0.00    -0.356 N 
ATOM      3  C   UNL A   1      32.200  28.687  27.088  1.00  0.00     0.220 C 
ATOM      4  O   UNL A   1      31.813  27.889  27.945  1.00  0.00    -0.275 OA
ATOM      5  H   UNL A   1      30.530  29.742  27.279  1.00  0.00     0.163 HD
BRANCH   3   6
ATOM      6  C   UNL A   1      33.525  28.472  26.373  1.00  0.00     0.103 C 
BRANCH   6   7
ATOM      7  C   UNL A   1      33.354  27.669  25.070  1.00  0.00     0.002 C 
ATOM      8  N   UNL A   1      31.468  27.442  22.872  1.00  0.00    -0.342 N 
ATOM      9  C   UNL A   1      32.817  27.872  22.556  1.00  0.00     0.085 C 
ATOM     10  C   UNL A   1      31.576  26.315  23.765  1.00  0.00     0.085 C 
ATOM     11  C   UNL A   1      33.505  26.517  22.293  1.00  0.00     0.027 C 
ATOM     12  C   UNL A   1      33.377  28.577  23.817  1.00  0.00     0.029 C 
ATOM     13  C   UNL A   1      32.662  25.484  23.063  1.00  0.00     0.027 C 
ATOM     14  C   UNL A   1      32.073  26.817  25.122  1.00  0.00     0.029 C 
BRANCH   8  15
ATOM     15  C   UNL A   1      30.350  28.176  22.694  1.00  0.00     0.186 A 
ATOM     16  C   UNL A   1      28.992  29.816  22.027  1.00  0.00     0.053 A 
ATOM     17  C   UNL A   1      28.106  29.112  22.817  1.00  0.00     0.092 A 
ATOM     18  N   UNL A   1      30.288  29.310  22.025  1.00  0.00    -0.225 NA
ATOM     19  S   UNL A   1      28.855  27.709  23.432  1.00  0.00    -0.105 S 
BRANCH  16  20
ATOM     20  C   UNL A   1      28.656  31.038  21.233  1.00  0.00     0.054 C 
ATOM     21  C   UNL A   1      28.284  32.237  22.093  1.00  0.00     0.011 C 
ENDBRANCH  16  20
ENDBRANCH   8  15
ENDBRANCH   6   7
ENDBRANCH   3   6
ENDBRANCH   1   2
BRANCH   1  22
ATOM     22  C   UNL A   1      31.360  32.220  26.537  1.00  0.00     0.042 C 
BRANCH  22  23
ATOM     23  C   UNL A   1      32.572  32.730  27.307  1.00  0.00     0.118 C 
BRANCH  23  24
ATOM     24  N   UNL A   1      32.445  34.141  27.618  1.00  0.00    -0.352 N 
ATOM     25  C   UNL A   1      32.994  34.882  28.637  1.00  0.00     0.251 C 
ATOM     26  H   UNL A   1      31.873  34.651  26.999  1.00  0.00     0.163 HD
ATOM     27  O   UNL A   1      32.527  35.992  28.876  1.00  0.00    -0.269 OA
BRANCH  25  28
ATOM     28  C   UNL A   1      34.135  34.387  29.451  1.00  0.00     0.039 A 
ATOM     29  C   UNL A   1      35.420  34.442  28.892  1.00  0.00     0.014 A 
ATOM     30  C   UNL A   1      33.961  33.765  30.690  1.00  0.00     0.014 A 
ATOM     31  C   UNL A   1      36.512  33.888  29.570  1.00  0.00     0.010 A 
ATOM     32  C   UNL A   1      35.063  33.282  31.402  1.00  0.00     0.010 A 
ATOM     33  C   UNL A   1      36.346  33.306  30.835  1.00  0.00    -0.014 A 
BRANCH  33  34
ATOM     34  C   UNL A   1      37.486  32.652  31.536  1.00  0.00     0.031 A 
ATOM     35  C   UNL A   1      38.223  31.512  30.879  1.00  0.00     0.074 A 
ATOM     36  C   UNL A   1      37.849  33.055  32.768  1.00  0.00     0.049 A 
ATOM     37  N   UNL A   1      39.205  30.779  31.341  1.00  0.00    -0.248 NA
ATOM     38  C   UNL A   1      37.776  31.127  29.531  1.00  0.00     0.031 C 
ATOM     39  C   UNL A   1      37.200  34.116  33.536  1.00  0.00     0.029 A 
ATOM     40  N   UNL A   1      38.852  32.610  33.595  1.00  0.00    -0.354 N 
ATOM     41  C   UNL A   1      39.476  29.839  30.354  1.00  0.00     0.074 A 
ATOM     42  C   UNL A   1      38.522  30.061  29.289  1.00  0.00     0.031 C 
ATOM     43  C   UNL A   1      37.830  34.252  34.714  1.00  0.00     0.029 A 
ATOM     44  C   UNL A   1      38.909  33.272  34.796  1.00  0.00     0.049 A 
ATOM     45  H   UNL A   1      39.471  31.885  33.349  1.00  0.00     0.167 HD
ATOM     46  C   UNL A   1      40.446  28.893  30.324  1.00  0.00     0.037 A 
ATOM     47  C   UNL A   1      39.738  33.108  35.845  1.00  0.00     0.037 A 
ATOM     48  C   UNL A   1      41.422  28.693  31.362  1.00  0.00     0.049 A 
ATOM     49  C   UNL A   1      40.829  32.074  35.775  1.00  0.00     0.074 A 
ATOM     50  C   UNL A   1      42.471  27.792  31.402  1.00  0.00     0.029 A 
ATOM     51  N   UNL A   1      41.471  29.416  32.545  1.00  0.00    -0.354 N 
ATOM     52  N   UNL A   1      41.103  31.224  34.816  1.00  0.00    -0.248 NA
ATOM     53  C   UNL A   1      41.734  31.985  36.931  1.00  0.00     0.031 C 
ATOM     54  C   UNL A   1      43.139  27.948  32.621  1.00  0.00     0.029 A 
ATOM     55  C   UNL A   1      42.529  28.975  33.324  1.00  0.00     0.049 A 
ATOM     56  H   UNL A   1      40.847  30.134  32.795  1.00  0.00     0.167 HD
ATOM     57  C   UNL A   1      42.222  30.519  35.239  1.00  0.00     0.074 A 
ATOM     58  C   UNL A   1      42.585  31.048  36.536  1.00  0.00     0.031 C 
ATOM     59  C   UNL A   1      42.886  29.519  34.608  1.00  0.00     0.037 A 
BRANCH  46  60
ATOM     60  C   UNL A   1      40.502  28.003  29.115  1.00  0.00     0.064 A 
ATOM     61  C   UNL A   1      41.331  28.302  28.022  1.00  0.00     0.173 A 
ATOM     62  C   UNL A   1      39.739  26.827  29.057  1.00  0.00     0.173 A 
ATOM     63  F   UNL A   1      42.072  29.420  28.023  1.00  0.00    -0.203 F 
ATOM     64  C   UNL A   1      41.366  27.476  26.902  1.00  0.00     0.198 A 
ATOM     65  C   UNL A   1      39.799  25.988  27.948  1.00  0.00     0.198 A 
ATOM     66  F   UNL A   1      38.936  26.491  30.078  1.00  0.00    -0.203 F 
ATOM     67  F   UNL A   1      42.124  27.809  25.848  1.00  0.00    -0.200 F 
ATOM     68  C   UNL A   1      40.604  26.317  26.868  1.00  0.00     0.200 A 
ATOM     69  F   UNL A   1      39.071  24.862  27.920  1.00  0.00    -0.200 F 
ATOM     70  F   UNL A   1      40.641  25.522  25.790  1.00  0.00    -0.200 F 
ENDBRANCH  46  60
BRANCH  47  71
ATOM     71  C   UNL A   1      39.587  33.972  37.044  1.00  0.00     0.064 A 
ATOM     72  C   UNL A   1      40.183  35.239  37.098  1.00  0.00     0.173 A 
ATOM     73  C   UNL A   1      38.838  33.553  38.153  1.00  0.00     0.173 A 
ATOM     74  F   UNL A   1      40.927  35.672  36.070  1.00  0.00    -0.203 F 
ATOM     75  C   UNL A   1      40.048  36.050  38.223  1.00  0.00     0.198 A 
ATOM     76  C   UNL A   1      38.683  34.375  39.267  1.00  0.00     0.198 A 
ATOM     77  F   UNL A   1      38.246  32.350  38.147  1.00  0.00    -0.203 F 
ATOM     78  F   UNL A   1      40.661  37.241  38.264  1.00  0.00    -0.200 F 
ATOM     79  C   UNL A   1      39.294  35.620  39.303  1.00  0.00     0.200 A 
ATOM     80  F   UNL A   1      37.945  33.961  40.306  1.00  0.00    -0.200 F 
ATOM     81  F   UNL A   1      39.159  36.403  40.383  1.00  0.00    -0.200 F 
ENDBRANCH  47  71
BRANCH  59  82
ATOM     82  C   UNL A   1      44.092  28.952  35.297  1.00  0.00     0.064 A 
ATOM     83  C   UNL A   1      45.376  29.467  35.071  1.00  0.00     0.173 A 
ATOM     84  C   UNL A   1      43.955  27.907  36.223  1.00  0.00     0.173 A 
ATOM     85  F   UNL A   1      45.560  30.457  34.184  1.00  0.00    -0.203 F 
ATOM     86  C   UNL A   1      46.484  28.940  35.731  1.00  0.00     0.198 A 
ATOM     87  C   UNL A   1      45.060  27.399  36.898  1.00  0.00     0.198 A 
ATOM     88  F   UNL A   1      42.746  27.385  36.478  1.00  0.00    -0.203 F 
ATOM     89  F   UNL A   1      47.708  29.420  35.469  1.00  0.00    -0.200 F 
ATOM     90  C   UNL A   1      46.324  27.912  36.648  1.00  0.00     0.200 A 
ATOM     91  F   UNL A   1      44.903  26.413  37.792  1.00  0.00    -0.200 F 
ATOM     92  F   UNL A   1      47.391  27.410  37.286  1.00  0.00    -0.200 F 
ENDBRANCH  59  82
ENDBRANCH  33  34
ENDBRANCH  25  28
ENDBRANCH  23  24
ENDBRANCH  22  23
ENDBRANCH   1  22
TORSDOF 13
ENDMDL
