MODEL 1
REMARK VINA RESULT:     -11.4      0.000      0.000
REMARK SMILES CC(C)CC1(CNC(=O)N[C@H](C)CC(=O)NCCCNC(=O)c2ccc(-c3c4nc(c(-c5c(F)c(F)c(F)c(F)c5F)c5ccc([nH]5)c(-c5c(F)c(F)c(F)c(F)c5F)c5nc(c(-c6c(F)c(F)c(F)c(F)c6F)c6ccc3[nH]6)C=C5)C=C4)cc2)CCCC1
REMARK SMILES IDX 14 1 15 2 16 3 13 5 11 6 12 7 10 8 7 9 8 10 9 12 6 14 5 15
REMARK SMILES IDX 86 16 89 17 87 18 88 19 4 20 2 21 1 22 3 23 17 24 18 25
REMARK SMILES IDX 19 26 20 27 21 28 22 30 23 31 24 32 85 33 25 34 84 35 26 36
REMARK SMILES IDX 27 37 28 38 78 39 29 40 83 41 77 42 79 43 30 44 82 45 76 46
REMARK SMILES IDX 75 47 31 49 63 50 43 51 62 52 44 53 47 54 61 55 80 56 45 57
REMARK SMILES IDX 46 58 60 60 81 61 48 62 32 63 33 64 41 65 34 66 35 67 39 68
REMARK SMILES IDX 42 69 36 70 37 71 40 72 38 73 64 74 65 75 73 76 66 77 67 78
REMARK SMILES IDX 71 79 74 80 68 81 69 82 72 83 70 84 49 85 50 86 58 87 51 88
REMARK SMILES IDX 52 89 56 90 59 91 53 92 54 93 57 94 55 95
REMARK H PARENT 16 4 7 11 10 13 20 29 79 48 47 59
REMARK Flexibility Score: inf
ROOT
ATOM      1  C   UNL A   1      32.962  20.631  24.846  1.00  0.00     0.222 C 
ATOM      2  O   UNL A   1      32.082  19.927  25.342  1.00  0.00    -0.275 OA
ATOM      3  N   UNL A   1      34.235  20.480  25.301  1.00  0.00    -0.356 N 
ATOM      4  H   UNL A   1      34.385  19.695  25.875  1.00  0.00     0.163 HD
ENDROOT
BRANCH   1   5
ATOM      5  C   UNL A   1      32.648  21.632  23.755  1.00  0.00     0.124 C 
BRANCH   5   6
ATOM      6  C   UNL A   1      32.055  22.933  24.304  1.00  0.00     0.090 C 
ATOM      7  C   UNL A   1      30.886  23.474  23.479  1.00  0.00     0.031 C 
BRANCH   6   8
ATOM      8  N   UNL A   1      31.568  22.726  25.668  1.00  0.00    -0.335 N 
ATOM      9  N   UNL A   1      31.610  24.864  26.664  1.00  0.00    -0.338 N 
ATOM     10  C   UNL A   1      31.180  23.594  26.614  1.00  0.00     0.315 C 
ATOM     11  H   UNL A   1      31.025  25.468  27.176  1.00  0.00     0.165 HD
ATOM     12  O   UNL A   1      30.390  23.202  27.475  1.00  0.00    -0.249 OA
ATOM     13  H   UNL A   1      31.518  21.781  25.940  1.00  0.00     0.165 HD
BRANCH   9  14
ATOM     14  C   UNL A   1      32.782  25.509  26.099  1.00  0.00     0.124 C 
BRANCH  14  15
ATOM     15  C   UNL A   1      32.499  26.900  25.416  1.00  0.00    -0.012 C 
ATOM     16  C   UNL A   1      33.701  27.815  25.720  1.00  0.00     0.009 C 
ATOM     17  C   UNL A   1      31.370  27.625  26.175  1.00  0.00     0.009 C 
ATOM     18  C   UNL A   1      33.519  28.249  27.171  1.00  0.00     0.001 C 
ATOM     19  C   UNL A   1      32.018  28.181  27.445  1.00  0.00     0.001 C 
BRANCH  15  20
ATOM     20  C   UNL A   1      32.212  26.737  23.890  1.00  0.00     0.012 C 
BRANCH  20  21
ATOM     21  C   UNL A   1      33.363  26.683  22.849  1.00  0.00    -0.017 C 
ATOM     22  C   UNL A   1      33.077  25.794  21.639  1.00  0.00     0.007 C 
ATOM     23  C   UNL A   1      33.642  28.109  22.344  1.00  0.00     0.007 C 
ENDBRANCH  20  21
ENDBRANCH  15  20
ENDBRANCH  14  15
ENDBRANCH   9  14
ENDBRANCH   6   8
ENDBRANCH   5   6
ENDBRANCH   1   5
BRANCH   3  24
ATOM     24  C   UNL A   1      35.403  21.306  25.062  1.00  0.00     0.117 C 
BRANCH  24  25
ATOM     25  C   UNL A   1      35.378  22.530  25.968  1.00  0.00     0.042 C 
BRANCH  25  26
ATOM     26  C   UNL A   1      36.679  23.316  25.953  1.00  0.00     0.118 C 
BRANCH  26  27
ATOM     27  N   UNL A   1      37.842  22.454  26.105  1.00  0.00    -0.352 N 
ATOM     28  C   UNL A   1      39.133  22.776  26.441  1.00  0.00     0.251 C 
ATOM     29  H   UNL A   1      37.677  21.497  25.944  1.00  0.00     0.163 HD
ATOM     30  O   UNL A   1      40.026  21.939  26.303  1.00  0.00    -0.269 OA
BRANCH  28  31
ATOM     31  C   UNL A   1      39.463  24.125  26.947  1.00  0.00     0.039 A 
ATOM     32  C   UNL A   1      39.190  24.441  28.282  1.00  0.00     0.014 A 
ATOM     33  C   UNL A   1      40.023  25.087  26.105  1.00  0.00     0.014 A 
ATOM     34  C   UNL A   1      39.541  25.698  28.785  1.00  0.00     0.010 A 
ATOM     35  C   UNL A   1      40.463  26.296  26.630  1.00  0.00     0.010 A 
ATOM     36  C   UNL A   1      40.213  26.622  27.972  1.00  0.00    -0.014 A 
BRANCH  36  37
ATOM     37  C   UNL A   1      40.632  27.958  28.468  1.00  0.00     0.031 A 
ATOM     38  C   UNL A   1      42.072  28.191  28.838  1.00  0.00     0.074 A 
ATOM     39  C   UNL A   1      39.716  28.923  28.678  1.00  0.00     0.049 A 
ATOM     40  N   UNL A   1      42.620  29.207  29.452  1.00  0.00    -0.248 NA
ATOM     41  C   UNL A   1      43.016  27.112  28.504  1.00  0.00     0.031 C 
ATOM     42  C   UNL A   1      38.286  28.814  28.382  1.00  0.00     0.029 A 
ATOM     43  N   UNL A   1      39.850  30.180  29.213  1.00  0.00    -0.354 N 
ATOM     44  C   UNL A   1      43.960  28.877  29.603  1.00  0.00     0.074 A 
ATOM     45  C   UNL A   1      44.133  27.545  29.067  1.00  0.00     0.031 C 
ATOM     46  C   UNL A   1      37.678  29.960  28.728  1.00  0.00     0.029 A 
ATOM     47  C   UNL A   1      38.663  30.864  29.316  1.00  0.00     0.049 A 
ATOM     48  H   UNL A   1      40.714  30.556  29.496  1.00  0.00     0.167 HD
ATOM     49  C   UNL A   1      44.963  29.626  30.122  1.00  0.00     0.037 A 
ATOM     50  C   UNL A   1      38.397  32.074  29.845  1.00  0.00     0.037 A 
ATOM     51  C   UNL A   1      44.790  30.963  30.625  1.00  0.00     0.049 A 
ATOM     52  C   UNL A   1      39.524  32.880  30.435  1.00  0.00     0.074 A 
ATOM     53  C   UNL A   1      45.746  31.826  31.127  1.00  0.00     0.029 A 
ATOM     54  N   UNL A   1      43.575  31.631  30.685  1.00  0.00    -0.354 N 
ATOM     55  N   UNL A   1      40.795  32.578  30.536  1.00  0.00    -0.248 NA
ATOM     56  C   UNL A   1      39.178  34.198  30.986  1.00  0.00     0.031 C 
ATOM     57  C   UNL A   1      45.104  32.998  31.538  1.00  0.00     0.029 A 
ATOM     58  C   UNL A   1      43.756  32.890  31.234  1.00  0.00     0.049 A 
ATOM     59  H   UNL A   1      42.713  31.265  30.383  1.00  0.00     0.167 HD
ATOM     60  C   UNL A   1      41.407  33.679  31.119  1.00  0.00     0.074 A 
ATOM     61  C   UNL A   1      40.367  34.660  31.350  1.00  0.00     0.031 C 
ATOM     62  C   UNL A   1      42.713  33.863  31.431  1.00  0.00     0.037 A 
BRANCH  49  63
ATOM     63  C   UNL A   1      46.333  29.014  30.175  1.00  0.00     0.064 A 
ATOM     64  C   UNL A   1      46.780  28.296  31.295  1.00  0.00     0.173 A 
ATOM     65  C   UNL A   1      47.205  29.127  29.082  1.00  0.00     0.173 A 
ATOM     66  F   UNL A   1      45.990  28.167  32.374  1.00  0.00    -0.203 F 
ATOM     67  C   UNL A   1      48.058  27.744  31.333  1.00  0.00     0.198 A 
ATOM     68  C   UNL A   1      48.470  28.544  29.109  1.00  0.00     0.198 A 
ATOM     69  F   UNL A   1      46.830  29.798  27.982  1.00  0.00    -0.203 F 
ATOM     70  F   UNL A   1      48.481  27.115  32.438  1.00  0.00    -0.200 F 
ATOM     71  C   UNL A   1      48.898  27.863  30.237  1.00  0.00     0.200 A 
ATOM     72  F   UNL A   1      49.276  28.647  28.043  1.00  0.00    -0.200 F 
ATOM     73  F   UNL A   1      50.127  27.328  30.273  1.00  0.00    -0.200 F 
ENDBRANCH  49  63
BRANCH  50  74
ATOM     74  C   UNL A   1      37.009  32.606  29.824  1.00  0.00     0.064 A 
ATOM     75  C   UNL A   1      36.528  33.314  28.713  1.00  0.00     0.173 A 
ATOM     76  C   UNL A   1      36.137  32.427  30.908  1.00  0.00     0.173 A 
ATOM     77  F   UNL A   1      37.330  33.528  27.659  1.00  0.00    -0.203 F 
ATOM     78  C   UNL A   1      35.238  33.840  28.696  1.00  0.00     0.198 A 
ATOM     79  C   UNL A   1      34.837  32.927  30.878  1.00  0.00     0.198 A 
ATOM     80  F   UNL A   1      36.544  31.753  31.994  1.00  0.00    -0.203 F 
ATOM     81  F   UNL A   1      34.822  34.553  27.640  1.00  0.00    -0.200 F 
ATOM     82  C   UNL A   1      34.391  33.641  29.776  1.00  0.00     0.200 A 
ATOM     83  F   UNL A   1      34.017  32.720  31.917  1.00  0.00    -0.200 F 
ATOM     84  F   UNL A   1      33.149  34.143  29.757  1.00  0.00    -0.200 F 
ENDBRANCH  50  74
BRANCH  62  85
ATOM     85  C   UNL A   1      43.112  35.197  31.995  1.00  0.00     0.064 A 
ATOM     86  C   UNL A   1      43.048  35.471  33.368  1.00  0.00     0.173 A 
ATOM     87  C   UNL A   1      43.630  36.190  31.148  1.00  0.00     0.173 A 
ATOM     88  F   UNL A   1      42.548  34.561  34.216  1.00  0.00    -0.203 F 
ATOM     89  C   UNL A   1      43.472  36.698  33.871  1.00  0.00     0.198 A 
ATOM     90  C   UNL A   1      44.083  37.402  31.659  1.00  0.00     0.198 A 
ATOM     91  F   UNL A   1      43.720  35.974  29.828  1.00  0.00    -0.203 F 
ATOM     92  F   UNL A   1      43.366  36.955  35.183  1.00  0.00    -0.200 F 
ATOM     93  C   UNL A   1      43.999  37.658  33.019  1.00  0.00     0.200 A 
ATOM     94  F   UNL A   1      44.607  38.320  30.835  1.00  0.00    -0.200 F 
ATOM     95  F   UNL A   1      44.422  38.832  33.507  1.00  0.00    -0.200 F 
ENDBRANCH  62  85
ENDBRANCH  36  37
ENDBRANCH  28  31
ENDBRANCH  26  27
ENDBRANCH  25  26
ENDBRANCH  24  25
ENDBRANCH   3  24
TORSDOF 16
ENDMDL
MODEL 2
REMARK VINA RESULT:     -11.3      4.313      8.179
REMARK SMILES CC(C)CC1(CNC(=O)N[C@H](C)CC(=O)NCCCNC(=O)c2ccc(-c3c4nc(c(-c5c(F)c(F)c(F)c(F)c5F)c5ccc([nH]5)c(-c5c(F)c(F)c(F)c(F)c5F)c5nc(c(-c6c(F)c(F)c(F)c(F)c6F)c6ccc3[nH]6)C=C5)C=C4)cc2)CCCC1
REMARK SMILES IDX 14 1 15 2 16 3 13 5 11 6 12 7 10 8 7 9 8 10 9 12 6 14 5 15
REMARK SMILES IDX 86 16 89 17 87 18 88 19 4 20 2 21 1 22 3 23 17 24 18 25
REMARK SMILES IDX 19 26 20 27 21 28 22 30 23 31 24 32 85 33 25 34 84 35 26 36
REMARK SMILES IDX 27 37 28 38 78 39 29 40 83 41 77 42 79 43 30 44 82 45 76 46
REMARK SMILES IDX 75 47 31 49 63 50 43 51 62 52 44 53 47 54 61 55 80 56 45 57
REMARK SMILES IDX 46 58 60 60 81 61 48 62 32 63 33 64 41 65 34 66 35 67 39 68
REMARK SMILES IDX 42 69 36 70 37 71 40 72 38 73 64 74 65 75 73 76 66 77 67 78
REMARK SMILES IDX 71 79 74 80 68 81 69 82 72 83 70 84 49 85 50 86 58 87 51 88
REMARK SMILES IDX 52 89 56 90 59 91 53 92 54 93 57 94 55 95
REMARK H PARENT 16 4 7 11 10 13 20 29 79 48 47 59
REMARK Flexibility Score: inf
ROOT
ATOM      1  C   UNL A   1      32.686  29.277  24.807  1.00  0.00     0.222 C 
ATOM      2  O   UNL A   1      33.806  28.850  24.525  1.00  0.00    -0.275 OA
ATOM      3  N   UNL A   1      32.585  30.207  25.795  1.00  0.00    -0.356 N 
ATOM      4  H   UNL A   1      33.439  30.594  26.096  1.00  0.00     0.163 HD
ENDROOT
BRANCH   1   5
ATOM      5  C   UNL A   1      31.452  28.796  24.074  1.00  0.00     0.124 C 
BRANCH   5   6
ATOM      6  C   UNL A   1      31.520  27.308  23.723  1.00  0.00     0.090 C 
ATOM      7  C   UNL A   1      30.153  26.672  23.464  1.00  0.00     0.031 C 
BRANCH   6   8
ATOM      8  N   UNL A   1      32.327  27.113  22.518  1.00  0.00    -0.335 N 
ATOM      9  N   UNL A   1      33.642  25.206  22.963  1.00  0.00    -0.338 N 
ATOM     10  C   UNL A   1      33.087  26.083  22.114  1.00  0.00     0.315 C 
ATOM     11  H   UNL A   1      33.883  24.344  22.552  1.00  0.00     0.165 HD
ATOM     12  O   UNL A   1      33.280  25.942  20.906  1.00  0.00    -0.249 OA
ATOM     13  H   UNL A   1      32.310  27.873  21.893  1.00  0.00     0.165 HD
BRANCH   9  14
ATOM     14  C   UNL A   1      33.950  25.295  24.380  1.00  0.00     0.124 C 
BRANCH  14  15
ATOM     15  C   UNL A   1      33.875  23.926  25.154  1.00  0.00    -0.012 C 
ATOM     16  C   UNL A   1      32.864  23.032  24.412  1.00  0.00     0.009 C 
ATOM     17  C   UNL A   1      33.157  24.136  26.502  1.00  0.00     0.009 C 
ATOM     18  C   UNL A   1      31.490  23.571  24.799  1.00  0.00     0.001 C 
ATOM     19  C   UNL A   1      31.667  24.230  26.165  1.00  0.00     0.001 C 
BRANCH  15  20
ATOM     20  C   UNL A   1      35.287  23.277  25.301  1.00  0.00     0.012 C 
BRANCH  20  21
ATOM     21  C   UNL A   1      35.841  22.290  24.239  1.00  0.00    -0.017 C 
ATOM     22  C   UNL A   1      36.653  22.953  23.126  1.00  0.00     0.007 C 
ATOM     23  C   UNL A   1      36.740  21.258  24.942  1.00  0.00     0.007 C 
ENDBRANCH  20  21
ENDBRANCH  15  20
ENDBRANCH  14  15
ENDBRANCH   9  14
ENDBRANCH   6   8
ENDBRANCH   5   6
ENDBRANCH   1   5
BRANCH   3  24
ATOM     24  C   UNL A   1      31.404  30.711  26.469  1.00  0.00     0.117 C 
BRANCH  24  25
ATOM     25  C   UNL A   1      31.425  32.234  26.501  1.00  0.00     0.042 C 
BRANCH  25  26
ATOM     26  C   UNL A   1      32.617  32.804  27.252  1.00  0.00     0.118 C 
BRANCH  26  27
ATOM     27  N   UNL A   1      32.414  34.195  27.627  1.00  0.00    -0.352 N 
ATOM     28  C   UNL A   1      33.010  34.931  28.621  1.00  0.00     0.251 C 
ATOM     29  H   UNL A   1      31.750  34.682  27.087  1.00  0.00     0.163 HD
ATOM     30  O   UNL A   1      32.548  36.030  28.928  1.00  0.00    -0.269 OA
BRANCH  28  31
ATOM     31  C   UNL A   1      34.191  34.405  29.339  1.00  0.00     0.039 A 
ATOM     32  C   UNL A   1      34.013  33.746  30.559  1.00  0.00     0.014 A 
ATOM     33  C   UNL A   1      35.476  34.575  28.822  1.00  0.00     0.014 A 
ATOM     34  C   UNL A   1      35.116  33.202  31.224  1.00  0.00     0.010 A 
ATOM     35  C   UNL A   1      36.557  33.949  29.430  1.00  0.00     0.010 A 
ATOM     36  C   UNL A   1      36.392  33.268  30.646  1.00  0.00    -0.014 A 
BRANCH  36  37
ATOM     37  C   UNL A   1      37.590  32.682  31.299  1.00  0.00     0.031 A 
ATOM     38  C   UNL A   1      38.333  31.565  30.614  1.00  0.00     0.074 A 
ATOM     39  C   UNL A   1      37.952  33.075  32.535  1.00  0.00     0.049 A 
ATOM     40  N   UNL A   1      39.284  30.794  31.073  1.00  0.00    -0.248 NA
ATOM     41  C   UNL A   1      37.919  31.252  29.237  1.00  0.00     0.031 C 
ATOM     42  C   UNL A   1      37.301  34.130  33.313  1.00  0.00     0.029 A 
ATOM     43  N   UNL A   1      38.946  32.616  33.363  1.00  0.00    -0.354 N 
ATOM     44  C   UNL A   1      39.558  29.889  30.056  1.00  0.00     0.074 A 
ATOM     45  C   UNL A   1      38.637  30.171  28.977  1.00  0.00     0.031 C 
ATOM     46  C   UNL A   1      37.920  34.245  34.500  1.00  0.00     0.029 A 
ATOM     47  C   UNL A   1      38.976  33.240  34.586  1.00  0.00     0.049 A 
ATOM     48  H   UNL A   1      39.578  31.907  33.105  1.00  0.00     0.167 HD
ATOM     49  C   UNL A   1      40.508  28.924  30.015  1.00  0.00     0.037 A 
ATOM     50  C   UNL A   1      39.753  33.013  35.663  1.00  0.00     0.037 A 
ATOM     51  C   UNL A   1      41.442  28.670  31.080  1.00  0.00     0.049 A 
ATOM     52  C   UNL A   1      40.788  31.920  35.602  1.00  0.00     0.074 A 
ATOM     53  C   UNL A   1      42.474  27.750  31.121  1.00  0.00     0.029 A 
ATOM     54  N   UNL A   1      41.457  29.344  32.292  1.00  0.00    -0.354 N 
ATOM     55  N   UNL A   1      41.069  31.098  34.621  1.00  0.00    -0.248 NA
ATOM     56  C   UNL A   1      41.616  31.725  36.801  1.00  0.00     0.031 C 
ATOM     57  C   UNL A   1      43.082  27.832  32.377  1.00  0.00     0.029 A 
ATOM     58  C   UNL A   1      42.469  28.847  33.096  1.00  0.00     0.049 A 
ATOM     59  H   UNL A   1      40.839  30.069  32.544  1.00  0.00     0.167 HD
ATOM     60  C   UNL A   1      42.129  30.319  35.064  1.00  0.00     0.074 A 
ATOM     61  C   UNL A   1      42.444  30.767  36.405  1.00  0.00     0.031 C 
ATOM     62  C   UNL A   1      42.785  29.325  34.418  1.00  0.00     0.037 A 
BRANCH  49  63
ATOM     63  C   UNL A   1      40.581  28.071  28.782  1.00  0.00     0.064 A 
ATOM     64  C   UNL A   1      41.369  28.432  27.678  1.00  0.00     0.173 A 
ATOM     65  C   UNL A   1      39.870  26.863  28.709  1.00  0.00     0.173 A 
ATOM     66  F   UNL A   1      42.060  29.583  27.689  1.00  0.00    -0.203 F 
ATOM     67  C   UNL A   1      41.416  27.635  26.537  1.00  0.00     0.198 A 
ATOM     68  C   UNL A   1      39.947  26.051  27.581  1.00  0.00     0.198 A 
ATOM     69  F   UNL A   1      39.104  26.465  29.737  1.00  0.00    -0.203 F 
ATOM     70  F   UNL A   1      42.129  28.032  25.474  1.00  0.00    -0.200 F 
ATOM     71  C   UNL A   1      40.711  26.442  26.493  1.00  0.00     0.200 A 
ATOM     72  F   UNL A   1      39.277  24.890  27.545  1.00  0.00    -0.200 F 
ATOM     73  F   UNL A   1      40.761  25.673  25.395  1.00  0.00    -0.200 F 
ENDBRANCH  49  63
BRANCH  50  74
ATOM     74  C   UNL A   1      39.596  33.846  36.884  1.00  0.00     0.064 A 
ATOM     75  C   UNL A   1      38.776  33.424  37.941  1.00  0.00     0.173 A 
ATOM     76  C   UNL A   1      40.253  35.077  37.022  1.00  0.00     0.173 A 
ATOM     77  F   UNL A   1      38.111  32.263  37.847  1.00  0.00    -0.203 F 
ATOM     78  C   UNL A   1      38.602  34.210  39.077  1.00  0.00     0.198 A 
ATOM     79  C   UNL A   1      40.103  35.849  38.172  1.00  0.00     0.198 A 
ATOM     80  F   UNL A   1      41.054  35.525  36.044  1.00  0.00    -0.203 F 
ATOM     81  F   UNL A   1      37.775  33.804  40.049  1.00  0.00    -0.200 F 
ATOM     82  C   UNL A   1      39.271  35.420  39.195  1.00  0.00     0.200 A 
ATOM     83  F   UNL A   1      40.762  37.009  38.289  1.00  0.00    -0.200 F 
ATOM     84  F   UNL A   1      39.106  36.174  40.291  1.00  0.00    -0.200 F 
ENDBRANCH  50  74
BRANCH  62  85
ATOM     85  C   UNL A   1      43.955  28.694  35.118  1.00  0.00     0.064 A 
ATOM     86  C   UNL A   1      43.816  27.543  35.905  1.00  0.00     0.173 A 
ATOM     87  C   UNL A   1      45.246  29.216  34.937  1.00  0.00     0.173 A 
ATOM     88  F   UNL A   1      42.602  27.014  36.120  1.00  0.00    -0.203 F 
ATOM     89  C   UNL A   1      44.924  26.948  36.502  1.00  0.00     0.198 A 
ATOM     90  C   UNL A   1      46.355  28.599  35.508  1.00  0.00     0.198 A 
ATOM     91  F   UNL A   1      45.434  30.310  34.185  1.00  0.00    -0.203 F 
ATOM     92  F   UNL A   1      44.764  25.870  37.283  1.00  0.00    -0.200 F 
ATOM     93  C   UNL A   1      46.193  27.469  36.294  1.00  0.00     0.200 A 
ATOM     94  F   UNL A   1      47.581  29.096  35.291  1.00  0.00    -0.200 F 
ATOM     95  F   UNL A   1      47.260  26.885  36.856  1.00  0.00    -0.200 F 
ENDBRANCH  62  85
ENDBRANCH  36  37
ENDBRANCH  28  31
ENDBRANCH  26  27
ENDBRANCH  25  26
ENDBRANCH  24  25
ENDBRANCH   3  24
TORSDOF 16
ENDMDL
MODEL 3
REMARK VINA RESULT:     -11.3      3.126      8.415
REMARK SMILES CC(C)CC1(CNC(=O)N[C@H](C)CC(=O)NCCCNC(=O)c2ccc(-c3c4nc(c(-c5c(F)c(F)c(F)c(F)c5F)c5ccc([nH]5)c(-c5c(F)c(F)c(F)c(F)c5F)c5nc(c(-c6c(F)c(F)c(F)c(F)c6F)c6ccc3[nH]6)C=C5)C=C4)cc2)CCCC1
REMARK SMILES IDX 14 1 15 2 16 3 13 5 11 6 12 7 10 8 7 9 8 10 9 12 6 14 5 15
REMARK SMILES IDX 86 16 89 17 87 18 88 19 4 20 2 21 1 22 3 23 17 24 18 25
REMARK SMILES IDX 19 26 20 27 21 28 22 30 23 31 24 32 85 33 25 34 84 35 26 36
REMARK SMILES IDX 27 37 28 38 78 39 29 40 83 41 77 42 79 43 30 44 82 45 76 46
REMARK SMILES IDX 75 47 31 49 63 50 43 51 62 52 44 53 47 54 61 55 80 56 45 57
REMARK SMILES IDX 46 58 60 60 81 61 48 62 32 63 33 64 41 65 34 66 35 67 39 68
REMARK SMILES IDX 42 69 36 70 37 71 40 72 38 73 64 74 65 75 73 76 66 77 67 78
REMARK SMILES IDX 71 79 74 80 68 81 69 82 72 83 70 84 49 85 50 86 58 87 51 88
REMARK SMILES IDX 52 89 56 90 59 91 53 92 54 93 57 94 55 95
REMARK H PARENT 16 4 7 11 10 13 20 29 79 48 47 59
REMARK Flexibility Score: inf
ROOT
ATOM      1  C   UNL A   1      35.636  22.471  26.058  1.00  0.00     0.222 C 
ATOM      2  O   UNL A   1      35.805  23.689  26.128  1.00  0.00    -0.275 OA
ATOM      3  N   UNL A   1      36.579  21.730  25.416  1.00  0.00    -0.356 N 
ATOM      4  H   UNL A   1      37.414  22.206  25.204  1.00  0.00     0.163 HD
ENDROOT
BRANCH   1   5
ATOM      5  C   UNL A   1      34.423  21.807  26.673  1.00  0.00     0.124 C 
BRANCH   5   6
ATOM      6  C   UNL A   1      33.125  22.164  25.944  1.00  0.00     0.090 C 
ATOM      7  C   UNL A   1      32.678  21.111  24.928  1.00  0.00     0.031 C 
BRANCH   6   8
ATOM      8  N   UNL A   1      32.037  22.329  26.908  1.00  0.00    -0.335 N 
ATOM      9  N   UNL A   1      31.413  24.598  26.747  1.00  0.00    -0.338 N 
ATOM     10  C   UNL A   1      31.162  23.329  27.100  1.00  0.00     0.315 C 
ATOM     11  H   UNL A   1      30.607  25.151  26.632  1.00  0.00     0.165 HD
ATOM     12  O   UNL A   1      30.080  23.062  27.625  1.00  0.00    -0.249 OA
ATOM     13  H   UNL A   1      31.928  21.572  27.528  1.00  0.00     0.165 HD
BRANCH   9  14
ATOM     14  C   UNL A   1      32.658  25.305  26.501  1.00  0.00     0.124 C 
BRANCH  14  15
ATOM     15  C   UNL A   1      32.525  26.556  25.555  1.00  0.00    -0.012 C 
ATOM     16  C   UNL A   1      33.653  27.538  25.928  1.00  0.00     0.009 C 
ATOM     17  C   UNL A   1      31.277  27.369  25.949  1.00  0.00     0.009 C 
ATOM     18  C   UNL A   1      33.196  28.201  27.224  1.00  0.00     0.001 C 
ATOM     19  C   UNL A   1      31.670  28.143  27.210  1.00  0.00     0.001 C 
BRANCH  15  20
ATOM     20  C   UNL A   1      32.540  26.137  24.051  1.00  0.00     0.012 C 
BRANCH  20  21
ATOM     21  C   UNL A   1      32.234  24.680  23.611  1.00  0.00    -0.017 C 
ATOM     22  C   UNL A   1      30.783  24.439  23.196  1.00  0.00     0.007 C 
ATOM     23  C   UNL A   1      33.142  24.319  22.423  1.00  0.00     0.007 C 
ENDBRANCH  20  21
ENDBRANCH  15  20
ENDBRANCH  14  15
ENDBRANCH   9  14
ENDBRANCH   6   8
ENDBRANCH   5   6
ENDBRANCH   1   5
BRANCH   3  24
ATOM     24  C   UNL A   1      36.535  20.341  25.002  1.00  0.00     0.117 C 
BRANCH  24  25
ATOM     25  C   UNL A   1      37.939  19.836  24.696  1.00  0.00     0.042 C 
BRANCH  25  26
ATOM     26  C   UNL A   1      38.962  20.227  25.750  1.00  0.00     0.118 C 
BRANCH  26  27
ATOM     27  N   UNL A   1      39.982  19.204  25.929  1.00  0.00    -0.352 N 
ATOM     28  C   UNL A   1      41.334  19.338  26.125  1.00  0.00     0.251 C 
ATOM     29  H   UNL A   1      39.653  18.276  25.909  1.00  0.00     0.163 HD
ATOM     30  O   UNL A   1      42.065  18.352  26.034  1.00  0.00    -0.269 OA
BRANCH  28  31
ATOM     31  C   UNL A   1      41.921  20.662  26.423  1.00  0.00     0.039 A 
ATOM     32  C   UNL A   1      42.154  21.559  25.376  1.00  0.00     0.014 A 
ATOM     33  C   UNL A   1      42.260  21.016  27.730  1.00  0.00     0.014 A 
ATOM     34  C   UNL A   1      42.664  22.832  25.650  1.00  0.00     0.010 A 
ATOM     35  C   UNL A   1      42.670  22.312  28.013  1.00  0.00     0.010 A 
ATOM     36  C   UNL A   1      42.892  23.230  26.976  1.00  0.00    -0.014 A 
BRANCH  36  37
ATOM     37  C   UNL A   1      43.406  24.581  27.320  1.00  0.00     0.031 A 
ATOM     38  C   UNL A   1      42.465  25.606  27.894  1.00  0.00     0.074 A 
ATOM     39  C   UNL A   1      44.678  24.918  27.031  1.00  0.00     0.049 A 
ATOM     40  N   UNL A   1      42.651  26.883  28.099  1.00  0.00    -0.248 NA
ATOM     41  C   UNL A   1      41.118  25.130  28.250  1.00  0.00     0.031 C 
ATOM     42  C   UNL A   1      45.682  24.024  26.452  1.00  0.00     0.029 A 
ATOM     43  N   UNL A   1      45.337  26.115  27.165  1.00  0.00    -0.354 N 
ATOM     44  C   UNL A   1      41.439  27.368  28.577  1.00  0.00     0.074 A 
ATOM     45  C   UNL A   1      40.511  26.259  28.579  1.00  0.00     0.031 C 
ATOM     46  C   UNL A   1      46.831  24.700  26.293  1.00  0.00     0.029 A 
ATOM     47  C   UNL A   1      46.632  26.085  26.709  1.00  0.00     0.049 A 
ATOM     48  H   UNL A   1      44.921  26.919  27.552  1.00  0.00     0.167 HD
ATOM     49  C   UNL A   1      41.135  28.619  28.997  1.00  0.00     0.037 A 
ATOM     50  C   UNL A   1      47.547  27.069  26.617  1.00  0.00     0.037 A 
ATOM     51  C   UNL A   1      42.073  29.709  29.021  1.00  0.00     0.049 A 
ATOM     52  C   UNL A   1      47.179  28.458  27.070  1.00  0.00     0.074 A 
ATOM     53  C   UNL A   1      41.882  31.003  29.472  1.00  0.00     0.029 A 
ATOM     54  N   UNL A   1      43.385  29.630  28.576  1.00  0.00    -0.354 N 
ATOM     55  N   UNL A   1      46.045  28.896  27.559  1.00  0.00    -0.248 NA
ATOM     56  C   UNL A   1      48.221  29.489  26.959  1.00  0.00     0.031 C 
ATOM     57  C   UNL A   1      43.061  31.720  29.254  1.00  0.00     0.029 A 
ATOM     58  C   UNL A   1      44.009  30.858  28.725  1.00  0.00     0.049 A 
ATOM     59  H   UNL A   1      43.810  28.821  28.209  1.00  0.00     0.167 HD
ATOM     60  C   UNL A   1      46.248  30.238  27.854  1.00  0.00     0.074 A 
ATOM     61  C   UNL A   1      47.615  30.543  27.489  1.00  0.00     0.031 C 
ATOM     62  C   UNL A   1      45.380  31.135  28.382  1.00  0.00     0.037 A 
BRANCH  49  63
ATOM     63  C   UNL A   1      39.729  28.875  29.459  1.00  0.00     0.064 A 
ATOM     64  C   UNL A   1      38.723  29.290  28.574  1.00  0.00     0.173 A 
ATOM     65  C   UNL A   1      39.376  28.680  30.803  1.00  0.00     0.173 A 
ATOM     66  F   UNL A   1      39.008  29.503  27.279  1.00  0.00    -0.203 F 
ATOM     67  C   UNL A   1      37.427  29.535  29.021  1.00  0.00     0.198 A 
ATOM     68  C   UNL A   1      38.071  28.891  31.241  1.00  0.00     0.198 A 
ATOM     69  F   UNL A   1      40.296  28.279  31.694  1.00  0.00    -0.203 F 
ATOM     70  F   UNL A   1      36.500  29.988  28.167  1.00  0.00    -0.200 F 
ATOM     71  C   UNL A   1      37.102  29.328  30.353  1.00  0.00     0.200 A 
ATOM     72  F   UNL A   1      37.754  28.677  32.526  1.00  0.00    -0.200 F 
ATOM     73  F   UNL A   1      35.852  29.559  30.782  1.00  0.00    -0.200 F 
ENDBRANCH  49  63
BRANCH  50  74
ATOM     74  C   UNL A   1      48.906  26.775  26.090  1.00  0.00     0.064 A 
ATOM     75  C   UNL A   1      49.911  26.280  26.934  1.00  0.00     0.173 A 
ATOM     76  C   UNL A   1      49.233  26.985  24.743  1.00  0.00     0.173 A 
ATOM     77  F   UNL A   1      49.653  26.081  28.235  1.00  0.00    -0.203 F 
ATOM     78  C   UNL A   1      51.194  26.027  26.456  1.00  0.00     0.198 A 
ATOM     79  C   UNL A   1      50.508  26.703  24.258  1.00  0.00     0.198 A 
ATOM     80  F   UNL A   1      48.308  27.452  23.891  1.00  0.00    -0.203 F 
ATOM     81  F   UNL A   1      52.147  25.601  27.295  1.00  0.00    -0.200 F 
ATOM     82  C   UNL A   1      51.491  26.233  25.116  1.00  0.00     0.200 A 
ATOM     83  F   UNL A   1      50.786  26.888  22.961  1.00  0.00    -0.200 F 
ATOM     84  F   UNL A   1      52.725  25.986  24.656  1.00  0.00    -0.200 F 
ENDBRANCH  50  74
BRANCH  62  85
ATOM     85  C   UNL A   1      45.895  32.518  28.664  1.00  0.00     0.064 A 
ATOM     86  C   UNL A   1      46.526  32.842  29.873  1.00  0.00     0.173 A 
ATOM     87  C   UNL A   1      45.813  33.512  27.676  1.00  0.00     0.173 A 
ATOM     88  F   UNL A   1      46.617  31.931  30.853  1.00  0.00    -0.203 F 
ATOM     89  C   UNL A   1      47.040  34.118  30.090  1.00  0.00     0.198 A 
ATOM     90  C   UNL A   1      46.357  34.776  27.885  1.00  0.00     0.198 A 
ATOM     91  F   UNL A   1      45.226  33.250  26.499  1.00  0.00    -0.203 F 
ATOM     92  F   UNL A   1      47.604  34.419  31.268  1.00  0.00    -0.200 F 
ATOM     93  C   UNL A   1      46.965  35.079  29.093  1.00  0.00     0.200 A 
ATOM     94  F   UNL A   1      46.297  35.697  26.913  1.00  0.00    -0.200 F 
ATOM     95  F   UNL A   1      47.475  36.302  29.298  1.00  0.00    -0.200 F 
ENDBRANCH  62  85
ENDBRANCH  36  37
ENDBRANCH  28  31
ENDBRANCH  26  27
ENDBRANCH  25  26
ENDBRANCH  24  25
ENDBRANCH   3  24
TORSDOF 16
ENDMDL
