MODEL 1
REMARK VINA RESULT:     -12.1      0.000      0.000
REMARK SMILES CCC1(C)CC[NH+]([C@@H]2CC[C@]([NH2+]C3CC3)(C(=O)NCCCNC(=O)c3ccc(-c4c5nc(c(-c6c(F)c(F)c(F)c(F)c6F)c6ccc([nH]6)c(-c6c(F)c(F)c(F)c(F)c6F)c6nc(c(-c7c(F)c(F)c(F)c(F)c7F)c7ccc4[nH]7)C=C6)C=C5)cc3)C2)CC1
REMARK SMILES IDX 20 1 19 2 18 3 16 4 17 5 11 7 8 8 9 9 88 10 10 11 7 12 3 13
REMARK SMILES IDX 4 14 5 15 90 16 6 17 89 18 2 20 1 21 12 22 13 25 14 26 15 27
REMARK SMILES IDX 21 28 22 29 23 30 24 32 25 33 26 34 87 35 27 36 86 37 28 38
REMARK SMILES IDX 29 39 30 40 80 41 31 42 85 43 79 44 81 45 32 46 84 47 78 48
REMARK SMILES IDX 77 49 33 51 65 52 45 53 64 54 46 55 49 56 63 57 82 58 47 59
REMARK SMILES IDX 48 60 62 62 83 63 50 64 34 65 35 66 43 67 36 68 37 69 41 70
REMARK SMILES IDX 44 71 38 72 39 73 42 74 40 75 66 76 67 77 75 78 68 79 69 80
REMARK SMILES IDX 73 81 76 82 70 83 71 84 74 85 72 86 51 87 52 88 60 89 53 90
REMARK SMILES IDX 54 91 58 92 61 93 55 94 56 95 59 96 57 97
REMARK H PARENT 18 6 7 19 12 23 12 24 22 31 81 50 49 61
REMARK Flexibility Score: inf
ROOT
ATOM      1  C   UNL A   1      31.402  32.680  26.393  1.00  0.00     0.042 C 
ENDROOT
BRANCH   1   2
ATOM      2  C   UNL A   1      31.100  31.178  26.418  1.00  0.00     0.118 C 
BRANCH   2   3
ATOM      3  N   UNL A   1      31.101  30.601  25.085  1.00  0.00    -0.351 N 
ATOM      4  C   UNL A   1      31.708  29.514  24.541  1.00  0.00     0.281 C 
ATOM      5  O   UNL A   1      31.446  29.318  23.343  1.00  0.00    -0.268 OA
ATOM      6  H   UNL A   1      30.547  31.102  24.444  1.00  0.00     0.163 HD
BRANCH   4   7
ATOM      7  C   UNL A   1      32.604  28.475  25.311  1.00  0.00     0.181 C 
ATOM      8  C   UNL A   1      32.992  26.057  25.636  1.00  0.00     0.191 C 
ATOM      9  C   UNL A   1      32.011  26.506  26.724  1.00  0.00     0.072 C 
ATOM     10  C   UNL A   1      32.893  27.161  24.583  1.00  0.00     0.144 C 
ATOM     11  C   UNL A   1      31.775  28.008  26.536  1.00  0.00     0.085 C 
BRANCH   8  12
ATOM     12  N   UNL A   1      32.935  24.685  25.101  1.00  0.00    -0.332 N 
ATOM     13  C   UNL A   1      35.538  23.207  25.138  1.00  0.00    -0.022 C 
ATOM     14  C   UNL A   1      35.407  21.780  24.564  1.00  0.00     0.012 C 
ATOM     15  C   UNL A   1      35.163  24.229  24.024  1.00  0.00     0.068 C 
ATOM     16  C   UNL A   1      34.611  23.342  26.372  1.00  0.00     0.068 C 
ATOM     17  C   UNL A   1      33.662  24.476  23.848  1.00  0.00     0.263 C 
ATOM     18  C   UNL A   1      33.147  23.555  26.000  1.00  0.00     0.263 C 
ATOM     19  H   UNL A   1      31.932  24.666  24.918  1.00  0.00     0.348 HD
BRANCH  13  20
ATOM     20  C   UNL A   1      37.017  23.479  25.540  1.00  0.00     0.004 C 
ATOM     21  C   UNL A   1      37.913  22.255  25.671  1.00  0.00     0.004 C 
ENDBRANCH  13  20
ENDBRANCH   8  12
BRANCH   7  22
ATOM     22  N   UNL A   1      33.812  29.240  25.715  1.00  0.00    -0.331 N 
ATOM     23  H   UNL A   1      33.710  30.186  25.348  1.00  0.00     0.347 HD
ATOM     24  H   UNL A   1      34.594  28.705  25.338  1.00  0.00     0.347 HD
BRANCH  22  25
ATOM     25  C   UNL A   1      34.098  29.355  27.146  1.00  0.00     0.183 C 
ATOM     26  C   UNL A   1      35.527  29.278  27.603  1.00  0.00     0.071 C 
ATOM     27  C   UNL A   1      34.798  30.588  27.646  1.00  0.00     0.071 C 
ENDBRANCH  22  25
ENDBRANCH   7  22
ENDBRANCH   4   7
ENDBRANCH   2   3
ENDBRANCH   1   2
BRANCH   1  28
ATOM     28  C   UNL A   1      32.572  33.098  27.279  1.00  0.00     0.118 C 
BRANCH  28  29
ATOM     29  N   UNL A   1      32.446  34.471  27.741  1.00  0.00    -0.352 N 
ATOM     30  C   UNL A   1      33.060  35.124  28.779  1.00  0.00     0.251 C 
ATOM     31  H   UNL A   1      31.818  35.022  27.221  1.00  0.00     0.163 HD
ATOM     32  O   UNL A   1      32.648  36.233  29.111  1.00  0.00    -0.269 OA
BRANCH  30  33
ATOM     33  C   UNL A   1      34.203  34.527  29.508  1.00  0.00     0.039 A 
ATOM     34  C   UNL A   1      35.474  34.606  28.928  1.00  0.00     0.014 A 
ATOM     35  C   UNL A   1      34.032  33.817  30.700  1.00  0.00     0.014 A 
ATOM     36  C   UNL A   1      36.571  34.003  29.549  1.00  0.00     0.010 A 
ATOM     37  C   UNL A   1      35.137  33.271  31.354  1.00  0.00     0.010 A 
ATOM     38  C   UNL A   1      36.413  33.344  30.777  1.00  0.00    -0.014 A 
BRANCH  38  39
ATOM     39  C   UNL A   1      37.566  32.694  31.451  1.00  0.00     0.031 A 
ATOM     40  C   UNL A   1      38.306  31.576  30.772  1.00  0.00     0.074 A 
ATOM     41  C   UNL A   1      37.916  33.075  32.694  1.00  0.00     0.049 A 
ATOM     42  N   UNL A   1      39.287  30.834  31.223  1.00  0.00    -0.248 NA
ATOM     43  C   UNL A   1      37.866  31.226  29.413  1.00  0.00     0.031 C 
ATOM     44  C   UNL A   1      37.258  34.126  33.471  1.00  0.00     0.029 A 
ATOM     45  N   UNL A   1      38.906  32.614  33.526  1.00  0.00    -0.354 N 
ATOM     46  C   UNL A   1      39.565  29.921  30.214  1.00  0.00     0.074 A 
ATOM     47  C   UNL A   1      38.622  30.171  29.146  1.00  0.00     0.031 C 
ATOM     48  C   UNL A   1      37.873  34.242  34.659  1.00  0.00     0.029 A 
ATOM     49  C   UNL A   1      38.945  33.254  34.739  1.00  0.00     0.049 A 
ATOM     50  H   UNL A   1      39.528  31.894  33.275  1.00  0.00     0.167 HD
ATOM     51  C   UNL A   1      40.531  28.971  30.175  1.00  0.00     0.037 A 
ATOM     52  C   UNL A   1      39.753  33.062  35.800  1.00  0.00     0.037 A 
ATOM     53  C   UNL A   1      41.488  28.744  31.225  1.00  0.00     0.049 A 
ATOM     54  C   UNL A   1      40.823  32.007  35.729  1.00  0.00     0.074 A 
ATOM     55  C   UNL A   1      42.541  27.846  31.258  1.00  0.00     0.029 A 
ATOM     56  N   UNL A   1      41.511  29.428  32.433  1.00  0.00    -0.354 N 
ATOM     57  N   UNL A   1      41.110  31.184  34.751  1.00  0.00    -0.248 NA
ATOM     58  C   UNL A   1      41.686  31.862  36.910  1.00  0.00     0.031 C 
ATOM     59  C   UNL A   1      43.177  27.961  32.499  1.00  0.00     0.029 A 
ATOM     60  C   UNL A   1      42.548  28.961  33.224  1.00  0.00     0.049 A 
ATOM     61  H   UNL A   1      40.880  30.140  32.690  1.00  0.00     0.167 HD
ATOM     62  C   UNL A   1      42.199  30.442  35.184  1.00  0.00     0.074 A 
ATOM     63  C   UNL A   1      42.529  30.920  36.510  1.00  0.00     0.031 C 
ATOM     64  C   UNL A   1      42.867  29.454  34.538  1.00  0.00     0.037 A 
BRANCH  51  65
ATOM     65  C   UNL A   1      40.595  28.102  28.953  1.00  0.00     0.064 A 
ATOM     66  C   UNL A   1      41.401  28.436  27.854  1.00  0.00     0.173 A 
ATOM     67  C   UNL A   1      39.855  26.912  28.885  1.00  0.00     0.173 A 
ATOM     68  F   UNL A   1      42.119  29.569  27.863  1.00  0.00    -0.203 F 
ATOM     69  C   UNL A   1      41.436  27.630  26.719  1.00  0.00     0.198 A 
ATOM     70  C   UNL A   1      39.914  26.093  27.760  1.00  0.00     0.198 A 
ATOM     71  F   UNL A   1      39.073  26.542  29.910  1.00  0.00    -0.203 F 
ATOM     72  F   UNL A   1      42.171  27.997  25.659  1.00  0.00    -0.200 F 
ATOM     73  C   UNL A   1      40.697  26.456  26.675  1.00  0.00     0.200 A 
ATOM     74  F   UNL A   1      39.208  24.955  27.723  1.00  0.00    -0.200 F 
ATOM     75  F   UNL A   1      40.731  25.682  25.582  1.00  0.00    -0.200 F 
ENDBRANCH  51  65
BRANCH  52  76
ATOM     76  C   UNL A   1      39.602  33.916  37.004  1.00  0.00     0.064 A 
ATOM     77  C   UNL A   1      40.192  35.186  37.059  1.00  0.00     0.173 A 
ATOM     78  C   UNL A   1      38.853  33.492  38.112  1.00  0.00     0.173 A 
ATOM     79  F   UNL A   1      40.932  35.624  36.031  1.00  0.00    -0.203 F 
ATOM     80  C   UNL A   1      40.049  35.997  38.183  1.00  0.00     0.198 A 
ATOM     81  C   UNL A   1      38.692  34.314  39.225  1.00  0.00     0.198 A 
ATOM     82  F   UNL A   1      38.265  32.288  38.104  1.00  0.00    -0.203 F 
ATOM     83  F   UNL A   1      40.651  37.193  38.224  1.00  0.00    -0.200 F 
ATOM     84  C   UNL A   1      39.294  35.563  39.263  1.00  0.00     0.200 A 
ATOM     85  F   UNL A   1      37.952  33.897  40.261  1.00  0.00    -0.200 F 
ATOM     86  F   UNL A   1      39.151  36.347  40.340  1.00  0.00    -0.200 F 
ENDBRANCH  52  76
BRANCH  64  87
ATOM     87  C   UNL A   1      44.044  28.848  35.244  1.00  0.00     0.064 A 
ATOM     88  C   UNL A   1      43.904  27.727  36.077  1.00  0.00     0.173 A 
ATOM     89  C   UNL A   1      45.331  29.372  35.055  1.00  0.00     0.173 A 
ATOM     90  F   UNL A   1      42.691  27.200  36.301  1.00  0.00    -0.203 F 
ATOM     91  C   UNL A   1      45.010  27.167  36.712  1.00  0.00     0.198 A 
ATOM     92  C   UNL A   1      46.437  28.794  35.672  1.00  0.00     0.198 A 
ATOM     93  F   UNL A   1      45.517  30.440  34.265  1.00  0.00    -0.203 F 
ATOM     94  F   UNL A   1      44.849  26.124  37.537  1.00  0.00    -0.200 F 
ATOM     95  C   UNL A   1      46.275  27.697  36.503  1.00  0.00     0.200 A 
ATOM     96  F   UNL A   1      47.660  29.301  35.462  1.00  0.00    -0.200 F 
ATOM     97  F   UNL A   1      47.338  27.154  37.113  1.00  0.00    -0.200 F 
ENDBRANCH  64  87
ENDBRANCH  38  39
ENDBRANCH  30  33
ENDBRANCH  28  29
ENDBRANCH   1  28
TORSDOF 14
ENDMDL
MODEL 2
REMARK VINA RESULT:     -12.1      0.228      1.951
REMARK SMILES CCC1(C)CC[NH+]([C@@H]2CC[C@]([NH2+]C3CC3)(C(=O)NCCCNC(=O)c3ccc(-c4c5nc(c(-c6c(F)c(F)c(F)c(F)c6F)c6ccc([nH]6)c(-c6c(F)c(F)c(F)c(F)c6F)c6nc(c(-c7c(F)c(F)c(F)c(F)c7F)c7ccc4[nH]7)C=C6)C=C5)cc3)C2)CC1
REMARK SMILES IDX 20 1 19 2 18 3 16 4 17 5 11 7 8 8 9 9 88 10 10 11 7 12 3 13
REMARK SMILES IDX 4 14 5 15 90 16 6 17 89 18 2 20 1 21 12 22 13 25 14 26 15 27
REMARK SMILES IDX 21 28 22 29 23 30 24 32 25 33 26 34 87 35 27 36 86 37 28 38
REMARK SMILES IDX 29 39 30 40 80 41 31 42 85 43 79 44 81 45 32 46 84 47 78 48
REMARK SMILES IDX 77 49 33 51 65 52 45 53 64 54 46 55 49 56 63 57 82 58 47 59
REMARK SMILES IDX 48 60 62 62 83 63 50 64 34 65 35 66 43 67 36 68 37 69 41 70
REMARK SMILES IDX 44 71 38 72 39 73 42 74 40 75 66 76 67 77 75 78 68 79 69 80
REMARK SMILES IDX 73 81 76 82 70 83 71 84 74 85 72 86 51 87 52 88 60 89 53 90
REMARK SMILES IDX 54 91 58 92 61 93 55 94 56 95 59 96 57 97
REMARK H PARENT 18 6 7 19 12 23 12 24 22 31 81 50 49 61
REMARK Flexibility Score: inf
ROOT
ATOM      1  C   UNL A   1      31.389  32.673  26.346  1.00  0.00     0.042 C 
ENDROOT
BRANCH   1   2
ATOM      2  C   UNL A   1      31.036  31.181  26.382  1.00  0.00     0.118 C 
BRANCH   2   3
ATOM      3  N   UNL A   1      31.026  30.593  25.055  1.00  0.00    -0.351 N 
ATOM      4  C   UNL A   1      31.629  29.503  24.514  1.00  0.00     0.281 C 
ATOM      5  O   UNL A   1      31.355  29.295  23.320  1.00  0.00    -0.268 OA
ATOM      6  H   UNL A   1      30.465  31.087  24.414  1.00  0.00     0.163 HD
BRANCH   4   7
ATOM      7  C   UNL A   1      32.535  28.472  25.284  1.00  0.00     0.181 C 
ATOM      8  C   UNL A   1      32.943  26.057  25.612  1.00  0.00     0.191 C 
ATOM      9  C   UNL A   1      31.960  26.501  26.701  1.00  0.00     0.072 C 
ATOM     10  C   UNL A   1      32.833  27.159  24.557  1.00  0.00     0.144 C 
ATOM     11  C   UNL A   1      31.712  28.001  26.511  1.00  0.00     0.085 C 
BRANCH   8  12
ATOM     12  N   UNL A   1      32.896  24.685  25.079  1.00  0.00    -0.332 N 
ATOM     13  C   UNL A   1      35.484  23.186  25.224  1.00  0.00    -0.022 C 
ATOM     14  C   UNL A   1      35.363  21.758  24.650  1.00  0.00     0.012 C 
ATOM     15  C   UNL A   1      35.161  24.207  24.093  1.00  0.00     0.068 C 
ATOM     16  C   UNL A   1      34.509  23.332  26.420  1.00  0.00     0.068 C 
ATOM     17  C   UNL A   1      33.670  24.465  23.857  1.00  0.00     0.263 C 
ATOM     18  C   UNL A   1      33.064  23.555  25.990  1.00  0.00     0.263 C 
ATOM     19  H   UNL A   1      31.901  24.673  24.857  1.00  0.00     0.348 HD
BRANCH  13  20
ATOM     20  C   UNL A   1      36.948  23.448  25.683  1.00  0.00     0.004 C 
ATOM     21  C   UNL A   1      37.889  22.251  25.639  1.00  0.00     0.004 C 
ENDBRANCH  13  20
ENDBRANCH   8  12
BRANCH   7  22
ATOM     22  N   UNL A   1      33.738  29.247  25.685  1.00  0.00    -0.331 N 
ATOM     23  H   UNL A   1      33.619  30.197  25.332  1.00  0.00     0.347 HD
ATOM     24  H   UNL A   1      34.522  28.728  25.290  1.00  0.00     0.347 HD
BRANCH  22  25
ATOM     25  C   UNL A   1      34.039  29.345  27.114  1.00  0.00     0.183 C 
ATOM     26  C   UNL A   1      35.477  29.320  27.549  1.00  0.00     0.071 C 
ATOM     27  C   UNL A   1      34.694  30.596  27.630  1.00  0.00     0.071 C 
ENDBRANCH  22  25
ENDBRANCH   7  22
ENDBRANCH   4   7
ENDBRANCH   2   3
ENDBRANCH   1   2
BRANCH   1  28
ATOM     28  C   UNL A   1      32.537  33.067  27.270  1.00  0.00     0.118 C 
BRANCH  28  29
ATOM     29  N   UNL A   1      32.437  34.449  27.710  1.00  0.00    -0.352 N 
ATOM     30  C   UNL A   1      33.056  35.105  28.743  1.00  0.00     0.251 C 
ATOM     31  H   UNL A   1      31.825  35.006  27.176  1.00  0.00     0.163 HD
ATOM     32  O   UNL A   1      32.665  36.227  29.054  1.00  0.00    -0.269 OA
BRANCH  30  33
ATOM     33  C   UNL A   1      34.179  34.495  29.491  1.00  0.00     0.039 A 
ATOM     34  C   UNL A   1      35.453  34.518  28.910  1.00  0.00     0.014 A 
ATOM     35  C   UNL A   1      33.987  33.828  30.704  1.00  0.00     0.014 A 
ATOM     36  C   UNL A   1      36.530  33.901  29.551  1.00  0.00     0.010 A 
ATOM     37  C   UNL A   1      35.074  33.267  31.375  1.00  0.00     0.010 A 
ATOM     38  C   UNL A   1      36.352  33.284  30.797  1.00  0.00    -0.014 A 
BRANCH  38  39
ATOM     39  C   UNL A   1      37.484  32.619  31.493  1.00  0.00     0.031 A 
ATOM     40  C   UNL A   1      38.200  31.469  30.842  1.00  0.00     0.074 A 
ATOM     41  C   UNL A   1      37.836  33.017  32.729  1.00  0.00     0.049 A 
ATOM     42  N   UNL A   1      39.160  30.713  31.314  1.00  0.00    -0.248 NA
ATOM     43  C   UNL A   1      37.760  31.103  29.487  1.00  0.00     0.031 C 
ATOM     44  C   UNL A   1      37.200  34.099  33.481  1.00  0.00     0.029 A 
ATOM     45  N   UNL A   1      38.809  32.549  33.577  1.00  0.00    -0.354 N 
ATOM     46  C   UNL A   1      39.421  29.773  30.326  1.00  0.00     0.074 A 
ATOM     47  C   UNL A   1      38.490  30.025  29.246  1.00  0.00     0.031 C 
ATOM     48  C   UNL A   1      37.810  34.225  34.670  1.00  0.00     0.029 A 
ATOM     49  C   UNL A   1      38.857  33.212  34.778  1.00  0.00     0.049 A 
ATOM     50  H   UNL A   1      39.414  31.808  33.346  1.00  0.00     0.167 HD
ATOM     51  C   UNL A   1      40.363  28.798  30.312  1.00  0.00     0.037 A 
ATOM     52  C   UNL A   1      39.653  33.022  35.847  1.00  0.00     0.037 A 
ATOM     53  C   UNL A   1      41.307  28.570  31.373  1.00  0.00     0.049 A 
ATOM     54  C   UNL A   1      40.697  31.940  35.805  1.00  0.00     0.074 A 
ATOM     55  C   UNL A   1      42.337  27.646  31.431  1.00  0.00     0.029 A 
ATOM     56  N   UNL A   1      41.339  29.277  32.566  1.00  0.00    -0.354 N 
ATOM     57  N   UNL A   1      40.968  31.089  34.846  1.00  0.00    -0.248 NA
ATOM     58  C   UNL A   1      41.549  31.797  36.994  1.00  0.00     0.031 C 
ATOM     59  C   UNL A   1      42.969  27.771  32.674  1.00  0.00     0.029 A 
ATOM     60  C   UNL A   1      42.360  28.801  33.373  1.00  0.00     0.049 A 
ATOM     61  H   UNL A   1      40.726  30.010  32.805  1.00  0.00     0.167 HD
ATOM     62  C   UNL A   1      42.036  30.329  35.301  1.00  0.00     0.074 A 
ATOM     63  C   UNL A   1      42.371  30.826  36.619  1.00  0.00     0.031 C 
ATOM     64  C   UNL A   1      42.683  29.312  34.680  1.00  0.00     0.037 A 
BRANCH  51  65
ATOM     65  C   UNL A   1      40.412  27.903  29.108  1.00  0.00     0.064 A 
ATOM     66  C   UNL A   1      39.666  26.716  29.043  1.00  0.00     0.173 A 
ATOM     67  C   UNL A   1      41.200  28.243  27.999  1.00  0.00     0.173 A 
ATOM     68  F   UNL A   1      38.905  26.339  30.082  1.00  0.00    -0.203 F 
ATOM     69  C   UNL A   1      39.735  25.886  27.927  1.00  0.00     0.198 A 
ATOM     70  C   UNL A   1      41.246  27.425  26.873  1.00  0.00     0.198 A 
ATOM     71  F   UNL A   1      41.929  29.369  28.006  1.00  0.00    -0.203 F 
ATOM     72  F   UNL A   1      39.056  24.730  27.910  1.00  0.00    -0.200 F 
ATOM     73  C   UNL A   1      40.520  26.243  26.841  1.00  0.00     0.200 A 
ATOM     74  F   UNL A   1      41.996  27.777  25.820  1.00  0.00    -0.200 F 
ATOM     75  F   UNL A   1      40.586  25.443  25.767  1.00  0.00    -0.200 F 
ENDBRANCH  51  65
BRANCH  52  76
ATOM     76  C   UNL A   1      39.516  33.904  37.033  1.00  0.00     0.064 A 
ATOM     77  C   UNL A   1      38.713  33.525  38.117  1.00  0.00     0.173 A 
ATOM     78  C   UNL A   1      40.193  35.129  37.116  1.00  0.00     0.173 A 
ATOM     79  F   UNL A   1      38.031  32.371  38.073  1.00  0.00    -0.203 F 
ATOM     80  C   UNL A   1      38.583  34.344  39.237  1.00  0.00     0.198 A 
ATOM     81  C   UNL A   1      40.081  35.936  38.245  1.00  0.00     0.198 A 
ATOM     82  F   UNL A   1      40.977  35.532  36.106  1.00  0.00    -0.203 F 
ATOM     83  F   UNL A   1      37.783  33.974  40.245  1.00  0.00    -0.200 F 
ATOM     84  C   UNL A   1      39.272  35.546  39.303  1.00  0.00     0.200 A 
ATOM     85  F   UNL A   1      40.758  37.090  38.312  1.00  0.00    -0.200 F 
ATOM     86  F   UNL A   1      39.153  36.329  40.383  1.00  0.00    -0.200 F 
ENDBRANCH  52  76
BRANCH  64  87
ATOM     87  C   UNL A   1      43.840  28.691  35.406  1.00  0.00     0.064 A 
ATOM     88  C   UNL A   1      45.157  29.133  35.205  1.00  0.00     0.173 A 
ATOM     89  C   UNL A   1      43.624  27.669  36.341  1.00  0.00     0.173 A 
ATOM     90  F   UNL A   1      45.416  30.097  34.309  1.00  0.00    -0.203 F 
ATOM     91  C   UNL A   1      46.217  28.556  35.899  1.00  0.00     0.198 A 
ATOM     92  C   UNL A   1      44.683  27.112  37.052  1.00  0.00     0.198 A 
ATOM     93  F   UNL A   1      42.382  27.216  36.572  1.00  0.00    -0.203 F 
ATOM     94  F   UNL A   1      47.472  28.962  35.660  1.00  0.00    -0.200 F 
ATOM     95  C   UNL A   1      45.979  27.552  36.826  1.00  0.00     0.200 A 
ATOM     96  F   UNL A   1      44.450  26.149  37.954  1.00  0.00    -0.200 F 
ATOM     97  F   UNL A   1      47.000  27.001  37.495  1.00  0.00    -0.200 F 
ENDBRANCH  64  87
ENDBRANCH  38  39
ENDBRANCH  30  33
ENDBRANCH  28  29
ENDBRANCH   1  28
TORSDOF 14
ENDMDL
MODEL 3
REMARK VINA RESULT:     -12.1      5.757     11.424
REMARK SMILES CCC1(C)CC[NH+]([C@@H]2CC[C@]([NH2+]C3CC3)(C(=O)NCCCNC(=O)c3ccc(-c4c5nc(c(-c6c(F)c(F)c(F)c(F)c6F)c6ccc([nH]6)c(-c6c(F)c(F)c(F)c(F)c6F)c6nc(c(-c7c(F)c(F)c(F)c(F)c7F)c7ccc4[nH]7)C=C6)C=C5)cc3)C2)CC1
REMARK SMILES IDX 20 1 19 2 18 3 16 4 17 5 11 7 8 8 9 9 88 10 10 11 7 12 3 13
REMARK SMILES IDX 4 14 5 15 90 16 6 17 89 18 2 20 1 21 12 22 13 25 14 26 15 27
REMARK SMILES IDX 21 28 22 29 23 30 24 32 25 33 26 34 87 35 27 36 86 37 28 38
REMARK SMILES IDX 29 39 30 40 80 41 31 42 85 43 79 44 81 45 32 46 84 47 78 48
REMARK SMILES IDX 77 49 33 51 65 52 45 53 64 54 46 55 49 56 63 57 82 58 47 59
REMARK SMILES IDX 48 60 62 62 83 63 50 64 34 65 35 66 43 67 36 68 37 69 41 70
REMARK SMILES IDX 44 71 38 72 39 73 42 74 40 75 66 76 67 77 75 78 68 79 69 80
REMARK SMILES IDX 73 81 76 82 70 83 71 84 74 85 72 86 51 87 52 88 60 89 53 90
REMARK SMILES IDX 54 91 58 92 61 93 55 94 56 95 59 96 57 97
REMARK H PARENT 18 6 7 19 12 23 12 24 22 31 81 50 49 61
REMARK Flexibility Score: inf
ROOT
ATOM      1  C   UNL A   1      38.336  19.054  25.376  1.00  0.00     0.042 C 
ENDROOT
BRANCH   1   2
ATOM      2  C   UNL A   1      37.401  19.939  24.545  1.00  0.00     0.118 C 
BRANCH   2   3
ATOM      3  N   UNL A   1      36.026  19.856  25.001  1.00  0.00    -0.351 N 
ATOM      4  C   UNL A   1      35.106  20.788  25.362  1.00  0.00     0.281 C 
ATOM      5  O   UNL A   1      33.997  20.329  25.680  1.00  0.00    -0.268 OA
ATOM      6  H   UNL A   1      35.691  18.932  25.062  1.00  0.00     0.163 HD
BRANCH   4   7
ATOM      7  C   UNL A   1      35.306  22.349  25.315  1.00  0.00     0.181 C 
ATOM      8  C   UNL A   1      34.196  24.466  24.692  1.00  0.00     0.191 C 
ATOM      9  C   UNL A   1      34.997  24.001  23.471  1.00  0.00     0.072 C 
ATOM     10  C   UNL A   1      34.052  23.197  25.534  1.00  0.00     0.144 C 
ATOM     11  C   UNL A   1      35.698  22.694  23.855  1.00  0.00     0.085 C 
BRANCH   8  12
ATOM     12  N   UNL A   1      32.952  25.236  24.518  1.00  0.00    -0.332 N 
ATOM     13  C   UNL A   1      33.029  28.022  25.614  1.00  0.00    -0.022 C 
ATOM     14  C   UNL A   1      31.697  28.770  25.398  1.00  0.00     0.012 C 
ATOM     15  C   UNL A   1      32.761  26.771  26.503  1.00  0.00     0.068 C 
ATOM     16  C   UNL A   1      33.614  27.626  24.234  1.00  0.00     0.068 C 
ATOM     17  C   UNL A   1      32.232  25.544  25.754  1.00  0.00     0.263 C 
ATOM     18  C   UNL A   1      32.944  26.396  23.631  1.00  0.00     0.263 C 
ATOM     19  H   UNL A   1      32.439  24.527  23.995  1.00  0.00     0.348 HD
BRANCH  13  20
ATOM     20  C   UNL A   1      34.028  28.934  26.384  1.00  0.00     0.004 C 
ATOM     21  C   UNL A   1      33.421  30.123  27.118  1.00  0.00     0.004 C 
ENDBRANCH  13  20
ENDBRANCH   8  12
BRANCH   7  22
ATOM     22  N   UNL A   1      36.413  22.619  26.268  1.00  0.00    -0.331 N 
ATOM     23  H   UNL A   1      36.695  21.725  26.669  1.00  0.00     0.347 HD
ATOM     24  H   UNL A   1      36.025  23.293  26.929  1.00  0.00     0.347 HD
BRANCH  22  25
ATOM     25  C   UNL A   1      37.619  23.264  25.745  1.00  0.00     0.183 C 
ATOM     26  C   UNL A   1      38.197  24.427  26.499  1.00  0.00     0.071 C 
ATOM     27  C   UNL A   1      38.908  23.107  26.503  1.00  0.00     0.071 C 
ENDBRANCH  22  25
ENDBRANCH   7  22
ENDBRANCH   4   7
ENDBRANCH   2   3
ENDBRANCH   1   2
BRANCH   1  28
ATOM     28  C   UNL A   1      39.584  19.768  25.887  1.00  0.00     0.118 C 
BRANCH  28  29
ATOM     29  N   UNL A   1      40.716  18.865  26.021  1.00  0.00    -0.352 N 
ATOM     30  C   UNL A   1      42.059  19.125  26.126  1.00  0.00     0.251 C 
ATOM     31  H   UNL A   1      40.478  17.910  26.041  1.00  0.00     0.163 HD
ATOM     32  O   UNL A   1      42.854  18.194  26.027  1.00  0.00    -0.269 OA
BRANCH  30  33
ATOM     33  C   UNL A   1      42.571  20.495  26.355  1.00  0.00     0.039 A 
ATOM     34  C   UNL A   1      42.536  21.008  27.658  1.00  0.00     0.014 A 
ATOM     35  C   UNL A   1      42.999  21.312  25.305  1.00  0.00     0.014 A 
ATOM     36  C   UNL A   1      42.952  22.317  27.911  1.00  0.00     0.010 A 
ATOM     37  C   UNL A   1      43.475  22.597  25.566  1.00  0.00     0.010 A 
ATOM     38  C   UNL A   1      43.440  23.118  26.868  1.00  0.00    -0.014 A 
BRANCH  38  39
ATOM     39  C   UNL A   1      43.883  24.513  27.116  1.00  0.00     0.031 A 
ATOM     40  C   UNL A   1      42.907  25.536  27.628  1.00  0.00     0.074 A 
ATOM     41  C   UNL A   1      45.149  24.874  26.834  1.00  0.00     0.049 A 
ATOM     42  N   UNL A   1      43.079  26.817  27.838  1.00  0.00    -0.248 NA
ATOM     43  C   UNL A   1      41.547  25.059  27.920  1.00  0.00     0.031 C 
ATOM     44  C   UNL A   1      46.181  23.984  26.304  1.00  0.00     0.029 A 
ATOM     45  N   UNL A   1      45.779  26.089  26.944  1.00  0.00    -0.354 N 
ATOM     46  C   UNL A   1      41.849  27.300  28.263  1.00  0.00     0.074 A 
ATOM     47  C   UNL A   1      40.927  26.184  28.240  1.00  0.00     0.031 C 
ATOM     48  C   UNL A   1      47.321  24.677  26.151  1.00  0.00     0.029 A 
ATOM     49  C   UNL A   1      47.091  26.065  26.541  1.00  0.00     0.049 A 
ATOM     50  H   UNL A   1      45.332  26.899  27.279  1.00  0.00     0.167 HD
ATOM     51  C   UNL A   1      41.521  28.556  28.654  1.00  0.00     0.037 A 
ATOM     52  C   UNL A   1      48.004  27.053  26.489  1.00  0.00     0.037 A 
ATOM     53  C   UNL A   1      42.446  29.656  28.705  1.00  0.00     0.049 A 
ATOM     54  C   UNL A   1      47.619  28.437  26.936  1.00  0.00     0.074 A 
ATOM     55  C   UNL A   1      42.227  30.951  29.140  1.00  0.00     0.029 A 
ATOM     56  N   UNL A   1      43.775  29.588  28.310  1.00  0.00    -0.354 N 
ATOM     57  N   UNL A   1      46.466  28.870  27.384  1.00  0.00    -0.248 NA
ATOM     58  C   UNL A   1      48.666  29.466  26.876  1.00  0.00     0.031 C 
ATOM     59  C   UNL A   1      43.412  31.677  28.974  1.00  0.00     0.029 A 
ATOM     60  C   UNL A   1      44.383  30.822  28.476  1.00  0.00     0.049 A 
ATOM     61  H   UNL A   1      44.219  28.781  27.961  1.00  0.00     0.167 HD
ATOM     62  C   UNL A   1      46.653  30.212  27.684  1.00  0.00     0.074 A 
ATOM     63  C   UNL A   1      48.035  30.519  27.377  1.00  0.00     0.031 C 
ATOM     64  C   UNL A   1      45.761  31.108  28.172  1.00  0.00     0.037 A 
BRANCH  51  65
ATOM     65  C   UNL A   1      40.095  28.804  29.053  1.00  0.00     0.064 A 
ATOM     66  C   UNL A   1      39.664  28.645  30.379  1.00  0.00     0.173 A 
ATOM     67  C   UNL A   1      39.151  29.221  28.103  1.00  0.00     0.173 A 
ATOM     68  F   UNL A   1      40.524  28.236  31.324  1.00  0.00    -0.203 F 
ATOM     69  C   UNL A   1      38.334  28.861  30.731  1.00  0.00     0.198 A 
ATOM     70  C   UNL A   1      37.828  29.464  28.464  1.00  0.00     0.198 A 
ATOM     71  F   UNL A   1      39.511  29.394  26.822  1.00  0.00    -0.203 F 
ATOM     72  F   UNL A   1      37.934  28.650  31.993  1.00  0.00    -0.200 F 
ATOM     73  C   UNL A   1      37.418  29.275  29.775  1.00  0.00     0.200 A 
ATOM     74  F   UNL A   1      36.948  29.874  27.541  1.00  0.00    -0.200 F 
ATOM     75  F   UNL A   1      36.139  29.482  30.116  1.00  0.00    -0.200 F 
ENDBRANCH  51  65
BRANCH  52  76
ATOM     76  C   UNL A   1      49.383  26.757  26.029  1.00  0.00     0.064 A 
ATOM     77  C   UNL A   1      49.754  26.973  24.695  1.00  0.00     0.173 A 
ATOM     78  C   UNL A   1      50.360  26.270  26.910  1.00  0.00     0.173 A 
ATOM     79  F   UNL A   1      48.848  27.419  23.813  1.00  0.00    -0.203 F 
ATOM     80  C   UNL A   1      51.049  26.703  24.255  1.00  0.00     0.198 A 
ATOM     81  C   UNL A   1      51.660  26.023  26.474  1.00  0.00     0.198 A 
ATOM     82  F   UNL A   1      50.054  26.052  28.196  1.00  0.00    -0.203 F 
ATOM     83  F   UNL A   1      51.369  26.888  22.967  1.00  0.00    -0.200 F 
ATOM     84  C   UNL A   1      52.002  26.234  25.147  1.00  0.00     0.200 A 
ATOM     85  F   UNL A   1      52.582  25.582  27.340  1.00  0.00    -0.200 F 
ATOM     86  F   UNL A   1      53.249  25.983  24.725  1.00  0.00    -0.200 F 
ENDBRANCH  52  76
BRANCH  64  87
ATOM     87  C   UNL A   1      46.260  32.498  28.437  1.00  0.00     0.064 A 
ATOM     88  C   UNL A   1      46.172  33.508  27.468  1.00  0.00     0.173 A 
ATOM     89  C   UNL A   1      46.798  32.831  29.689  1.00  0.00     0.173 A 
ATOM     90  F   UNL A   1      45.680  33.233  26.250  1.00  0.00    -0.203 F 
ATOM     91  C   UNL A   1      46.626  34.797  27.736  1.00  0.00     0.198 A 
ATOM     92  C   UNL A   1      47.227  34.127  29.962  1.00  0.00     0.198 A 
ATOM     93  F   UNL A   1      46.899  31.901  30.651  1.00  0.00    -0.203 F 
ATOM     94  F   UNL A   1      46.572  35.736  26.781  1.00  0.00    -0.200 F 
ATOM     95  C   UNL A   1      47.146  35.106  28.984  1.00  0.00     0.200 A 
ATOM     96  F   UNL A   1      47.721  34.427  31.171  1.00  0.00    -0.200 F 
ATOM     97  F   UNL A   1      47.578  36.348  29.241  1.00  0.00    -0.200 F 
ENDBRANCH  64  87
ENDBRANCH  38  39
ENDBRANCH  30  33
ENDBRANCH  28  29
ENDBRANCH   1  28
TORSDOF 14
ENDMDL
