MODEL 1
REMARK VINA RESULT:     -12.6      0.000      0.000
REMARK SMILES COc1cc(OC)cc(-c2ccc(C(=O)NCCCNC(=O)c3ccc(-c4c5nc(c(-c6c(F)c(F)c(F)c(F)c6F)c6ccc([nH]6)c(-c6c(F)c(F)c(F)c(F)c6F)c6nc(c(-c7c(F)c(F)c(F)c(F)c7F)c7ccc4[nH]7)C=C6)C=C5)cc3)o2)c1
REMARK SMILES IDX 18 1 17 2 16 3 14 4 15 5 13 7 10 8 11 9 86 10 12 11 9 12
REMARK SMILES IDX 3 13 4 14 87 15 5 16 8 17 2 18 1 19 6 20 7 21 19 22 20 23
REMARK SMILES IDX 21 24 22 26 23 27 24 28 85 29 25 30 84 31 26 32 27 33 28 34
REMARK SMILES IDX 78 35 29 36 83 37 77 38 79 39 30 40 82 41 76 42 75 43 31 45
REMARK SMILES IDX 63 46 43 47 62 48 44 49 47 50 61 51 80 52 45 53 46 54 60 56
REMARK SMILES IDX 81 57 48 58 32 59 33 60 41 61 34 62 35 63 39 64 42 65 36 66
REMARK SMILES IDX 37 67 40 68 38 69 64 70 65 71 73 72 66 73 67 74 71 75 74 76
REMARK SMILES IDX 68 77 69 78 72 79 70 80 49 81 50 82 58 83 51 84 52 85 56 86
REMARK SMILES IDX 59 87 53 88 54 89 57 90 55 91
REMARK H PARENT 16 6 20 25 79 44 47 55
REMARK Flexibility Score: inf
ROOT
ATOM      1  C   UNL A   1      31.461  31.931  26.761  1.00  0.00     0.042 C 
ENDROOT
BRANCH   1   2
ATOM      2  C   UNL A   1      31.769  30.647  25.998  1.00  0.00     0.118 C 
BRANCH   2   3
ATOM      3  N   UNL A   1      30.850  30.457  24.893  1.00  0.00    -0.349 N 
ATOM      4  C   UNL A   1      30.826  29.513  23.890  1.00  0.00     0.287 C 
ATOM      5  O   UNL A   1      29.857  29.565  23.131  1.00  0.00    -0.266 OA
ATOM      6  H   UNL A   1      30.118  31.114  24.852  1.00  0.00     0.163 HD
BRANCH   4   7
ATOM      7  C   UNL A   1      31.881  28.522  23.770  1.00  0.00     0.192 A 
ATOM      8  C   UNL A   1      32.999  26.749  24.462  1.00  0.00     0.135 A 
ATOM      9  C   UNL A   1      33.652  27.194  23.338  1.00  0.00     0.052 A 
ATOM     10  O   UNL A   1      31.922  27.532  24.729  1.00  0.00    -0.451 OA
ATOM     11  C   UNL A   1      32.907  28.295  22.865  1.00  0.00     0.057 A 
BRANCH   8  12
ATOM     12  C   UNL A   1      33.233  25.612  25.327  1.00  0.00     0.025 A 
ATOM     13  C   UNL A   1      34.554  23.657  25.866  1.00  0.00     0.123 A 
ATOM     14  C   UNL A   1      33.497  23.182  26.646  1.00  0.00     0.092 A 
ATOM     15  C   UNL A   1      34.416  24.872  25.198  1.00  0.00     0.058 A 
ATOM     16  C   UNL A   1      32.320  23.923  26.796  1.00  0.00     0.123 A 
ATOM     17  C   UNL A   1      32.204  25.156  26.159  1.00  0.00     0.058 A 
BRANCH  13  18
ATOM     18  O   UNL A   1      35.630  22.819  25.766  1.00  0.00    -0.497 OA
ATOM     19  C   UNL A   1      35.404  21.459  26.122  1.00  0.00     0.278 C 
ENDBRANCH  13  18
BRANCH  16  20
ATOM     20  O   UNL A   1      31.352  23.327  27.558  1.00  0.00    -0.497 OA
ATOM     21  C   UNL A   1      30.157  22.951  26.882  1.00  0.00     0.278 C 
ENDBRANCH  16  20
ENDBRANCH   8  12
ENDBRANCH   4   7
ENDBRANCH   2   3
ENDBRANCH   1   2
BRANCH   1  22
ATOM     22  C   UNL A   1      32.722  32.628  27.263  1.00  0.00     0.118 C 
BRANCH  22  23
ATOM     23  N   UNL A   1      32.480  34.035  27.567  1.00  0.00    -0.352 N 
ATOM     24  C   UNL A   1      33.027  34.830  28.543  1.00  0.00     0.251 C 
ATOM     25  H   UNL A   1      31.824  34.481  26.983  1.00  0.00     0.163 HD
ATOM     26  O   UNL A   1      32.530  35.922  28.798  1.00  0.00    -0.269 OA
BRANCH  24  27
ATOM     27  C   UNL A   1      34.210  34.364  29.291  1.00  0.00     0.039 A 
ATOM     28  C   UNL A   1      34.033  33.703  30.508  1.00  0.00     0.014 A 
ATOM     29  C   UNL A   1      35.493  34.589  28.787  1.00  0.00     0.014 A 
ATOM     30  C   UNL A   1      35.144  33.197  31.187  1.00  0.00     0.010 A 
ATOM     31  C   UNL A   1      36.588  34.019  29.421  1.00  0.00     0.010 A 
ATOM     32  C   UNL A   1      36.425  33.317  30.626  1.00  0.00    -0.014 A 
BRANCH  32  33
ATOM     33  C   UNL A   1      37.624  32.721  31.265  1.00  0.00     0.031 A 
ATOM     34  C   UNL A   1      38.321  31.568  30.602  1.00  0.00     0.074 A 
ATOM     35  C   UNL A   1      38.000  33.131  32.490  1.00  0.00     0.049 A 
ATOM     36  N   UNL A   1      39.259  30.785  31.069  1.00  0.00    -0.248 NA
ATOM     37  C   UNL A   1      37.873  31.226  29.242  1.00  0.00     0.031 C 
ATOM     38  C   UNL A   1      37.373  34.214  33.248  1.00  0.00     0.029 A 
ATOM     39  N   UNL A   1      38.980  32.659  33.329  1.00  0.00    -0.354 N 
ATOM     40  C   UNL A   1      39.487  29.840  30.079  1.00  0.00     0.074 A 
ATOM     41  C   UNL A   1      38.560  30.120  29.004  1.00  0.00     0.031 C 
ATOM     42  C   UNL A   1      37.981  34.323  34.440  1.00  0.00     0.029 A 
ATOM     43  C   UNL A   1      39.002  33.286  34.551  1.00  0.00     0.049 A 
ATOM     44  H   UNL A   1      39.604  31.941  33.079  1.00  0.00     0.167 HD
ATOM     45  C   UNL A   1      40.398  28.838  30.065  1.00  0.00     0.037 A 
ATOM     46  C   UNL A   1      39.741  33.034  35.648  1.00  0.00     0.037 A 
ATOM     47  C   UNL A   1      41.332  28.589  31.132  1.00  0.00     0.049 A 
ATOM     48  C   UNL A   1      40.746  31.914  35.613  1.00  0.00     0.074 A 
ATOM     49  C   UNL A   1      42.349  27.652  31.185  1.00  0.00     0.029 A 
ATOM     50  N   UNL A   1      41.355  29.275  32.338  1.00  0.00    -0.354 N 
ATOM     51  N   UNL A   1      41.005  31.068  34.645  1.00  0.00    -0.248 NA
ATOM     52  C   UNL A   1      41.561  31.713  36.818  1.00  0.00     0.031 C 
ATOM     53  C   UNL A   1      42.943  27.727  32.447  1.00  0.00     0.029 A 
ATOM     54  C   UNL A   1      42.346  28.759  33.155  1.00  0.00     0.049 A 
ATOM     55  H   UNL A   1      40.755  30.017  32.578  1.00  0.00     0.167 HD
ATOM     56  C   UNL A   1      42.033  30.259  35.110  1.00  0.00     0.074 A 
ATOM     57  C   UNL A   1      42.352  30.716  36.446  1.00  0.00     0.031 C 
ATOM     58  C   UNL A   1      42.660  29.235  34.480  1.00  0.00     0.037 A 
BRANCH  45  59
ATOM     59  C   UNL A   1      40.412  27.927  28.871  1.00  0.00     0.064 A 
ATOM     60  C   UNL A   1      41.179  28.206  27.730  1.00  0.00     0.173 A 
ATOM     61  C   UNL A   1      39.658  26.742  28.877  1.00  0.00     0.173 A 
ATOM     62  F   UNL A   1      41.913  29.328  27.667  1.00  0.00    -0.203 F 
ATOM     63  C   UNL A   1      41.156  27.360  26.624  1.00  0.00     0.198 A 
ATOM     64  C   UNL A   1      39.667  25.880  27.784  1.00  0.00     0.198 A 
ATOM     65  F   UNL A   1      38.912  26.419  29.944  1.00  0.00    -0.203 F 
ATOM     66  F   UNL A   1      41.844  27.683  25.521  1.00  0.00    -0.200 F 
ATOM     67  C   UNL A   1      40.406  26.195  26.654  1.00  0.00     0.200 A 
ATOM     68  F   UNL A   1      38.954  24.745  27.822  1.00  0.00    -0.200 F 
ATOM     69  F   UNL A   1      40.386  25.380  25.590  1.00  0.00    -0.200 F 
ENDBRANCH  45  59
BRANCH  46  70
ATOM     70  C   UNL A   1      39.556  33.866  36.866  1.00  0.00     0.064 A 
ATOM     71  C   UNL A   1      40.155  35.128  36.975  1.00  0.00     0.173 A 
ATOM     72  C   UNL A   1      38.750  33.432  37.929  1.00  0.00     0.173 A 
ATOM     73  F   UNL A   1      40.946  35.580  35.990  1.00  0.00    -0.203 F 
ATOM     74  C   UNL A   1      39.966  35.918  38.106  1.00  0.00     0.198 A 
ATOM     75  C   UNL A   1      38.539  34.236  39.047  1.00  0.00     0.198 A 
ATOM     76  F   UNL A   1      38.146  32.237  37.870  1.00  0.00    -0.203 F 
ATOM     77  F   UNL A   1      40.579  37.107  38.200  1.00  0.00    -0.200 F 
ATOM     78  C   UNL A   1      39.152  35.477  39.138  1.00  0.00     0.200 A 
ATOM     79  F   UNL A   1      37.735  33.812  40.032  1.00  0.00    -0.200 F 
ATOM     80  F   UNL A   1      38.959  36.243  40.219  1.00  0.00    -0.200 F 
ENDBRANCH  46  70
BRANCH  58  81
ATOM     81  C   UNL A   1      43.794  28.561  35.199  1.00  0.00     0.064 A 
ATOM     82  C   UNL A   1      45.110  29.037  35.119  1.00  0.00     0.173 A 
ATOM     83  C   UNL A   1      43.538  27.474  36.050  1.00  0.00     0.173 A 
ATOM     84  F   UNL A   1      45.407  30.064  34.309  1.00  0.00    -0.203 F 
ATOM     85  C   UNL A   1      46.130  28.444  35.857  1.00  0.00     0.198 A 
ATOM     86  C   UNL A   1      44.554  26.903  36.810  1.00  0.00     0.198 A 
ATOM     87  F   UNL A   1      42.295  26.984  36.167  1.00  0.00    -0.203 F 
ATOM     88  F   UNL A   1      47.387  28.894  35.741  1.00  0.00    -0.200 F 
ATOM     89  C   UNL A   1      45.850  27.387  36.711  1.00  0.00     0.200 A 
ATOM     90  F   UNL A   1      44.278  25.894  37.647  1.00  0.00    -0.200 F 
ATOM     91  F   UNL A   1      46.830  26.832  37.437  1.00  0.00    -0.200 F 
ENDBRANCH  58  81
ENDBRANCH  32  33
ENDBRANCH  24  27
ENDBRANCH  22  23
ENDBRANCH   1  22
TORSDOF 13
ENDMDL
MODEL 2
REMARK VINA RESULT:     -12.4      5.785     11.446
REMARK SMILES COc1cc(OC)cc(-c2ccc(C(=O)NCCCNC(=O)c3ccc(-c4c5nc(c(-c6c(F)c(F)c(F)c(F)c6F)c6ccc([nH]6)c(-c6c(F)c(F)c(F)c(F)c6F)c6nc(c(-c7c(F)c(F)c(F)c(F)c7F)c7ccc4[nH]7)C=C6)C=C5)cc3)o2)c1
REMARK SMILES IDX 18 1 17 2 16 3 14 4 15 5 13 7 10 8 11 9 86 10 12 11 9 12
REMARK SMILES IDX 3 13 4 14 87 15 5 16 8 17 2 18 1 19 6 20 7 21 19 22 20 23
REMARK SMILES IDX 21 24 22 26 23 27 24 28 85 29 25 30 84 31 26 32 27 33 28 34
REMARK SMILES IDX 78 35 29 36 83 37 77 38 79 39 30 40 82 41 76 42 75 43 31 45
REMARK SMILES IDX 63 46 43 47 62 48 44 49 47 50 61 51 80 52 45 53 46 54 60 56
REMARK SMILES IDX 81 57 48 58 32 59 33 60 41 61 34 62 35 63 39 64 42 65 36 66
REMARK SMILES IDX 37 67 40 68 38 69 64 70 65 71 73 72 66 73 67 74 71 75 74 76
REMARK SMILES IDX 68 77 69 78 72 79 70 80 49 81 50 82 58 83 51 84 52 85 56 86
REMARK SMILES IDX 59 87 53 88 54 89 57 90 55 91
REMARK H PARENT 16 6 20 25 79 44 47 55
REMARK Flexibility Score: inf
ROOT
ATOM      1  C   UNL A   1      38.200  19.714  24.989  1.00  0.00     0.042 C 
ENDROOT
BRANCH   1   2
ATOM      2  C   UNL A   1      36.971  20.591  25.209  1.00  0.00     0.118 C 
BRANCH   2   3
ATOM      3  N   UNL A   1      35.746  19.849  24.983  1.00  0.00    -0.349 N 
ATOM      4  C   UNL A   1      34.429  20.201  25.177  1.00  0.00     0.287 C 
ATOM      5  O   UNL A   1      33.596  19.371  24.811  1.00  0.00    -0.266 OA
ATOM      6  H   UNL A   1      35.878  18.940  24.630  1.00  0.00     0.163 HD
BRANCH   4   7
ATOM      7  C   UNL A   1      34.074  21.482  25.763  1.00  0.00     0.192 A 
ATOM      8  C   UNL A   1      33.849  23.677  25.698  1.00  0.00     0.135 A 
ATOM      9  C   UNL A   1      33.518  23.299  26.977  1.00  0.00     0.052 A 
ATOM     10  O   UNL A   1      34.175  22.592  24.950  1.00  0.00    -0.451 OA
ATOM     11  C   UNL A   1      33.611  21.892  27.004  1.00  0.00     0.057 A 
BRANCH   8  12
ATOM     12  C   UNL A   1      33.854  24.968  25.045  1.00  0.00     0.025 A 
ATOM     13  C   UNL A   1      33.383  27.340  25.140  1.00  0.00     0.123 A 
ATOM     14  C   UNL A   1      33.410  27.382  23.744  1.00  0.00     0.092 A 
ATOM     15  C   UNL A   1      33.596  26.126  25.790  1.00  0.00     0.058 A 
ATOM     16  C   UNL A   1      33.685  26.235  22.992  1.00  0.00     0.123 A 
ATOM     17  C   UNL A   1      33.939  25.033  23.649  1.00  0.00     0.058 A 
BRANCH  13  18
ATOM     18  O   UNL A   1      33.059  28.519  25.755  1.00  0.00    -0.497 OA
ATOM     19  C   UNL A   1      32.745  29.610  24.897  1.00  0.00     0.278 C 
ENDBRANCH  13  18
BRANCH  16  20
ATOM     20  O   UNL A   1      33.647  26.408  21.635  1.00  0.00    -0.497 OA
ATOM     21  C   UNL A   1      32.690  25.630  20.925  1.00  0.00     0.278 C 
ENDBRANCH  16  20
ENDBRANCH   8  12
ENDBRANCH   4   7
ENDBRANCH   2   3
ENDBRANCH   1   2
BRANCH   1  22
ATOM     22  C   UNL A   1      39.393  20.161  25.828  1.00  0.00     0.118 C 
BRANCH  22  23
ATOM     23  N   UNL A   1      40.394  19.105  25.953  1.00  0.00    -0.352 N 
ATOM     24  C   UNL A   1      41.754  19.197  26.108  1.00  0.00     0.251 C 
ATOM     25  H   UNL A   1      40.038  18.187  25.922  1.00  0.00     0.163 HD
ATOM     26  O   UNL A   1      42.460  18.205  25.958  1.00  0.00    -0.269 OA
BRANCH  24  27
ATOM     27  C   UNL A   1      42.367  20.496  26.446  1.00  0.00     0.039 A 
ATOM     28  C   UNL A   1      42.915  21.280  25.429  1.00  0.00     0.014 A 
ATOM     29  C   UNL A   1      42.403  20.931  27.773  1.00  0.00     0.014 A 
ATOM     30  C   UNL A   1      43.434  22.541  25.732  1.00  0.00     0.010 A 
ATOM     31  C   UNL A   1      42.846  22.214  28.061  1.00  0.00     0.010 A 
ATOM     32  C   UNL A   1      43.365  23.031  27.045  1.00  0.00    -0.014 A 
BRANCH  32  33
ATOM     33  C   UNL A   1      43.822  24.397  27.401  1.00  0.00     0.031 A 
ATOM     34  C   UNL A   1      42.825  25.410  27.886  1.00  0.00     0.074 A 
ATOM     35  C   UNL A   1      45.098  24.756  27.166  1.00  0.00     0.049 A 
ATOM     36  N   UNL A   1      42.971  26.697  28.070  1.00  0.00    -0.248 NA
ATOM     37  C   UNL A   1      41.468  24.913  28.163  1.00  0.00     0.031 C 
ATOM     38  C   UNL A   1      46.145  23.869  26.658  1.00  0.00     0.029 A 
ATOM     39  N   UNL A   1      45.722  25.974  27.289  1.00  0.00    -0.354 N 
ATOM     40  C   UNL A   1      41.721  27.166  28.449  1.00  0.00     0.074 A 
ATOM     41  C   UNL A   1      40.819  26.036  28.426  1.00  0.00     0.031 C 
ATOM     42  C   UNL A   1      47.280  24.571  26.510  1.00  0.00     0.029 A 
ATOM     43  C   UNL A   1      47.027  25.965  26.863  1.00  0.00     0.049 A 
ATOM     44  H   UNL A   1      45.276  26.774  27.648  1.00  0.00     0.167 HD
ATOM     45  C   UNL A   1      41.365  28.426  28.797  1.00  0.00     0.037 A 
ATOM     46  C   UNL A   1      47.912  26.973  26.740  1.00  0.00     0.037 A 
ATOM     47  C   UNL A   1      42.281  29.535  28.841  1.00  0.00     0.049 A 
ATOM     48  C   UNL A   1      47.495  28.366  27.129  1.00  0.00     0.074 A 
ATOM     49  C   UNL A   1      42.042  30.833  29.255  1.00  0.00     0.029 A 
ATOM     50  N   UNL A   1      43.610  29.479  28.443  1.00  0.00    -0.354 N 
ATOM     51  N   UNL A   1      46.329  28.789  27.554  1.00  0.00    -0.248 NA
ATOM     52  C   UNL A   1      48.513  29.419  27.023  1.00  0.00     0.031 C 
ATOM     53  C   UNL A   1      43.207  31.577  29.048  1.00  0.00     0.029 A 
ATOM     54  C   UNL A   1      44.194  30.727  28.572  1.00  0.00     0.049 A 
ATOM     55  H   UNL A   1      44.068  28.671  28.117  1.00  0.00     0.167 HD
ATOM     56  C   UNL A   1      46.482  30.147  27.799  1.00  0.00     0.074 A 
ATOM     57  C   UNL A   1      47.854  30.477  27.477  1.00  0.00     0.031 C 
ATOM     58  C   UNL A   1      45.568  31.037  28.258  1.00  0.00     0.037 A 
BRANCH  45  59
ATOM     59  C   UNL A   1      39.923  28.673  29.136  1.00  0.00     0.064 A 
ATOM     60  C   UNL A   1      39.416  28.469  30.428  1.00  0.00     0.173 A 
ATOM     61  C   UNL A   1      39.035  29.138  28.152  1.00  0.00     0.173 A 
ATOM     62  F   UNL A   1      40.218  28.017  31.405  1.00  0.00    -0.203 F 
ATOM     63  C   UNL A   1      38.068  28.679  30.713  1.00  0.00     0.198 A 
ATOM     64  C   UNL A   1      37.697  29.383  28.450  1.00  0.00     0.198 A 
ATOM     65  F   UNL A   1      39.465  29.358  26.901  1.00  0.00    -0.203 F 
ATOM     66  F   UNL A   1      37.596  28.413  31.938  1.00  0.00    -0.200 F 
ATOM     67  C   UNL A   1      37.212  29.141  29.726  1.00  0.00     0.200 A 
ATOM     68  F   UNL A   1      36.875  29.846  27.498  1.00  0.00    -0.200 F 
ATOM     69  F   UNL A   1      35.917  29.345  30.002  1.00  0.00    -0.200 F 
ENDBRANCH  45  59
BRANCH  46  70
ATOM     70  C   UNL A   1      49.279  26.691  26.230  1.00  0.00     0.064 A 
ATOM     71  C   UNL A   1      50.275  26.187  27.077  1.00  0.00     0.173 A 
ATOM     72  C   UNL A   1      49.608  26.888  24.880  1.00  0.00     0.173 A 
ATOM     73  F   UNL A   1      50.013  25.996  28.378  1.00  0.00    -0.203 F 
ATOM     74  C   UNL A   1      51.552  25.903  26.597  1.00  0.00     0.198 A 
ATOM     75  C   UNL A   1      50.877  26.577  24.395  1.00  0.00     0.198 A 
ATOM     76  F   UNL A   1      48.689  27.359  24.026  1.00  0.00    -0.203 F 
ATOM     77  F   UNL A   1      52.496  25.455  27.436  1.00  0.00    -0.200 F 
ATOM     78  C   UNL A   1      51.850  26.090  25.256  1.00  0.00     0.200 A 
ATOM     79  F   UNL A   1      51.154  26.740  23.094  1.00  0.00    -0.200 F 
ATOM     80  F   UNL A   1      53.073  25.803  24.791  1.00  0.00    -0.200 F 
ENDBRANCH  46  70
BRANCH  58  81
ATOM     81  C   UNL A   1      46.023  32.449  28.493  1.00  0.00     0.064 A 
ATOM     82  C   UNL A   1      46.601  32.849  29.705  1.00  0.00     0.173 A 
ATOM     83  C   UNL A   1      45.954  33.390  27.454  1.00  0.00     0.173 A 
ATOM     84  F   UNL A   1      46.676  31.990  30.733  1.00  0.00    -0.203 F 
ATOM     85  C   UNL A   1      47.088  34.143  29.871  1.00  0.00     0.198 A 
ATOM     86  C   UNL A   1      46.469  34.673  27.613  1.00  0.00     0.198 A 
ATOM     87  F   UNL A   1      45.414  33.055  26.272  1.00  0.00    -0.203 F 
ATOM     88  F   UNL A   1      47.608  34.515  31.049  1.00  0.00    -0.200 F 
ATOM     89  C   UNL A   1      47.033  35.049  28.822  1.00  0.00     0.200 A 
ATOM     90  F   UNL A   1      46.431  35.541  26.592  1.00  0.00    -0.200 F 
ATOM     91  F   UNL A   1      47.522  36.287  28.978  1.00  0.00    -0.200 F 
ENDBRANCH  58  81
ENDBRANCH  32  33
ENDBRANCH  24  27
ENDBRANCH  22  23
ENDBRANCH   1  22
TORSDOF 13
ENDMDL
MODEL 3
REMARK VINA RESULT:     -12.4      5.781     11.392
REMARK SMILES COc1cc(OC)cc(-c2ccc(C(=O)NCCCNC(=O)c3ccc(-c4c5nc(c(-c6c(F)c(F)c(F)c(F)c6F)c6ccc([nH]6)c(-c6c(F)c(F)c(F)c(F)c6F)c6nc(c(-c7c(F)c(F)c(F)c(F)c7F)c7ccc4[nH]7)C=C6)C=C5)cc3)o2)c1
REMARK SMILES IDX 18 1 17 2 16 3 14 4 15 5 13 7 10 8 11 9 86 10 12 11 9 12
REMARK SMILES IDX 3 13 4 14 87 15 5 16 8 17 2 18 1 19 6 20 7 21 19 22 20 23
REMARK SMILES IDX 21 24 22 26 23 27 24 28 85 29 25 30 84 31 26 32 27 33 28 34
REMARK SMILES IDX 78 35 29 36 83 37 77 38 79 39 30 40 82 41 76 42 75 43 31 45
REMARK SMILES IDX 63 46 43 47 62 48 44 49 47 50 61 51 80 52 45 53 46 54 60 56
REMARK SMILES IDX 81 57 48 58 32 59 33 60 41 61 34 62 35 63 39 64 42 65 36 66
REMARK SMILES IDX 37 67 40 68 38 69 64 70 65 71 73 72 66 73 67 74 71 75 74 76
REMARK SMILES IDX 68 77 69 78 72 79 70 80 49 81 50 82 58 83 51 84 52 85 56 86
REMARK SMILES IDX 59 87 53 88 54 89 57 90 55 91
REMARK H PARENT 16 6 20 25 79 44 47 55
REMARK Flexibility Score: inf
ROOT
ATOM      1  C   UNL A   1      38.146  19.784  24.923  1.00  0.00     0.042 C 
ENDROOT
BRANCH   1   2
ATOM      2  C   UNL A   1      36.914  20.671  25.082  1.00  0.00     0.118 C 
BRANCH   2   3
ATOM      3  N   UNL A   1      35.692  19.896  25.001  1.00  0.00    -0.349 N 
ATOM      4  C   UNL A   1      34.388  20.233  25.289  1.00  0.00     0.287 C 
ATOM      5  O   UNL A   1      33.546  19.369  25.039  1.00  0.00    -0.266 OA
ATOM      6  H   UNL A   1      35.815  18.971  24.686  1.00  0.00     0.163 HD
BRANCH   4   7
ATOM      7  C   UNL A   1      34.055  21.536  25.836  1.00  0.00     0.192 A 
ATOM      8  C   UNL A   1      33.825  23.727  25.692  1.00  0.00     0.135 A 
ATOM      9  C   UNL A   1      33.545  23.402  26.997  1.00  0.00     0.052 A 
ATOM     10  O   UNL A   1      34.123  22.612  24.976  1.00  0.00    -0.451 OA
ATOM     11  C   UNL A   1      33.640  21.996  27.077  1.00  0.00     0.057 A 
BRANCH   8  12
ATOM     12  C   UNL A   1      33.803  24.991  24.987  1.00  0.00     0.025 A 
ATOM     13  C   UNL A   1      33.241  27.345  24.972  1.00  0.00     0.123 A 
ATOM     14  C   UNL A   1      33.312  27.333  23.577  1.00  0.00     0.092 A 
ATOM     15  C   UNL A   1      33.478  26.167  25.676  1.00  0.00     0.058 A 
ATOM     16  C   UNL A   1      33.653  26.169  22.881  1.00  0.00     0.123 A 
ATOM     17  C   UNL A   1      33.931  25.005  23.593  1.00  0.00     0.058 A 
BRANCH  13  18
ATOM     18  O   UNL A   1      32.854  28.533  25.528  1.00  0.00    -0.497 OA
ATOM     19  C   UNL A   1      33.594  28.966  26.665  1.00  0.00     0.278 C 
ENDBRANCH  13  18
BRANCH  16  20
ATOM     20  O   UNL A   1      33.653  26.287  21.517  1.00  0.00    -0.497 OA
ATOM     21  C   UNL A   1      32.498  25.803  20.841  1.00  0.00     0.278 C 
ENDBRANCH  16  20
ENDBRANCH   8  12
ENDBRANCH   4   7
ENDBRANCH   2   3
ENDBRANCH   1   2
BRANCH   1  22
ATOM     22  C   UNL A   1      39.276  20.180  25.868  1.00  0.00     0.118 C 
BRANCH  22  23
ATOM     23  N   UNL A   1      40.280  19.127  25.984  1.00  0.00    -0.352 N 
ATOM     24  C   UNL A   1      41.643  19.222  26.109  1.00  0.00     0.251 C 
ATOM     25  H   UNL A   1      39.925  18.208  25.970  1.00  0.00     0.163 HD
ATOM     26  O   UNL A   1      42.348  18.230  25.954  1.00  0.00    -0.269 OA
BRANCH  24  27
ATOM     27  C   UNL A   1      42.262  20.525  26.420  1.00  0.00     0.039 A 
ATOM     28  C   UNL A   1      42.694  21.345  25.375  1.00  0.00     0.014 A 
ATOM     29  C   UNL A   1      42.417  20.929  27.748  1.00  0.00     0.014 A 
ATOM     30  C   UNL A   1      43.216  22.609  25.660  1.00  0.00     0.010 A 
ATOM     31  C   UNL A   1      42.861  22.214  28.026  1.00  0.00     0.010 A 
ATOM     32  C   UNL A   1      43.264  23.066  26.986  1.00  0.00    -0.014 A 
BRANCH  32  33
ATOM     33  C   UNL A   1      43.728  24.433  27.331  1.00  0.00     0.031 A 
ATOM     34  C   UNL A   1      42.739  25.449  27.826  1.00  0.00     0.074 A 
ATOM     35  C   UNL A   1      45.001  24.789  27.078  1.00  0.00     0.049 A 
ATOM     36  N   UNL A   1      42.889  26.735  28.004  1.00  0.00    -0.248 NA
ATOM     37  C   UNL A   1      41.385  24.954  28.123  1.00  0.00     0.031 C 
ATOM     38  C   UNL A   1      46.040  23.899  26.559  1.00  0.00     0.029 A 
ATOM     39  N   UNL A   1      45.628  26.006  27.189  1.00  0.00    -0.354 N 
ATOM     40  C   UNL A   1      41.645  27.207  28.398  1.00  0.00     0.074 A 
ATOM     41  C   UNL A   1      40.741  26.078  28.391  1.00  0.00     0.031 C 
ATOM     42  C   UNL A   1      47.174  24.599  26.395  1.00  0.00     0.029 A 
ATOM     43  C   UNL A   1      46.927  25.994  26.746  1.00  0.00     0.049 A 
ATOM     44  H   UNL A   1      45.188  26.808  27.551  1.00  0.00     0.167 HD
ATOM     45  C   UNL A   1      41.294  28.469  28.747  1.00  0.00     0.037 A 
ATOM     46  C   UNL A   1      47.812  27.001  26.608  1.00  0.00     0.037 A 
ATOM     47  C   UNL A   1      42.212  29.577  28.775  1.00  0.00     0.049 A 
ATOM     48  C   UNL A   1      47.402  28.396  26.998  1.00  0.00     0.074 A 
ATOM     49  C   UNL A   1      41.980  30.877  29.189  1.00  0.00     0.029 A 
ATOM     50  N   UNL A   1      43.536  29.518  28.360  1.00  0.00    -0.354 N 
ATOM     51  N   UNL A   1      46.242  28.822  27.437  1.00  0.00    -0.248 NA
ATOM     52  C   UNL A   1      48.420  29.447  26.876  1.00  0.00     0.031 C 
ATOM     53  C   UNL A   1      43.144  31.618  28.964  1.00  0.00     0.029 A 
ATOM     54  C   UNL A   1      44.123  30.766  28.477  1.00  0.00     0.049 A 
ATOM     55  H   UNL A   1      43.989  28.708  28.031  1.00  0.00     0.167 HD
ATOM     56  C   UNL A   1      46.400  30.180  27.676  1.00  0.00     0.074 A 
ATOM     57  C   UNL A   1      47.768  30.507  27.335  1.00  0.00     0.031 C 
ATOM     58  C   UNL A   1      45.493  31.073  28.145  1.00  0.00     0.037 A 
BRANCH  45  59
ATOM     59  C   UNL A   1      39.857  28.718  29.104  1.00  0.00     0.064 A 
ATOM     60  C   UNL A   1      38.912  29.125  28.150  1.00  0.00     0.173 A 
ATOM     61  C   UNL A   1      39.414  28.530  30.423  1.00  0.00     0.173 A 
ATOM     62  F   UNL A   1      39.282  29.328  26.876  1.00  0.00    -0.203 F 
ATOM     63  C   UNL A   1      37.590  29.376  28.511  1.00  0.00     0.198 A 
ATOM     64  C   UNL A   1      38.083  28.746  30.772  1.00  0.00     0.198 A 
ATOM     65  F   UNL A   1      40.271  28.135  31.376  1.00  0.00    -0.203 F 
ATOM     66  F   UNL A   1      36.723  29.828  27.595  1.00  0.00    -0.200 F 
ATOM     67  C   UNL A   1      37.176  29.181  29.818  1.00  0.00     0.200 A 
ATOM     68  F   UNL A   1      37.682  28.539  32.034  1.00  0.00    -0.200 F 
ATOM     69  F   UNL A   1      35.903  29.420  30.164  1.00  0.00    -0.200 F 
ENDBRANCH  45  59
BRANCH  46  70
ATOM     70  C   UNL A   1      49.172  26.716  26.081  1.00  0.00     0.064 A 
ATOM     71  C   UNL A   1      49.488  26.950  24.736  1.00  0.00     0.173 A 
ATOM     72  C   UNL A   1      50.191  26.235  26.917  1.00  0.00     0.173 A 
ATOM     73  F   UNL A   1      48.543  27.394  23.894  1.00  0.00    -0.203 F 
ATOM     74  C   UNL A   1      50.767  26.702  24.244  1.00  0.00     0.198 A 
ATOM     75  C   UNL A   1      51.478  26.016  26.430  1.00  0.00     0.198 A 
ATOM     76  F   UNL A   1      49.943  26.004  28.213  1.00  0.00    -0.203 F 
ATOM     77  F   UNL A   1      51.034  26.902  22.946  1.00  0.00    -0.200 F 
ATOM     78  C   UNL A   1      51.764  26.244  25.092  1.00  0.00     0.200 A 
ATOM     79  F   UNL A   1      52.442  25.591  27.259  1.00  0.00    -0.200 F 
ATOM     80  F   UNL A   1      52.998  26.020  24.622  1.00  0.00    -0.200 F 
ENDBRANCH  46  70
BRANCH  58  81
ATOM     81  C   UNL A   1      45.952  32.485  28.369  1.00  0.00     0.064 A 
ATOM     82  C   UNL A   1      46.554  32.886  29.569  1.00  0.00     0.173 A 
ATOM     83  C   UNL A   1      45.864  33.425  27.330  1.00  0.00     0.173 A 
ATOM     84  F   UNL A   1      46.648  32.029  30.597  1.00  0.00    -0.203 F 
ATOM     85  C   UNL A   1      47.044  34.180  29.725  1.00  0.00     0.198 A 
ATOM     86  C   UNL A   1      46.383  34.708  27.477  1.00  0.00     0.198 A 
ATOM     87  F   UNL A   1      45.303  33.089  26.159  1.00  0.00    -0.203 F 
ATOM     88  F   UNL A   1      47.587  34.554  30.892  1.00  0.00    -0.200 F 
ATOM     89  C   UNL A   1      46.970  35.086  28.675  1.00  0.00     0.200 A 
ATOM     90  F   UNL A   1      46.326  35.574  26.456  1.00  0.00    -0.200 F 
ATOM     91  F   UNL A   1      47.462  36.323  28.820  1.00  0.00    -0.200 F 
ENDBRANCH  58  81
ENDBRANCH  32  33
ENDBRANCH  24  27
ENDBRANCH  22  23
ENDBRANCH   1  22
TORSDOF 13
ENDMDL
