MODEL 1
REMARK VINA RESULT:     -13.3      0.000      0.000
REMARK SMILES C[C@H](CN(Cc1ccccc1)C(=O)c1cc2ccccc2oc1=O)C(=O)NCCCNC(=O)c1ccc(-c2c3nc(c(-c4c(F)c(F)c(F)c(F)c4F)c4ccc([nH]4)c(-c4c(F)c(F)c(F)c(F)c4F)c4nc(c(-c5c(F)c(F)c(F)c(F)c5F)c5ccc2[nH]5)C=C4)C=C3)cc1
REMARK SMILES IDX 28 1 27 2 25 3 26 4 2 6 1 7 3 8 4 9 5 10 6 11 7 12 11 13
REMARK SMILES IDX 8 14 10 15 9 16 12 17 13 18 14 19 15 20 23 21 16 22 22 23
REMARK SMILES IDX 24 24 17 25 21 26 18 27 20 28 19 29 29 30 30 31 31 32 32 33
REMARK SMILES IDX 33 35 34 36 35 37 96 38 36 39 95 40 37 41 38 42 39 43 89 44
REMARK SMILES IDX 40 45 94 46 88 47 90 48 41 49 93 50 87 51 86 52 42 54 74 55
REMARK SMILES IDX 54 56 73 57 55 58 58 59 72 60 91 61 56 62 57 63 71 65 92 66
REMARK SMILES IDX 59 67 43 68 44 69 52 70 45 71 46 72 50 73 53 74 47 75 48 76
REMARK SMILES IDX 51 77 49 78 75 79 76 80 84 81 77 82 78 83 82 84 85 85 79 86
REMARK SMILES IDX 80 87 83 88 81 89 60 90 61 91 69 92 62 93 63 94 67 95 70 96
REMARK SMILES IDX 64 97 65 98 68 99 66 100
REMARK H PARENT 27 5 31 34 90 53 58 64
REMARK Flexibility Score: inf
ROOT
ATOM      1  C   UNL A   1      31.478  30.665  26.339  1.00  0.00     0.117 C 
ENDROOT
BRANCH   1   2
ATOM      2  N   UNL A   1      32.170  30.328  25.103  1.00  0.00    -0.356 N 
ATOM      3  C   UNL A   1      32.803  29.194  24.703  1.00  0.00     0.224 C 
ATOM      4  O   UNL A   1      33.357  29.220  23.599  1.00  0.00    -0.275 OA
ATOM      5  H   UNL A   1      32.182  31.053  24.438  1.00  0.00     0.163 HD
BRANCH   3   6
ATOM      6  C   UNL A   1      32.853  27.923  25.548  1.00  0.00     0.095 C 
ATOM      7  C   UNL A   1      33.978  27.960  26.583  1.00  0.00     0.020 C 
BRANCH   6   8
ATOM      8  C   UNL A   1      32.729  26.665  24.672  1.00  0.00     0.133 C 
BRANCH   8   9
ATOM      9  N   UNL A   1      31.368  26.125  24.559  1.00  0.00    -0.333 N 
BRANCH   9  10
ATOM     10  C   UNL A   1      30.719  26.194  23.244  1.00  0.00     0.155 C 
BRANCH  10  11
ATOM     11  C   UNL A   1      29.695  27.305  23.177  1.00  0.00    -0.029 A 
ATOM     12  C   UNL A   1      28.383  27.090  23.628  1.00  0.00     0.005 A 
ATOM     13  C   UNL A   1      30.026  28.561  22.648  1.00  0.00     0.005 A 
ATOM     14  C   UNL A   1      27.423  28.099  23.531  1.00  0.00     0.000 A 
ATOM     15  C   UNL A   1      29.065  29.570  22.555  1.00  0.00     0.000 A 
ATOM     16  C   UNL A   1      27.764  29.338  22.993  1.00  0.00     0.000 A 
ENDBRANCH  10  11
ENDBRANCH   9  10
BRANCH   9  17
ATOM     17  C   UNL A   1      30.828  25.492  25.671  1.00  0.00     0.261 C 
ATOM     18  O   UNL A   1      30.490  26.128  26.668  1.00  0.00    -0.269 OA
BRANCH  17  19
ATOM     19  C   UNL A   1      30.610  24.007  25.612  1.00  0.00     0.126 A 
ATOM     20  C   UNL A   1      31.399  23.307  24.764  1.00  0.00     0.033 A 
ATOM     21  C   UNL A   1      30.595  23.336  26.945  1.00  0.00     0.349 A 
ATOM     22  C   UNL A   1      32.795  23.210  25.248  1.00  0.00     0.018 A 
ATOM     23  O   UNL A   1      31.859  23.071  27.485  1.00  0.00    -0.422 OA
ATOM     24  O   UNL A   1      29.557  23.074  27.540  1.00  0.00    -0.246 OA
ATOM     25  C   UNL A   1      33.901  23.239  24.405  1.00  0.00     0.012 A 
ATOM     26  C   UNL A   1      32.983  23.119  26.632  1.00  0.00     0.138 A 
ATOM     27  C   UNL A   1      35.184  23.188  24.960  1.00  0.00     0.001 A 
ATOM     28  C   UNL A   1      34.252  23.060  27.195  1.00  0.00     0.048 A 
ATOM     29  C   UNL A   1      35.359  23.101  26.347  1.00  0.00     0.004 A 
ENDBRANCH  17  19
ENDBRANCH   9  17
ENDBRANCH   8   9
ENDBRANCH   6   8
ENDBRANCH   3   6
ENDBRANCH   1   2
BRANCH   1  30
ATOM     30  C   UNL A   1      31.380  32.173  26.564  1.00  0.00     0.042 C 
BRANCH  30  31
ATOM     31  C   UNL A   1      32.608  32.792  27.218  1.00  0.00     0.118 C 
BRANCH  31  32
ATOM     32  N   UNL A   1      32.381  34.164  27.642  1.00  0.00    -0.352 N 
ATOM     33  C   UNL A   1      32.993  34.860  28.654  1.00  0.00     0.251 C 
ATOM     34  H   UNL A   1      31.696  34.659  27.136  1.00  0.00     0.163 HD
ATOM     35  O   UNL A   1      32.559  35.958  28.993  1.00  0.00    -0.269 OA
BRANCH  33  36
ATOM     36  C   UNL A   1      34.165  34.289  29.359  1.00  0.00     0.039 A 
ATOM     37  C   UNL A   1      35.440  34.521  28.830  1.00  0.00     0.014 A 
ATOM     38  C   UNL A   1      34.017  33.486  30.494  1.00  0.00     0.014 A 
ATOM     39  C   UNL A   1      36.567  33.980  29.455  1.00  0.00     0.010 A 
ATOM     40  C   UNL A   1      35.143  32.970  31.135  1.00  0.00     0.010 A 
ATOM     41  C   UNL A   1      36.425  33.207  30.616  1.00  0.00    -0.014 A 
BRANCH  41  42
ATOM     42  C   UNL A   1      37.604  32.609  31.284  1.00  0.00     0.031 A 
ATOM     43  C   UNL A   1      38.380  31.520  30.602  1.00  0.00     0.074 A 
ATOM     44  C   UNL A   1      37.948  33.005  32.523  1.00  0.00     0.049 A 
ATOM     45  N   UNL A   1      39.365  30.793  31.065  1.00  0.00    -0.248 NA
ATOM     46  C   UNL A   1      37.982  31.194  29.224  1.00  0.00     0.031 C 
ATOM     47  C   UNL A   1      37.264  34.038  33.302  1.00  0.00     0.029 A 
ATOM     48  N   UNL A   1      38.954  32.571  33.348  1.00  0.00    -0.354 N 
ATOM     49  C   UNL A   1      39.678  29.898  30.052  1.00  0.00     0.074 A 
ATOM     50  C   UNL A   1      38.789  30.178  28.945  1.00  0.00     0.031 C 
ATOM     51  C   UNL A   1      37.875  34.160  34.493  1.00  0.00     0.029 A 
ATOM     52  C   UNL A   1      38.977  33.204  34.565  1.00  0.00     0.049 A 
ATOM     53  H   UNL A   1      39.598  31.871  33.092  1.00  0.00     0.167 HD
ATOM     54  C   UNL A   1      40.619  28.925  30.050  1.00  0.00     0.037 A 
ATOM     55  C   UNL A   1      39.791  33.026  35.621  1.00  0.00     0.037 A 
ATOM     56  C   UNL A   1      41.535  28.664  31.126  1.00  0.00     0.049 A 
ATOM     57  C   UNL A   1      40.878  31.992  35.563  1.00  0.00     0.074 A 
ATOM     58  C   UNL A   1      42.536  27.710  31.200  1.00  0.00     0.029 A 
ATOM     59  N   UNL A   1      41.570  29.374  32.316  1.00  0.00    -0.354 N 
ATOM     60  N   UNL A   1      41.161  31.148  34.602  1.00  0.00    -0.248 NA
ATOM     61  C   UNL A   1      41.757  31.886  36.736  1.00  0.00     0.031 C 
ATOM     62  C   UNL A   1      43.178  27.844  32.439  1.00  0.00     0.029 A 
ATOM     63  C   UNL A   1      42.580  28.886  33.128  1.00  0.00     0.049 A 
ATOM     64  H   UNL A   1      40.966  30.116  32.548  1.00  0.00     0.167 HD
ATOM     65  C   UNL A   1      42.248  30.413  35.051  1.00  0.00     0.074 A 
ATOM     66  C   UNL A   1      42.583  30.916  36.367  1.00  0.00     0.031 C 
ATOM     67  C   UNL A   1      42.904  29.405  34.428  1.00  0.00     0.037 A 
BRANCH  54  68
ATOM     68  C   UNL A   1      40.690  28.053  28.838  1.00  0.00     0.064 A 
ATOM     69  C   UNL A   1      39.926  26.885  28.736  1.00  0.00     0.173 A 
ATOM     70  C   UNL A   1      41.515  28.406  27.761  1.00  0.00     0.173 A 
ATOM     71  F   UNL A   1      39.135  26.504  29.750  1.00  0.00    -0.203 F 
ATOM     72  C   UNL A   1      39.991  26.090  27.595  1.00  0.00     0.198 A 
ATOM     73  C   UNL A   1      41.571  27.615  26.618  1.00  0.00     0.198 A 
ATOM     74  F   UNL A   1      42.267  29.515  27.820  1.00  0.00    -0.203 F 
ATOM     75  F   UNL A   1      39.270  24.963  27.522  1.00  0.00    -0.200 F 
ATOM     76  C   UNL A   1      40.811  26.456  26.537  1.00  0.00     0.200 A 
ATOM     77  F   UNL A   1      42.364  27.967  25.597  1.00  0.00    -0.200 F 
ATOM     78  F   UNL A   1      40.875  25.688  25.440  1.00  0.00    -0.200 F 
ENDBRANCH  54  68
BRANCH  55  79
ATOM     79  C   UNL A   1      39.611  33.863  36.828  1.00  0.00     0.064 A 
ATOM     80  C   UNL A   1      40.192  35.134  36.909  1.00  0.00     0.173 A 
ATOM     81  C   UNL A   1      38.847  33.413  37.912  1.00  0.00     0.173 A 
ATOM     82  F   UNL A   1      40.945  35.591  35.898  1.00  0.00    -0.203 F 
ATOM     83  C   UNL A   1      40.017  35.929  38.038  1.00  0.00     0.198 A 
ATOM     84  C   UNL A   1      38.666  34.213  39.038  1.00  0.00     0.198 A 
ATOM     85  F   UNL A   1      38.279  32.199  37.876  1.00  0.00    -0.203 F 
ATOM     86  F   UNL A   1      40.595  37.136  38.102  1.00  0.00    -0.200 F 
ATOM     87  C   UNL A   1      39.252  35.469  39.101  1.00  0.00     0.200 A 
ATOM     88  F   UNL A   1      37.926  33.767  40.063  1.00  0.00    -0.200 F 
ATOM     89  F   UNL A   1      39.083  36.235  40.187  1.00  0.00    -0.200 F 
ENDBRANCH  55  79
BRANCH  67  90
ATOM     90  C   UNL A   1      44.054  28.791  35.158  1.00  0.00     0.064 A 
ATOM     91  C   UNL A   1      43.859  27.725  36.045  1.00  0.00     0.173 A 
ATOM     92  C   UNL A   1      45.363  29.245  34.940  1.00  0.00     0.173 A 
ATOM     93  F   UNL A   1      42.621  27.268  36.290  1.00  0.00    -0.203 F 
ATOM     94  C   UNL A   1      44.938  27.135  36.698  1.00  0.00     0.198 A 
ATOM     95  C   UNL A   1      46.440  28.649  35.589  1.00  0.00     0.198 A 
ATOM     96  F   UNL A   1      45.592  30.268  34.104  1.00  0.00    -0.203 F 
ATOM     97  F   UNL A   1      44.731  26.127  37.556  1.00  0.00    -0.200 F 
ATOM     98  C   UNL A   1      46.227  27.595  36.468  1.00  0.00     0.200 A 
ATOM     99  F   UNL A   1      47.684  29.096  35.371  1.00  0.00    -0.200 F 
ATOM    100  F   UNL A   1      47.264  27.028  37.099  1.00  0.00    -0.200 F 
ENDBRANCH  67  90
ENDBRANCH  41  42
ENDBRANCH  33  36
ENDBRANCH  31  32
ENDBRANCH  30  31
ENDBRANCH   1  30
TORSDOF 16
ENDMDL
MODEL 2
REMARK VINA RESULT:     -13.2      2.196      4.233
REMARK SMILES C[C@H](CN(Cc1ccccc1)C(=O)c1cc2ccccc2oc1=O)C(=O)NCCCNC(=O)c1ccc(-c2c3nc(c(-c4c(F)c(F)c(F)c(F)c4F)c4ccc([nH]4)c(-c4c(F)c(F)c(F)c(F)c4F)c4nc(c(-c5c(F)c(F)c(F)c(F)c5F)c5ccc2[nH]5)C=C4)C=C3)cc1
REMARK SMILES IDX 28 1 27 2 25 3 26 4 2 6 1 7 3 8 4 9 5 10 6 11 7 12 11 13
REMARK SMILES IDX 8 14 10 15 9 16 12 17 13 18 14 19 15 20 23 21 16 22 22 23
REMARK SMILES IDX 24 24 17 25 21 26 18 27 20 28 19 29 29 30 30 31 31 32 32 33
REMARK SMILES IDX 33 35 34 36 35 37 96 38 36 39 95 40 37 41 38 42 39 43 89 44
REMARK SMILES IDX 40 45 94 46 88 47 90 48 41 49 93 50 87 51 86 52 42 54 74 55
REMARK SMILES IDX 54 56 73 57 55 58 58 59 72 60 91 61 56 62 57 63 71 65 92 66
REMARK SMILES IDX 59 67 43 68 44 69 52 70 45 71 46 72 50 73 53 74 47 75 48 76
REMARK SMILES IDX 51 77 49 78 75 79 76 80 84 81 77 82 78 83 82 84 85 85 79 86
REMARK SMILES IDX 80 87 83 88 81 89 60 90 61 91 69 92 62 93 63 94 67 95 70 96
REMARK SMILES IDX 64 97 65 98 68 99 66 100
REMARK H PARENT 27 5 31 34 90 53 58 64
REMARK Flexibility Score: inf
ROOT
ATOM      1  C   UNL A   1      32.440  27.846  22.918  1.00  0.00     0.117 C 
ENDROOT
BRANCH   1   2
ATOM      2  N   UNL A   1      32.661  27.217  21.624  1.00  0.00    -0.356 N 
ATOM      3  C   UNL A   1      32.834  25.916  21.270  1.00  0.00     0.224 C 
ATOM      4  O   UNL A   1      33.060  25.684  20.078  1.00  0.00    -0.275 OA
ATOM      5  H   UNL A   1      32.692  27.848  20.870  1.00  0.00     0.163 HD
BRANCH   3   6
ATOM      6  C   UNL A   1      32.759  24.762  22.267  1.00  0.00     0.095 C 
ATOM      7  C   UNL A   1      31.352  24.579  22.837  1.00  0.00     0.020 C 
BRANCH   6   8
ATOM      8  C   UNL A   1      33.933  24.806  23.261  1.00  0.00     0.133 C 
BRANCH   8   9
ATOM      9  N   UNL A   1      34.515  23.498  23.584  1.00  0.00    -0.333 N 
BRANCH   9  10
ATOM     10  C   UNL A   1      35.861  23.211  23.073  1.00  0.00     0.155 C 
BRANCH  10  11
ATOM     11  C   UNL A   1      36.814  22.823  24.183  1.00  0.00    -0.029 A 
ATOM     12  C   UNL A   1      37.322  23.796  25.056  1.00  0.00     0.005 A 
ATOM     13  C   UNL A   1      37.225  21.492  24.348  1.00  0.00     0.005 A 
ATOM     14  C   UNL A   1      38.233  23.449  26.056  1.00  0.00     0.000 A 
ATOM     15  C   UNL A   1      38.133  21.146  25.351  1.00  0.00     0.000 A 
ATOM     16  C   UNL A   1      38.640  22.125  26.201  1.00  0.00     0.000 A 
ENDBRANCH  10  11
ENDBRANCH   9  10
BRANCH   9  17
ATOM     17  C   UNL A   1      33.803  22.665  24.437  1.00  0.00     0.261 C 
ATOM     18  O   UNL A   1      33.076  21.773  24.000  1.00  0.00    -0.269 OA
BRANCH  17  19
ATOM     19  C   UNL A   1      33.981  22.837  25.919  1.00  0.00     0.126 A 
ATOM     20  C   UNL A   1      33.910  24.100  26.399  1.00  0.00     0.033 A 
ATOM     21  C   UNL A   1      33.123  21.941  26.747  1.00  0.00     0.349 A 
ATOM     22  C   UNL A   1      32.529  24.632  26.375  1.00  0.00     0.018 A 
ATOM     23  O   UNL A   1      31.803  22.377  26.913  1.00  0.00    -0.422 OA
ATOM     24  O   UNL A   1      33.529  20.884  27.213  1.00  0.00    -0.246 OA
ATOM     25  C   UNL A   1      32.225  25.961  26.099  1.00  0.00     0.012 A 
ATOM     26  C   UNL A   1      31.493  23.722  26.614  1.00  0.00     0.138 A 
ATOM     27  C   UNL A   1      30.885  26.361  26.053  1.00  0.00     0.001 A 
ATOM     28  C   UNL A   1      30.158  24.108  26.580  1.00  0.00     0.048 A 
ATOM     29  C   UNL A   1      29.857  25.439  26.290  1.00  0.00     0.004 A 
ENDBRANCH  17  19
ENDBRANCH   9  17
ENDBRANCH   8   9
ENDBRANCH   6   8
ENDBRANCH   3   6
ENDBRANCH   1   2
BRANCH   1  30
ATOM     30  C   UNL A   1      33.581  28.779  23.319  1.00  0.00     0.042 C 
BRANCH  30  31
ATOM     31  C   UNL A   1      33.758  28.947  24.823  1.00  0.00     0.118 C 
BRANCH  31  32
ATOM     32  N   UNL A   1      32.992  30.062  25.353  1.00  0.00    -0.352 N 
ATOM     33  C   UNL A   1      33.185  30.756  26.521  1.00  0.00     0.251 C 
ATOM     34  H   UNL A   1      32.232  30.359  24.800  1.00  0.00     0.163 HD
ATOM     35  O   UNL A   1      32.339  31.560  26.904  1.00  0.00    -0.269 OA
BRANCH  33  36
ATOM     36  C   UNL A   1      34.401  30.530  27.339  1.00  0.00     0.039 A 
ATOM     37  C   UNL A   1      35.238  31.619  27.605  1.00  0.00     0.014 A 
ATOM     38  C   UNL A   1      34.749  29.255  27.793  1.00  0.00     0.014 A 
ATOM     39  C   UNL A   1      36.404  31.439  28.355  1.00  0.00     0.010 A 
ATOM     40  C   UNL A   1      35.898  29.079  28.565  1.00  0.00     0.010 A 
ATOM     41  C   UNL A   1      36.737  30.169  28.846  1.00  0.00    -0.014 A 
BRANCH  41  42
ATOM     42  C   UNL A   1      37.977  29.953  29.626  1.00  0.00     0.031 A 
ATOM     43  C   UNL A   1      39.063  29.073  29.079  1.00  0.00     0.074 A 
ATOM     44  C   UNL A   1      38.107  30.502  30.847  1.00  0.00     0.049 A 
ATOM     45  N   UNL A   1      40.166  28.667  29.654  1.00  0.00    -0.248 NA
ATOM     46  C   UNL A   1      38.873  28.568  27.711  1.00  0.00     0.031 C 
ATOM     47  C   UNL A   1      37.117  31.357  31.500  1.00  0.00     0.029 A 
ATOM     48  N   UNL A   1      39.125  30.405  31.761  1.00  0.00    -0.354 N 
ATOM     49  C   UNL A   1      40.782  27.829  28.736  1.00  0.00     0.074 A 
ATOM     50  C   UNL A   1      39.938  27.792  27.560  1.00  0.00     0.031 C 
ATOM     51  C   UNL A   1      37.579  31.713  32.711  1.00  0.00     0.029 A 
ATOM     52  C   UNL A   1      38.886  31.095  32.923  1.00  0.00     0.049 A 
ATOM     53  H   UNL A   1      39.949  29.891  31.599  1.00  0.00     0.167 HD
ATOM     54  C   UNL A   1      41.945  27.147  28.865  1.00  0.00     0.037 A 
ATOM     55  C   UNL A   1      39.634  31.207  34.035  1.00  0.00     0.037 A 
ATOM     56  C   UNL A   1      42.811  27.209  30.010  1.00  0.00     0.049 A 
ATOM     57  C   UNL A   1      40.957  30.502  34.122  1.00  0.00     0.074 A 
ATOM     58  C   UNL A   1      44.019  26.566  30.218  1.00  0.00     0.029 A 
ATOM     59  N   UNL A   1      42.565  27.974  31.140  1.00  0.00    -0.354 N 
ATOM     60  N   UNL A   1      41.526  29.708  33.250  1.00  0.00    -0.248 NA
ATOM     61  C   UNL A   1      41.740  30.710  35.350  1.00  0.00     0.031 C 
ATOM     62  C   UNL A   1      44.505  26.943  31.477  1.00  0.00     0.029 A 
ATOM     63  C   UNL A   1      43.602  27.826  32.045  1.00  0.00     0.049 A 
ATOM     64  H   UNL A   1      41.771  28.539  31.277  1.00  0.00     0.167 HD
ATOM     65  C   UNL A   1      42.731  29.322  33.818  1.00  0.00     0.074 A 
ATOM     66  C   UNL A   1      42.818  29.977  35.107  1.00  0.00     0.031 C 
ATOM     67  C   UNL A   1      43.676  28.492  33.317  1.00  0.00     0.037 A 
BRANCH  54  68
ATOM     68  C   UNL A   1      42.336  26.255  27.733  1.00  0.00     0.064 A 
ATOM     69  C   UNL A   1      41.814  24.962  27.611  1.00  0.00     0.173 A 
ATOM     70  C   UNL A   1      43.226  26.709  26.750  1.00  0.00     0.173 A 
ATOM     71  F   UNL A   1      40.971  24.484  28.538  1.00  0.00    -0.203 F 
ATOM     72  C   UNL A   1      42.177  24.146  26.543  1.00  0.00     0.198 A 
ATOM     73  C   UNL A   1      43.580  25.895  25.678  1.00  0.00     0.198 A 
ATOM     74  F   UNL A   1      43.753  27.939  26.832  1.00  0.00    -0.203 F 
ATOM     75  F   UNL A   1      41.684  22.903  26.452  1.00  0.00    -0.200 F 
ATOM     76  C   UNL A   1      43.057  24.614  25.577  1.00  0.00     0.200 A 
ATOM     77  F   UNL A   1      44.431  26.345  24.747  1.00  0.00    -0.200 F 
ATOM     78  F   UNL A   1      43.408  23.826  24.551  1.00  0.00    -0.200 F 
ENDBRANCH  54  68
BRANCH  55  79
ATOM     79  C   UNL A   1      39.147  32.037  35.160  1.00  0.00     0.064 A 
ATOM     80  C   UNL A   1      39.406  33.413  35.197  1.00  0.00     0.173 A 
ATOM     81  C   UNL A   1      38.406  31.473  36.205  1.00  0.00     0.173 A 
ATOM     82  F   UNL A   1      40.128  33.984  34.222  1.00  0.00    -0.203 F 
ATOM     83  C   UNL A   1      38.941  34.199  36.247  1.00  0.00     0.198 A 
ATOM     84  C   UNL A   1      37.934  32.263  37.251  1.00  0.00     0.198 A 
ATOM     85  F   UNL A   1      38.142  30.159  36.209  1.00  0.00    -0.203 F 
ATOM     86  F   UNL A   1      39.215  35.511  36.272  1.00  0.00    -0.200 F 
ATOM     87  C   UNL A   1      38.203  33.625  37.272  1.00  0.00     0.200 A 
ATOM     88  F   UNL A   1      37.221  31.706  38.240  1.00  0.00    -0.200 F 
ATOM     89  F   UNL A   1      37.756  34.382  38.282  1.00  0.00    -0.200 F 
ENDBRANCH  55  79
BRANCH  67  90
ATOM     90  C   UNL A   1      44.888  28.256  34.158  1.00  0.00     0.064 A 
ATOM     91  C   UNL A   1      44.941  27.188  35.062  1.00  0.00     0.173 A 
ATOM     92  C   UNL A   1      46.017  29.079  34.033  1.00  0.00     0.173 A 
ATOM     93  F   UNL A   1      43.878  26.384  35.221  1.00  0.00    -0.203 F 
ATOM     94  C   UNL A   1      46.085  26.953  35.821  1.00  0.00     0.198 A 
ATOM     95  C   UNL A   1      47.160  28.838  34.788  1.00  0.00     0.198 A 
ATOM     96  F   UNL A   1      46.004  30.116  33.183  1.00  0.00    -0.203 F 
ATOM     97  F   UNL A   1      46.113  25.936  36.693  1.00  0.00    -0.200 F 
ATOM     98  C   UNL A   1      47.194  27.776  35.681  1.00  0.00     0.200 A 
ATOM     99  F   UNL A   1      48.229  29.635  34.656  1.00  0.00    -0.200 F 
ATOM    100  F   UNL A   1      48.292  27.550  36.414  1.00  0.00    -0.200 F 
ENDBRANCH  67  90
ENDBRANCH  41  42
ENDBRANCH  33  36
ENDBRANCH  31  32
ENDBRANCH  30  31
ENDBRANCH   1  30
TORSDOF 16
ENDMDL
MODEL 3
REMARK VINA RESULT:     -13.1      1.292      2.433
REMARK SMILES C[C@H](CN(Cc1ccccc1)C(=O)c1cc2ccccc2oc1=O)C(=O)NCCCNC(=O)c1ccc(-c2c3nc(c(-c4c(F)c(F)c(F)c(F)c4F)c4ccc([nH]4)c(-c4c(F)c(F)c(F)c(F)c4F)c4nc(c(-c5c(F)c(F)c(F)c(F)c5F)c5ccc2[nH]5)C=C4)C=C3)cc1
REMARK SMILES IDX 28 1 27 2 25 3 26 4 2 6 1 7 3 8 4 9 5 10 6 11 7 12 11 13
REMARK SMILES IDX 8 14 10 15 9 16 12 17 13 18 14 19 15 20 23 21 16 22 22 23
REMARK SMILES IDX 24 24 17 25 21 26 18 27 20 28 19 29 29 30 30 31 31 32 32 33
REMARK SMILES IDX 33 35 34 36 35 37 96 38 36 39 95 40 37 41 38 42 39 43 89 44
REMARK SMILES IDX 40 45 94 46 88 47 90 48 41 49 93 50 87 51 86 52 42 54 74 55
REMARK SMILES IDX 54 56 73 57 55 58 58 59 72 60 91 61 56 62 57 63 71 65 92 66
REMARK SMILES IDX 59 67 43 68 44 69 52 70 45 71 46 72 50 73 53 74 47 75 48 76
REMARK SMILES IDX 51 77 49 78 75 79 76 80 84 81 77 82 78 83 82 84 85 85 79 86
REMARK SMILES IDX 80 87 83 88 81 89 60 90 61 91 69 92 62 93 63 94 67 95 70 96
REMARK SMILES IDX 64 97 65 98 68 99 66 100
REMARK H PARENT 27 5 31 34 90 53 58 64
REMARK Flexibility Score: inf
ROOT
ATOM      1  C   UNL A   1      31.766  30.757  26.271  1.00  0.00     0.117 C 
ENDROOT
BRANCH   1   2
ATOM      2  N   UNL A   1      31.608  29.726  27.286  1.00  0.00    -0.356 N 
ATOM      3  C   UNL A   1      31.765  28.376  27.235  1.00  0.00     0.224 C 
ATOM      4  O   UNL A   1      31.503  27.741  28.262  1.00  0.00    -0.275 OA
ATOM      5  H   UNL A   1      31.338  30.067  28.169  1.00  0.00     0.163 HD
BRANCH   3   6
ATOM      6  C   UNL A   1      32.240  27.638  25.986  1.00  0.00     0.095 C 
ATOM      7  C   UNL A   1      33.414  28.345  25.307  1.00  0.00     0.020 C 
BRANCH   6   8
ATOM      8  C   UNL A   1      31.054  27.213  25.103  1.00  0.00     0.133 C 
BRANCH   8   9
ATOM      9  N   UNL A   1      31.260  27.404  23.662  1.00  0.00    -0.333 N 
BRANCH   9  10
ATOM     10  C   UNL A   1      31.222  28.779  23.149  1.00  0.00     0.155 C 
BRANCH  10  11
ATOM     11  C   UNL A   1      29.833  29.373  23.231  1.00  0.00    -0.029 A 
ATOM     12  C   UNL A   1      28.709  28.598  22.906  1.00  0.00     0.005 A 
ATOM     13  C   UNL A   1      29.641  30.710  23.611  1.00  0.00     0.005 A 
ATOM     14  C   UNL A   1      27.428  29.154  22.941  1.00  0.00     0.000 A 
ATOM     15  C   UNL A   1      28.360  31.262  23.648  1.00  0.00     0.000 A 
ATOM     16  C   UNL A   1      27.255  30.486  23.309  1.00  0.00     0.000 A 
ENDBRANCH  10  11
ENDBRANCH   9  10
BRANCH   9  17
ATOM     17  C   UNL A   1      31.583  26.288  22.901  1.00  0.00     0.261 C 
ATOM     18  O   UNL A   1      30.784  25.364  22.749  1.00  0.00    -0.269 OA
BRANCH  17  19
ATOM     19  C   UNL A   1      32.917  26.254  22.212  1.00  0.00     0.126 A 
ATOM     20  C   UNL A   1      34.013  26.225  23.006  1.00  0.00     0.033 A 
ATOM     21  C   UNL A   1      33.037  25.203  21.160  1.00  0.00     0.349 A 
ATOM     22  C   UNL A   1      34.185  24.917  23.677  1.00  0.00     0.018 A 
ATOM     23  O   UNL A   1      33.316  23.918  21.640  1.00  0.00    -0.422 OA
ATOM     24  O   UNL A   1      32.864  25.437  19.970  1.00  0.00    -0.246 OA
ATOM     25  C   UNL A   1      34.673  24.779  24.972  1.00  0.00     0.012 A 
ATOM     26  C   UNL A   1      33.795  23.779  22.961  1.00  0.00     0.138 A 
ATOM     27  C   UNL A   1      34.756  23.503  25.539  1.00  0.00     0.001 A 
ATOM     28  C   UNL A   1      33.880  22.505  23.510  1.00  0.00     0.048 A 
ATOM     29  C   UNL A   1      34.359  22.372  24.814  1.00  0.00     0.004 A 
ENDBRANCH  17  19
ENDBRANCH   9  17
ENDBRANCH   8   9
ENDBRANCH   6   8
ENDBRANCH   3   6
ENDBRANCH   1   2
BRANCH   1  30
ATOM     30  C   UNL A   1      31.509  32.161  26.817  1.00  0.00     0.042 C 
BRANCH  30  31
ATOM     31  C   UNL A   1      32.770  32.953  27.135  1.00  0.00     0.118 C 
BRANCH  31  32
ATOM     32  N   UNL A   1      32.479  34.287  27.633  1.00  0.00    -0.352 N 
ATOM     33  C   UNL A   1      33.024  34.935  28.714  1.00  0.00     0.251 C 
ATOM     34  H   UNL A   1      31.801  34.793  27.128  1.00  0.00     0.163 HD
ATOM     35  O   UNL A   1      32.539  35.995  29.101  1.00  0.00    -0.269 OA
BRANCH  33  36
ATOM     36  C   UNL A   1      34.182  34.356  29.434  1.00  0.00     0.039 A 
ATOM     37  C   UNL A   1      35.465  34.570  28.916  1.00  0.00     0.014 A 
ATOM     38  C   UNL A   1      34.014  33.563  30.573  1.00  0.00     0.014 A 
ATOM     39  C   UNL A   1      36.579  34.020  29.556  1.00  0.00     0.010 A 
ATOM     40  C   UNL A   1      35.128  33.038  31.229  1.00  0.00     0.010 A 
ATOM     41  C   UNL A   1      36.418  33.257  30.721  1.00  0.00    -0.014 A 
BRANCH  41  42
ATOM     42  C   UNL A   1      37.583  32.651  31.404  1.00  0.00     0.031 A 
ATOM     43  C   UNL A   1      38.346  31.541  30.742  1.00  0.00     0.074 A 
ATOM     44  C   UNL A   1      37.926  33.060  32.640  1.00  0.00     0.049 A 
ATOM     45  N   UNL A   1      39.318  30.805  31.221  1.00  0.00    -0.248 NA
ATOM     46  C   UNL A   1      37.952  31.202  29.367  1.00  0.00     0.031 C 
ATOM     47  C   UNL A   1      37.253  34.113  33.400  1.00  0.00     0.029 A 
ATOM     48  N   UNL A   1      38.920  32.621  33.477  1.00  0.00    -0.354 N 
ATOM     49  C   UNL A   1      39.623  29.892  30.223  1.00  0.00     0.074 A 
ATOM     50  C   UNL A   1      38.745  30.170  29.107  1.00  0.00     0.031 C 
ATOM     51  C   UNL A   1      37.858  34.243  34.593  1.00  0.00     0.029 A 
ATOM     52  C   UNL A   1      38.945  33.271  34.685  1.00  0.00     0.049 A 
ATOM     53  H   UNL A   1      39.554  31.909  33.234  1.00  0.00     0.167 HD
ATOM     54  C   UNL A   1      40.550  28.905  30.239  1.00  0.00     0.037 A 
ATOM     55  C   UNL A   1      39.750  33.095  35.748  1.00  0.00     0.037 A 
ATOM     56  C   UNL A   1      41.455  28.645  31.325  1.00  0.00     0.049 A 
ATOM     57  C   UNL A   1      40.821  32.044  35.711  1.00  0.00     0.074 A 
ATOM     58  C   UNL A   1      42.440  27.677  31.419  1.00  0.00     0.029 A 
ATOM     59  N   UNL A   1      41.494  29.372  32.505  1.00  0.00    -0.354 N 
ATOM     60  N   UNL A   1      41.097  31.183  34.764  1.00  0.00    -0.248 NA
ATOM     61  C   UNL A   1      41.692  31.942  36.892  1.00  0.00     0.031 C 
ATOM     62  C   UNL A   1      43.077  27.819  32.659  1.00  0.00     0.029 A 
ATOM     63  C   UNL A   1      42.491  28.879  33.330  1.00  0.00     0.049 A 
ATOM     64  H   UNL A   1      40.900  30.126  32.723  1.00  0.00     0.167 HD
ATOM     65  C   UNL A   1      42.170  30.438  35.230  1.00  0.00     0.074 A 
ATOM     66  C   UNL A   1      42.505  30.954  36.541  1.00  0.00     0.031 C 
ATOM     67  C   UNL A   1      42.815  29.412  34.625  1.00  0.00     0.037 A 
BRANCH  54  68
ATOM     68  C   UNL A   1      40.614  28.016  29.040  1.00  0.00     0.064 A 
ATOM     69  C   UNL A   1      41.461  28.306  27.964  1.00  0.00     0.173 A 
ATOM     70  C   UNL A   1      39.837  26.851  28.981  1.00  0.00     0.173 A 
ATOM     71  F   UNL A   1      42.211  29.418  27.975  1.00  0.00    -0.203 F 
ATOM     72  C   UNL A   1      41.522  27.461  26.859  1.00  0.00     0.198 A 
ATOM     73  C   UNL A   1      39.906  26.004  27.879  1.00  0.00     0.198 A 
ATOM     74  F   UNL A   1      39.009  26.539  29.989  1.00  0.00    -0.203 F 
ATOM     75  F   UNL A   1      42.322  27.765  25.828  1.00  0.00    -0.200 F 
ATOM     76  C   UNL A   1      40.747  26.310  26.819  1.00  0.00     0.200 A 
ATOM     77  F   UNL A   1      39.157  24.894  27.839  1.00  0.00    -0.200 F 
ATOM     78  F   UNL A   1      40.804  25.500  25.753  1.00  0.00    -0.200 F 
ENDBRANCH  54  68
BRANCH  55  79
ATOM     79  C   UNL A   1      39.575  33.951  36.943  1.00  0.00     0.064 A 
ATOM     80  C   UNL A   1      38.800  33.518  38.026  1.00  0.00     0.173 A 
ATOM     81  C   UNL A   1      40.189  35.207  37.028  1.00  0.00     0.173 A 
ATOM     82  F   UNL A   1      38.182  32.329  37.973  1.00  0.00    -0.203 F 
ATOM     83  C   UNL A   1      38.641  34.315  39.155  1.00  0.00     0.198 A 
ATOM     84  C   UNL A   1      40.037  36.000  38.162  1.00  0.00     0.198 A 
ATOM     85  F   UNL A   1      40.934  35.660  36.010  1.00  0.00    -0.203 F 
ATOM     86  F   UNL A   1      37.882  33.889  40.174  1.00  0.00    -0.200 F 
ATOM     87  C   UNL A   1      39.262  35.555  39.224  1.00  0.00     0.200 A 
ATOM     88  F   UNL A   1      40.637  37.197  38.227  1.00  0.00    -0.200 F 
ATOM     89  F   UNL A   1      39.110  36.321  40.312  1.00  0.00    -0.200 F 
ENDBRANCH  55  79
BRANCH  67  90
ATOM     90  C   UNL A   1      43.951  28.790  35.371  1.00  0.00     0.064 A 
ATOM     91  C   UNL A   1      43.732  27.755  36.288  1.00  0.00     0.173 A 
ATOM     92  C   UNL A   1      45.270  29.206  35.138  1.00  0.00     0.173 A 
ATOM     93  F   UNL A   1      42.483  27.336  36.547  1.00  0.00    -0.203 F 
ATOM     94  C   UNL A   1      44.797  27.157  36.956  1.00  0.00     0.198 A 
ATOM     95  C   UNL A   1      46.333  28.602  35.803  1.00  0.00     0.198 A 
ATOM     96  F   UNL A   1      45.522  30.198  34.273  1.00  0.00    -0.203 F 
ATOM     97  F   UNL A   1      44.568  26.179  37.842  1.00  0.00    -0.200 F 
ATOM     98  C   UNL A   1      46.096  27.579  36.711  1.00  0.00     0.200 A 
ATOM     99  F   UNL A   1      47.588  29.012  35.570  1.00  0.00    -0.200 F 
ATOM    100  F   UNL A   1      47.121  27.005  37.357  1.00  0.00    -0.200 F 
ENDBRANCH  67  90
ENDBRANCH  41  42
ENDBRANCH  33  36
ENDBRANCH  31  32
ENDBRANCH  30  31
ENDBRANCH   1  30
TORSDOF 16
ENDMDL
