MODEL 1
REMARK VINA RESULT:      -9.6      0.000      0.000
REMARK SMILES CCCCNC(=O)c1cnn([C@@H](C)C(=O)NCCCNC(=O)c2ccc(-c3c4nc(c(-c5c(F)c(F)c(F)c(F)c5F)c5ccc([nH]5)c(-c5c(F)c(F)c(F)c(F)c5F)c5nc(c(-c6c(F)c(F)c(F)c(F)c6F)c6ccc3[nH]6)C=C5)C=C4)cc2)c1
REMARK SMILES IDX 14 1 15 2 16 3 12 5 13 6 11 7 8 8 9 9 86 10 10 11 6 12 5 13
REMARK SMILES IDX 7 15 4 16 3 17 2 18 1 19 17 20 18 21 19 22 20 23 21 24 22 26
REMARK SMILES IDX 23 27 24 28 85 29 25 30 84 31 26 32 27 33 28 34 78 35 29 36
REMARK SMILES IDX 83 37 77 38 79 39 30 40 82 41 76 42 75 43 31 45 63 46 43 47
REMARK SMILES IDX 62 48 44 49 47 50 61 51 80 52 45 53 46 54 60 56 81 57 48 58
REMARK SMILES IDX 32 59 33 60 41 61 34 62 35 63 39 64 42 65 36 66 37 67 40 68
REMARK SMILES IDX 38 69 64 70 65 71 73 72 66 73 67 74 71 75 74 76 68 77 69 78
REMARK SMILES IDX 72 79 70 80 49 81 50 82 58 83 51 84 52 85 56 86 59 87 53 88
REMARK SMILES IDX 54 89 57 90 55 91
REMARK H PARENT 16 4 5 14 20 25 79 44 47 55
REMARK Flexibility Score: inf
ROOT
ATOM      1  C   UNL A   1      46.138  24.878  25.065  1.00  0.00     0.244 C 
ATOM      2  O   UNL A   1      46.869  25.545  24.319  1.00  0.00    -0.273 OA
ATOM      3  N   UNL A   1      46.177  23.524  24.883  1.00  0.00    -0.354 N 
ATOM      4  H   UNL A   1      46.803  23.232  24.180  1.00  0.00     0.163 HD
ENDROOT
BRANCH   1   5
ATOM      5  C   UNL A   1      45.300  25.598  26.128  1.00  0.00     0.193 C 
ATOM      6  C   UNL A   1      44.168  26.451  25.564  1.00  0.00     0.044 C 
BRANCH   5   7
ATOM      7  N   UNL A   1      46.131  26.296  27.099  1.00  0.00    -0.260 N 
ATOM      8  C   UNL A   1      47.688  26.906  28.530  1.00  0.00     0.077 A 
ATOM      9  C   UNL A   1      46.772  27.931  28.255  1.00  0.00     0.149 A 
ATOM     10  C   UNL A   1      47.290  25.875  27.695  1.00  0.00     0.123 A 
ATOM     11  N   UNL A   1      45.739  27.492  27.552  1.00  0.00    -0.180 NA
BRANCH   8  12
ATOM     12  C   UNL A   1      48.793  26.944  29.457  1.00  0.00     0.254 C 
ATOM     13  N   UNL A   1      48.549  26.534  30.749  1.00  0.00    -0.352 N 
ATOM     14  H   UNL A   1      49.268  26.722  31.393  1.00  0.00     0.163 HD
ATOM     15  O   UNL A   1      49.917  27.313  29.133  1.00  0.00    -0.269 OA
BRANCH  13  16
ATOM     16  C   UNL A   1      47.377  25.863  31.303  1.00  0.00     0.116 C 
BRANCH  16  17
ATOM     17  C   UNL A   1      46.326  26.838  31.816  1.00  0.00     0.021 C 
BRANCH  17  18
ATOM     18  C   UNL A   1      44.930  26.616  31.247  1.00  0.00    -0.002 C 
ATOM     19  C   UNL A   1      44.805  25.319  30.463  1.00  0.00     0.004 C 
ENDBRANCH  17  18
ENDBRANCH  16  17
ENDBRANCH  13  16
ENDBRANCH   8  12
ENDBRANCH   5   7
ENDBRANCH   1   5
BRANCH   3  20
ATOM     20  C   UNL A   1      45.463  22.427  25.538  1.00  0.00     0.117 C 
BRANCH  20  21
ATOM     21  C   UNL A   1      44.147  22.029  24.852  1.00  0.00     0.042 C 
BRANCH  21  22
ATOM     22  C   UNL A   1      42.987  22.917  25.212  1.00  0.00     0.118 C 
BRANCH  22  23
ATOM     23  N   UNL A   1      41.879  22.235  25.885  1.00  0.00    -0.352 N 
ATOM     24  C   UNL A   1      41.075  22.744  26.905  1.00  0.00     0.251 C 
ATOM     25  H   UNL A   1      41.680  21.318  25.585  1.00  0.00     0.163 HD
ATOM     26  O   UNL A   1      40.386  22.036  27.602  1.00  0.00    -0.269 OA
BRANCH  24  27
ATOM     27  C   UNL A   1      41.105  24.209  27.093  1.00  0.00     0.039 A 
ATOM     28  C   UNL A   1      40.202  25.083  26.484  1.00  0.00     0.014 A 
ATOM     29  C   UNL A   1      41.990  24.659  28.055  1.00  0.00     0.014 A 
ATOM     30  C   UNL A   1      40.156  26.403  26.935  1.00  0.00     0.010 A 
ATOM     31  C   UNL A   1      41.690  25.810  28.711  1.00  0.00     0.010 A 
ATOM     32  C   UNL A   1      40.901  26.751  28.069  1.00  0.00    -0.014 A 
BRANCH  32  33
ATOM     33  C   UNL A   1      40.937  28.089  28.639  1.00  0.00     0.031 A 
ATOM     34  C   UNL A   1      42.012  28.989  28.145  1.00  0.00     0.074 A 
ATOM     35  C   UNL A   1      39.885  28.556  29.354  1.00  0.00     0.049 A 
ATOM     36  N   UNL A   1      42.969  29.536  28.821  1.00  0.00    -0.248 NA
ATOM     37  C   UNL A   1      42.083  29.250  26.699  1.00  0.00     0.031 C 
ATOM     38  C   UNL A   1      38.582  27.918  29.623  1.00  0.00     0.029 A 
ATOM     39  N   UNL A   1      39.718  29.781  29.908  1.00  0.00    -0.354 N 
ATOM     40  C   UNL A   1      43.672  30.340  27.925  1.00  0.00     0.074 A 
ATOM     41  C   UNL A   1      43.179  30.008  26.614  1.00  0.00     0.031 C 
ATOM     42  C   UNL A   1      37.696  28.839  30.053  1.00  0.00     0.029 A 
ATOM     43  C   UNL A   1      38.420  30.068  30.302  1.00  0.00     0.049 A 
ATOM     44  H   UNL A   1      40.461  30.418  30.024  1.00  0.00     0.167 HD
ATOM     45  C   UNL A   1      44.463  31.363  28.356  1.00  0.00     0.037 A 
ATOM     46  C   UNL A   1      37.969  31.248  30.784  1.00  0.00     0.037 A 
ATOM     47  C   UNL A   1      44.739  31.245  29.765  1.00  0.00     0.049 A 
ATOM     48  C   UNL A   1      39.159  32.007  31.240  1.00  0.00     0.074 A 
ATOM     49  C   UNL A   1      45.403  30.322  30.549  1.00  0.00     0.029 A 
ATOM     50  N   UNL A   1      43.974  31.982  30.636  1.00  0.00    -0.354 N 
ATOM     51  N   UNL A   1      39.921  31.633  32.234  1.00  0.00    -0.248 NA
ATOM     52  C   UNL A   1      39.775  32.916  30.288  1.00  0.00     0.031 C 
ATOM     53  C   UNL A   1      44.625  30.227  31.741  1.00  0.00     0.029 A 
ATOM     54  C   UNL A   1      43.573  31.139  31.641  1.00  0.00     0.049 A 
ATOM     55  H   UNL A   1      43.754  32.939  30.553  1.00  0.00     0.167 HD
ATOM     56  C   UNL A   1      41.215  31.926  31.824  1.00  0.00     0.074 A 
ATOM     57  C   UNL A   1      41.054  32.784  30.651  1.00  0.00     0.031 C 
ATOM     58  C   UNL A   1      42.285  31.219  32.294  1.00  0.00     0.037 A 
BRANCH  45  59
ATOM     59  C   UNL A   1      44.732  32.641  27.597  1.00  0.00     0.064 A 
ATOM     60  C   UNL A   1      45.932  32.770  26.864  1.00  0.00     0.173 A 
ATOM     61  C   UNL A   1      44.007  33.837  27.783  1.00  0.00     0.173 A 
ATOM     62  F   UNL A   1      46.711  31.703  26.635  1.00  0.00    -0.203 F 
ATOM     63  C   UNL A   1      46.402  34.011  26.423  1.00  0.00     0.198 A 
ATOM     64  C   UNL A   1      44.453  35.065  27.294  1.00  0.00     0.198 A 
ATOM     65  F   UNL A   1      42.903  33.889  28.537  1.00  0.00    -0.203 F 
ATOM     66  F   UNL A   1      47.605  34.098  25.841  1.00  0.00    -0.200 F 
ATOM     67  C   UNL A   1      45.664  35.158  26.644  1.00  0.00     0.200 A 
ATOM     68  F   UNL A   1      43.730  36.169  27.532  1.00  0.00    -0.200 F 
ATOM     69  F   UNL A   1      46.139  36.355  26.277  1.00  0.00    -0.200 F 
ENDBRANCH  45  59
BRANCH  46  70
ATOM     70  C   UNL A   1      36.654  31.873  30.521  1.00  0.00     0.064 A 
ATOM     71  C   UNL A   1      35.820  32.274  31.573  1.00  0.00     0.173 A 
ATOM     72  C   UNL A   1      36.313  32.333  29.233  1.00  0.00     0.173 A 
ATOM     73  F   UNL A   1      36.106  31.910  32.832  1.00  0.00    -0.203 F 
ATOM     74  C   UNL A   1      34.721  33.110  31.355  1.00  0.00     0.198 A 
ATOM     75  C   UNL A   1      35.213  33.164  29.015  1.00  0.00     0.198 A 
ATOM     76  F   UNL A   1      37.095  32.063  28.178  1.00  0.00    -0.203 F 
ATOM     77  F   UNL A   1      33.979  33.523  32.392  1.00  0.00    -0.200 F 
ATOM     78  C   UNL A   1      34.425  33.563  30.079  1.00  0.00     0.200 A 
ATOM     79  F   UNL A   1      34.962  33.628  27.783  1.00  0.00    -0.200 F 
ATOM     80  F   UNL A   1      33.409  34.415  29.879  1.00  0.00    -0.200 F 
ENDBRANCH  46  70
BRANCH  58  81
ATOM     81  C   UNL A   1      42.052  30.265  33.437  1.00  0.00     0.064 A 
ATOM     82  C   UNL A   1      41.798  28.891  33.276  1.00  0.00     0.173 A 
ATOM     83  C   UNL A   1      42.260  30.723  34.744  1.00  0.00     0.173 A 
ATOM     84  F   UNL A   1      41.686  28.351  32.059  1.00  0.00    -0.203 F 
ATOM     85  C   UNL A   1      41.722  28.028  34.369  1.00  0.00     0.198 A 
ATOM     86  C   UNL A   1      42.218  29.855  35.833  1.00  0.00     0.198 A 
ATOM     87  F   UNL A   1      42.565  32.013  34.960  1.00  0.00    -0.203 F 
ATOM     88  F   UNL A   1      41.477  26.723  34.180  1.00  0.00    -0.200 F 
ATOM     89  C   UNL A   1      41.941  28.510  35.646  1.00  0.00     0.200 A 
ATOM     90  F   UNL A   1      42.481  30.317  37.063  1.00  0.00    -0.200 F 
ATOM     91  F   UNL A   1      41.915  27.676  36.695  1.00  0.00    -0.200 F 
ENDBRANCH  58  81
ENDBRANCH  32  33
ENDBRANCH  24  27
ENDBRANCH  22  23
ENDBRANCH  21  22
ENDBRANCH  20  21
ENDBRANCH   3  20
TORSDOF 15
ENDMDL
MODEL 2
REMARK VINA RESULT:      -9.6      3.966      6.997
REMARK SMILES CCCCNC(=O)c1cnn([C@@H](C)C(=O)NCCCNC(=O)c2ccc(-c3c4nc(c(-c5c(F)c(F)c(F)c(F)c5F)c5ccc([nH]5)c(-c5c(F)c(F)c(F)c(F)c5F)c5nc(c(-c6c(F)c(F)c(F)c(F)c6F)c6ccc3[nH]6)C=C5)C=C4)cc2)c1
REMARK SMILES IDX 14 1 15 2 16 3 12 5 13 6 11 7 8 8 9 9 86 10 10 11 6 12 5 13
REMARK SMILES IDX 7 15 4 16 3 17 2 18 1 19 17 20 18 21 19 22 20 23 21 24 22 26
REMARK SMILES IDX 23 27 24 28 85 29 25 30 84 31 26 32 27 33 28 34 78 35 29 36
REMARK SMILES IDX 83 37 77 38 79 39 30 40 82 41 76 42 75 43 31 45 63 46 43 47
REMARK SMILES IDX 62 48 44 49 47 50 61 51 80 52 45 53 46 54 60 56 81 57 48 58
REMARK SMILES IDX 32 59 33 60 41 61 34 62 35 63 39 64 42 65 36 66 37 67 40 68
REMARK SMILES IDX 38 69 64 70 65 71 73 72 66 73 67 74 71 75 74 76 68 77 69 78
REMARK SMILES IDX 72 79 70 80 49 81 50 82 58 83 51 84 52 85 56 86 59 87 53 88
REMARK SMILES IDX 54 89 57 90 55 91
REMARK H PARENT 16 4 5 14 20 25 79 44 47 55
REMARK Flexibility Score: inf
ROOT
ATOM      1  C   UNL A   1      34.528  22.365  23.618  1.00  0.00     0.244 C 
ATOM      2  O   UNL A   1      33.865  22.967  22.761  1.00  0.00    -0.273 OA
ATOM      3  N   UNL A   1      35.861  22.667  23.660  1.00  0.00    -0.354 N 
ATOM      4  H   UNL A   1      36.138  23.349  23.006  1.00  0.00     0.163 HD
ENDROOT
BRANCH   1   5
ATOM      5  C   UNL A   1      33.819  21.386  24.560  1.00  0.00     0.193 C 
ATOM      6  C   UNL A   1      33.138  20.216  23.856  1.00  0.00     0.044 C 
BRANCH   5   7
ATOM      7  N   UNL A   1      32.961  22.071  25.517  1.00  0.00    -0.260 N 
ATOM      8  C   UNL A   1      31.274  22.943  26.629  1.00  0.00     0.077 A 
ATOM      9  C   UNL A   1      32.492  23.056  27.314  1.00  0.00     0.149 A 
ATOM     10  C   UNL A   1      31.600  22.220  25.494  1.00  0.00     0.123 A 
ATOM     11  N   UNL A   1      33.518  22.706  26.553  1.00  0.00    -0.180 NA
BRANCH   8  12
ATOM     12  C   UNL A   1      29.987  23.452  27.039  1.00  0.00     0.254 C 
ATOM     13  N   UNL A   1      29.640  24.713  26.607  1.00  0.00    -0.352 N 
ATOM     14  H   UNL A   1      28.838  25.096  27.030  1.00  0.00     0.163 HD
ATOM     15  O   UNL A   1      29.212  22.807  27.736  1.00  0.00    -0.269 OA
BRANCH  13  16
ATOM     16  C   UNL A   1      30.287  25.564  25.614  1.00  0.00     0.116 C 
BRANCH  16  17
ATOM     17  C   UNL A   1      31.070  26.710  26.242  1.00  0.00     0.021 C 
BRANCH  17  18
ATOM     18  C   UNL A   1      32.418  26.987  25.585  1.00  0.00    -0.002 C 
ATOM     19  C   UNL A   1      32.955  25.797  24.805  1.00  0.00     0.004 C 
ENDBRANCH  17  18
ENDBRANCH  16  17
ENDBRANCH  13  16
ENDBRANCH   8  12
ENDBRANCH   5   7
ENDBRANCH   1   5
BRANCH   3  20
ATOM     20  C   UNL A   1      36.952  22.166  24.496  1.00  0.00     0.117 C 
BRANCH  20  21
ATOM     21  C   UNL A   1      36.961  22.725  25.928  1.00  0.00     0.042 C 
BRANCH  21  22
ATOM     22  C   UNL A   1      38.231  23.449  26.284  1.00  0.00     0.118 C 
BRANCH  22  23
ATOM     23  N   UNL A   1      39.344  22.580  26.672  1.00  0.00    -0.352 N 
ATOM     24  C   UNL A   1      40.662  22.963  26.918  1.00  0.00     0.251 C 
ATOM     25  H   UNL A   1      39.140  21.622  26.770  1.00  0.00     0.163 HD
ATOM     26  O   UNL A   1      41.574  22.170  26.945  1.00  0.00    -0.269 OA
BRANCH  24  27
ATOM     27  C   UNL A   1      40.894  24.404  27.150  1.00  0.00     0.039 A 
ATOM     28  C   UNL A   1      40.520  25.400  26.244  1.00  0.00     0.014 A 
ATOM     29  C   UNL A   1      41.360  24.728  28.410  1.00  0.00     0.014 A 
ATOM     30  C   UNL A   1      40.547  26.727  26.677  1.00  0.00     0.010 A 
ATOM     31  C   UNL A   1      41.041  25.949  28.914  1.00  0.00     0.010 A 
ATOM     32  C   UNL A   1      40.796  26.986  28.031  1.00  0.00    -0.014 A 
BRANCH  32  33
ATOM     33  C   UNL A   1      40.848  28.322  28.606  1.00  0.00     0.031 A 
ATOM     34  C   UNL A   1      41.952  29.201  28.137  1.00  0.00     0.074 A 
ATOM     35  C   UNL A   1      39.792  28.808  29.301  1.00  0.00     0.049 A 
ATOM     36  N   UNL A   1      42.906  29.725  28.834  1.00  0.00    -0.248 NA
ATOM     37  C   UNL A   1      42.058  29.465  26.694  1.00  0.00     0.031 C 
ATOM     38  C   UNL A   1      38.470  28.197  29.540  1.00  0.00     0.029 A 
ATOM     39  N   UNL A   1      39.639  30.036  29.856  1.00  0.00    -0.354 N 
ATOM     40  C   UNL A   1      43.643  30.517  27.956  1.00  0.00     0.074 A 
ATOM     41  C   UNL A   1      43.171  30.200  26.634  1.00  0.00     0.031 C 
ATOM     42  C   UNL A   1      37.596  29.136  29.956  1.00  0.00     0.029 A 
ATOM     43  C   UNL A   1      38.339  30.348  30.224  1.00  0.00     0.049 A 
ATOM     44  H   UNL A   1      40.392  30.656  29.989  1.00  0.00     0.167 HD
ATOM     45  C   UNL A   1      44.447  31.522  28.407  1.00  0.00     0.037 A 
ATOM     46  C   UNL A   1      37.903  31.536  30.700  1.00  0.00     0.037 A 
ATOM     47  C   UNL A   1      44.691  31.394  29.821  1.00  0.00     0.049 A 
ATOM     48  C   UNL A   1      39.100  32.268  31.184  1.00  0.00     0.074 A 
ATOM     49  C   UNL A   1      45.320  30.455  30.615  1.00  0.00     0.029 A 
ATOM     50  N   UNL A   1      43.924  32.144  30.678  1.00  0.00    -0.354 N 
ATOM     51  N   UNL A   1      39.833  31.876  32.192  1.00  0.00    -0.248 NA
ATOM     52  C   UNL A   1      39.753  33.167  30.247  1.00  0.00     0.031 C 
ATOM     53  C   UNL A   1      44.515  30.372  31.790  1.00  0.00     0.029 A 
ATOM     54  C   UNL A   1      43.485  31.307  31.672  1.00  0.00     0.049 A 
ATOM     55  H   UNL A   1      43.726  33.106  30.594  1.00  0.00     0.167 HD
ATOM     56  C   UNL A   1      41.141  32.143  31.809  1.00  0.00     0.074 A 
ATOM     57  C   UNL A   1      41.022  33.007  30.636  1.00  0.00     0.031 C 
ATOM     58  C   UNL A   1      42.186  31.412  32.299  1.00  0.00     0.037 A 
BRANCH  45  59
ATOM     59  C   UNL A   1      44.758  32.796  27.658  1.00  0.00     0.064 A 
ATOM     60  C   UNL A   1      45.999  32.924  26.997  1.00  0.00     0.173 A 
ATOM     61  C   UNL A   1      44.021  33.992  27.794  1.00  0.00     0.173 A 
ATOM     62  F   UNL A   1      46.793  31.857  26.820  1.00  0.00    -0.203 F 
ATOM     63  C   UNL A   1      46.492  34.163  26.578  1.00  0.00     0.198 A 
ATOM     64  C   UNL A   1      44.493  35.218  27.325  1.00  0.00     0.198 A 
ATOM     65  F   UNL A   1      42.874  34.046  28.481  1.00  0.00    -0.203 F 
ATOM     66  F   UNL A   1      47.727  34.250  26.067  1.00  0.00    -0.200 F 
ATOM     67  C   UNL A   1      45.741  35.310  26.748  1.00  0.00     0.200 A 
ATOM     68  F   UNL A   1      43.755  36.322  27.513  1.00  0.00    -0.200 F 
ATOM     69  F   UNL A   1      46.235  36.506  26.402  1.00  0.00    -0.200 F 
ENDBRANCH  45  59
BRANCH  46  70
ATOM     70  C   UNL A   1      36.608  32.189  30.413  1.00  0.00     0.064 A 
ATOM     71  C   UNL A   1      35.796  32.673  31.447  1.00  0.00     0.173 A 
ATOM     72  C   UNL A   1      36.271  32.592  29.105  1.00  0.00     0.173 A 
ATOM     73  F   UNL A   1      36.079  32.366  32.722  1.00  0.00    -0.203 F 
ATOM     74  C   UNL A   1      34.722  33.532  31.192  1.00  0.00     0.198 A 
ATOM     75  C   UNL A   1      35.198  33.446  28.850  1.00  0.00     0.198 A 
ATOM     76  F   UNL A   1      37.036  32.240  28.061  1.00  0.00    -0.203 F 
ATOM     77  F   UNL A   1      34.002  34.023  32.210  1.00  0.00    -0.200 F 
ATOM     78  C   UNL A   1      34.431  33.926  29.896  1.00  0.00     0.200 A 
ATOM     79  F   UNL A   1      34.952  33.852  27.597  1.00  0.00    -0.200 F 
ATOM     80  F   UNL A   1      33.443  34.800  29.657  1.00  0.00    -0.200 F 
ENDBRANCH  46  70
BRANCH  58  81
ATOM     81  C   UNL A   1      41.909  30.459  33.434  1.00  0.00     0.064 A 
ATOM     82  C   UNL A   1      41.599  29.099  33.260  1.00  0.00     0.173 A 
ATOM     83  C   UNL A   1      42.133  30.898  34.744  1.00  0.00     0.173 A 
ATOM     84  F   UNL A   1      41.467  28.573  32.039  1.00  0.00    -0.203 F 
ATOM     85  C   UNL A   1      41.483  28.231  34.346  1.00  0.00     0.198 A 
ATOM     86  C   UNL A   1      42.051  30.024  35.827  1.00  0.00     0.198 A 
ATOM     87  F   UNL A   1      42.491  32.172  34.972  1.00  0.00    -0.203 F 
ATOM     88  F   UNL A   1      41.183  26.939  34.147  1.00  0.00    -0.200 F 
ATOM     89  C   UNL A   1      41.718  28.693  35.628  1.00  0.00     0.200 A 
ATOM     90  F   UNL A   1      42.329  30.465  37.061  1.00  0.00    -0.200 F 
ATOM     91  F   UNL A   1      41.654  27.852  36.670  1.00  0.00    -0.200 F 
ENDBRANCH  58  81
ENDBRANCH  32  33
ENDBRANCH  24  27
ENDBRANCH  22  23
ENDBRANCH  21  22
ENDBRANCH  20  21
ENDBRANCH   3  20
TORSDOF 15
ENDMDL
MODEL 3
REMARK VINA RESULT:      -9.5      4.146      9.972
REMARK SMILES CCCCNC(=O)c1cnn([C@@H](C)C(=O)NCCCNC(=O)c2ccc(-c3c4nc(c(-c5c(F)c(F)c(F)c(F)c5F)c5ccc([nH]5)c(-c5c(F)c(F)c(F)c(F)c5F)c5nc(c(-c6c(F)c(F)c(F)c(F)c6F)c6ccc3[nH]6)C=C5)C=C4)cc2)c1
REMARK SMILES IDX 14 1 15 2 16 3 12 5 13 6 11 7 8 8 9 9 86 10 10 11 6 12 5 13
REMARK SMILES IDX 7 15 4 16 3 17 2 18 1 19 17 20 18 21 19 22 20 23 21 24 22 26
REMARK SMILES IDX 23 27 24 28 85 29 25 30 84 31 26 32 27 33 28 34 78 35 29 36
REMARK SMILES IDX 83 37 77 38 79 39 30 40 82 41 76 42 75 43 31 45 63 46 43 47
REMARK SMILES IDX 62 48 44 49 47 50 61 51 80 52 45 53 46 54 60 56 81 57 48 58
REMARK SMILES IDX 32 59 33 60 41 61 34 62 35 63 39 64 42 65 36 66 37 67 40 68
REMARK SMILES IDX 38 69 64 70 65 71 73 72 66 73 67 74 71 75 74 76 68 77 69 78
REMARK SMILES IDX 72 79 70 80 49 81 50 82 58 83 51 84 52 85 56 86 59 87 53 88
REMARK SMILES IDX 54 89 57 90 55 91
REMARK H PARENT 16 4 5 14 20 25 79 44 47 55
REMARK Flexibility Score: inf
ROOT
ATOM      1  C   UNL A   1      34.652  21.461  26.432  1.00  0.00     0.244 C 
ATOM      2  O   UNL A   1      34.328  21.563  27.624  1.00  0.00    -0.273 OA
ATOM      3  N   UNL A   1      35.985  21.280  26.191  1.00  0.00    -0.354 N 
ATOM      4  H   UNL A   1      36.538  21.235  27.005  1.00  0.00     0.163 HD
ENDROOT
BRANCH   1   5
ATOM      5  C   UNL A   1      33.562  21.508  25.356  1.00  0.00     0.193 C 
ATOM      6  C   UNL A   1      33.551  20.304  24.418  1.00  0.00     0.044 C 
BRANCH   5   7
ATOM      7  N   UNL A   1      33.532  22.789  24.662  1.00  0.00    -0.260 N 
ATOM      8  C   UNL A   1      33.086  24.827  23.961  1.00  0.00     0.077 A 
ATOM      9  C   UNL A   1      34.224  24.280  23.352  1.00  0.00     0.149 A 
ATOM     10  C   UNL A   1      32.704  23.859  24.875  1.00  0.00     0.123 A 
ATOM     11  N   UNL A   1      34.364  22.994  23.636  1.00  0.00    -0.180 NA
BRANCH   8  12
ATOM     12  C   UNL A   1      32.482  26.110  23.698  1.00  0.00     0.254 C 
ATOM     13  N   UNL A   1      32.787  27.141  24.558  1.00  0.00    -0.352 N 
ATOM     14  H   UNL A   1      32.240  27.953  24.453  1.00  0.00     0.163 HD
ATOM     15  O   UNL A   1      31.730  26.305  22.749  1.00  0.00    -0.269 OA
BRANCH  13  16
ATOM     16  C   UNL A   1      33.802  27.205  25.605  1.00  0.00     0.116 C 
BRANCH  16  17
ATOM     17  C   UNL A   1      33.301  27.888  26.871  1.00  0.00     0.021 C 
BRANCH  17  18
ATOM     18  C   UNL A   1      34.123  29.097  27.302  1.00  0.00    -0.002 C 
ATOM     19  C   UNL A   1      33.412  30.419  27.056  1.00  0.00     0.004 C 
ENDBRANCH  17  18
ENDBRANCH  16  17
ENDBRANCH  13  16
ENDBRANCH   8  12
ENDBRANCH   5   7
ENDBRANCH   1   5
BRANCH   3  20
ATOM     20  C   UNL A   1      36.744  21.141  24.948  1.00  0.00     0.117 C 
BRANCH  20  21
ATOM     21  C   UNL A   1      37.740  19.971  24.941  1.00  0.00     0.042 C 
BRANCH  21  22
ATOM     22  C   UNL A   1      39.035  20.277  25.643  1.00  0.00     0.118 C 
BRANCH  22  23
ATOM     23  N   UNL A   1      39.972  19.154  25.718  1.00  0.00    -0.352 N 
ATOM     24  C   UNL A   1      41.348  19.222  25.940  1.00  0.00     0.251 C 
ATOM     25  H   UNL A   1      39.591  18.254  25.599  1.00  0.00     0.163 HD
ATOM     26  O   UNL A   1      42.089  18.297  25.700  1.00  0.00    -0.269 OA
BRANCH  24  27
ATOM     27  C   UNL A   1      41.861  20.493  26.491  1.00  0.00     0.039 A 
ATOM     28  C   UNL A   1      42.406  21.510  25.704  1.00  0.00     0.014 A 
ATOM     29  C   UNL A   1      41.617  20.689  27.838  1.00  0.00     0.014 A 
ATOM     30  C   UNL A   1      42.613  22.758  26.294  1.00  0.00     0.010 A 
ATOM     31  C   UNL A   1      41.486  21.966  28.283  1.00  0.00     0.010 A 
ATOM     32  C   UNL A   1      42.130  22.977  27.590  1.00  0.00    -0.014 A 
BRANCH  32  33
ATOM     33  C   UNL A   1      42.280  24.232  28.312  1.00  0.00     0.031 A 
ATOM     34  C   UNL A   1      41.170  25.211  28.173  1.00  0.00     0.074 A 
ATOM     35  C   UNL A   1      43.236  24.364  29.262  1.00  0.00     0.049 A 
ATOM     36  N   UNL A   1      41.215  26.405  27.680  1.00  0.00    -0.248 NA
ATOM     37  C   UNL A   1      39.817  24.778  28.555  1.00  0.00     0.031 C 
ATOM     38  C   UNL A   1      44.183  23.357  29.780  1.00  0.00     0.029 A 
ATOM     39  N   UNL A   1      43.487  25.426  30.066  1.00  0.00    -0.354 N 
ATOM     40  C   UNL A   1      39.938  26.942  27.834  1.00  0.00     0.074 A 
ATOM     41  C   UNL A   1      39.088  25.850  28.234  1.00  0.00     0.031 C 
ATOM     42  C   UNL A   1      44.707  23.776  30.950  1.00  0.00     0.029 A 
ATOM     43  C   UNL A   1      44.313  25.154  31.146  1.00  0.00     0.049 A 
ATOM     44  H   UNL A   1      43.114  26.322  29.895  1.00  0.00     0.167 HD
ATOM     45  C   UNL A   1      39.723  28.288  27.814  1.00  0.00     0.037 A 
ATOM     46  C   UNL A   1      44.633  26.006  32.145  1.00  0.00     0.037 A 
ATOM     47  C   UNL A   1      40.861  28.985  27.271  1.00  0.00     0.049 A 
ATOM     48  C   UNL A   1      44.336  27.374  31.654  1.00  0.00     0.074 A 
ATOM     49  C   UNL A   1      41.487  29.006  26.040  1.00  0.00     0.029 A 
ATOM     50  N   UNL A   1      41.763  29.531  28.151  1.00  0.00    -0.354 N 
ATOM     51  N   UNL A   1      44.968  27.943  30.662  1.00  0.00    -0.248 NA
ATOM     52  C   UNL A   1      43.020  27.917  31.951  1.00  0.00     0.031 C 
ATOM     53  C   UNL A   1      42.880  29.084  26.340  1.00  0.00     0.029 A 
ATOM     54  C   UNL A   1      43.017  29.170  27.727  1.00  0.00     0.049 A 
ATOM     55  H   UNL A   1      41.549  30.080  28.941  1.00  0.00     0.167 HD
ATOM     56  C   UNL A   1      43.987  28.628  29.958  1.00  0.00     0.074 A 
ATOM     57  C   UNL A   1      42.824  28.637  30.843  1.00  0.00     0.031 C 
ATOM     58  C   UNL A   1      44.115  28.871  28.620  1.00  0.00     0.037 A 
BRANCH  45  59
ATOM     59  C   UNL A   1      38.633  29.011  28.568  1.00  0.00     0.064 A 
ATOM     60  C   UNL A   1      37.816  29.938  27.885  1.00  0.00     0.173 A 
ATOM     61  C   UNL A   1      38.537  29.046  29.976  1.00  0.00     0.173 A 
ATOM     62  F   UNL A   1      37.833  30.005  26.545  1.00  0.00    -0.203 F 
ATOM     63  C   UNL A   1      37.029  30.874  28.562  1.00  0.00     0.198 A 
ATOM     64  C   UNL A   1      37.708  29.946  30.647  1.00  0.00     0.198 A 
ATOM     65  F   UNL A   1      39.319  28.296  30.761  1.00  0.00    -0.203 F 
ATOM     66  F   UNL A   1      36.369  31.812  27.871  1.00  0.00    -0.200 F 
ATOM     67  C   UNL A   1      36.980  30.881  29.943  1.00  0.00     0.200 A 
ATOM     68  F   UNL A   1      37.686  29.946  31.987  1.00  0.00    -0.200 F 
ATOM     69  F   UNL A   1      36.275  31.814  30.595  1.00  0.00    -0.200 F 
ENDBRANCH  45  59
BRANCH  46  70
ATOM     70  C   UNL A   1      44.812  25.673  33.576  1.00  0.00     0.064 A 
ATOM     71  C   UNL A   1      43.708  25.485  34.418  1.00  0.00     0.173 A 
ATOM     72  C   UNL A   1      46.065  25.267  34.077  1.00  0.00     0.173 A 
ATOM     73  F   UNL A   1      42.477  25.809  33.994  1.00  0.00    -0.203 F 
ATOM     74  C   UNL A   1      43.845  24.901  35.681  1.00  0.00     0.198 A 
ATOM     75  C   UNL A   1      46.202  24.688  35.339  1.00  0.00     0.198 A 
ATOM     76  F   UNL A   1      47.165  25.338  33.313  1.00  0.00    -0.203 F 
ATOM     77  F   UNL A   1      42.760  24.683  36.438  1.00  0.00    -0.200 F 
ATOM     78  C   UNL A   1      45.089  24.493  36.136  1.00  0.00     0.200 A 
ATOM     79  F   UNL A   1      47.403  24.261  35.750  1.00  0.00    -0.200 F 
ATOM     80  F   UNL A   1      45.210  23.876  37.319  1.00  0.00    -0.200 F 
ENDBRANCH  46  70
BRANCH  58  81
ATOM     81  C   UNL A   1      45.444  28.577  27.973  1.00  0.00     0.064 A 
ATOM     82  C   UNL A   1      45.765  27.356  27.354  1.00  0.00     0.173 A 
ATOM     83  C   UNL A   1      46.362  29.624  27.826  1.00  0.00     0.173 A 
ATOM     84  F   UNL A   1      44.903  26.334  27.359  1.00  0.00    -0.203 F 
ATOM     85  C   UNL A   1      46.959  27.181  26.655  1.00  0.00     0.198 A 
ATOM     86  C   UNL A   1      47.539  29.461  27.099  1.00  0.00     0.198 A 
ATOM     87  F   UNL A   1      46.088  30.832  28.343  1.00  0.00    -0.203 F 
ATOM     88  F   UNL A   1      47.236  26.003  26.077  1.00  0.00    -0.200 F 
ATOM     89  C   UNL A   1      47.842  28.238  26.520  1.00  0.00     0.200 A 
ATOM     90  F   UNL A   1      48.367  30.501  26.928  1.00  0.00    -0.200 F 
ATOM     91  F   UNL A   1      48.968  28.089  25.810  1.00  0.00    -0.200 F 
ENDBRANCH  58  81
ENDBRANCH  32  33
ENDBRANCH  24  27
ENDBRANCH  22  23
ENDBRANCH  21  22
ENDBRANCH  20  21
ENDBRANCH   3  20
TORSDOF 15
ENDMDL
