MODEL 1
REMARK VINA RESULT:     -13.1      0.000      0.000
REMARK SMILES Cc1cc(OCC(=O)NCCCNC(=O)c2ccc(-c3c4nc(c(-c5c(F)c(F)c(F)c(F)c5F)c5ccc([nH]5)c(-c5c(F)c(F)c(F)c(F)c5F)c5nc(c(-c6c(F)c(F)c(F)c(F)c6F)c6ccc3[nH]6)C=C5)C=C4)cc2)ccc1NC(=O)c1ccc(N2C(=O)[C@@H]3[C@H](C2=O)[C@H]2C=C[C@@H]3C2)cc1
REMARK SMILES IDX 7 1 8 2 9 3 6 5 5 6 4 7 1 8 2 9 3 10 81 11 80 12 79 13 82 14
REMARK SMILES IDX 83 15 84 17 85 18 86 19 102 20 87 21 101 22 88 23 89 24
REMARK SMILES IDX 90 25 94 26 91 27 92 28 93 29 95 30 99 31 96 32 98 33 100 34
REMARK SMILES IDX 97 35 10 36 11 37 12 38 13 39 14 40 15 42 16 43 17 44 78 45
REMARK SMILES IDX 18 46 77 47 19 48 20 49 21 50 71 51 22 52 76 53 70 54 72 55
REMARK SMILES IDX 23 56 75 57 69 58 68 59 24 61 56 62 36 63 55 64 37 65 40 66
REMARK SMILES IDX 54 67 73 68 38 69 39 70 53 72 74 73 41 74 25 75 26 76 34 77
REMARK SMILES IDX 27 78 28 79 32 80 35 81 29 82 30 83 33 84 31 85 57 86 58 87
REMARK SMILES IDX 66 88 59 89 60 90 64 91 67 92 61 93 62 94 65 95 63 96 42 97
REMARK SMILES IDX 43 98 51 99 44 100 45 101 49 102 52 103 46 104 47 105 50 106
REMARK SMILES IDX 48 107
REMARK H PARENT 9 4 82 16 13 41 72 60 40 71
REMARK Flexibility Score: inf
ROOT
ATOM      1  C   UNL A   1      37.964  21.062  25.247  1.00  0.00     0.257 C 
ATOM      2  O   UNL A   1      37.560  19.991  24.791  1.00  0.00    -0.271 OA
ATOM      3  N   UNL A   1      39.110  21.059  25.996  1.00  0.00    -0.353 N 
ATOM      4  H   UNL A   1      39.515  20.177  26.154  1.00  0.00     0.163 HD
ENDROOT
BRANCH   1   5
ATOM      5  C   UNL A   1      37.230  22.383  24.970  1.00  0.00     0.329 C 
BRANCH   5   6
ATOM      6  O   UNL A   1      36.359  22.833  25.999  1.00  0.00    -0.484 OA
BRANCH   6   7
ATOM      7  C   UNL A   1      35.211  23.476  25.626  1.00  0.00     0.120 A 
ATOM      8  C   UNL A   1      31.704  23.378  27.077  1.00  0.00     0.047 C 
ATOM      9  C   UNL A   1      32.829  23.759  26.151  1.00  0.00    -0.024 A 
ATOM     10  C   UNL A   1      34.099  23.212  26.431  1.00  0.00     0.052 A 
ATOM     11  C   UNL A   1      32.684  24.595  25.031  1.00  0.00     0.044 A 
ATOM     12  C   UNL A   1      33.816  24.902  24.266  1.00  0.00     0.030 A 
ATOM     13  C   UNL A   1      35.066  24.345  24.555  1.00  0.00     0.048 A 
BRANCH  11  14
ATOM     14  N   UNL A   1      31.428  25.159  24.729  1.00  0.00    -0.322 N 
ATOM     15  C   UNL A   1      30.844  26.335  25.146  1.00  0.00     0.255 C 
ATOM     16  H   UNL A   1      30.875  24.621  24.117  1.00  0.00     0.170 HD
ATOM     17  O   UNL A   1      29.630  26.494  25.033  1.00  0.00    -0.269 OA
BRANCH  15  18
ATOM     18  C   UNL A   1      31.664  27.468  25.634  1.00  0.00     0.040 A 
ATOM     19  C   UNL A   1      31.762  27.682  27.009  1.00  0.00     0.016 A 
ATOM     20  C   UNL A   1      32.286  28.351  24.747  1.00  0.00     0.016 A 
ATOM     21  C   UNL A   1      32.537  28.740  27.495  1.00  0.00     0.027 A 
ATOM     22  C   UNL A   1      33.032  29.429  25.240  1.00  0.00     0.027 A 
ATOM     23  C   UNL A   1      33.182  29.631  26.621  1.00  0.00     0.052 A 
BRANCH  23  24
ATOM     24  N   UNL A   1      33.961  30.706  27.130  1.00  0.00    -0.250 N 
ATOM     25  C   UNL A   1      33.437  31.951  27.415  1.00  0.00     0.238 C 
ATOM     26  C   UNL A   1      35.304  30.615  27.433  1.00  0.00     0.238 C 
ATOM     27  O   UNL A   1      32.275  32.330  27.324  1.00  0.00    -0.274 OA
ATOM     28  C   UNL A   1      34.518  32.825  27.974  1.00  0.00     0.099 C 
ATOM     29  C   UNL A   1      35.788  31.963  27.898  1.00  0.00     0.099 C 
ATOM     30  O   UNL A   1      36.045  29.643  27.343  1.00  0.00    -0.274 OA
ATOM     31  C   UNL A   1      34.379  33.109  29.490  1.00  0.00     0.025 C 
ATOM     32  C   UNL A   1      36.273  31.941  29.355  1.00  0.00     0.025 C 
ATOM     33  C   UNL A   1      35.509  34.052  29.848  1.00  0.00    -0.027 C 
ATOM     34  C   UNL A   1      34.954  31.839  30.130  1.00  0.00     0.017 C 
ATOM     35  C   UNL A   1      36.650  33.351  29.748  1.00  0.00    -0.027 C 
ENDBRANCH  23  24
ENDBRANCH  15  18
ENDBRANCH  11  14
ENDBRANCH   6   7
ENDBRANCH   5   6
ENDBRANCH   1   5
BRANCH   3  36
ATOM     36  C   UNL A   1      39.806  22.189  26.592  1.00  0.00     0.117 C 
BRANCH  36  37
ATOM     37  C   UNL A   1      40.735  21.780  27.728  1.00  0.00     0.042 C 
BRANCH  37  38
ATOM     38  C   UNL A   1      41.974  22.658  27.854  1.00  0.00     0.118 C 
BRANCH  38  39
ATOM     39  N   UNL A   1      42.321  23.378  26.634  1.00  0.00    -0.352 N 
ATOM     40  C   UNL A   1      42.145  24.715  26.313  1.00  0.00     0.251 C 
ATOM     41  H   UNL A   1      42.743  22.831  25.933  1.00  0.00     0.163 HD
ATOM     42  O   UNL A   1      42.479  25.130  25.220  1.00  0.00    -0.269 OA
BRANCH  40  43
ATOM     43  C   UNL A   1      41.668  25.660  27.354  1.00  0.00     0.039 A 
ATOM     44  C   UNL A   1      40.860  26.730  26.948  1.00  0.00     0.014 A 
ATOM     45  C   UNL A   1      42.142  25.597  28.661  1.00  0.00     0.014 A 
ATOM     46  C   UNL A   1      40.732  27.844  27.776  1.00  0.00     0.010 A 
ATOM     47  C   UNL A   1      42.096  26.732  29.445  1.00  0.00     0.010 A 
ATOM     48  C   UNL A   1      41.447  27.877  28.974  1.00  0.00    -0.014 A 
BRANCH  48  49
ATOM     49  C   UNL A   1      41.727  29.116  29.687  1.00  0.00     0.031 A 
ATOM     50  C   UNL A   1      40.654  29.972  30.233  1.00  0.00     0.074 A 
ATOM     51  C   UNL A   1      43.014  29.407  29.975  1.00  0.00     0.049 A 
ATOM     52  N   UNL A   1      40.764  31.250  30.401  1.00  0.00    -0.248 NA
ATOM     53  C   UNL A   1      39.358  29.444  30.639  1.00  0.00     0.031 C 
ATOM     54  C   UNL A   1      43.483  30.404  30.925  1.00  0.00     0.029 A 
ATOM     55  N   UNL A   1      44.185  28.935  29.358  1.00  0.00    -0.354 N 
ATOM     56  C   UNL A   1      39.716  31.647  31.201  1.00  0.00     0.074 A 
ATOM     57  C   UNL A   1      38.824  30.507  31.248  1.00  0.00     0.031 C 
ATOM     58  C   UNL A   1      44.774  30.676  30.678  1.00  0.00     0.029 A 
ATOM     59  C   UNL A   1      45.126  29.985  29.455  1.00  0.00     0.049 A 
ATOM     60  H   UNL A   1      44.320  28.053  28.943  1.00  0.00     0.167 HD
ATOM     61  C   UNL A   1      39.780  32.830  31.882  1.00  0.00     0.037 A 
ATOM     62  C   UNL A   1      45.637  30.597  28.348  1.00  0.00     0.037 A 
ATOM     63  C   UNL A   1      41.060  33.502  31.677  1.00  0.00     0.049 A 
ATOM     64  C   UNL A   1      45.345  32.077  28.290  1.00  0.00     0.074 A 
ATOM     65  C   UNL A   1      42.199  33.554  32.464  1.00  0.00     0.029 A 
ATOM     66  N   UNL A   1      41.425  33.980  30.422  1.00  0.00    -0.354 N 
ATOM     67  N   UNL A   1      44.366  32.644  28.938  1.00  0.00    -0.248 NA
ATOM     68  C   UNL A   1      46.108  33.027  27.485  1.00  0.00     0.031 C 
ATOM     69  C   UNL A   1      43.262  34.035  31.672  1.00  0.00     0.029 A 
ATOM     70  C   UNL A   1      42.774  34.288  30.404  1.00  0.00     0.049 A 
ATOM     71  H   UNL A   1      40.813  34.085  29.658  1.00  0.00     0.167 HD
ATOM     72  C   UNL A   1      44.353  33.985  28.662  1.00  0.00     0.074 A 
ATOM     73  C   UNL A   1      45.461  34.177  27.745  1.00  0.00     0.031 C 
ATOM     74  C   UNL A   1      43.436  34.823  29.228  1.00  0.00     0.037 A 
BRANCH  61  75
ATOM     75  C   UNL A   1      38.823  33.174  33.006  1.00  0.00     0.064 A 
ATOM     76  C   UNL A   1      38.801  32.445  34.214  1.00  0.00     0.173 A 
ATOM     77  C   UNL A   1      37.865  34.201  32.923  1.00  0.00     0.173 A 
ATOM     78  F   UNL A   1      39.736  31.533  34.506  1.00  0.00    -0.203 F 
ATOM     79  C   UNL A   1      37.810  32.625  35.183  1.00  0.00     0.198 A 
ATOM     80  C   UNL A   1      36.842  34.350  33.867  1.00  0.00     0.198 A 
ATOM     81  F   UNL A   1      37.915  35.112  31.939  1.00  0.00    -0.203 F 
ATOM     82  F   UNL A   1      37.832  31.883  36.301  1.00  0.00    -0.200 F 
ATOM     83  C   UNL A   1      36.805  33.547  34.989  1.00  0.00     0.200 A 
ATOM     84  F   UNL A   1      35.891  35.275  33.679  1.00  0.00    -0.200 F 
ATOM     85  F   UNL A   1      35.824  33.681  35.893  1.00  0.00    -0.200 F 
ENDBRANCH  61  75
BRANCH  62  86
ATOM     86  C   UNL A   1      45.703  29.696  27.171  1.00  0.00     0.064 A 
ATOM     87  C   UNL A   1      46.840  28.878  27.024  1.00  0.00     0.173 A 
ATOM     88  C   UNL A   1      44.549  29.343  26.461  1.00  0.00     0.173 A 
ATOM     89  F   UNL A   1      47.968  29.171  27.692  1.00  0.00    -0.203 F 
ATOM     90  C   UNL A   1      46.785  27.689  26.301  1.00  0.00     0.198 A 
ATOM     91  C   UNL A   1      44.504  28.157  25.727  1.00  0.00     0.198 A 
ATOM     92  F   UNL A   1      43.432  30.074  26.574  1.00  0.00    -0.203 F 
ATOM     93  F   UNL A   1      47.846  26.868  26.283  1.00  0.00    -0.200 F 
ATOM     94  C   UNL A   1      45.608  27.316  25.676  1.00  0.00     0.200 A 
ATOM     95  F   UNL A   1      43.357  27.778  25.146  1.00  0.00    -0.200 F 
ATOM     96  F   UNL A   1      45.522  26.127  25.065  1.00  0.00    -0.200 F 
ENDBRANCH  62  86
BRANCH  74  97
ATOM     97  C   UNL A   1      43.200  36.261  28.849  1.00  0.00     0.064 A 
ATOM     98  C   UNL A   1      42.398  36.658  27.768  1.00  0.00     0.173 A 
ATOM     99  C   UNL A   1      43.677  37.309  29.676  1.00  0.00     0.173 A 
ATOM    100  F   UNL A   1      41.800  35.755  26.979  1.00  0.00    -0.203 F 
ATOM    101  C   UNL A   1      42.143  38.005  27.495  1.00  0.00     0.198 A 
ATOM    102  C   UNL A   1      43.377  38.647  29.429  1.00  0.00     0.198 A 
ATOM    103  F   UNL A   1      44.431  37.064  30.757  1.00  0.00    -0.203 F 
ATOM    104  F   UNL A   1      41.404  38.335  26.426  1.00  0.00    -0.200 F 
ATOM    105  C   UNL A   1      42.622  38.997  28.330  1.00  0.00     0.200 A 
ATOM    106  F   UNL A   1      43.812  39.593  30.276  1.00  0.00    -0.200 F 
ATOM    107  F   UNL A   1      42.342  40.284  28.086  1.00  0.00    -0.200 F 
ENDBRANCH  74  97
ENDBRANCH  48  49
ENDBRANCH  40  43
ENDBRANCH  38  39
ENDBRANCH  37  38
ENDBRANCH  36  37
ENDBRANCH   3  36
TORSDOF 15
ENDMDL
MODEL 2
REMARK VINA RESULT:     -12.7      3.763     10.584
REMARK SMILES Cc1cc(OCC(=O)NCCCNC(=O)c2ccc(-c3c4nc(c(-c5c(F)c(F)c(F)c(F)c5F)c5ccc([nH]5)c(-c5c(F)c(F)c(F)c(F)c5F)c5nc(c(-c6c(F)c(F)c(F)c(F)c6F)c6ccc3[nH]6)C=C5)C=C4)cc2)ccc1NC(=O)c1ccc(N2C(=O)[C@@H]3[C@H](C2=O)[C@H]2C=C[C@@H]3C2)cc1
REMARK SMILES IDX 7 1 8 2 9 3 6 5 5 6 4 7 1 8 2 9 3 10 81 11 80 12 79 13 82 14
REMARK SMILES IDX 83 15 84 17 85 18 86 19 102 20 87 21 101 22 88 23 89 24
REMARK SMILES IDX 90 25 94 26 91 27 92 28 93 29 95 30 99 31 96 32 98 33 100 34
REMARK SMILES IDX 97 35 10 36 11 37 12 38 13 39 14 40 15 42 16 43 17 44 78 45
REMARK SMILES IDX 18 46 77 47 19 48 20 49 21 50 71 51 22 52 76 53 70 54 72 55
REMARK SMILES IDX 23 56 75 57 69 58 68 59 24 61 56 62 36 63 55 64 37 65 40 66
REMARK SMILES IDX 54 67 73 68 38 69 39 70 53 72 74 73 41 74 25 75 26 76 34 77
REMARK SMILES IDX 27 78 28 79 32 80 35 81 29 82 30 83 33 84 31 85 57 86 58 87
REMARK SMILES IDX 66 88 59 89 60 90 64 91 67 92 61 93 62 94 65 95 63 96 42 97
REMARK SMILES IDX 43 98 51 99 44 100 45 101 49 102 52 103 46 104 47 105 50 106
REMARK SMILES IDX 48 107
REMARK H PARENT 9 4 82 16 13 41 72 60 40 71
REMARK Flexibility Score: inf
ROOT
ATOM      1  C   UNL A   1      34.749  29.711  27.278  1.00  0.00     0.257 C 
ATOM      2  O   UNL A   1      35.684  28.926  27.449  1.00  0.00    -0.271 OA
ATOM      3  N   UNL A   1      34.824  30.948  27.860  1.00  0.00    -0.353 N 
ATOM      4  H   UNL A   1      35.618  31.110  28.417  1.00  0.00     0.163 HD
ENDROOT
BRANCH   1   5
ATOM      5  C   UNL A   1      33.533  29.339  26.416  1.00  0.00     0.329 C 
BRANCH   5   6
ATOM      6  O   UNL A   1      33.790  29.157  25.031  1.00  0.00    -0.484 OA
BRANCH   6   7
ATOM      7  C   UNL A   1      33.487  27.942  24.480  1.00  0.00     0.120 A 
ATOM      8  C   UNL A   1      32.073  24.776  26.025  1.00  0.00     0.047 C 
ATOM      9  C   UNL A   1      32.625  25.695  24.968  1.00  0.00    -0.024 A 
ATOM     10  C   UNL A   1      32.945  27.010  25.370  1.00  0.00     0.052 A 
ATOM     11  C   UNL A   1      32.857  25.319  23.634  1.00  0.00     0.044 A 
ATOM     12  C   UNL A   1      33.343  26.278  22.736  1.00  0.00     0.030 A 
ATOM     13  C   UNL A   1      33.661  27.574  23.154  1.00  0.00     0.048 A 
BRANCH  11  14
ATOM     14  N   UNL A   1      32.543  24.014  23.204  1.00  0.00    -0.322 N 
ATOM     15  C   UNL A   1      33.337  22.897  23.060  1.00  0.00     0.255 C 
ATOM     16  H   UNL A   1      31.598  23.878  22.966  1.00  0.00     0.170 HD
ATOM     17  O   UNL A   1      32.953  21.952  22.373  1.00  0.00    -0.269 OA
BRANCH  15  18
ATOM     18  C   UNL A   1      34.609  22.758  23.807  1.00  0.00     0.040 A 
ATOM     19  C   UNL A   1      34.569  22.274  25.115  1.00  0.00     0.016 A 
ATOM     20  C   UNL A   1      35.827  23.156  23.250  1.00  0.00     0.016 A 
ATOM     21  C   UNL A   1      35.757  22.126  25.839  1.00  0.00     0.027 A 
ATOM     22  C   UNL A   1      37.009  23.037  23.993  1.00  0.00     0.027 A 
ATOM     23  C   UNL A   1      36.994  22.506  25.292  1.00  0.00     0.052 A 
BRANCH  23  24
ATOM     24  N   UNL A   1      38.192  22.355  26.042  1.00  0.00    -0.250 N 
ATOM     25  C   UNL A   1      38.956  21.205  26.024  1.00  0.00     0.238 C 
ATOM     26  C   UNL A   1      38.744  23.345  26.830  1.00  0.00     0.238 C 
ATOM     27  O   UNL A   1      38.779  20.180  25.377  1.00  0.00    -0.274 OA
ATOM     28  C   UNL A   1      40.166  21.403  26.886  1.00  0.00     0.099 C 
ATOM     29  C   UNL A   1      39.977  22.799  27.501  1.00  0.00     0.099 C 
ATOM     30  O   UNL A   1      38.342  24.487  27.018  1.00  0.00    -0.274 OA
ATOM     31  C   UNL A   1      41.488  21.547  26.093  1.00  0.00     0.025 C 
ATOM     32  C   UNL A   1      41.253  23.536  27.070  1.00  0.00     0.025 C 
ATOM     33  C   UNL A   1      42.589  21.667  27.127  1.00  0.00    -0.027 C 
ATOM     34  C   UNL A   1      41.460  23.014  25.644  1.00  0.00     0.017 C 
ATOM     35  C   UNL A   1      42.434  22.858  27.727  1.00  0.00    -0.027 C 
ENDBRANCH  23  24
ENDBRANCH  15  18
ENDBRANCH  11  14
ENDBRANCH   6   7
ENDBRANCH   5   6
ENDBRANCH   1   5
BRANCH   3  36
ATOM     36  C   UNL A   1      33.883  32.052  27.763  1.00  0.00     0.117 C 
BRANCH  36  37
ATOM     37  C   UNL A   1      34.535  33.409  28.001  1.00  0.00     0.042 C 
BRANCH  37  38
ATOM     38  C   UNL A   1      35.799  33.342  28.849  1.00  0.00     0.118 C 
BRANCH  38  39
ATOM     39  N   UNL A   1      35.568  32.945  30.233  1.00  0.00    -0.352 N 
ATOM     40  C   UNL A   1      36.153  31.930  30.975  1.00  0.00     0.251 C 
ATOM     41  H   UNL A   1      34.894  33.479  30.713  1.00  0.00     0.163 HD
ATOM     42  O   UNL A   1      35.805  31.734  32.123  1.00  0.00    -0.269 OA
BRANCH  40  43
ATOM     43  C   UNL A   1      37.293  31.170  30.402  1.00  0.00     0.039 A 
ATOM     44  C   UNL A   1      37.327  29.785  30.604  1.00  0.00     0.014 A 
ATOM     45  C   UNL A   1      38.384  31.821  29.834  1.00  0.00     0.014 A 
ATOM     46  C   UNL A   1      38.533  29.102  30.463  1.00  0.00     0.010 A 
ATOM     47  C   UNL A   1      39.600  31.170  29.782  1.00  0.00     0.010 A 
ATOM     48  C   UNL A   1      39.686  29.827  30.160  1.00  0.00    -0.014 A 
BRANCH  48  49
ATOM     49  C   UNL A   1      41.026  29.311  30.404  1.00  0.00     0.031 A 
ATOM     50  C   UNL A   1      41.591  28.185  29.633  1.00  0.00     0.074 A 
ATOM     51  C   UNL A   1      41.818  29.982  31.269  1.00  0.00     0.049 A 
ATOM     52  N   UNL A   1      42.489  27.374  30.090  1.00  0.00    -0.248 NA
ATOM     53  C   UNL A   1      41.182  27.886  28.266  1.00  0.00     0.031 C 
ATOM     54  C   UNL A   1      43.256  29.829  31.420  1.00  0.00     0.029 A 
ATOM     55  N   UNL A   1      41.451  30.868  32.296  1.00  0.00    -0.354 N 
ATOM     56  C   UNL A   1      42.989  26.673  29.016  1.00  0.00     0.074 A 
ATOM     57  C   UNL A   1      42.085  26.963  27.923  1.00  0.00     0.031 C 
ATOM     58  C   UNL A   1      43.636  30.358  32.594  1.00  0.00     0.029 A 
ATOM     59  C   UNL A   1      42.427  30.717  33.307  1.00  0.00     0.049 A 
ATOM     60  H   UNL A   1      40.673  31.471  32.307  1.00  0.00     0.167 HD
ATOM     61  C   UNL A   1      44.204  26.054  29.103  1.00  0.00     0.037 A 
ATOM     62  C   UNL A   1      42.107  30.261  34.552  1.00  0.00     0.037 A 
ATOM     63  C   UNL A   1      44.842  26.298  30.394  1.00  0.00     0.049 A 
ATOM     64  C   UNL A   1      42.824  28.987  34.929  1.00  0.00     0.074 A 
ATOM     65  C   UNL A   1      45.825  27.198  30.770  1.00  0.00     0.029 A 
ATOM     66  N   UNL A   1      44.287  25.805  31.572  1.00  0.00    -0.354 N 
ATOM     67  N   UNL A   1      43.329  28.160  34.057  1.00  0.00    -0.248 NA
ATOM     68  C   UNL A   1      43.007  28.530  36.304  1.00  0.00     0.031 C 
ATOM     69  C   UNL A   1      45.842  27.273  32.178  1.00  0.00     0.029 A 
ATOM     70  C   UNL A   1      44.878  26.411  32.666  1.00  0.00     0.049 A 
ATOM     71  H   UNL A   1      43.578  25.124  31.620  1.00  0.00     0.167 HD
ATOM     72  C   UNL A   1      43.890  27.095  34.710  1.00  0.00     0.074 A 
ATOM     73  C   UNL A   1      43.661  27.371  36.116  1.00  0.00     0.031 C 
ATOM     74  C   UNL A   1      44.509  26.085  34.032  1.00  0.00     0.037 A 
BRANCH  61  75
ATOM     75  C   UNL A   1      44.946  25.543  27.885  1.00  0.00     0.064 A 
ATOM     76  C   UNL A   1      45.274  26.390  26.804  1.00  0.00     0.173 A 
ATOM     77  C   UNL A   1      45.325  24.199  27.713  1.00  0.00     0.173 A 
ATOM     78  F   UNL A   1      45.111  27.716  26.871  1.00  0.00    -0.203 F 
ATOM     79  C   UNL A   1      45.790  25.906  25.599  1.00  0.00     0.198 A 
ATOM     80  C   UNL A   1      45.794  23.703  26.491  1.00  0.00     0.198 A 
ATOM     81  F   UNL A   1      45.280  23.334  28.738  1.00  0.00    -0.203 F 
ATOM     82  F   UNL A   1      46.059  26.760  24.601  1.00  0.00    -0.200 F 
ATOM     83  C   UNL A   1      46.009  24.556  25.427  1.00  0.00     0.200 A 
ATOM     84  F   UNL A   1      46.032  22.392  26.351  1.00  0.00    -0.200 F 
ATOM     85  F   UNL A   1      46.452  24.085  24.253  1.00  0.00    -0.200 F 
ENDBRANCH  61  75
BRANCH  62  86
ATOM     86  C   UNL A   1      40.722  30.608  34.955  1.00  0.00     0.064 A 
ATOM     87  C   UNL A   1      40.507  31.843  35.596  1.00  0.00     0.173 A 
ATOM     88  C   UNL A   1      39.617  29.973  34.376  1.00  0.00     0.173 A 
ATOM     89  F   UNL A   1      41.538  32.496  36.157  1.00  0.00    -0.203 F 
ATOM     90  C   UNL A   1      39.267  32.475  35.549  1.00  0.00     0.198 A 
ATOM     91  C   UNL A   1      38.373  30.605  34.344  1.00  0.00     0.198 A 
ATOM     92  F   UNL A   1      39.763  28.804  33.738  1.00  0.00    -0.203 F 
ATOM     93  F   UNL A   1      39.125  33.707  36.059  1.00  0.00    -0.200 F 
ATOM     94  C   UNL A   1      38.208  31.867  34.897  1.00  0.00     0.200 A 
ATOM     95  F   UNL A   1      37.353  30.032  33.688  1.00  0.00    -0.200 F 
ATOM     96  F   UNL A   1      37.043  32.515  34.764  1.00  0.00    -0.200 F 
ENDBRANCH  62  86
BRANCH  74  97
ATOM     97  C   UNL A   1      44.978  24.781  34.622  1.00  0.00     0.064 A 
ATOM     98  C   UNL A   1      44.325  23.556  34.415  1.00  0.00     0.173 A 
ATOM     99  C   UNL A   1      46.213  24.708  35.314  1.00  0.00     0.173 A 
ATOM    100  F   UNL A   1      43.207  23.481  33.681  1.00  0.00    -0.203 F 
ATOM    101  C   UNL A   1      44.834  22.356  34.918  1.00  0.00     0.198 A 
ATOM    102  C   UNL A   1      46.742  23.502  35.769  1.00  0.00     0.198 A 
ATOM    103  F   UNL A   1      46.950  25.802  35.553  1.00  0.00    -0.203 F 
ATOM    104  F   UNL A   1      44.152  21.217  34.730  1.00  0.00    -0.200 F 
ATOM    105  C   UNL A   1      46.046  22.327  35.584  1.00  0.00     0.200 A 
ATOM    106  F   UNL A   1      47.940  23.488  36.371  1.00  0.00    -0.200 F 
ATOM    107  F   UNL A   1      46.549  21.168  36.029  1.00  0.00    -0.200 F 
ENDBRANCH  74  97
ENDBRANCH  48  49
ENDBRANCH  40  43
ENDBRANCH  38  39
ENDBRANCH  37  38
ENDBRANCH  36  37
ENDBRANCH   3  36
TORSDOF 15
ENDMDL
MODEL 3
REMARK VINA RESULT:     -12.4      3.858      6.503
REMARK SMILES Cc1cc(OCC(=O)NCCCNC(=O)c2ccc(-c3c4nc(c(-c5c(F)c(F)c(F)c(F)c5F)c5ccc([nH]5)c(-c5c(F)c(F)c(F)c(F)c5F)c5nc(c(-c6c(F)c(F)c(F)c(F)c6F)c6ccc3[nH]6)C=C5)C=C4)cc2)ccc1NC(=O)c1ccc(N2C(=O)[C@@H]3[C@H](C2=O)[C@H]2C=C[C@@H]3C2)cc1
REMARK SMILES IDX 7 1 8 2 9 3 6 5 5 6 4 7 1 8 2 9 3 10 81 11 80 12 79 13 82 14
REMARK SMILES IDX 83 15 84 17 85 18 86 19 102 20 87 21 101 22 88 23 89 24
REMARK SMILES IDX 90 25 94 26 91 27 92 28 93 29 95 30 99 31 96 32 98 33 100 34
REMARK SMILES IDX 97 35 10 36 11 37 12 38 13 39 14 40 15 42 16 43 17 44 78 45
REMARK SMILES IDX 18 46 77 47 19 48 20 49 21 50 71 51 22 52 76 53 70 54 72 55
REMARK SMILES IDX 23 56 75 57 69 58 68 59 24 61 56 62 36 63 55 64 37 65 40 66
REMARK SMILES IDX 54 67 73 68 38 69 39 70 53 72 74 73 41 74 25 75 26 76 34 77
REMARK SMILES IDX 27 78 28 79 32 80 35 81 29 82 30 83 33 84 31 85 57 86 58 87
REMARK SMILES IDX 66 88 59 89 60 90 64 91 67 92 61 93 62 94 65 95 63 96 42 97
REMARK SMILES IDX 43 98 51 99 44 100 45 101 49 102 52 103 46 104 47 105 50 106
REMARK SMILES IDX 48 107
REMARK H PARENT 9 4 82 16 13 41 72 60 40 71
REMARK Flexibility Score: inf
ROOT
ATOM      1  C   UNL A   1      37.647  20.627  25.175  1.00  0.00     0.257 C 
ATOM      2  O   UNL A   1      36.791  19.814  24.819  1.00  0.00    -0.271 OA
ATOM      3  N   UNL A   1      38.889  20.159  25.508  1.00  0.00    -0.353 N 
ATOM      4  H   UNL A   1      39.001  19.182  25.477  1.00  0.00     0.163 HD
ENDROOT
BRANCH   1   5
ATOM      5  C   UNL A   1      37.354  22.134  25.225  1.00  0.00     0.329 C 
BRANCH   5   6
ATOM      6  O   UNL A   1      36.359  22.540  26.154  1.00  0.00    -0.484 OA
BRANCH   6   7
ATOM      7  C   UNL A   1      35.306  23.273  25.680  1.00  0.00     0.120 A 
ATOM      8  C   UNL A   1      31.737  23.623  26.925  1.00  0.00     0.047 C 
ATOM      9  C   UNL A   1      32.943  23.831  26.048  1.00  0.00    -0.024 A 
ATOM     10  C   UNL A   1      34.132  23.174  26.432  1.00  0.00     0.052 A 
ATOM     11  C   UNL A   1      32.947  24.608  24.877  1.00  0.00     0.044 A 
ATOM     12  C   UNL A   1      34.144  24.751  24.165  1.00  0.00     0.030 A 
ATOM     13  C   UNL A   1      35.311  24.087  24.556  1.00  0.00     0.048 A 
BRANCH  11  14
ATOM     14  N   UNL A   1      31.775  25.279  24.472  1.00  0.00    -0.322 N 
ATOM     15  C   UNL A   1      31.225  26.468  24.895  1.00  0.00     0.255 C 
ATOM     16  H   UNL A   1      31.264  24.819  23.767  1.00  0.00     0.170 HD
ATOM     17  O   UNL A   1      30.046  26.722  24.656  1.00  0.00    -0.269 OA
BRANCH  15  18
ATOM     18  C   UNL A   1      32.055  27.509  25.546  1.00  0.00     0.040 A 
ATOM     19  C   UNL A   1      32.862  28.320  24.747  1.00  0.00     0.016 A 
ATOM     20  C   UNL A   1      32.088  27.650  26.935  1.00  0.00     0.016 A 
ATOM     21  C   UNL A   1      33.649  29.315  25.336  1.00  0.00     0.027 A 
ATOM     22  C   UNL A   1      32.904  28.626  27.522  1.00  0.00     0.027 A 
ATOM     23  C   UNL A   1      33.685  29.484  26.730  1.00  0.00     0.052 A 
BRANCH  23  24
ATOM     24  N   UNL A   1      34.494  30.495  27.315  1.00  0.00    -0.250 N 
ATOM     25  C   UNL A   1      34.009  31.737  27.677  1.00  0.00     0.238 C 
ATOM     26  C   UNL A   1      35.830  30.338  27.624  1.00  0.00     0.238 C 
ATOM     27  O   UNL A   1      32.862  32.161  27.600  1.00  0.00    -0.274 OA
ATOM     28  C   UNL A   1      35.113  32.535  28.301  1.00  0.00     0.099 C 
ATOM     29  C   UNL A   1      36.354  31.636  28.180  1.00  0.00     0.099 C 
ATOM     30  O   UNL A   1      36.538  29.350  27.477  1.00  0.00    -0.274 OA
ATOM     31  C   UNL A   1      34.967  32.724  29.831  1.00  0.00     0.025 C 
ATOM     32  C   UNL A   1      36.821  31.502  29.637  1.00  0.00     0.025 C 
ATOM     33  C   UNL A   1      36.125  33.602  30.260  1.00  0.00    -0.027 C 
ATOM     34  C   UNL A   1      35.492  31.396  30.392  1.00  0.00     0.017 C 
ATOM     35  C   UNL A   1      37.242  32.870  30.125  1.00  0.00    -0.027 C 
ENDBRANCH  23  24
ENDBRANCH  15  18
ENDBRANCH  11  14
ENDBRANCH   6   7
ENDBRANCH   5   6
ENDBRANCH   1   5
BRANCH   3  36
ATOM     36  C   UNL A   1      40.066  20.916  25.904  1.00  0.00     0.117 C 
BRANCH  36  37
ATOM     37  C   UNL A   1      41.069  20.082  26.693  1.00  0.00     0.042 C 
BRANCH  37  38
ATOM     38  C   UNL A   1      42.498  20.191  26.178  1.00  0.00     0.118 C 
BRANCH  38  39
ATOM     39  N   UNL A   1      42.759  21.392  25.393  1.00  0.00    -0.352 N 
ATOM     40  C   UNL A   1      43.055  22.679  25.813  1.00  0.00     0.251 C 
ATOM     41  H   UNL A   1      42.720  21.269  24.417  1.00  0.00     0.163 HD
ATOM     42  O   UNL A   1      43.216  23.566  24.998  1.00  0.00    -0.269 OA
BRANCH  40  43
ATOM     43  C   UNL A   1      43.298  22.940  27.255  1.00  0.00     0.039 A 
ATOM     44  C   UNL A   1      42.207  23.315  28.048  1.00  0.00     0.014 A 
ATOM     45  C   UNL A   1      44.589  22.984  27.774  1.00  0.00     0.014 A 
ATOM     46  C   UNL A   1      42.433  23.957  29.264  1.00  0.00     0.010 A 
ATOM     47  C   UNL A   1      44.821  23.700  28.931  1.00  0.00     0.010 A 
ATOM     48  C   UNL A   1      43.746  24.243  29.640  1.00  0.00    -0.014 A 
BRANCH  48  49
ATOM     49  C   UNL A   1      44.075  25.253  30.637  1.00  0.00     0.031 A 
ATOM     50  C   UNL A   1      44.157  24.942  32.078  1.00  0.00     0.074 A 
ATOM     51  C   UNL A   1      44.454  26.475  30.202  1.00  0.00     0.049 A 
ATOM     52  N   UNL A   1      43.937  25.805  33.017  1.00  0.00    -0.248 NA
ATOM     53  C   UNL A   1      44.500  23.618  32.578  1.00  0.00     0.031 C 
ATOM     54  C   UNL A   1      45.110  27.507  30.990  1.00  0.00     0.029 A 
ATOM     55  N   UNL A   1      44.203  27.088  28.963  1.00  0.00    -0.354 N 
ATOM     56  C   UNL A   1      44.402  25.257  34.191  1.00  0.00     0.074 A 
ATOM     57  C   UNL A   1      44.660  23.866  33.882  1.00  0.00     0.031 C 
ATOM     58  C   UNL A   1      44.994  28.686  30.358  1.00  0.00     0.029 A 
ATOM     59  C   UNL A   1      44.115  28.474  29.226  1.00  0.00     0.049 A 
ATOM     60  H   UNL A   1      44.108  26.643  28.091  1.00  0.00     0.167 HD
ATOM     61  C   UNL A   1      44.685  26.059  35.261  1.00  0.00     0.037 A 
ATOM     62  C   UNL A   1      42.966  29.176  29.007  1.00  0.00     0.037 A 
ATOM     63  C   UNL A   1      44.483  27.470  34.944  1.00  0.00     0.049 A 
ATOM     64  C   UNL A   1      42.408  29.823  30.251  1.00  0.00     0.074 A 
ATOM     65  C   UNL A   1      45.381  28.463  34.589  1.00  0.00     0.029 A 
ATOM     66  N   UNL A   1      43.214  27.966  34.660  1.00  0.00    -0.354 N 
ATOM     67  N   UNL A   1      42.690  29.422  31.459  1.00  0.00    -0.248 NA
ATOM     68  C   UNL A   1      41.477  30.948  30.238  1.00  0.00     0.031 C 
ATOM     69  C   UNL A   1      44.654  29.548  34.059  1.00  0.00     0.029 A 
ATOM     70  C   UNL A   1      43.311  29.227  34.099  1.00  0.00     0.049 A 
ATOM     71  H   UNL A   1      42.370  27.490  34.833  1.00  0.00     0.167 HD
ATOM     72  C   UNL A   1      42.014  30.194  32.365  1.00  0.00     0.074 A 
ATOM     73  C   UNL A   1      41.266  31.135  31.553  1.00  0.00     0.031 C 
ATOM     74  C   UNL A   1      42.143  29.999  33.710  1.00  0.00     0.037 A 
BRANCH  61  75
ATOM     75  C   UNL A   1      45.485  25.573  36.453  1.00  0.00     0.064 A 
ATOM     76  C   UNL A   1      44.866  25.239  37.677  1.00  0.00     0.173 A 
ATOM     77  C   UNL A   1      46.887  25.459  36.454  1.00  0.00     0.173 A 
ATOM     78  F   UNL A   1      43.536  25.159  37.798  1.00  0.00    -0.203 F 
ATOM     79  C   UNL A   1      45.595  24.969  38.838  1.00  0.00     0.198 A 
ATOM     80  C   UNL A   1      47.620  25.239  37.625  1.00  0.00     0.198 A 
ATOM     81  F   UNL A   1      47.584  25.527  35.309  1.00  0.00    -0.203 F 
ATOM     82  F   UNL A   1      44.947  24.681  39.977  1.00  0.00    -0.200 F 
ATOM     83  C   UNL A   1      46.972  25.012  38.823  1.00  0.00     0.200 A 
ATOM     84  F   UNL A   1      48.959  25.252  37.586  1.00  0.00    -0.200 F 
ATOM     85  F   UNL A   1      47.670  24.806  39.949  1.00  0.00    -0.200 F 
ENDBRANCH  61  75
BRANCH  62  86
ATOM     86  C   UNL A   1      42.150  28.614  27.902  1.00  0.00     0.064 A 
ATOM     87  C   UNL A   1      42.659  28.697  26.592  1.00  0.00     0.173 A 
ATOM     88  C   UNL A   1      41.138  27.679  28.150  1.00  0.00     0.173 A 
ATOM     89  F   UNL A   1      43.638  29.572  26.307  1.00  0.00    -0.203 F 
ATOM     90  C   UNL A   1      42.263  27.798  25.605  1.00  0.00     0.198 A 
ATOM     91  C   UNL A   1      40.735  26.789  27.153  1.00  0.00     0.198 A 
ATOM     92  F   UNL A   1      40.626  27.543  29.380  1.00  0.00    -0.203 F 
ATOM     93  F   UNL A   1      42.858  27.821  24.403  1.00  0.00    -0.200 F 
ATOM     94  C   UNL A   1      41.322  26.826  25.895  1.00  0.00     0.200 A 
ATOM     95  F   UNL A   1      39.845  25.829  27.439  1.00  0.00    -0.200 F 
ATOM     96  F   UNL A   1      41.013  25.898  24.979  1.00  0.00    -0.200 F 
ENDBRANCH  62  86
BRANCH  74  97
ATOM     97  C   UNL A   1      41.307  30.645  34.783  1.00  0.00     0.064 A 
ATOM     98  C   UNL A   1      41.790  31.637  35.651  1.00  0.00     0.173 A 
ATOM     99  C   UNL A   1      39.919  30.373  34.874  1.00  0.00     0.173 A 
ATOM    100  F   UNL A   1      43.059  32.060  35.585  1.00  0.00    -0.203 F 
ATOM    101  C   UNL A   1      40.960  32.265  36.584  1.00  0.00     0.198 A 
ATOM    102  C   UNL A   1      39.087  31.038  35.771  1.00  0.00     0.198 A 
ATOM    103  F   UNL A   1      39.328  29.466  34.083  1.00  0.00    -0.203 F 
ATOM    104  F   UNL A   1      41.477  33.178  37.419  1.00  0.00    -0.200 F 
ATOM    105  C   UNL A   1      39.609  31.975  36.637  1.00  0.00     0.200 A 
ATOM    106  F   UNL A   1      37.771  30.777  35.776  1.00  0.00    -0.200 F 
ATOM    107  F   UNL A   1      38.812  32.609  37.506  1.00  0.00    -0.200 F 
ENDBRANCH  74  97
ENDBRANCH  48  49
ENDBRANCH  40  43
ENDBRANCH  38  39
ENDBRANCH  37  38
ENDBRANCH  36  37
ENDBRANCH   3  36
TORSDOF 15
ENDMDL
