MODEL 1
REMARK VINA RESULT:     -12.1      0.000      0.000
REMARK SMILES C[C@@H]1CC[N@@H+]1CC1(CC(=O)NCCCNC(=O)c2ccc(-c3c4nc(c(-c5c(F)c(F)c(F)c(F)c5F)c5ccc([nH]5)c(-c5c(F)c(F)c(F)c(F)c5F)c5nc(c(-c6c(F)c(F)c(F)c(F)c6F)c6ccc3[nH]6)C=C5)C=C4)cc2)CCCCC1
REMARK SMILES IDX 12 1 11 2 9 3 10 4 8 6 7 7 81 8 85 9 82 10 84 11 83 12 6 13
REMARK SMILES IDX 5 14 1 15 2 16 3 17 4 18 13 20 14 21 15 22 16 23 17 25 18 26
REMARK SMILES IDX 19 27 80 28 20 29 79 30 21 31 22 32 23 33 73 34 24 35 78 36
REMARK SMILES IDX 72 37 74 38 25 39 77 40 71 41 70 42 26 44 58 45 38 46 57 47
REMARK SMILES IDX 39 48 42 49 56 50 75 51 40 52 41 53 55 55 76 56 43 57 27 58
REMARK SMILES IDX 28 59 36 60 29 61 30 62 34 63 37 64 31 65 32 66 35 67 33 68
REMARK SMILES IDX 59 69 60 70 68 71 61 72 62 73 66 74 69 75 63 76 64 77 67 78
REMARK SMILES IDX 65 79 44 80 45 81 53 82 46 83 47 84 51 85 54 86 48 87 49 88
REMARK SMILES IDX 52 89 50 90
REMARK H PARENT 11 5 5 19 15 24 74 43 42 54
REMARK Flexibility Score: inf
ROOT
ATOM      1  C   UNL A   1      31.458  30.669  26.325  1.00  0.00     0.117 C 
ENDROOT
BRANCH   1   2
ATOM      2  N   UNL A   1      32.385  30.320  25.264  1.00  0.00    -0.356 N 
ATOM      3  C   UNL A   1      32.542  29.176  24.543  1.00  0.00     0.220 C 
ATOM      4  O   UNL A   1      33.490  29.140  23.754  1.00  0.00    -0.275 OA
ATOM      5  H   UNL A   1      33.013  31.039  25.023  1.00  0.00     0.163 HD
BRANCH   3   6
ATOM      6  C   UNL A   1      31.573  27.994  24.640  1.00  0.00     0.112 C 
BRANCH   6   7
ATOM      7  C   UNL A   1      30.662  27.630  23.398  1.00  0.00     0.028 C 
ATOM      8  C   UNL A   1      29.507  26.730  23.905  1.00  0.00     0.013 C 
ATOM      9  C   UNL A   1      31.471  26.802  22.384  1.00  0.00     0.013 C 
ATOM     10  C   UNL A   1      29.912  25.326  24.358  1.00  0.00     0.001 C 
ATOM     11  C   UNL A   1      31.892  25.408  22.847  1.00  0.00     0.001 C 
ATOM     12  C   UNL A   1      30.670  24.602  23.252  1.00  0.00     0.000 C 
BRANCH   7  13
ATOM     13  C   UNL A   1      30.064  28.978  22.800  1.00  0.00     0.269 C 
BRANCH  13  14
ATOM     14  N   UNL A   1      29.139  29.968  23.362  1.00  0.00    -0.332 N 
ATOM     15  C   UNL A   1      26.907  28.647  23.131  1.00  0.00     0.075 C 
ATOM     16  C   UNL A   1      27.670  29.943  23.271  1.00  0.00     0.186 C 
ATOM     17  C   UNL A   1      27.763  30.973  22.124  1.00  0.00     0.126 C 
ATOM     18  C   UNL A   1      29.154  31.296  22.730  1.00  0.00     0.268 C 
ATOM     19  H   UNL A   1      29.515  29.745  24.283  1.00  0.00     0.348 HD
ENDBRANCH  13  14
ENDBRANCH   7  13
ENDBRANCH   6   7
ENDBRANCH   3   6
ENDBRANCH   1   2
BRANCH   1  20
ATOM     20  C   UNL A   1      31.400  32.182  26.516  1.00  0.00     0.042 C 
BRANCH  20  21
ATOM     21  C   UNL A   1      32.593  32.765  27.244  1.00  0.00     0.118 C 
BRANCH  21  22
ATOM     22  N   UNL A   1      32.397  34.165  27.591  1.00  0.00    -0.352 N 
ATOM     23  C   UNL A   1      32.984  34.912  28.586  1.00  0.00     0.251 C 
ATOM     24  H   UNL A   1      31.749  34.648  27.030  1.00  0.00     0.163 HD
ATOM     25  O   UNL A   1      32.527  36.021  28.863  1.00  0.00    -0.269 OA
BRANCH  23  26
ATOM     26  C   UNL A   1      34.143  34.387  29.345  1.00  0.00     0.039 A 
ATOM     27  C   UNL A   1      33.931  33.768  30.581  1.00  0.00     0.014 A 
ATOM     28  C   UNL A   1      35.442  34.510  28.849  1.00  0.00     0.014 A 
ATOM     29  C   UNL A   1      35.010  33.215  31.279  1.00  0.00     0.010 A 
ATOM     30  C   UNL A   1      36.492  33.856  29.481  1.00  0.00     0.010 A 
ATOM     31  C   UNL A   1      36.295  33.221  30.715  1.00  0.00    -0.014 A 
BRANCH  31  32
ATOM     32  C   UNL A   1      37.466  32.615  31.399  1.00  0.00     0.031 A 
ATOM     33  C   UNL A   1      38.196  31.471  30.748  1.00  0.00     0.074 A 
ATOM     34  C   UNL A   1      37.815  33.023  32.634  1.00  0.00     0.049 A 
ATOM     35  N   UNL A   1      39.150  30.711  31.224  1.00  0.00    -0.248 NA
ATOM     36  C   UNL A   1      37.766  31.107  29.388  1.00  0.00     0.031 C 
ATOM     37  C   UNL A   1      37.168  34.099  33.386  1.00  0.00     0.029 A 
ATOM     38  N   UNL A   1      38.794  32.568  33.483  1.00  0.00    -0.354 N 
ATOM     39  C   UNL A   1      39.404  29.764  30.239  1.00  0.00     0.074 A 
ATOM     40  C   UNL A   1      38.465  30.005  29.166  1.00  0.00     0.031 C 
ATOM     41  C   UNL A   1      37.787  34.243  34.569  1.00  0.00     0.029 A 
ATOM     42  C   UNL A   1      38.837  33.236  34.683  1.00  0.00     0.049 A 
ATOM     43  H   UNL A   1      39.407  31.833  33.253  1.00  0.00     0.167 HD
ATOM     44  C   UNL A   1      40.349  28.795  30.221  1.00  0.00     0.037 A 
ATOM     45  C   UNL A   1      39.629  33.047  35.756  1.00  0.00     0.037 A 
ATOM     46  C   UNL A   1      41.301  28.583  31.280  1.00  0.00     0.049 A 
ATOM     47  C   UNL A   1      40.655  31.946  35.724  1.00  0.00     0.074 A 
ATOM     48  C   UNL A   1      42.347  27.680  31.332  1.00  0.00     0.029 A 
ATOM     49  N   UNL A   1      41.316  29.284  32.477  1.00  0.00    -0.354 N 
ATOM     50  N   UNL A   1      40.934  31.100  34.761  1.00  0.00    -0.248 NA
ATOM     51  C   UNL A   1      41.478  31.774  36.929  1.00  0.00     0.031 C 
ATOM     52  C   UNL A   1      42.953  27.789  32.588  1.00  0.00     0.029 A 
ATOM     53  C   UNL A   1      42.333  28.810  33.290  1.00  0.00     0.049 A 
ATOM     54  H   UNL A   1      40.695  30.011  32.714  1.00  0.00     0.167 HD
ATOM     55  C   UNL A   1      41.989  30.326  35.226  1.00  0.00     0.074 A 
ATOM     56  C   UNL A   1      42.302  30.805  36.557  1.00  0.00     0.031 C 
ATOM     57  C   UNL A   1      42.642  29.313  34.605  1.00  0.00     0.037 A 
BRANCH  44  58
ATOM     58  C   UNL A   1      40.388  27.883  29.025  1.00  0.00     0.064 A 
ATOM     59  C   UNL A   1      41.149  28.183  27.885  1.00  0.00     0.173 A 
ATOM     60  C   UNL A   1      39.654  26.686  29.023  1.00  0.00     0.173 A 
ATOM     61  F   UNL A   1      41.861  29.319  27.827  1.00  0.00    -0.203 F 
ATOM     62  C   UNL A   1      41.137  27.346  26.771  1.00  0.00     0.198 A 
ATOM     63  C   UNL A   1      39.676  25.831  27.924  1.00  0.00     0.198 A 
ATOM     64  F   UNL A   1      38.915  26.342  30.089  1.00  0.00    -0.203 F 
ATOM     65  F   UNL A   1      41.813  27.692  25.668  1.00  0.00    -0.200 F 
ATOM     66  C   UNL A   1      40.406  26.169  26.794  1.00  0.00     0.200 A 
ATOM     67  F   UNL A   1      38.982  24.685  27.954  1.00  0.00    -0.200 F 
ATOM     68  F   UNL A   1      40.395  25.364  25.723  1.00  0.00    -0.200 F 
ENDBRANCH  44  58
BRANCH  45  69
ATOM     69  C   UNL A   1      39.510  33.944  36.936  1.00  0.00     0.064 A 
ATOM     70  C   UNL A   1      38.756  33.556  38.053  1.00  0.00     0.173 A 
ATOM     71  C   UNL A   1      40.141  35.196  36.980  1.00  0.00     0.173 A 
ATOM     72  F   UNL A   1      38.118  32.376  38.051  1.00  0.00    -0.203 F 
ATOM     73  C   UNL A   1      38.620  34.392  39.158  1.00  0.00     0.198 A 
ATOM     74  C   UNL A   1      40.030  36.019  38.099  1.00  0.00     0.198 A 
ATOM     75  F   UNL A   1      40.880  35.613  35.942  1.00  0.00    -0.203 F 
ATOM     76  F   UNL A   1      37.857  34.013  40.192  1.00  0.00    -0.200 F 
ATOM     77  C   UNL A   1      39.264  35.620  39.184  1.00  0.00     0.200 A 
ATOM     78  F   UNL A   1      40.667  37.197  38.128  1.00  0.00    -0.200 F 
ATOM     79  F   UNL A   1      39.139  36.421  40.251  1.00  0.00    -0.200 F 
ENDBRANCH  45  69
BRANCH  57  80
ATOM     80  C   UNL A   1      43.802  28.690  35.328  1.00  0.00     0.064 A 
ATOM     81  C   UNL A   1      43.638  27.605  36.201  1.00  0.00     0.173 A 
ATOM     82  C   UNL A   1      45.107  29.154  35.096  1.00  0.00     0.173 A 
ATOM     83  F   UNL A   1      42.411  27.133  36.468  1.00  0.00    -0.203 F 
ATOM     84  C   UNL A   1      44.734  27.023  36.833  1.00  0.00     0.198 A 
ATOM     85  C   UNL A   1      46.203  28.548  35.702  1.00  0.00     0.198 A 
ATOM     86  F   UNL A   1      45.320  30.184  34.265  1.00  0.00    -0.203 F 
ATOM     87  F   UNL A   1      44.550  26.018  37.700  1.00  0.00    -0.200 F 
ATOM     88  C   UNL A   1      46.016  27.487  36.575  1.00  0.00     0.200 A 
ATOM     89  F   UNL A   1      47.442  28.987  35.437  1.00  0.00    -0.200 F 
ATOM     90  F   UNL A   1      47.070  26.916  37.172  1.00  0.00    -0.200 F 
ENDBRANCH  57  80
ENDBRANCH  31  32
ENDBRANCH  23  26
ENDBRANCH  21  22
ENDBRANCH  20  21
ENDBRANCH   1  20
TORSDOF 13
ENDMDL
MODEL 2
REMARK VINA RESULT:     -12.0      6.504     11.844
REMARK SMILES C[C@@H]1CC[N@@H+]1CC1(CC(=O)NCCCNC(=O)c2ccc(-c3c4nc(c(-c5c(F)c(F)c(F)c(F)c5F)c5ccc([nH]5)c(-c5c(F)c(F)c(F)c(F)c5F)c5nc(c(-c6c(F)c(F)c(F)c(F)c6F)c6ccc3[nH]6)C=C5)C=C4)cc2)CCCCC1
REMARK SMILES IDX 12 1 11 2 9 3 10 4 8 6 7 7 81 8 85 9 82 10 84 11 83 12 6 13
REMARK SMILES IDX 5 14 1 15 2 16 3 17 4 18 13 20 14 21 15 22 16 23 17 25 18 26
REMARK SMILES IDX 19 27 80 28 20 29 79 30 21 31 22 32 23 33 73 34 24 35 78 36
REMARK SMILES IDX 72 37 74 38 25 39 77 40 71 41 70 42 26 44 58 45 38 46 57 47
REMARK SMILES IDX 39 48 42 49 56 50 75 51 40 52 41 53 55 55 76 56 43 57 27 58
REMARK SMILES IDX 28 59 36 60 29 61 30 62 34 63 37 64 31 65 32 66 35 67 33 68
REMARK SMILES IDX 59 69 60 70 68 71 61 72 62 73 66 74 69 75 63 76 64 77 67 78
REMARK SMILES IDX 65 79 44 80 45 81 53 82 46 83 47 84 51 85 54 86 48 87 49 88
REMARK SMILES IDX 52 89 50 90
REMARK H PARENT 11 5 5 19 15 24 74 43 42 54
REMARK Flexibility Score: inf
ROOT
ATOM      1  C   UNL A   1      37.052  20.662  24.685  1.00  0.00     0.117 C 
ENDROOT
BRANCH   1   2
ATOM      2  N   UNL A   1      36.073  20.728  25.754  1.00  0.00    -0.356 N 
ATOM      3  C   UNL A   1      34.806  21.225  25.788  1.00  0.00     0.220 C 
ATOM      4  O   UNL A   1      34.235  21.223  26.882  1.00  0.00    -0.275 OA
ATOM      5  H   UNL A   1      36.380  20.346  26.608  1.00  0.00     0.163 HD
BRANCH   3   6
ATOM      6  C   UNL A   1      34.073  21.717  24.536  1.00  0.00     0.112 C 
BRANCH   6   7
ATOM      7  C   UNL A   1      32.624  21.168  24.216  1.00  0.00     0.028 C 
ATOM      8  C   UNL A   1      32.200  21.727  22.834  1.00  0.00     0.013 C 
ATOM      9  C   UNL A   1      31.622  21.707  25.251  1.00  0.00     0.013 C 
ATOM     10  C   UNL A   1      31.930  23.232  22.785  1.00  0.00     0.001 C 
ATOM     11  C   UNL A   1      31.371  23.214  25.213  1.00  0.00     0.001 C 
ATOM     12  C   UNL A   1      30.895  23.628  23.831  1.00  0.00     0.000 C 
BRANCH   7  13
ATOM     13  C   UNL A   1      32.691  19.579  24.149  1.00  0.00     0.269 C 
BRANCH  13  14
ATOM     14  N   UNL A   1      33.448  18.602  24.939  1.00  0.00    -0.332 N 
ATOM     15  C   UNL A   1      34.136  16.957  23.041  1.00  0.00     0.075 C 
ATOM     16  C   UNL A   1      33.880  17.265  24.497  1.00  0.00     0.186 C 
ATOM     17  C   UNL A   1      32.683  16.667  25.268  1.00  0.00     0.126 C 
ATOM     18  C   UNL A   1      32.730  17.994  26.071  1.00  0.00     0.268 C 
ATOM     19  H   UNL A   1      34.195  19.291  25.013  1.00  0.00     0.348 HD
ENDBRANCH  13  14
ENDBRANCH   7  13
ENDBRANCH   6   7
ENDBRANCH   3   6
ENDBRANCH   1   2
BRANCH   1  20
ATOM     20  C   UNL A   1      38.095  19.586  24.973  1.00  0.00     0.042 C 
BRANCH  20  21
ATOM     21  C   UNL A   1      39.256  20.054  25.825  1.00  0.00     0.118 C 
BRANCH  21  22
ATOM     22  N   UNL A   1      40.298  19.044  25.939  1.00  0.00    -0.352 N 
ATOM     23  C   UNL A   1      41.656  19.198  26.092  1.00  0.00     0.251 C 
ATOM     24  H   UNL A   1      39.983  18.112  25.903  1.00  0.00     0.163 HD
ATOM     25  O   UNL A   1      42.398  18.227  25.949  1.00  0.00    -0.269 OA
BRANCH  23  26
ATOM     26  C   UNL A   1      42.238  20.526  26.401  1.00  0.00     0.039 A 
ATOM     27  C   UNL A   1      42.709  21.330  25.358  1.00  0.00     0.014 A 
ATOM     28  C   UNL A   1      42.331  20.980  27.718  1.00  0.00     0.014 A 
ATOM     29  C   UNL A   1      43.205  22.609  25.632  1.00  0.00     0.010 A 
ATOM     30  C   UNL A   1      42.708  22.292  27.976  1.00  0.00     0.010 A 
ATOM     31  C   UNL A   1      43.172  23.116  26.940  1.00  0.00    -0.014 A 
BRANCH  31  32
ATOM     32  C   UNL A   1      43.653  24.480  27.276  1.00  0.00     0.031 A 
ATOM     33  C   UNL A   1      42.686  25.492  27.830  1.00  0.00     0.074 A 
ATOM     34  C   UNL A   1      44.922  24.838  27.001  1.00  0.00     0.049 A 
ATOM     35  N   UNL A   1      42.857  26.769  28.063  1.00  0.00    -0.248 NA
ATOM     36  C   UNL A   1      41.327  25.009  28.125  1.00  0.00     0.031 C 
ATOM     37  C   UNL A   1      45.947  23.960  26.435  1.00  0.00     0.029 A 
ATOM     38  N   UNL A   1      45.562  26.044  27.147  1.00  0.00    -0.354 N 
ATOM     39  C   UNL A   1      41.624  27.242  28.494  1.00  0.00     0.074 A 
ATOM     40  C   UNL A   1      40.699  26.132  28.433  1.00  0.00     0.031 C 
ATOM     41  C   UNL A   1      47.094  24.647  26.312  1.00  0.00     0.029 A 
ATOM     42  C   UNL A   1      46.873  26.025  26.738  1.00  0.00     0.049 A 
ATOM     43  H   UNL A   1      45.123  26.847  27.511  1.00  0.00     0.167 HD
ATOM     44  C   UNL A   1      41.297  28.484  28.924  1.00  0.00     0.037 A 
ATOM     45  C   UNL A   1      47.788  27.013  26.702  1.00  0.00     0.037 A 
ATOM     46  C   UNL A   1      42.233  29.574  29.012  1.00  0.00     0.049 A 
ATOM     47  C   UNL A   1      47.395  28.392  27.159  1.00  0.00     0.074 A 
ATOM     48  C   UNL A   1      42.026  30.851  29.502  1.00  0.00     0.029 A 
ATOM     49  N   UNL A   1      43.554  29.514  28.593  1.00  0.00    -0.354 N 
ATOM     50  N   UNL A   1      46.246  28.814  27.630  1.00  0.00    -0.248 NA
ATOM     51  C   UNL A   1      48.427  29.434  27.080  1.00  0.00     0.031 C 
ATOM     52  C   UNL A   1      43.205  31.582  29.318  1.00  0.00     0.029 A 
ATOM     53  C   UNL A   1      44.166  30.742  28.782  1.00  0.00     0.049 A 
ATOM     54  H   UNL A   1      43.992  28.715  28.217  1.00  0.00     0.167 HD
ATOM     55  C   UNL A   1      46.428  30.154  27.942  1.00  0.00     0.074 A 
ATOM     56  C   UNL A   1      47.801  30.476  27.610  1.00  0.00     0.031 C 
ATOM     57  C   UNL A   1      45.541  31.038  28.462  1.00  0.00     0.037 A 
BRANCH  44  58
ATOM     58  C   UNL A   1      39.866  28.730  29.316  1.00  0.00     0.064 A 
ATOM     59  C   UNL A   1      38.914  29.206  28.400  1.00  0.00     0.173 A 
ATOM     60  C   UNL A   1      39.439  28.481  30.630  1.00  0.00     0.173 A 
ATOM     61  F   UNL A   1      39.269  29.472  27.134  1.00  0.00    -0.203 F 
ATOM     62  C   UNL A   1      37.604  29.468  28.795  1.00  0.00     0.198 A 
ATOM     63  C   UNL A   1      38.118  28.706  31.011  1.00  0.00     0.198 A 
ATOM     64  F   UNL A   1      40.301  28.017  31.547  1.00  0.00    -0.203 F 
ATOM     65  F   UNL A   1      36.735  29.991  27.921  1.00  0.00    -0.200 F 
ATOM     66  C   UNL A   1      37.206  29.212  30.098  1.00  0.00     0.200 A 
ATOM     67  F   UNL A   1      37.731  28.442  32.267  1.00  0.00    -0.200 F 
ATOM     68  F   UNL A   1      35.945  29.464  30.477  1.00  0.00    -0.200 F 
ENDBRANCH  44  58
BRANCH  45  69
ATOM     69  C   UNL A   1      49.177  26.726  26.252  1.00  0.00     0.064 A 
ATOM     70  C   UNL A   1      49.556  26.956  24.921  1.00  0.00     0.173 A 
ATOM     71  C   UNL A   1      50.149  26.224  27.128  1.00  0.00     0.173 A 
ATOM     72  F   UNL A   1      48.656  27.418  24.040  1.00  0.00    -0.203 F 
ATOM     73  C   UNL A   1      50.846  26.676  24.480  1.00  0.00     0.198 A 
ATOM     74  C   UNL A   1      51.449  25.973  26.693  1.00  0.00     0.198 A 
ATOM     75  F   UNL A   1      49.841  25.992  28.413  1.00  0.00    -0.203 F 
ATOM     76  F   UNL A   1      51.167  26.864  23.193  1.00  0.00    -0.200 F 
ATOM     77  C   UNL A   1      51.795  26.192  25.368  1.00  0.00     0.200 A 
ATOM     78  F   UNL A   1      52.367  25.521  27.558  1.00  0.00    -0.200 F 
ATOM     79  F   UNL A   1      53.038  25.929  24.945  1.00  0.00    -0.200 F 
ENDBRANCH  45  69
BRANCH  57  80
ATOM     80  C   UNL A   1      46.037  32.423  28.764  1.00  0.00     0.064 A 
ATOM     81  C   UNL A   1      45.940  33.466  27.831  1.00  0.00     0.173 A 
ATOM     82  C   UNL A   1      46.567  32.721  30.029  1.00  0.00     0.173 A 
ATOM     83  F   UNL A   1      45.455  33.232  26.603  1.00  0.00    -0.203 F 
ATOM     84  C   UNL A   1      46.377  34.751  28.147  1.00  0.00     0.198 A 
ATOM     85  C   UNL A   1      46.970  34.013  30.353  1.00  0.00     0.198 A 
ATOM     86  F   UNL A   1      46.676  31.761  30.959  1.00  0.00    -0.203 F 
ATOM     87  F   UNL A   1      46.319  35.721  27.225  1.00  0.00    -0.200 F 
ATOM     88  C   UNL A   1      46.881  35.025  29.410  1.00  0.00     0.200 A 
ATOM     89  F   UNL A   1      47.439  34.279  31.580  1.00  0.00    -0.200 F 
ATOM     90  F   UNL A   1      47.286  36.265  29.717  1.00  0.00    -0.200 F 
ENDBRANCH  57  80
ENDBRANCH  31  32
ENDBRANCH  23  26
ENDBRANCH  21  22
ENDBRANCH  20  21
ENDBRANCH   1  20
TORSDOF 13
ENDMDL
MODEL 3
REMARK VINA RESULT:     -12.0      1.443      2.954
REMARK SMILES C[C@@H]1CC[N@@H+]1CC1(CC(=O)NCCCNC(=O)c2ccc(-c3c4nc(c(-c5c(F)c(F)c(F)c(F)c5F)c5ccc([nH]5)c(-c5c(F)c(F)c(F)c(F)c5F)c5nc(c(-c6c(F)c(F)c(F)c(F)c6F)c6ccc3[nH]6)C=C5)C=C4)cc2)CCCCC1
REMARK SMILES IDX 12 1 11 2 9 3 10 4 8 6 7 7 81 8 85 9 82 10 84 11 83 12 6 13
REMARK SMILES IDX 5 14 1 15 2 16 3 17 4 18 13 20 14 21 15 22 16 23 17 25 18 26
REMARK SMILES IDX 19 27 80 28 20 29 79 30 21 31 22 32 23 33 73 34 24 35 78 36
REMARK SMILES IDX 72 37 74 38 25 39 77 40 71 41 70 42 26 44 58 45 38 46 57 47
REMARK SMILES IDX 39 48 42 49 56 50 75 51 40 52 41 53 55 55 76 56 43 57 27 58
REMARK SMILES IDX 28 59 36 60 29 61 30 62 34 63 37 64 31 65 32 66 35 67 33 68
REMARK SMILES IDX 59 69 60 70 68 71 61 72 62 73 66 74 69 75 63 76 64 77 67 78
REMARK SMILES IDX 65 79 44 80 45 81 53 82 46 83 47 84 51 85 54 86 48 87 49 88
REMARK SMILES IDX 52 89 50 90
REMARK H PARENT 11 5 5 19 15 24 74 43 42 54
REMARK Flexibility Score: inf
ROOT
ATOM      1  C   UNL A   1      31.659  30.746  25.906  1.00  0.00     0.117 C 
ENDROOT
BRANCH   1   2
ATOM      2  N   UNL A   1      31.776  29.740  26.945  1.00  0.00    -0.356 N 
ATOM      3  C   UNL A   1      31.587  28.393  26.922  1.00  0.00     0.220 C 
ATOM      4  O   UNL A   1      31.675  27.799  28.001  1.00  0.00    -0.275 OA
ATOM      5  H   UNL A   1      32.040  30.096  27.824  1.00  0.00     0.163 HD
BRANCH   3   6
ATOM      6  C   UNL A   1      31.333  27.611  25.629  1.00  0.00     0.112 C 
BRANCH   6   7
ATOM      7  C   UNL A   1      32.452  26.641  25.073  1.00  0.00     0.028 C 
ATOM      8  C   UNL A   1      33.774  27.446  24.981  1.00  0.00     0.013 C 
ATOM      9  C   UNL A   1      32.093  26.194  23.645  1.00  0.00     0.013 C 
ATOM     10  C   UNL A   1      33.810  28.536  23.909  1.00  0.00     0.001 C 
ATOM     11  C   UNL A   1      32.109  27.290  22.581  1.00  0.00     0.001 C 
ATOM     12  C   UNL A   1      33.474  27.957  22.540  1.00  0.00     0.000 C 
BRANCH   7  13
ATOM     13  C   UNL A   1      32.632  25.438  26.100  1.00  0.00     0.269 C 
BRANCH  13  14
ATOM     14  N   UNL A   1      31.654  24.655  26.863  1.00  0.00    -0.332 N 
ATOM     15  C   UNL A   1      33.125  22.587  27.448  1.00  0.00     0.075 C 
ATOM     16  C   UNL A   1      31.778  23.240  27.251  1.00  0.00     0.186 C 
ATOM     17  C   UNL A   1      30.851  22.877  26.069  1.00  0.00     0.126 C 
ATOM     18  C   UNL A   1      30.390  24.355  26.174  1.00  0.00     0.268 C 
ATOM     19  H   UNL A   1      31.770  25.320  27.628  1.00  0.00     0.348 HD
ENDBRANCH  13  14
ENDBRANCH   7  13
ENDBRANCH   6   7
ENDBRANCH   3   6
ENDBRANCH   1   2
BRANCH   1  20
ATOM     20  C   UNL A   1      31.403  32.123  26.512  1.00  0.00     0.042 C 
BRANCH  20  21
ATOM     21  C   UNL A   1      32.584  32.705  27.259  1.00  0.00     0.118 C 
BRANCH  21  22
ATOM     22  N   UNL A   1      32.389  34.108  27.592  1.00  0.00    -0.352 N 
ATOM     23  C   UNL A   1      32.984  34.868  28.572  1.00  0.00     0.251 C 
ATOM     24  H   UNL A   1      31.734  34.584  27.032  1.00  0.00     0.163 HD
ATOM     25  O   UNL A   1      32.527  35.979  28.841  1.00  0.00    -0.269 OA
BRANCH  23  26
ATOM     26  C   UNL A   1      34.152  34.355  29.325  1.00  0.00     0.039 A 
ATOM     27  C   UNL A   1      33.952  33.721  30.556  1.00  0.00     0.014 A 
ATOM     28  C   UNL A   1      35.448  34.501  28.829  1.00  0.00     0.014 A 
ATOM     29  C   UNL A   1      35.040  33.179  31.247  1.00  0.00     0.010 A 
ATOM     30  C   UNL A   1      36.510  33.859  29.453  1.00  0.00     0.010 A 
ATOM     31  C   UNL A   1      36.324  33.209  30.682  1.00  0.00    -0.014 A 
BRANCH  31  32
ATOM     32  C   UNL A   1      37.505  32.616  31.360  1.00  0.00     0.031 A 
ATOM     33  C   UNL A   1      38.257  31.495  30.692  1.00  0.00     0.074 A 
ATOM     34  C   UNL A   1      37.844  33.012  32.601  1.00  0.00     0.049 A 
ATOM     35  N   UNL A   1      39.225  30.746  31.159  1.00  0.00    -0.248 NA
ATOM     36  C   UNL A   1      37.837  31.144  29.326  1.00  0.00     0.031 C 
ATOM     37  C   UNL A   1      37.175  34.064  33.367  1.00  0.00     0.029 A 
ATOM     38  N   UNL A   1      38.830  32.563  33.445  1.00  0.00    -0.354 N 
ATOM     39  C   UNL A   1      39.498  29.819  30.161  1.00  0.00     0.074 A 
ATOM     40  C   UNL A   1      38.557  30.059  29.089  1.00  0.00     0.031 C 
ATOM     41  C   UNL A   1      37.789  34.201  34.554  1.00  0.00     0.029 A 
ATOM     42  C   UNL A   1      38.858  33.212  34.655  1.00  0.00     0.049 A 
ATOM     43  H   UNL A   1      39.457  31.843  33.205  1.00  0.00     0.167 HD
ATOM     44  C   UNL A   1      40.462  28.869  30.130  1.00  0.00     0.037 A 
ATOM     45  C   UNL A   1      39.652  33.023  35.726  1.00  0.00     0.037 A 
ATOM     46  C   UNL A   1      41.416  28.660  31.187  1.00  0.00     0.049 A 
ATOM     47  C   UNL A   1      40.699  31.942  35.680  1.00  0.00     0.074 A 
ATOM     48  C   UNL A   1      42.479  27.775  31.228  1.00  0.00     0.029 A 
ATOM     49  N   UNL A   1      41.415  29.342  32.395  1.00  0.00    -0.354 N 
ATOM     50  N   UNL A   1      40.995  31.116  34.705  1.00  0.00    -0.248 NA
ATOM     51  C   UNL A   1      41.522  31.768  36.884  1.00  0.00     0.031 C 
ATOM     52  C   UNL A   1      43.081  27.877  32.486  1.00  0.00     0.029 A 
ATOM     53  C   UNL A   1      42.440  28.875  33.202  1.00  0.00     0.049 A 
ATOM     54  H   UNL A   1      40.781  30.054  32.641  1.00  0.00     0.167 HD
ATOM     55  C   UNL A   1      42.064  30.355  35.161  1.00  0.00     0.074 A 
ATOM     56  C   UNL A   1      42.366  30.820  36.499  1.00  0.00     0.031 C 
ATOM     57  C   UNL A   1      42.737  29.364  34.526  1.00  0.00     0.037 A 
BRANCH  44  58
ATOM     58  C   UNL A   1      40.520  27.976  28.920  1.00  0.00     0.064 A 
ATOM     59  C   UNL A   1      39.795  26.777  28.844  1.00  0.00     0.173 A 
ATOM     60  C   UNL A   1      41.312  28.330  27.816  1.00  0.00     0.173 A 
ATOM     61  F   UNL A   1      39.031  26.383  29.875  1.00  0.00    -0.203 F 
ATOM     62  C   UNL A   1      39.897  25.944  27.733  1.00  0.00     0.198 A 
ATOM     63  C   UNL A   1      41.381  27.514  26.689  1.00  0.00     0.198 A 
ATOM     64  F   UNL A   1      42.020  29.470  27.827  1.00  0.00    -0.203 F 
ATOM     65  F   UNL A   1      39.253  24.769  27.717  1.00  0.00    -0.200 F 
ATOM     66  C   UNL A   1      40.684  26.316  26.654  1.00  0.00     0.200 A 
ATOM     67  F   UNL A   1      42.128  27.885  25.641  1.00  0.00    -0.200 F 
ATOM     68  F   UNL A   1      40.781  25.514  25.585  1.00  0.00    -0.200 F 
ENDBRANCH  44  58
BRANCH  45  69
ATOM     69  C   UNL A   1      39.514  33.900  36.920  1.00  0.00     0.064 A 
ATOM     70  C   UNL A   1      40.162  35.143  36.969  1.00  0.00     0.173 A 
ATOM     71  C   UNL A   1      38.740  33.524  38.027  1.00  0.00     0.173 A 
ATOM     72  F   UNL A   1      40.929  35.538  35.943  1.00  0.00    -0.203 F 
ATOM     73  C   UNL A   1      40.057  35.967  38.087  1.00  0.00     0.198 A 
ATOM     74  C   UNL A   1      38.611  34.363  39.132  1.00  0.00     0.198 A 
ATOM     75  F   UNL A   1      38.094  32.349  38.029  1.00  0.00    -0.203 F 
ATOM     76  F   UNL A   1      40.723  37.129  38.124  1.00  0.00    -0.200 F 
ATOM     77  C   UNL A   1      39.275  35.580  39.165  1.00  0.00     0.200 A 
ATOM     78  F   UNL A   1      37.841  33.994  40.165  1.00  0.00    -0.200 F 
ATOM     79  F   UNL A   1      39.169  36.376  40.237  1.00  0.00    -0.200 F 
ENDBRANCH  45  69
BRANCH  57  80
ATOM     80  C   UNL A   1      43.908  28.752  35.241  1.00  0.00     0.064 A 
ATOM     81  C   UNL A   1      43.770  27.624  36.062  1.00  0.00     0.173 A 
ATOM     82  C   UNL A   1      45.198  29.275  35.055  1.00  0.00     0.173 A 
ATOM     83  F   UNL A   1      42.558  27.095  36.285  1.00  0.00    -0.203 F 
ATOM     84  C   UNL A   1      44.877  27.055  36.688  1.00  0.00     0.198 A 
ATOM     85  C   UNL A   1      46.306  28.682  35.653  1.00  0.00     0.198 A 
ATOM     86  F   UNL A   1      45.386  30.349  34.274  1.00  0.00    -0.203 F 
ATOM     87  F   UNL A   1      44.716  26.005  37.505  1.00  0.00    -0.200 F 
ATOM     88  C   UNL A   1      46.144  27.577  36.474  1.00  0.00     0.200 A 
ATOM     89  F   UNL A   1      47.531  29.178  35.430  1.00  0.00    -0.200 F 
ATOM     90  F   UNL A   1      47.209  27.019  37.064  1.00  0.00    -0.200 F 
ENDBRANCH  57  80
ENDBRANCH  31  32
ENDBRANCH  23  26
ENDBRANCH  21  22
ENDBRANCH  20  21
ENDBRANCH   1  20
TORSDOF 13
ENDMDL
