MODEL 1
REMARK VINA RESULT:     -11.5      0.000      0.000
REMARK SMILES Cc1noc(C)c1[C@@H](C)NC(=O)N(CC(=O)NCCCNC(=O)c1ccc(-c2c3nc(c(-c4c(F)c(F)c(F)c(F)c4F)c4ccc([nH]4)c(-c4c(F)c(F)c(F)c(F)c4F)c4nc(c(-c5c(F)c(F)c(F)c(F)c5F)c5ccc2[nH]5)C=C4)C=C3)cc1)C(C)C
REMARK SMILES IDX 18 1 17 2 15 3 16 4 14 6 13 7 11 8 10 9 12 11 8 12 9 13 7 14
REMARK SMILES IDX 1 15 2 16 3 17 4 18 5 19 6 20 87 21 88 22 89 23 19 24 20 25
REMARK SMILES IDX 21 26 22 27 23 29 24 30 25 31 86 32 26 33 85 34 27 35 28 36
REMARK SMILES IDX 29 37 79 38 30 39 84 40 78 41 80 42 31 43 83 44 77 45 76 46
REMARK SMILES IDX 32 48 64 49 44 50 63 51 45 52 48 53 62 54 81 55 46 56 47 57
REMARK SMILES IDX 61 59 82 60 49 61 33 62 34 63 42 64 35 65 36 66 40 67 43 68
REMARK SMILES IDX 37 69 38 70 41 71 39 72 65 73 66 74 74 75 67 76 68 77 72 78
REMARK SMILES IDX 75 79 69 80 70 81 73 82 71 83 50 84 51 85 59 86 52 87 53 88
REMARK SMILES IDX 57 89 60 90 54 91 55 92 58 93 56 94
REMARK H PARENT 17 5 10 10 21 28 80 47 48 58
REMARK Flexibility Score: inf
ROOT
ATOM      1  C   UNL A   1      32.694  26.745  26.082  1.00  0.00     0.117 C 
ENDROOT
BRANCH   1   2
ATOM      2  N   UNL A   1      31.818  25.767  26.680  1.00  0.00    -0.354 N 
ATOM      3  C   UNL A   1      31.731  24.427  26.433  1.00  0.00     0.239 C 
ATOM      4  O   UNL A   1      31.111  23.745  27.255  1.00  0.00    -0.273 OA
ATOM      5  H   UNL A   1      31.196  26.113  27.359  1.00  0.00     0.163 HD
BRANCH   3   6
ATOM      6  C   UNL A   1      32.489  23.753  25.274  1.00  0.00     0.221 C 
BRANCH   6   7
ATOM      7  N   UNL A   1      33.199  22.512  25.600  1.00  0.00    -0.313 N 
BRANCH   7   8
ATOM      8  C   UNL A   1      34.169  22.305  26.539  1.00  0.00     0.318 C 
ATOM      9  N   UNL A   1      35.469  22.613  26.417  1.00  0.00    -0.331 N 
ATOM     10  H   UNL A   1      35.927  22.404  27.264  1.00  0.00     0.165 HD
ATOM     11  O   UNL A   1      33.905  21.782  27.628  1.00  0.00    -0.249 OA
BRANCH   9  12
ATOM     12  C   UNL A   1      36.445  23.148  25.468  1.00  0.00     0.116 C 
ATOM     13  C   UNL A   1      36.064  22.772  24.029  1.00  0.00     0.036 C 
BRANCH  12  14
ATOM     14  C   UNL A   1      37.802  22.655  25.859  1.00  0.00     0.040 A 
ATOM     15  C   UNL A   1      37.863  20.161  25.003  1.00  0.00     0.071 C 
ATOM     16  C   UNL A   1      38.411  21.378  25.650  1.00  0.00     0.086 A 
ATOM     17  N   UNL A   1      39.664  21.350  26.115  1.00  0.00    -0.085 NA
ATOM     18  O   UNL A   1      39.896  22.593  26.658  1.00  0.00    -0.361 OA
ATOM     19  C   UNL A   1      38.792  23.368  26.508  1.00  0.00     0.139 A 
ATOM     20  C   UNL A   1      38.895  24.737  27.048  1.00  0.00     0.091 C 
ENDBRANCH  12  14
ENDBRANCH   9  12
ENDBRANCH   7   8
BRANCH   7  21
ATOM     21  C   UNL A   1      32.711  21.343  24.807  1.00  0.00     0.081 C 
ATOM     22  C   UNL A   1      32.461  21.650  23.330  1.00  0.00     0.031 C 
ATOM     23  C   UNL A   1      33.572  20.088  24.979  1.00  0.00     0.031 C 
ENDBRANCH   7  21
ENDBRANCH   6   7
ENDBRANCH   3   6
ENDBRANCH   1   2
BRANCH   1  24
ATOM     24  C   UNL A   1      32.329  28.191  26.370  1.00  0.00     0.042 C 
BRANCH  24  25
ATOM     25  C   UNL A   1      33.334  29.192  25.826  1.00  0.00     0.118 C 
BRANCH  25  26
ATOM     26  N   UNL A   1      33.001  30.559  26.198  1.00  0.00    -0.352 N 
ATOM     27  C   UNL A   1      33.534  31.354  27.180  1.00  0.00     0.251 C 
ATOM     28  H   UNL A   1      32.287  30.975  25.663  1.00  0.00     0.163 HD
ATOM     29  O   UNL A   1      32.980  32.412  27.464  1.00  0.00    -0.269 OA
BRANCH  27  30
ATOM     30  C   UNL A   1      34.755  30.942  27.910  1.00  0.00     0.039 A 
ATOM     31  C   UNL A   1      35.816  31.847  27.998  1.00  0.00     0.014 A 
ATOM     32  C   UNL A   1      34.881  29.667  28.470  1.00  0.00     0.014 A 
ATOM     33  C   UNL A   1      36.983  31.487  28.676  1.00  0.00     0.010 A 
ATOM     34  C   UNL A   1      36.009  29.340  29.218  1.00  0.00     0.010 A 
ATOM     35  C   UNL A   1      37.080  30.240  29.312  1.00  0.00    -0.014 A 
BRANCH  35  36
ATOM     36  C   UNL A   1      38.307  29.867  30.061  1.00  0.00     0.031 A 
ATOM     37  C   UNL A   1      38.522  30.358  31.467  1.00  0.00     0.074 A 
ATOM     38  C   UNL A   1      39.245  29.109  29.460  1.00  0.00     0.049 A 
ATOM     39  N   UNL A   1      39.522  30.125  32.282  1.00  0.00    -0.248 NA
ATOM     40  C   UNL A   1      37.496  31.254  32.026  1.00  0.00     0.031 C 
ATOM     41  C   UNL A   1      39.188  28.637  28.075  1.00  0.00     0.029 A 
ATOM     42  N   UNL A   1      40.430  28.606  29.934  1.00  0.00    -0.354 N 
ATOM     43  C   UNL A   1      39.253  30.855  33.432  1.00  0.00     0.074 A 
ATOM     44  C   UNL A   1      38.025  31.582  33.196  1.00  0.00     0.031 C 
ATOM     45  C   UNL A   1      40.274  27.889  27.821  1.00  0.00     0.029 A 
ATOM     46  C   UNL A   1      41.113  27.849  29.015  1.00  0.00     0.049 A 
ATOM     47  H   UNL A   1      40.759  28.772  30.847  1.00  0.00     0.167 HD
ATOM     48  C   UNL A   1      39.954  30.896  34.591  1.00  0.00     0.037 A 
ATOM     49  C   UNL A   1      42.282  27.190  29.125  1.00  0.00     0.037 A 
ATOM     50  C   UNL A   1      41.153  30.139  34.837  1.00  0.00     0.049 A 
ATOM     51  C   UNL A   1      43.008  27.205  30.444  1.00  0.00     0.074 A 
ATOM     52  C   UNL A   1      41.889  30.044  36.005  1.00  0.00     0.029 A 
ATOM     53  N   UNL A   1      41.792  29.345  33.897  1.00  0.00    -0.354 N 
ATOM     54  N   UNL A   1      42.691  27.821  31.557  1.00  0.00    -0.248 NA
ATOM     55  C   UNL A   1      44.245  26.417  30.526  1.00  0.00     0.031 C 
ATOM     56  C   UNL A   1      42.997  29.227  35.760  1.00  0.00     0.029 A 
ATOM     57  C   UNL A   1      42.925  28.772  34.453  1.00  0.00     0.049 A 
ATOM     58  H   UNL A   1      41.485  29.208  32.971  1.00  0.00     0.167 HD
ATOM     59  C   UNL A   1      43.673  27.479  32.475  1.00  0.00     0.074 A 
ATOM     60  C   UNL A   1      44.581  26.577  31.797  1.00  0.00     0.031 C 
ATOM     61  C   UNL A   1      43.817  27.878  33.763  1.00  0.00     0.037 A 
BRANCH  48  62
ATOM     62  C   UNL A   1      39.438  31.778  35.691  1.00  0.00     0.064 A 
ATOM     63  C   UNL A   1      38.489  31.322  36.617  1.00  0.00     0.173 A 
ATOM     64  C   UNL A   1      39.942  33.078  35.856  1.00  0.00     0.173 A 
ATOM     65  F   UNL A   1      37.964  30.092  36.498  1.00  0.00    -0.203 F 
ATOM     66  C   UNL A   1      38.047  32.140  37.654  1.00  0.00     0.198 A 
ATOM     67  C   UNL A   1      39.521  33.882  36.911  1.00  0.00     0.198 A 
ATOM     68  F   UNL A   1      40.855  33.562  35.000  1.00  0.00    -0.203 F 
ATOM     69  F   UNL A   1      37.110  31.697  38.503  1.00  0.00    -0.200 F 
ATOM     70  C   UNL A   1      38.570  33.416  37.806  1.00  0.00     0.200 A 
ATOM     71  F   UNL A   1      40.037  35.109  37.063  1.00  0.00    -0.200 F 
ATOM     72  F   UNL A   1      38.156  34.197  38.812  1.00  0.00    -0.200 F 
ENDBRANCH  48  62
BRANCH  49  73
ATOM     73  C   UNL A   1      42.823  26.431  27.968  1.00  0.00     0.064 A 
ATOM     74  C   UNL A   1      42.573  25.059  27.822  1.00  0.00     0.173 A 
ATOM     75  C   UNL A   1      43.612  27.057  26.993  1.00  0.00     0.173 A 
ATOM     76  F   UNL A   1      41.838  24.411  28.738  1.00  0.00    -0.203 F 
ATOM     77  C   UNL A   1      43.119  24.336  26.763  1.00  0.00     0.198 A 
ATOM     78  C   UNL A   1      44.131  26.340  25.917  1.00  0.00     0.198 A 
ATOM     79  F   UNL A   1      43.874  28.369  27.081  1.00  0.00    -0.203 F 
ATOM     80  F   UNL A   1      42.910  23.016  26.679  1.00  0.00    -0.200 F 
ATOM     81  C   UNL A   1      43.894  24.978  25.809  1.00  0.00     0.200 A 
ATOM     82  F   UNL A   1      44.868  26.966  24.990  1.00  0.00    -0.200 F 
ATOM     83  F   UNL A   1      44.419  24.282  24.792  1.00  0.00    -0.200 F 
ENDBRANCH  49  73
BRANCH  61  84
ATOM     84  C   UNL A   1      44.985  27.321  34.523  1.00  0.00     0.064 A 
ATOM     85  C   UNL A   1      44.892  26.114  35.234  1.00  0.00     0.173 A 
ATOM     86  C   UNL A   1      46.214  27.997  34.535  1.00  0.00     0.173 A 
ATOM     87  F   UNL A   1      43.734  25.437  35.265  1.00  0.00    -0.203 F 
ATOM     88  C   UNL A   1      45.974  25.627  35.960  1.00  0.00     0.198 A 
ATOM     89  C   UNL A   1      47.304  27.490  35.236  1.00  0.00     0.198 A 
ATOM     90  F   UNL A   1      46.359  29.150  33.864  1.00  0.00    -0.203 F 
ATOM     91  F   UNL A   1      45.843  24.506  36.682  1.00  0.00    -0.200 F 
ATOM     92  C   UNL A   1      47.180  26.311  35.956  1.00  0.00     0.200 A 
ATOM     93  F   UNL A   1      48.474  28.145  35.220  1.00  0.00    -0.200 F 
ATOM     94  F   UNL A   1      48.220  25.842  36.659  1.00  0.00    -0.200 F 
ENDBRANCH  61  84
ENDBRANCH  35  36
ENDBRANCH  27  30
ENDBRANCH  25  26
ENDBRANCH  24  25
ENDBRANCH   1  24
TORSDOF 15
ENDMDL
MODEL 2
REMARK VINA RESULT:     -11.4      2.806      4.178
REMARK SMILES Cc1noc(C)c1[C@@H](C)NC(=O)N(CC(=O)NCCCNC(=O)c1ccc(-c2c3nc(c(-c4c(F)c(F)c(F)c(F)c4F)c4ccc([nH]4)c(-c4c(F)c(F)c(F)c(F)c4F)c4nc(c(-c5c(F)c(F)c(F)c(F)c5F)c5ccc2[nH]5)C=C4)C=C3)cc1)C(C)C
REMARK SMILES IDX 18 1 17 2 15 3 16 4 14 6 13 7 11 8 10 9 12 11 8 12 9 13 7 14
REMARK SMILES IDX 1 15 2 16 3 17 4 18 5 19 6 20 87 21 88 22 89 23 19 24 20 25
REMARK SMILES IDX 21 26 22 27 23 29 24 30 25 31 86 32 26 33 85 34 27 35 28 36
REMARK SMILES IDX 29 37 79 38 30 39 84 40 78 41 80 42 31 43 83 44 77 45 76 46
REMARK SMILES IDX 32 48 64 49 44 50 63 51 45 52 48 53 62 54 81 55 46 56 47 57
REMARK SMILES IDX 61 59 82 60 49 61 33 62 34 63 42 64 35 65 36 66 40 67 43 68
REMARK SMILES IDX 37 69 38 70 41 71 39 72 65 73 66 74 74 75 67 76 68 77 72 78
REMARK SMILES IDX 75 79 69 80 70 81 73 82 71 83 50 84 51 85 59 86 52 87 53 88
REMARK SMILES IDX 57 89 60 90 54 91 55 92 58 93 56 94
REMARK H PARENT 17 5 10 10 21 28 80 47 48 58
REMARK Flexibility Score: inf
ROOT
ATOM      1  C   UNL A   1      31.256  30.636  25.561  1.00  0.00     0.117 C 
ENDROOT
BRANCH   1   2
ATOM      2  N   UNL A   1      30.557  30.644  24.299  1.00  0.00    -0.354 N 
ATOM      3  C   UNL A   1      30.163  29.588  23.529  1.00  0.00     0.239 C 
ATOM      4  O   UNL A   1      29.339  29.820  22.638  1.00  0.00    -0.273 OA
ATOM      5  H   UNL A   1      30.333  31.534  23.944  1.00  0.00     0.163 HD
BRANCH   3   6
ATOM      6  C   UNL A   1      30.595  28.141  23.833  1.00  0.00     0.221 C 
BRANCH   6   7
ATOM      7  N   UNL A   1      31.761  27.645  23.097  1.00  0.00    -0.313 N 
BRANCH   7   8
ATOM      8  C   UNL A   1      33.062  28.051  23.184  1.00  0.00     0.318 C 
ATOM      9  N   UNL A   1      33.964  27.636  24.087  1.00  0.00    -0.331 N 
ATOM     10  H   UNL A   1      34.834  28.050  23.883  1.00  0.00     0.165 HD
ATOM     11  O   UNL A   1      33.528  28.884  22.397  1.00  0.00    -0.249 OA
BRANCH   9  12
ATOM     12  C   UNL A   1      34.107  26.785  25.268  1.00  0.00     0.116 C 
ATOM     13  C   UNL A   1      33.826  25.317  24.916  1.00  0.00     0.036 C 
BRANCH  12  14
ATOM     14  C   UNL A   1      33.205  27.310  26.339  1.00  0.00     0.040 A 
ATOM     15  C   UNL A   1      31.120  25.695  26.287  1.00  0.00     0.071 C 
ATOM     16  C   UNL A   1      31.930  26.836  26.781  1.00  0.00     0.086 A 
ATOM     17  N   UNL A   1      31.463  27.562  27.802  1.00  0.00    -0.085 NA
ATOM     18  O   UNL A   1      32.405  28.537  28.036  1.00  0.00    -0.361 OA
ATOM     19  C   UNL A   1      33.439  28.390  27.170  1.00  0.00     0.139 A 
ATOM     20  C   UNL A   1      34.529  29.374  27.304  1.00  0.00     0.091 C 
ENDBRANCH  12  14
ENDBRANCH   9  12
ENDBRANCH   7   8
BRANCH   7  21
ATOM     21  C   UNL A   1      31.428  26.504  22.190  1.00  0.00     0.081 C 
ATOM     22  C   UNL A   1      32.626  25.949  21.419  1.00  0.00     0.031 C 
ATOM     23  C   UNL A   1      30.642  25.385  22.881  1.00  0.00     0.031 C 
ENDBRANCH   7  21
ENDBRANCH   6   7
ENDBRANCH   3   6
ENDBRANCH   1   2
BRANCH   1  24
ATOM     24  C   UNL A   1      31.104  31.904  26.385  1.00  0.00     0.042 C 
BRANCH  24  25
ATOM     25  C   UNL A   1      32.415  32.419  26.955  1.00  0.00     0.118 C 
BRANCH  25  26
ATOM     26  N   UNL A   1      32.318  33.806  27.382  1.00  0.00    -0.352 N 
ATOM     27  C   UNL A   1      33.033  34.481  28.339  1.00  0.00     0.251 C 
ATOM     28  H   UNL A   1      31.636  34.341  26.913  1.00  0.00     0.163 HD
ATOM     29  O   UNL A   1      32.666  35.599  28.688  1.00  0.00    -0.269 OA
BRANCH  27  30
ATOM     30  C   UNL A   1      34.228  33.869  28.963  1.00  0.00     0.039 A 
ATOM     31  C   UNL A   1      34.041  32.888  29.940  1.00  0.00     0.014 A 
ATOM     32  C   UNL A   1      35.523  34.279  28.630  1.00  0.00     0.014 A 
ATOM     33  C   UNL A   1      35.147  32.294  30.551  1.00  0.00     0.010 A 
ATOM     34  C   UNL A   1      36.625  33.628  29.177  1.00  0.00     0.010 A 
ATOM     35  C   UNL A   1      36.449  32.642  30.158  1.00  0.00    -0.014 A 
BRANCH  35  36
ATOM     36  C   UNL A   1      37.628  31.989  30.783  1.00  0.00     0.031 A 
ATOM     37  C   UNL A   1      38.075  32.383  32.165  1.00  0.00     0.074 A 
ATOM     38  C   UNL A   1      38.316  31.063  30.089  1.00  0.00     0.049 A 
ATOM     39  N   UNL A   1      39.070  31.914  32.878  1.00  0.00    -0.248 NA
ATOM     40  C   UNL A   1      37.327  33.465  32.826  1.00  0.00     0.031 C 
ATOM     41  C   UNL A   1      38.030  30.653  28.712  1.00  0.00     0.029 A 
ATOM     42  N   UNL A   1      39.401  30.301  30.443  1.00  0.00    -0.354 N 
ATOM     43  C   UNL A   1      39.075  32.652  34.054  1.00  0.00     0.074 A 
ATOM     44  C   UNL A   1      38.021  33.636  33.942  1.00  0.00     0.031 C 
ATOM     45  C   UNL A   1      38.897  29.694  28.349  1.00  0.00     0.029 A 
ATOM     46  C   UNL A   1      39.813  29.438  29.457  1.00  0.00     0.049 A 
ATOM     47  H   UNL A   1      39.841  30.365  31.321  1.00  0.00     0.167 HD
ATOM     48  C   UNL A   1      39.872  32.507  35.140  1.00  0.00     0.037 A 
ATOM     49  C   UNL A   1      40.813  28.537  29.449  1.00  0.00     0.037 A 
ATOM     50  C   UNL A   1      40.893  31.500  35.264  1.00  0.00     0.049 A 
ATOM     51  C   UNL A   1      41.643  28.357  30.692  1.00  0.00     0.074 A 
ATOM     52  C   UNL A   1      41.695  31.214  36.355  1.00  0.00     0.029 A 
ATOM     53  N   UNL A   1      41.252  30.613  34.261  1.00  0.00    -0.354 N 
ATOM     54  N   UNL A   1      41.574  28.996  31.834  1.00  0.00    -0.248 NA
ATOM     55  C   UNL A   1      42.680  27.316  30.648  1.00  0.00     0.031 C 
ATOM     56  C   UNL A   1      42.569  30.182  35.998  1.00  0.00     0.029 A 
ATOM     57  C   UNL A   1      42.278  29.791  34.701  1.00  0.00     0.049 A 
ATOM     58  H   UNL A   1      40.839  30.572  33.368  1.00  0.00     0.167 HD
ATOM     59  C   UNL A   1      42.538  28.422  32.651  1.00  0.00     0.074 A 
ATOM     60  C   UNL A   1      43.159  27.363  31.882  1.00  0.00     0.031 C 
ATOM     61  C   UNL A   1      42.884  28.744  33.922  1.00  0.00     0.037 A 
BRANCH  48  62
ATOM     62  C   UNL A   1      39.667  33.449  36.291  1.00  0.00     0.064 A 
ATOM     63  C   UNL A   1      40.287  34.707  36.332  1.00  0.00     0.173 A 
ATOM     64  C   UNL A   1      38.793  33.115  37.337  1.00  0.00     0.173 A 
ATOM     65  F   UNL A   1      41.141  35.072  35.363  1.00  0.00    -0.203 F 
ATOM     66  C   UNL A   1      40.058  35.585  37.388  1.00  0.00     0.198 A 
ATOM     67  C   UNL A   1      38.543  34.007  38.375  1.00  0.00     0.198 A 
ATOM     68  F   UNL A   1      38.170  31.926  37.344  1.00  0.00    -0.203 F 
ATOM     69  F   UNL A   1      40.693  36.764  37.427  1.00  0.00    -0.200 F 
ATOM     70  C   UNL A   1      39.179  35.239  38.404  1.00  0.00     0.200 A 
ATOM     71  F   UNL A   1      37.684  33.676  39.349  1.00  0.00    -0.200 F 
ATOM     72  F   UNL A   1      38.948  36.091  39.412  1.00  0.00    -0.200 F 
ENDBRANCH  48  62
BRANCH  49  73
ATOM     73  C   UNL A   1      41.065  27.712  28.239  1.00  0.00     0.064 A 
ATOM     74  C   UNL A   1      41.925  28.158  27.225  1.00  0.00     0.173 A 
ATOM     75  C   UNL A   1      40.440  26.469  28.065  1.00  0.00     0.173 A 
ATOM     76  F   UNL A   1      42.532  29.349  27.338  1.00  0.00    -0.203 F 
ATOM     77  C   UNL A   1      42.125  27.407  26.069  1.00  0.00     0.198 A 
ATOM     78  C   UNL A   1      40.666  25.704  26.922  1.00  0.00     0.198 A 
ATOM     79  F   UNL A   1      39.615  25.993  29.008  1.00  0.00    -0.203 F 
ATOM     80  F   UNL A   1      42.908  27.883  25.092  1.00  0.00    -0.200 F 
ATOM     81  C   UNL A   1      41.499  26.179  25.920  1.00  0.00     0.200 A 
ATOM     82  F   UNL A   1      40.070  24.512  26.788  1.00  0.00    -0.200 F 
ATOM     83  F   UNL A   1      41.691  25.458  24.807  1.00  0.00    -0.200 F 
ENDBRANCH  49  73
BRANCH  61  84
ATOM     84  C   UNL A   1      43.966  27.924  34.562  1.00  0.00     0.064 A 
ATOM     85  C   UNL A   1      43.678  26.734  35.248  1.00  0.00     0.173 A 
ATOM     86  C   UNL A   1      45.307  28.329  34.482  1.00  0.00     0.173 A 
ATOM     87  F   UNL A   1      42.411  26.311  35.364  1.00  0.00    -0.203 F 
ATOM     88  C   UNL A   1      44.690  26.002  35.863  1.00  0.00     0.198 A 
ATOM     89  C   UNL A   1      46.319  27.577  35.071  1.00  0.00     0.198 A 
ATOM     90  F   UNL A   1      45.637  29.454  33.830  1.00  0.00    -0.203 F 
ATOM     91  F   UNL A   1      44.384  24.903  36.566  1.00  0.00    -0.200 F 
ATOM     92  C   UNL A   1      46.008  26.420  35.771  1.00  0.00     0.200 A 
ATOM     93  F   UNL A   1      47.595  27.975  34.969  1.00  0.00    -0.200 F 
ATOM     94  F   UNL A   1      46.980  25.715  36.367  1.00  0.00    -0.200 F 
ENDBRANCH  61  84
ENDBRANCH  35  36
ENDBRANCH  27  30
ENDBRANCH  25  26
ENDBRANCH  24  25
ENDBRANCH   1  24
TORSDOF 15
ENDMDL
MODEL 3
REMARK VINA RESULT:     -11.4      2.213      3.647
REMARK SMILES Cc1noc(C)c1[C@@H](C)NC(=O)N(CC(=O)NCCCNC(=O)c1ccc(-c2c3nc(c(-c4c(F)c(F)c(F)c(F)c4F)c4ccc([nH]4)c(-c4c(F)c(F)c(F)c(F)c4F)c4nc(c(-c5c(F)c(F)c(F)c(F)c5F)c5ccc2[nH]5)C=C4)C=C3)cc1)C(C)C
REMARK SMILES IDX 18 1 17 2 15 3 16 4 14 6 13 7 11 8 10 9 12 11 8 12 9 13 7 14
REMARK SMILES IDX 1 15 2 16 3 17 4 18 5 19 6 20 87 21 88 22 89 23 19 24 20 25
REMARK SMILES IDX 21 26 22 27 23 29 24 30 25 31 86 32 26 33 85 34 27 35 28 36
REMARK SMILES IDX 29 37 79 38 30 39 84 40 78 41 80 42 31 43 83 44 77 45 76 46
REMARK SMILES IDX 32 48 64 49 44 50 63 51 45 52 48 53 62 54 81 55 46 56 47 57
REMARK SMILES IDX 61 59 82 60 49 61 33 62 34 63 42 64 35 65 36 66 40 67 43 68
REMARK SMILES IDX 37 69 38 70 41 71 39 72 65 73 66 74 74 75 67 76 68 77 72 78
REMARK SMILES IDX 75 79 69 80 70 81 73 82 71 83 50 84 51 85 59 86 52 87 53 88
REMARK SMILES IDX 57 89 60 90 54 91 55 92 58 93 56 94
REMARK H PARENT 17 5 10 10 21 28 80 47 48 58
REMARK Flexibility Score: inf
ROOT
ATOM      1  C   UNL A   1      31.331  30.534  25.592  1.00  0.00     0.117 C 
ENDROOT
BRANCH   1   2
ATOM      2  N   UNL A   1      32.480  29.697  25.839  1.00  0.00    -0.354 N 
ATOM      3  C   UNL A   1      33.251  29.010  24.946  1.00  0.00     0.239 C 
ATOM      4  O   UNL A   1      34.341  28.593  25.350  1.00  0.00    -0.273 OA
ATOM      5  H   UNL A   1      32.746  29.609  26.783  1.00  0.00     0.163 HD
BRANCH   3   6
ATOM      6  C   UNL A   1      32.870  28.881  23.459  1.00  0.00     0.221 C 
BRANCH   6   7
ATOM      7  N   UNL A   1      32.399  27.564  23.023  1.00  0.00    -0.313 N 
BRANCH   7   8
ATOM      8  C   UNL A   1      33.135  26.467  22.671  1.00  0.00     0.318 C 
ATOM      9  N   UNL A   1      33.380  25.396  23.442  1.00  0.00    -0.331 N 
ATOM     10  H   UNL A   1      33.889  24.736  22.918  1.00  0.00     0.165 HD
ATOM     11  O   UNL A   1      33.664  26.381  21.557  1.00  0.00    -0.249 OA
BRANCH   9  12
ATOM     12  C   UNL A   1      33.157  24.867  24.787  1.00  0.00     0.116 C 
ATOM     13  C   UNL A   1      34.290  25.292  25.731  1.00  0.00     0.036 C 
BRANCH  12  14
ATOM     14  C   UNL A   1      33.007  23.382  24.689  1.00  0.00     0.040 A 
ATOM     15  C   UNL A   1      30.647  22.892  25.759  1.00  0.00     0.071 C 
ATOM     16  C   UNL A   1      31.926  22.538  25.098  1.00  0.00     0.086 A 
ATOM     17  N   UNL A   1      32.162  21.257  24.794  1.00  0.00    -0.085 NA
ATOM     18  O   UNL A   1      33.404  21.229  24.205  1.00  0.00    -0.361 OA
ATOM     19  C   UNL A   1      33.908  22.487  24.142  1.00  0.00     0.139 A 
ATOM     20  C   UNL A   1      35.245  22.611  23.532  1.00  0.00     0.091 C 
ENDBRANCH  12  14
ENDBRANCH   9  12
ENDBRANCH   7   8
BRANCH   7  21
ATOM     21  C   UNL A   1      30.909  27.447  23.043  1.00  0.00     0.081 C 
ATOM     22  C   UNL A   1      30.332  27.044  24.401  1.00  0.00     0.031 C 
ATOM     23  C   UNL A   1      30.194  28.678  22.475  1.00  0.00     0.031 C 
ENDBRANCH   7  21
ENDBRANCH   6   7
ENDBRANCH   3   6
ENDBRANCH   1   2
BRANCH   1  24
ATOM     24  C   UNL A   1      31.209  31.741  26.506  1.00  0.00     0.042 C 
BRANCH  24  25
ATOM     25  C   UNL A   1      32.549  32.324  26.923  1.00  0.00     0.118 C 
BRANCH  25  26
ATOM     26  N   UNL A   1      32.426  33.698  27.385  1.00  0.00    -0.352 N 
ATOM     27  C   UNL A   1      33.115  34.355  28.374  1.00  0.00     0.251 C 
ATOM     28  H   UNL A   1      31.748  34.238  26.918  1.00  0.00     0.163 HD
ATOM     29  O   UNL A   1      32.727  35.458  28.747  1.00  0.00    -0.269 OA
BRANCH  27  30
ATOM     30  C   UNL A   1      34.305  33.740  29.005  1.00  0.00     0.039 A 
ATOM     31  C   UNL A   1      34.114  32.687  29.904  1.00  0.00     0.014 A 
ATOM     32  C   UNL A   1      35.597  34.215  28.756  1.00  0.00     0.014 A 
ATOM     33  C   UNL A   1      35.216  32.089  30.519  1.00  0.00     0.010 A 
ATOM     34  C   UNL A   1      36.699  33.563  29.303  1.00  0.00     0.010 A 
ATOM     35  C   UNL A   1      36.519  32.506  30.205  1.00  0.00    -0.014 A 
BRANCH  35  36
ATOM     36  C   UNL A   1      37.694  31.850  30.833  1.00  0.00     0.031 A 
ATOM     37  C   UNL A   1      38.123  32.223  32.227  1.00  0.00     0.074 A 
ATOM     38  C   UNL A   1      38.396  30.939  30.132  1.00  0.00     0.049 A 
ATOM     39  N   UNL A   1      39.112  31.748  32.943  1.00  0.00    -0.248 NA
ATOM     40  C   UNL A   1      37.361  33.290  32.897  1.00  0.00     0.031 C 
ATOM     41  C   UNL A   1      38.128  30.550  28.746  1.00  0.00     0.029 A 
ATOM     42  N   UNL A   1      39.481  30.177  30.486  1.00  0.00    -0.354 N 
ATOM     43  C   UNL A   1      39.099  32.467  34.132  1.00  0.00     0.074 A 
ATOM     44  C   UNL A   1      38.041  33.446  34.023  1.00  0.00     0.031 C 
ATOM     45  C   UNL A   1      39.005  29.602  28.378  1.00  0.00     0.029 A 
ATOM     46  C   UNL A   1      39.910  29.334  29.491  1.00  0.00     0.049 A 
ATOM     47  H   UNL A   1      39.911  30.229  31.371  1.00  0.00     0.167 HD
ATOM     48  C   UNL A   1      39.884  32.308  35.224  1.00  0.00     0.037 A 
ATOM     49  C   UNL A   1      40.916  28.439  29.480  1.00  0.00     0.037 A 
ATOM     50  C   UNL A   1      40.910  31.306  35.344  1.00  0.00     0.049 A 
ATOM     51  C   UNL A   1      41.732  28.243  30.730  1.00  0.00     0.074 A 
ATOM     52  C   UNL A   1      41.701  31.006  36.439  1.00  0.00     0.029 A 
ATOM     53  N   UNL A   1      41.286  30.437  34.330  1.00  0.00    -0.354 N 
ATOM     54  N   UNL A   1      41.646  28.863  31.881  1.00  0.00    -0.248 NA
ATOM     55  C   UNL A   1      42.775  27.209  30.681  1.00  0.00     0.031 C 
ATOM     56  C   UNL A   1      42.586  29.986  36.076  1.00  0.00     0.029 A 
ATOM     57  C   UNL A   1      42.312  29.614  34.769  1.00  0.00     0.049 A 
ATOM     58  H   UNL A   1      40.883  30.409  33.432  1.00  0.00     0.167 HD
ATOM     59  C   UNL A   1      42.604  28.281  32.700  1.00  0.00     0.074 A 
ATOM     60  C   UNL A   1      43.240  27.239  31.921  1.00  0.00     0.031 C 
ATOM     61  C   UNL A   1      42.933  28.584  33.980  1.00  0.00     0.037 A 
BRANCH  48  62
ATOM     62  C   UNL A   1      39.660  33.231  36.388  1.00  0.00     0.064 A 
ATOM     63  C   UNL A   1      40.329  34.460  36.493  1.00  0.00     0.173 A 
ATOM     64  C   UNL A   1      38.721  32.909  37.380  1.00  0.00     0.173 A 
ATOM     65  F   UNL A   1      41.245  34.811  35.578  1.00  0.00    -0.203 F 
ATOM     66  C   UNL A   1      40.083  35.321  37.559  1.00  0.00     0.198 A 
ATOM     67  C   UNL A   1      38.456  33.786  38.428  1.00  0.00     0.198 A 
ATOM     68  F   UNL A   1      38.051  31.748  37.325  1.00  0.00    -0.203 F 
ATOM     69  F   UNL A   1      40.763  36.471  37.660  1.00  0.00    -0.200 F 
ATOM     70  C   UNL A   1      39.140  34.988  38.521  1.00  0.00     0.200 A 
ATOM     71  F   UNL A   1      37.536  33.467  39.349  1.00  0.00    -0.200 F 
ATOM     72  F   UNL A   1      38.894  35.824  39.538  1.00  0.00    -0.200 F 
ENDBRANCH  48  62
BRANCH  49  73
ATOM     73  C   UNL A   1      41.186  27.635  28.260  1.00  0.00     0.064 A 
ATOM     74  C   UNL A   1      40.576  26.388  28.066  1.00  0.00     0.173 A 
ATOM     75  C   UNL A   1      42.071  28.089  27.272  1.00  0.00     0.173 A 
ATOM     76  F   UNL A   1      39.734  25.903  28.992  1.00  0.00    -0.203 F 
ATOM     77  C   UNL A   1      40.864  25.611  26.946  1.00  0.00     0.198 A 
ATOM     78  C   UNL A   1      42.335  27.325  26.137  1.00  0.00     0.198 A 
ATOM     79  F   UNL A   1      42.675  29.278  27.406  1.00  0.00    -0.203 F 
ATOM     80  F   UNL A   1      40.309  24.399  26.813  1.00  0.00    -0.200 F 
ATOM     81  C   UNL A   1      41.741  26.082  25.980  1.00  0.00     0.200 A 
ATOM     82  F   UNL A   1      43.172  27.790  25.199  1.00  0.00    -0.200 F 
ATOM     83  F   UNL A   1      42.019  25.334  24.903  1.00  0.00    -0.200 F 
ENDBRANCH  49  73
BRANCH  61  84
ATOM     84  C   UNL A   1      44.013  27.760  34.619  1.00  0.00     0.064 A 
ATOM     85  C   UNL A   1      43.726  26.550  35.271  1.00  0.00     0.173 A 
ATOM     86  C   UNL A   1      45.350  28.180  34.573  1.00  0.00     0.173 A 
ATOM     87  F   UNL A   1      42.461  26.112  35.354  1.00  0.00    -0.203 F 
ATOM     88  C   UNL A   1      44.734  25.814  35.886  1.00  0.00     0.198 A 
ATOM     89  C   UNL A   1      46.360  27.425  35.162  1.00  0.00     0.198 A 
ATOM     90  F   UNL A   1      45.679  29.325  33.954  1.00  0.00    -0.203 F 
ATOM     91  F   UNL A   1      44.428  24.695  36.557  1.00  0.00    -0.200 F 
ATOM     92  C   UNL A   1      46.049  26.248  35.827  1.00  0.00     0.200 A 
ATOM     93  F   UNL A   1      47.633  27.838  35.091  1.00  0.00    -0.200 F 
ATOM     94  F   UNL A   1      47.018  25.539  36.423  1.00  0.00    -0.200 F 
ENDBRANCH  61  84
ENDBRANCH  35  36
ENDBRANCH  27  30
ENDBRANCH  25  26
ENDBRANCH  24  25
ENDBRANCH   1  24
TORSDOF 15
ENDMDL
