MODEL 1
REMARK VINA RESULT:     -10.9      0.000      0.000
REMARK SMILES CCC[C@H](C)N(C)S(=O)(=O)c1ccc(CC(=O)NCCCNC(=O)c2ccc(-c3c4nc(c(-c5c(F)c(F)c(F)c(F)c5F)c5ccc([nH]5)c(-c5c(F)c(F)c(F)c(F)c5F)c5nc(c(-c6c(F)c(F)c(F)c(F)c6F)c6ccc3[nH]6)C=C5)C=C4)cc2)s1
REMARK SMILES IDX 16 1 17 2 18 3 15 5 14 6 11 7 12 8 88 9 13 10 8 11 9 12
REMARK SMILES IDX 10 13 6 14 7 15 4 16 5 17 3 18 2 19 1 20 19 21 20 22 21 23
REMARK SMILES IDX 22 24 23 25 24 27 25 28 26 29 87 30 27 31 86 32 28 33 29 34
REMARK SMILES IDX 30 35 80 36 31 37 85 38 79 39 81 40 32 41 84 42 78 43 77 44
REMARK SMILES IDX 33 46 65 47 45 48 64 49 46 50 49 51 63 52 82 53 47 54 48 55
REMARK SMILES IDX 62 57 83 58 50 59 34 60 35 61 43 62 36 63 37 64 41 65 44 66
REMARK SMILES IDX 38 67 39 68 42 69 40 70 66 71 67 72 75 73 68 74 69 75 73 76
REMARK SMILES IDX 76 77 70 78 71 79 74 80 72 81 51 82 52 83 60 84 53 85 54 86
REMARK SMILES IDX 58 87 61 88 55 89 56 90 59 91 57 92
REMARK H PARENT 18 4 22 26 81 45 49 56
REMARK Flexibility Score: inf
ROOT
ATOM      1  C   UNL A   1      31.498  28.148  26.652  1.00  0.00     0.225 C 
ATOM      2  O   UNL A   1      31.691  27.465  27.661  1.00  0.00    -0.275 OA
ATOM      3  N   UNL A   1      31.640  29.501  26.757  1.00  0.00    -0.356 N 
ATOM      4  H   UNL A   1      31.937  29.826  27.639  1.00  0.00     0.163 HD
ENDROOT
BRANCH   1   5
ATOM      5  C   UNL A   1      31.186  27.507  25.314  1.00  0.00     0.146 C 
BRANCH   5   6
ATOM      6  C   UNL A   1      32.228  26.521  24.879  1.00  0.00     0.015 A 
ATOM      7  C   UNL A   1      33.420  24.531  24.024  1.00  0.00     0.135 A 
ATOM      8  C   UNL A   1      34.270  25.448  24.619  1.00  0.00     0.034 A 
ATOM      9  S   UNL A   1      31.818  25.099  24.010  1.00  0.00    -0.127 S 
ATOM     10  C   UNL A   1      33.585  26.579  25.132  1.00  0.00     0.017 A 
BRANCH   7  11
ATOM     11  S   UNL A   1      33.835  22.936  23.346  1.00  0.00     0.252 S 
ATOM     12  O   UNL A   1      35.129  23.186  22.747  1.00  0.00    -0.206 OA
ATOM     13  O   UNL A   1      32.677  22.654  22.520  1.00  0.00    -0.206 OA
BRANCH  11  14
ATOM     14  N   UNL A   1      34.016  21.656  24.467  1.00  0.00    -0.197 NA
ATOM     15  C   UNL A   1      32.748  21.061  24.970  1.00  0.00     0.124 C 
BRANCH  14  16
ATOM     16  C   UNL A   1      34.988  21.902  25.613  1.00  0.00     0.070 C 
ATOM     17  C   UNL A   1      34.360  21.633  26.977  1.00  0.00     0.026 C 
BRANCH  16  18
ATOM     18  C   UNL A   1      36.403  21.318  25.367  1.00  0.00     0.020 C 
BRANCH  18  19
ATOM     19  C   UNL A   1      37.614  22.262  25.322  1.00  0.00    -0.002 C 
ATOM     20  C   UNL A   1      37.357  23.690  25.771  1.00  0.00     0.004 C 
ENDBRANCH  18  19
ENDBRANCH  16  18
ENDBRANCH  14  16
ENDBRANCH  11  14
ENDBRANCH   7  11
ENDBRANCH   5   6
ENDBRANCH   1   5
BRANCH   3  21
ATOM     21  C   UNL A   1      31.419  30.531  25.759  1.00  0.00     0.117 C 
BRANCH  21  22
ATOM     22  C   UNL A   1      31.382  31.932  26.372  1.00  0.00     0.042 C 
BRANCH  22  23
ATOM     23  C   UNL A   1      32.643  32.321  27.140  1.00  0.00     0.118 C 
BRANCH  23  24
ATOM     24  N   UNL A   1      32.608  33.694  27.617  1.00  0.00    -0.352 N 
ATOM     25  C   UNL A   1      33.394  34.342  28.533  1.00  0.00     0.251 C 
ATOM     26  H   UNL A   1      31.902  34.250  27.214  1.00  0.00     0.163 HD
ATOM     27  O   UNL A   1      33.075  35.472  28.893  1.00  0.00    -0.269 OA
BRANCH  25  28
ATOM     28  C   UNL A   1      34.605  33.711  29.109  1.00  0.00     0.039 A 
ATOM     29  C   UNL A   1      34.429  32.649  30.002  1.00  0.00     0.014 A 
ATOM     30  C   UNL A   1      35.893  34.191  28.853  1.00  0.00     0.014 A 
ATOM     31  C   UNL A   1      35.534  32.048  30.609  1.00  0.00     0.010 A 
ATOM     32  C   UNL A   1      37.004  33.555  29.415  1.00  0.00     0.010 A 
ATOM     33  C   UNL A   1      36.834  32.486  30.307  1.00  0.00    -0.014 A 
BRANCH  33  34
ATOM     34  C   UNL A   1      38.009  31.829  30.933  1.00  0.00     0.031 A 
ATOM     35  C   UNL A   1      38.420  32.171  32.339  1.00  0.00     0.074 A 
ATOM     36  C   UNL A   1      38.721  30.932  30.226  1.00  0.00     0.049 A 
ATOM     37  N   UNL A   1      39.405  31.687  33.054  1.00  0.00    -0.248 NA
ATOM     38  C   UNL A   1      37.635  33.207  33.025  1.00  0.00     0.031 C 
ATOM     39  C   UNL A   1      38.457  30.552  28.837  1.00  0.00     0.029 A 
ATOM     40  N   UNL A   1      39.810  30.175  30.578  1.00  0.00    -0.354 N 
ATOM     41  C   UNL A   1      39.365  32.364  34.264  1.00  0.00     0.074 A 
ATOM     42  C   UNL A   1      38.284  33.324  34.174  1.00  0.00     0.031 C 
ATOM     43  C   UNL A   1      39.342  29.612  28.464  1.00  0.00     0.029 A 
ATOM     44  C   UNL A   1      40.244  29.339  29.579  1.00  0.00     0.049 A 
ATOM     45  H   UNL A   1      40.239  30.227  31.462  1.00  0.00     0.167 HD
ATOM     46  C   UNL A   1      40.144  32.190  35.359  1.00  0.00     0.037 A 
ATOM     47  C   UNL A   1      41.249  28.445  29.568  1.00  0.00     0.037 A 
ATOM     48  C   UNL A   1      41.201  31.217  35.462  1.00  0.00     0.049 A 
ATOM     49  C   UNL A   1      42.072  28.241  30.809  1.00  0.00     0.074 A 
ATOM     50  C   UNL A   1      42.015  30.935  36.546  1.00  0.00     0.029 A 
ATOM     51  N   UNL A   1      41.588  30.364  34.440  1.00  0.00    -0.354 N 
ATOM     52  N   UNL A   1      41.983  28.844  31.969  1.00  0.00    -0.248 NA
ATOM     53  C   UNL A   1      43.126  27.219  30.744  1.00  0.00     0.031 C 
ATOM     54  C   UNL A   1      42.911  29.927  36.171  1.00  0.00     0.029 A 
ATOM     55  C   UNL A   1      42.633  29.560  34.865  1.00  0.00     0.049 A 
ATOM     56  H   UNL A   1      41.181  30.335  33.544  1.00  0.00     0.167 HD
ATOM     57  C   UNL A   1      42.950  28.263  32.777  1.00  0.00     0.074 A 
ATOM     58  C   UNL A   1      43.603  27.246  31.980  1.00  0.00     0.031 C 
ATOM     59  C   UNL A   1      43.268  28.547  34.062  1.00  0.00     0.037 A 
BRANCH  46  60
ATOM     60  C   UNL A   1      39.876  33.068  36.545  1.00  0.00     0.064 A 
ATOM     61  C   UNL A   1      40.593  34.256  36.752  1.00  0.00     0.173 A 
ATOM     62  C   UNL A   1      38.867  32.740  37.463  1.00  0.00     0.173 A 
ATOM     63  F   UNL A   1      41.575  34.606  35.908  1.00  0.00    -0.203 F 
ATOM     64  C   UNL A   1      40.327  35.071  37.849  1.00  0.00     0.198 A 
ATOM     65  C   UNL A   1      38.587  33.571  38.546  1.00  0.00     0.198 A 
ATOM     66  F   UNL A   1      38.149  31.618  37.308  1.00  0.00    -0.203 F 
ATOM     67  F   UNL A   1      41.051  36.181  38.049  1.00  0.00    -0.200 F 
ATOM     68  C   UNL A   1      39.320  34.732  38.740  1.00  0.00     0.200 A 
ATOM     69  F   UNL A   1      37.608  33.246  39.402  1.00  0.00    -0.200 F 
ATOM     70  F   UNL A   1      39.062  35.520  39.792  1.00  0.00    -0.200 F 
ENDBRANCH  46  60
BRANCH  47  71
ATOM     71  C   UNL A   1      41.501  27.633  28.351  1.00  0.00     0.064 A 
ATOM     72  C   UNL A   1      40.821  26.426  28.143  1.00  0.00     0.173 A 
ATOM     73  C   UNL A   1      42.420  28.046  27.377  1.00  0.00     0.173 A 
ATOM     74  F   UNL A   1      39.950  25.982  29.060  1.00  0.00    -0.203 F 
ATOM     75  C   UNL A   1      41.063  25.651  27.011  1.00  0.00     0.198 A 
ATOM     76  C   UNL A   1      42.645  27.281  26.235  1.00  0.00     0.198 A 
ATOM     77  F   UNL A   1      43.092  29.196  27.532  1.00  0.00    -0.203 F 
ATOM     78  F   UNL A   1      40.429  24.481  26.855  1.00  0.00    -0.200 F 
ATOM     79  C   UNL A   1      41.972  26.081  26.055  1.00  0.00     0.200 A 
ATOM     80  F   UNL A   1      43.517  27.703  25.308  1.00  0.00    -0.200 F 
ATOM     81  F   UNL A   1      42.204  25.336  24.967  1.00  0.00    -0.200 F 
ENDBRANCH  47  71
BRANCH  59  82
ATOM     82  C   UNL A   1      44.353  27.727  34.693  1.00  0.00     0.064 A 
ATOM     83  C   UNL A   1      45.692  28.144  34.671  1.00  0.00     0.173 A 
ATOM     84  C   UNL A   1      44.047  26.520  35.340  1.00  0.00     0.173 A 
ATOM     85  F   UNL A   1      46.035  29.282  34.051  1.00  0.00    -0.203 F 
ATOM     86  C   UNL A   1      46.691  27.366  35.252  1.00  0.00     0.198 A 
ATOM     87  C   UNL A   1      45.045  25.758  35.939  1.00  0.00     0.198 A 
ATOM     88  F   UNL A   1      42.780  26.083  35.390  1.00  0.00    -0.203 F 
ATOM     89  F   UNL A   1      47.970  27.759  35.180  1.00  0.00    -0.200 F 
ATOM     90  C   UNL A   1      46.366  26.177  35.889  1.00  0.00     0.200 A 
ATOM     91  F   UNL A   1      44.730  24.613  36.561  1.00  0.00    -0.200 F 
ATOM     92  F   UNL A   1      47.329  25.430  36.445  1.00  0.00    -0.200 F 
ENDBRANCH  59  82
ENDBRANCH  33  34
ENDBRANCH  25  28
ENDBRANCH  23  24
ENDBRANCH  22  23
ENDBRANCH  21  22
ENDBRANCH   3  21
TORSDOF 16
ENDMDL
MODEL 2
REMARK VINA RESULT:     -10.8      0.954      1.955
REMARK SMILES CCC[C@H](C)N(C)S(=O)(=O)c1ccc(CC(=O)NCCCNC(=O)c2ccc(-c3c4nc(c(-c5c(F)c(F)c(F)c(F)c5F)c5ccc([nH]5)c(-c5c(F)c(F)c(F)c(F)c5F)c5nc(c(-c6c(F)c(F)c(F)c(F)c6F)c6ccc3[nH]6)C=C5)C=C4)cc2)s1
REMARK SMILES IDX 16 1 17 2 18 3 15 5 14 6 11 7 12 8 88 9 13 10 8 11 9 12
REMARK SMILES IDX 10 13 6 14 7 15 4 16 5 17 3 18 2 19 1 20 19 21 20 22 21 23
REMARK SMILES IDX 22 24 23 25 24 27 25 28 26 29 87 30 27 31 86 32 28 33 29 34
REMARK SMILES IDX 30 35 80 36 31 37 85 38 79 39 81 40 32 41 84 42 78 43 77 44
REMARK SMILES IDX 33 46 65 47 45 48 64 49 46 50 49 51 63 52 82 53 47 54 48 55
REMARK SMILES IDX 62 57 83 58 50 59 34 60 35 61 43 62 36 63 37 64 41 65 44 66
REMARK SMILES IDX 38 67 39 68 42 69 40 70 66 71 67 72 75 73 68 74 69 75 73 76
REMARK SMILES IDX 76 77 70 78 71 79 74 80 72 81 51 82 52 83 60 84 53 85 54 86
REMARK SMILES IDX 58 87 61 88 55 89 56 90 59 91 57 92
REMARK H PARENT 18 4 22 26 81 45 49 56
REMARK Flexibility Score: inf
ROOT
ATOM      1  C   UNL A   1      31.406  29.197  24.340  1.00  0.00     0.225 C 
ATOM      2  O   UNL A   1      31.466  29.200  23.108  1.00  0.00    -0.275 OA
ATOM      3  N   UNL A   1      31.474  30.396  24.988  1.00  0.00    -0.356 N 
ATOM      4  H   UNL A   1      31.520  31.188  24.404  1.00  0.00     0.163 HD
ENDROOT
BRANCH   1   5
ATOM      5  C   UNL A   1      31.187  27.912  25.115  1.00  0.00     0.146 C 
BRANCH   5   6
ATOM      6  C   UNL A   1      32.342  26.961  25.013  1.00  0.00     0.015 A 
ATOM      7  C   UNL A   1      33.820  25.052  24.481  1.00  0.00     0.135 A 
ATOM      8  C   UNL A   1      34.357  25.893  25.442  1.00  0.00     0.034 A 
ATOM      9  S   UNL A   1      32.329  25.640  23.917  1.00  0.00    -0.127 S 
ATOM     10  C   UNL A   1      33.500  26.975  25.766  1.00  0.00     0.017 A 
BRANCH   7  11
ATOM     11  S   UNL A   1      34.502  23.529  23.858  1.00  0.00     0.252 S 
ATOM     12  O   UNL A   1      35.915  23.693  24.129  1.00  0.00    -0.206 OA
ATOM     13  O   UNL A   1      34.005  23.516  22.496  1.00  0.00    -0.206 OA
BRANCH  11  14
ATOM     14  N   UNL A   1      33.986  22.091  24.629  1.00  0.00    -0.197 NA
ATOM     15  C   UNL A   1      35.025  21.035  24.777  1.00  0.00     0.124 C 
BRANCH  14  16
ATOM     16  C   UNL A   1      32.679  21.493  24.125  1.00  0.00     0.070 C 
ATOM     17  C   UNL A   1      32.684  19.968  24.163  1.00  0.00     0.026 C 
BRANCH  16  18
ATOM     18  C   UNL A   1      31.416  22.203  24.674  1.00  0.00     0.020 C 
BRANCH  18  19
ATOM     19  C   UNL A   1      31.421  22.757  26.106  1.00  0.00    -0.002 C 
ATOM     20  C   UNL A   1      30.125  22.598  26.882  1.00  0.00     0.004 C 
ENDBRANCH  18  19
ENDBRANCH  16  18
ENDBRANCH  14  16
ENDBRANCH  11  14
ENDBRANCH   7  11
ENDBRANCH   5   6
ENDBRANCH   1   5
BRANCH   3  21
ATOM     21  C   UNL A   1      31.486  30.674  26.412  1.00  0.00     0.117 C 
BRANCH  21  22
ATOM     22  C   UNL A   1      31.365  32.169  26.710  1.00  0.00     0.042 C 
BRANCH  22  23
ATOM     23  C   UNL A   1      32.694  32.874  26.964  1.00  0.00     0.118 C 
BRANCH  23  24
ATOM     24  N   UNL A   1      32.531  34.157  27.630  1.00  0.00    -0.352 N 
ATOM     25  C   UNL A   1      33.151  34.674  28.737  1.00  0.00     0.251 C 
ATOM     26  H   UNL A   1      31.864  34.752  27.216  1.00  0.00     0.163 HD
ATOM     27  O   UNL A   1      32.734  35.727  29.211  1.00  0.00    -0.269 OA
BRANCH  25  28
ATOM     28  C   UNL A   1      34.297  33.990  29.382  1.00  0.00     0.039 A 
ATOM     29  C   UNL A   1      35.587  34.356  28.983  1.00  0.00     0.014 A 
ATOM     30  C   UNL A   1      34.127  32.952  30.304  1.00  0.00     0.014 A 
ATOM     31  C   UNL A   1      36.701  33.711  29.526  1.00  0.00     0.010 A 
ATOM     32  C   UNL A   1      35.242  32.344  30.889  1.00  0.00     0.010 A 
ATOM     33  C   UNL A   1      36.538  32.710  30.497  1.00  0.00    -0.014 A 
BRANCH  33  34
ATOM     34  C   UNL A   1      37.724  32.045  31.092  1.00  0.00     0.031 A 
ATOM     35  C   UNL A   1      38.172  32.380  32.488  1.00  0.00     0.074 A 
ATOM     36  C   UNL A   1      38.413  31.145  30.365  1.00  0.00     0.049 A 
ATOM     37  N   UNL A   1      39.172  31.888  33.177  1.00  0.00    -0.248 NA
ATOM     38  C   UNL A   1      37.410  33.419  33.197  1.00  0.00     0.031 C 
ATOM     39  C   UNL A   1      38.112  30.771  28.983  1.00  0.00     0.029 A 
ATOM     40  N   UNL A   1      39.506  30.381  30.688  1.00  0.00    -0.354 N 
ATOM     41  C   UNL A   1      39.166  32.563  34.391  1.00  0.00     0.074 A 
ATOM     42  C   UNL A   1      38.089  33.529  34.330  1.00  0.00     0.031 C 
ATOM     43  C   UNL A   1      38.982  29.827  28.585  1.00  0.00     0.029 A 
ATOM     44  C   UNL A   1      39.910  29.546  29.677  1.00  0.00     0.049 A 
ATOM     45  H   UNL A   1      39.957  30.428  31.562  1.00  0.00     0.167 HD
ATOM     46  C   UNL A   1      39.971  32.380  35.465  1.00  0.00     0.037 A 
ATOM     47  C   UNL A   1      40.909  28.645  29.639  1.00  0.00     0.037 A 
ATOM     48  C   UNL A   1      41.024  31.401  35.539  1.00  0.00     0.049 A 
ATOM     49  C   UNL A   1      41.761  28.433  30.858  1.00  0.00     0.074 A 
ATOM     50  C   UNL A   1      41.863  31.111  36.602  1.00  0.00     0.029 A 
ATOM     51  N   UNL A   1      41.380  30.549  34.505  1.00  0.00    -0.354 N 
ATOM     52  N   UNL A   1      41.705  29.033  32.021  1.00  0.00    -0.248 NA
ATOM     53  C   UNL A   1      42.807  27.405  30.764  1.00  0.00     0.031 C 
ATOM     54  C   UNL A   1      42.744  30.099  36.202  1.00  0.00     0.029 A 
ATOM     55  C   UNL A   1      42.430  29.737  34.902  1.00  0.00     0.049 A 
ATOM     56  H   UNL A   1      40.950  30.524  33.620  1.00  0.00     0.167 HD
ATOM     57  C   UNL A   1      42.687  28.444  32.803  1.00  0.00     0.074 A 
ATOM     58  C   UNL A   1      43.315  27.425  31.988  1.00  0.00     0.031 C 
ATOM     59  C   UNL A   1      43.040  28.723  34.081  1.00  0.00     0.037 A 
BRANCH  46  60
ATOM     60  C   UNL A   1      39.737  33.257  36.659  1.00  0.00     0.064 A 
ATOM     61  C   UNL A   1      40.426  34.468  36.823  1.00  0.00     0.173 A 
ATOM     62  C   UNL A   1      38.789  32.903  37.631  1.00  0.00     0.173 A 
ATOM     63  F   UNL A   1      41.350  34.844  35.927  1.00  0.00    -0.203 F 
ATOM     64  C   UNL A   1      40.192  35.281  37.929  1.00  0.00     0.198 A 
ATOM     65  C   UNL A   1      38.540  33.731  38.723  1.00  0.00     0.198 A 
ATOM     66  F   UNL A   1      38.100  31.757  37.519  1.00  0.00    -0.203 F 
ATOM     67  F   UNL A   1      40.890  36.415  38.085  1.00  0.00    -0.200 F 
ATOM     68  C   UNL A   1      39.245  34.915  38.874  1.00  0.00     0.200 A 
ATOM     69  F   UNL A   1      37.619  33.381  39.631  1.00  0.00    -0.200 F 
ATOM     70  F   UNL A   1      39.017  35.702  39.934  1.00  0.00    -0.200 F 
ENDBRANCH  46  60
BRANCH  47  71
ATOM     71  C   UNL A   1      41.125  27.835  28.413  1.00  0.00     0.064 A 
ATOM     72  C   UNL A   1      40.455  26.618  28.232  1.00  0.00     0.173 A 
ATOM     73  C   UNL A   1      42.000  28.260  27.404  1.00  0.00     0.173 A 
ATOM     74  F   UNL A   1      39.626  26.164  29.183  1.00  0.00    -0.203 F 
ATOM     75  C   UNL A   1      40.665  25.845  27.093  1.00  0.00     0.198 A 
ATOM     76  C   UNL A   1      42.192  27.496  26.255  1.00  0.00     0.198 A 
ATOM     77  F   UNL A   1      42.662  29.419  27.533  1.00  0.00    -0.203 F 
ATOM     78  F   UNL A   1      40.042  24.666  26.963  1.00  0.00    -0.200 F 
ATOM     79  C   UNL A   1      41.530  26.287  26.103  1.00  0.00     0.200 A 
ATOM     80  F   UNL A   1      43.022  27.930  25.296  1.00  0.00    -0.200 F 
ATOM     81  F   UNL A   1      41.731  25.544  25.007  1.00  0.00    -0.200 F 
ENDBRANCH  47  71
BRANCH  59  82
ATOM     82  C   UNL A   1      44.134  27.894  34.683  1.00  0.00     0.064 A 
ATOM     83  C   UNL A   1      43.860  26.682  35.335  1.00  0.00     0.173 A 
ATOM     84  C   UNL A   1      45.471  28.307  34.592  1.00  0.00     0.173 A 
ATOM     85  F   UNL A   1      42.595  26.254  35.461  1.00  0.00    -0.203 F 
ATOM     86  C   UNL A   1      44.886  25.928  35.899  1.00  0.00     0.198 A 
ATOM     87  C   UNL A   1      46.495  27.539  35.137  1.00  0.00     0.198 A 
ATOM     88  F   UNL A   1      45.783  29.456  33.975  1.00  0.00    -0.203 F 
ATOM     89  F   UNL A   1      44.598  24.797  36.559  1.00  0.00    -0.200 F 
ATOM     90  C   UNL A   1      46.202  26.354  35.796  1.00  0.00     0.200 A 
ATOM     91  F   UNL A   1      47.768  27.947  35.030  1.00  0.00    -0.200 F 
ATOM     92  F   UNL A   1      47.187  25.627  36.341  1.00  0.00    -0.200 F 
ENDBRANCH  59  82
ENDBRANCH  33  34
ENDBRANCH  25  28
ENDBRANCH  23  24
ENDBRANCH  22  23
ENDBRANCH  21  22
ENDBRANCH   3  21
TORSDOF 16
ENDMDL
MODEL 3
REMARK VINA RESULT:     -10.8      2.034      2.872
REMARK SMILES CCC[C@H](C)N(C)S(=O)(=O)c1ccc(CC(=O)NCCCNC(=O)c2ccc(-c3c4nc(c(-c5c(F)c(F)c(F)c(F)c5F)c5ccc([nH]5)c(-c5c(F)c(F)c(F)c(F)c5F)c5nc(c(-c6c(F)c(F)c(F)c(F)c6F)c6ccc3[nH]6)C=C5)C=C4)cc2)s1
REMARK SMILES IDX 16 1 17 2 18 3 15 5 14 6 11 7 12 8 88 9 13 10 8 11 9 12
REMARK SMILES IDX 10 13 6 14 7 15 4 16 5 17 3 18 2 19 1 20 19 21 20 22 21 23
REMARK SMILES IDX 22 24 23 25 24 27 25 28 26 29 87 30 27 31 86 32 28 33 29 34
REMARK SMILES IDX 30 35 80 36 31 37 85 38 79 39 81 40 32 41 84 42 78 43 77 44
REMARK SMILES IDX 33 46 65 47 45 48 64 49 46 50 49 51 63 52 82 53 47 54 48 55
REMARK SMILES IDX 62 57 83 58 50 59 34 60 35 61 43 62 36 63 37 64 41 65 44 66
REMARK SMILES IDX 38 67 39 68 42 69 40 70 66 71 67 72 75 73 68 74 69 75 73 76
REMARK SMILES IDX 76 77 70 78 71 79 74 80 72 81 51 82 52 83 60 84 53 85 54 86
REMARK SMILES IDX 58 87 61 88 55 89 56 90 59 91 57 92
REMARK H PARENT 18 4 22 26 81 45 49 56
REMARK Flexibility Score: inf
ROOT
ATOM      1  C   UNL A   1      30.316  28.916  22.710  1.00  0.00     0.225 C 
ATOM      2  O   UNL A   1      29.993  29.403  21.624  1.00  0.00    -0.275 OA
ATOM      3  N   UNL A   1      30.927  29.728  23.621  1.00  0.00    -0.356 N 
ATOM      4  H   UNL A   1      31.021  30.669  23.349  1.00  0.00     0.163 HD
ENDROOT
BRANCH   1   5
ATOM      5  C   UNL A   1      29.980  27.479  23.060  1.00  0.00     0.146 C 
BRANCH   5   6
ATOM      6  C   UNL A   1      31.113  26.531  22.798  1.00  0.00     0.015 A 
ATOM      7  C   UNL A   1      32.621  24.573  22.745  1.00  0.00     0.135 A 
ATOM      8  C   UNL A   1      33.195  25.706  22.191  1.00  0.00     0.034 A 
ATOM      9  S   UNL A   1      31.021  24.873  23.231  1.00  0.00    -0.127 S 
ATOM     10  C   UNL A   1      32.341  26.836  22.243  1.00  0.00     0.017 A 
BRANCH   7  11
ATOM     11  S   UNL A   1      33.369  22.974  22.983  1.00  0.00     0.252 S 
ATOM     12  O   UNL A   1      34.729  23.204  22.543  1.00  0.00    -0.206 OA
ATOM     13  O   UNL A   1      32.480  22.115  22.226  1.00  0.00    -0.206 OA
BRANCH  11  14
ATOM     14  N   UNL A   1      33.431  22.393  24.591  1.00  0.00    -0.197 NA
ATOM     15  C   UNL A   1      32.316  21.491  24.990  1.00  0.00     0.124 C 
BRANCH  14  16
ATOM     16  C   UNL A   1      33.693  23.435  25.671  1.00  0.00     0.070 C 
ATOM     17  C   UNL A   1      32.427  23.813  26.434  1.00  0.00     0.026 C 
BRANCH  16  18
ATOM     18  C   UNL A   1      34.962  23.154  26.515  1.00  0.00     0.020 C 
BRANCH  18  19
ATOM     19  C   UNL A   1      36.234  22.644  25.823  1.00  0.00    -0.002 C 
ATOM     20  C   UNL A   1      37.031  23.683  25.053  1.00  0.00     0.004 C 
ENDBRANCH  18  19
ENDBRANCH  16  18
ENDBRANCH  14  16
ENDBRANCH  11  14
ENDBRANCH   7  11
ENDBRANCH   5   6
ENDBRANCH   1   5
BRANCH   3  21
ATOM     21  C   UNL A   1      31.457  29.405  24.932  1.00  0.00     0.117 C 
BRANCH  21  22
ATOM     22  C   UNL A   1      32.964  29.144  24.898  1.00  0.00     0.042 C 
BRANCH  22  23
ATOM     23  C   UNL A   1      33.686  29.428  26.213  1.00  0.00     0.118 C 
BRANCH  23  24
ATOM     24  N   UNL A   1      33.498  30.794  26.673  1.00  0.00    -0.352 N 
ATOM     25  C   UNL A   1      34.176  31.521  27.615  1.00  0.00     0.251 C 
ATOM     26  H   UNL A   1      32.761  31.277  26.233  1.00  0.00     0.163 HD
ATOM     27  O   UNL A   1      33.734  32.618  27.948  1.00  0.00    -0.269 OA
BRANCH  25  28
ATOM     28  C   UNL A   1      35.415  31.014  28.251  1.00  0.00     0.039 A 
ATOM     29  C   UNL A   1      36.591  31.752  28.073  1.00  0.00     0.014 A 
ATOM     30  C   UNL A   1      35.460  29.800  28.943  1.00  0.00     0.014 A 
ATOM     31  C   UNL A   1      37.796  31.295  28.612  1.00  0.00     0.010 A 
ATOM     32  C   UNL A   1      36.653  29.370  29.530  1.00  0.00     0.010 A 
ATOM     33  C   UNL A   1      37.834  30.108  29.361  1.00  0.00    -0.014 A 
BRANCH  33  34
ATOM     34  C   UNL A   1      39.111  29.638  29.955  1.00  0.00     0.031 A 
ATOM     35  C   UNL A   1      39.614  30.218  31.249  1.00  0.00     0.074 A 
ATOM     36  C   UNL A   1      39.831  28.696  29.318  1.00  0.00     0.049 A 
ATOM     37  N   UNL A   1      40.695  29.918  31.924  1.00  0.00    -0.248 NA
ATOM     38  C   UNL A   1      38.808  31.288  31.852  1.00  0.00     0.031 C 
ATOM     39  C   UNL A   1      39.478  28.091  28.032  1.00  0.00     0.029 A 
ATOM     40  N   UNL A   1      41.007  28.080  29.665  1.00  0.00    -0.354 N 
ATOM     41  C   UNL A   1      40.705  30.768  33.022  1.00  0.00     0.074 A 
ATOM     42  C   UNL A   1      39.544  31.624  32.902  1.00  0.00     0.031 C 
ATOM     43  C   UNL A   1      40.403  27.171  27.712  1.00  0.00     0.029 A 
ATOM     44  C   UNL A   1      41.420  27.135  28.760  1.00  0.00     0.049 A 
ATOM     45  H   UNL A   1      41.506  28.295  30.486  1.00  0.00     0.167 HD
ATOM     46  C   UNL A   1      41.590  30.816  34.047  1.00  0.00     0.037 A 
ATOM     47  C   UNL A   1      42.492  26.321  28.778  1.00  0.00     0.037 A 
ATOM     48  C   UNL A   1      42.730  29.948  34.184  1.00  0.00     0.049 A 
ATOM     49  C   UNL A   1      43.435  26.367  29.948  1.00  0.00     0.074 A 
ATOM     50  C   UNL A   1      43.657  29.892  35.211  1.00  0.00     0.029 A 
ATOM     51  N   UNL A   1      43.096  28.978  33.262  1.00  0.00    -0.354 N 
ATOM     52  N   UNL A   1      43.398  27.132  31.011  1.00  0.00    -0.248 NA
ATOM     53  C   UNL A   1      44.561  25.423  29.926  1.00  0.00     0.031 C 
ATOM     54  C   UNL A   1      44.599  28.904  34.898  1.00  0.00     0.029 A 
ATOM     55  C   UNL A   1      44.238  28.323  33.693  1.00  0.00     0.049 A 
ATOM     56  H   UNL A   1      42.615  28.785  32.425  1.00  0.00     0.167 HD
ATOM     57  C   UNL A   1      44.478  26.749  31.793  1.00  0.00     0.074 A 
ATOM     58  C   UNL A   1      45.142  25.671  31.091  1.00  0.00     0.031 C 
ATOM     59  C   UNL A   1      44.883  27.248  32.986  1.00  0.00     0.037 A 
BRANCH  46  60
ATOM     60  C   UNL A   1      41.354  31.844  35.114  1.00  0.00     0.064 A 
ATOM     61  C   UNL A   1      42.070  33.050  35.139  1.00  0.00     0.173 A 
ATOM     62  C   UNL A   1      40.377  31.639  36.100  1.00  0.00     0.173 A 
ATOM     63  F   UNL A   1      43.022  33.287  34.225  1.00  0.00    -0.203 F 
ATOM     64  C   UNL A   1      41.834  34.003  36.126  1.00  0.00     0.198 A 
ATOM     65  C   UNL A   1      40.126  32.605  37.071  1.00  0.00     0.198 A 
ATOM     66  F   UNL A   1      39.661  30.504  36.118  1.00  0.00    -0.203 F 
ATOM     67  F   UNL A   1      42.558  35.131  36.153  1.00  0.00    -0.200 F 
ATOM     68  C   UNL A   1      40.858  33.783  37.086  1.00  0.00     0.200 A 
ATOM     69  F   UNL A   1      39.177  32.395  37.994  1.00  0.00    -0.200 F 
ATOM     70  F   UNL A   1      40.628  34.704  38.032  1.00  0.00    -0.200 F 
ENDBRANCH  46  60
BRANCH  47  71
ATOM     71  C   UNL A   1      42.702  25.354  27.672  1.00  0.00     0.064 A 
ATOM     72  C   UNL A   1      42.049  24.114  27.672  1.00  0.00     0.173 A 
ATOM     73  C   UNL A   1      43.556  25.647  26.600  1.00  0.00     0.173 A 
ATOM     74  F   UNL A   1      41.242  23.784  28.690  1.00  0.00    -0.203 F 
ATOM     75  C   UNL A   1      42.254  23.195  26.646  1.00  0.00     0.198 A 
ATOM     76  C   UNL A   1      43.742  24.736  25.563  1.00  0.00     0.198 A 
ATOM     77  F   UNL A   1      44.200  26.822  26.557  1.00  0.00    -0.203 F 
ATOM     78  F   UNL A   1      41.648  22.001  26.690  1.00  0.00    -0.200 F 
ATOM     79  C   UNL A   1      43.097  23.508  25.590  1.00  0.00     0.200 A 
ATOM     80  F   UNL A   1      44.551  25.044  24.540  1.00  0.00    -0.200 F 
ATOM     81  F   UNL A   1      43.293  22.624  24.604  1.00  0.00    -0.200 F 
ENDBRANCH  47  71
BRANCH  59  82
ATOM     82  C   UNL A   1      46.084  26.611  33.618  1.00  0.00     0.064 A 
ATOM     83  C   UNL A   1      45.959  25.525  34.497  1.00  0.00     0.173 A 
ATOM     84  C   UNL A   1      47.373  27.081  33.329  1.00  0.00     0.173 A 
ATOM     85  F   UNL A   1      44.745  25.051  34.816  1.00  0.00    -0.203 F 
ATOM     86  C   UNL A   1      47.082  24.949  35.085  1.00  0.00     0.198 A 
ATOM     87  C   UNL A   1      48.495  26.488  33.901  1.00  0.00     0.198 A 
ATOM     88  F   UNL A   1      47.544  28.114  32.491  1.00  0.00    -0.203 F 
ATOM     89  F   UNL A   1      46.938  23.943  35.959  1.00  0.00    -0.200 F 
ATOM     90  C   UNL A   1      48.349  25.429  34.784  1.00  0.00     0.200 A 
ATOM     91  F   UNL A   1      49.719  26.946  33.603  1.00  0.00    -0.200 F 
ATOM     92  F   UNL A   1      49.428  24.875  35.353  1.00  0.00    -0.200 F 
ENDBRANCH  59  82
ENDBRANCH  33  34
ENDBRANCH  25  28
ENDBRANCH  23  24
ENDBRANCH  22  23
ENDBRANCH  21  22
ENDBRANCH   3  21
TORSDOF 16
ENDMDL
