MODEL 1
REMARK VINA RESULT:     -12.9      0.000      0.000
REMARK SMILES CC(=O)Nc1cnc(N(C)CCc2cn[nH]c2)c(C(=O)NCCCNC(=O)c2ccc(-c3c4nc(c(-c5c(F)c(F)c(F)c(F)c5F)c5ccc([nH]5)c(-c5c(F)c(F)c(F)c(F)c5F)c5nc(c(-c6c(F)c(F)c(F)c(F)c6F)c6ccc3[nH]6)C=C5)C=C4)cc2)c1
REMARK SMILES IDX 22 1 21 2 19 3 20 4 18 6 5 7 6 8 91 9 7 10 8 11 4 12 1 13
REMARK SMILES IDX 2 14 3 15 9 17 10 18 11 19 12 20 13 21 14 22 17 23 15 24
REMARK SMILES IDX 16 25 23 27 24 28 25 29 26 30 27 32 28 33 29 34 90 35 30 36
REMARK SMILES IDX 89 37 31 38 32 39 33 40 83 41 34 42 88 43 82 44 84 45 35 46
REMARK SMILES IDX 87 47 81 48 80 49 36 51 68 52 48 53 67 54 49 55 52 56 66 57
REMARK SMILES IDX 85 58 50 59 51 60 65 62 86 63 53 64 37 65 38 66 46 67 39 68
REMARK SMILES IDX 40 69 44 70 47 71 41 72 42 73 45 74 43 75 69 76 70 77 78 78
REMARK SMILES IDX 71 79 72 80 76 81 79 82 73 83 74 84 77 85 75 86 54 87 55 88
REMARK SMILES IDX 63 89 56 90 57 91 61 92 64 93 58 94 59 95 62 96 60 97
REMARK H PARENT 21 5 4 16 16 26 25 31 84 50 52 61
REMARK Flexibility Score: inf
ROOT
ATOM      1  C   UNL A   1      31.782  30.633  26.927  1.00  0.00     0.118 C 
ENDROOT
BRANCH   1   2
ATOM      2  N   UNL A   1      32.733  30.149  25.941  1.00  0.00    -0.352 N 
ATOM      3  C   UNL A   1      32.855  28.967  25.251  1.00  0.00     0.255 C 
ATOM      4  O   UNL A   1      33.910  28.793  24.641  1.00  0.00    -0.269 OA
ATOM      5  H   UNL A   1      33.436  30.803  25.722  1.00  0.00     0.163 HD
BRANCH   3   6
ATOM      6  C   UNL A   1      31.803  27.926  25.231  1.00  0.00     0.084 A 
ATOM      7  C   UNL A   1      31.060  25.769  26.059  1.00  0.00     0.060 A 
ATOM      8  C   UNL A   1      30.205  25.724  24.983  1.00  0.00     0.139 A 
ATOM      9  C   UNL A   1      31.920  26.853  26.136  1.00  0.00     0.045 A 
ATOM     10  N   UNL A   1      30.062  26.740  24.104  1.00  0.00    -0.236 NA
ATOM     11  C   UNL A   1      30.815  27.873  24.223  1.00  0.00     0.141 A 
BRANCH   7  12
ATOM     12  N   UNL A   1      31.105  24.713  26.979  1.00  0.00    -0.325 N 
ATOM     13  C   UNL A   1      33.160  23.670  26.074  1.00  0.00     0.114 C 
ATOM     14  C   UNL A   1      31.939  23.625  26.957  1.00  0.00     0.221 C 
ATOM     15  O   UNL A   1      31.732  22.678  27.715  1.00  0.00    -0.275 OA
ATOM     16  H   UNL A   1      30.465  24.758  27.726  1.00  0.00     0.169 HD
ENDBRANCH   7  12
BRANCH  11  17
ATOM     17  N   UNL A   1      30.472  28.885  23.345  1.00  0.00    -0.359 N 
ATOM     18  C   UNL A   1      31.215  28.992  22.091  1.00  0.00     0.145 C 
BRANCH  17  19
ATOM     19  C   UNL A   1      29.330  29.797  23.493  1.00  0.00     0.122 C 
BRANCH  19  20
ATOM     20  C   UNL A   1      28.365  29.795  22.299  1.00  0.00     0.060 C 
BRANCH  20  21
ATOM     21  C   UNL A   1      28.121  31.123  21.667  1.00  0.00    -0.008 A 
ATOM     22  C   UNL A   1      28.023  32.376  22.317  1.00  0.00     0.138 A 
ATOM     23  C   UNL A   1      27.909  31.424  20.339  1.00  0.00     0.108 A 
ATOM     24  N   UNL A   1      27.806  33.381  21.467  1.00  0.00    -0.184 NA
ATOM     25  N   UNL A   1      27.700  32.772  20.278  1.00  0.00    -0.285 N 
ATOM     26  H   UNL A   1      27.491  33.249  19.443  1.00  0.00     0.189 HD
ENDBRANCH  20  21
ENDBRANCH  19  20
ENDBRANCH  17  19
ENDBRANCH  11  17
ENDBRANCH   3   6
ENDBRANCH   1   2
BRANCH   1  27
ATOM     27  C   UNL A   1      31.630  32.145  26.793  1.00  0.00     0.042 C 
BRANCH  27  28
ATOM     28  C   UNL A   1      32.838  32.869  27.376  1.00  0.00     0.118 C 
BRANCH  28  29
ATOM     29  N   UNL A   1      32.543  34.269  27.664  1.00  0.00    -0.352 N 
ATOM     30  C   UNL A   1      33.033  35.072  28.672  1.00  0.00     0.251 C 
ATOM     31  H   UNL A   1      31.905  34.702  27.053  1.00  0.00     0.163 HD
ATOM     32  O   UNL A   1      32.521  36.152  28.911  1.00  0.00    -0.269 OA
BRANCH  30  33
ATOM     33  C   UNL A   1      34.172  34.583  29.476  1.00  0.00     0.039 A 
ATOM     34  C   UNL A   1      33.932  34.005  30.723  1.00  0.00     0.014 A 
ATOM     35  C   UNL A   1      35.464  34.635  28.951  1.00  0.00     0.014 A 
ATOM     36  C   UNL A   1      34.982  33.382  31.399  1.00  0.00     0.010 A 
ATOM     37  C   UNL A   1      36.483  33.931  29.577  1.00  0.00     0.010 A 
ATOM     38  C   UNL A   1      36.251  33.286  30.802  1.00  0.00    -0.014 A 
BRANCH  38  39
ATOM     39  C   UNL A   1      37.345  32.490  31.413  1.00  0.00     0.031 A 
ATOM     40  C   UNL A   1      37.876  32.862  32.769  1.00  0.00     0.074 A 
ATOM     41  C   UNL A   1      37.930  31.507  30.700  1.00  0.00     0.049 A 
ATOM     42  N   UNL A   1      38.907  32.380  33.415  1.00  0.00    -0.248 NA
ATOM     43  C   UNL A   1      37.179  33.948  33.476  1.00  0.00     0.031 C 
ATOM     44  C   UNL A   1      37.546  31.098  29.348  1.00  0.00     0.029 A 
ATOM     45  N   UNL A   1      38.986  30.686  31.005  1.00  0.00    -0.354 N 
ATOM     46  C   UNL A   1      38.994  33.117  34.589  1.00  0.00     0.074 A 
ATOM     47  C   UNL A   1      37.950  34.116  34.541  1.00  0.00     0.031 C 
ATOM     48  C   UNL A   1      38.337  30.088  28.951  1.00  0.00     0.029 A 
ATOM     49  C   UNL A   1      39.314  29.811  29.998  1.00  0.00     0.049 A 
ATOM     50  H   UNL A   1      39.466  30.720  31.865  1.00  0.00     0.167 HD
ATOM     51  C   UNL A   1      39.849  32.955  35.624  1.00  0.00     0.037 A 
ATOM     52  C   UNL A   1      40.301  28.898  29.922  1.00  0.00     0.037 A 
ATOM     53  C   UNL A   1      40.861  31.934  35.681  1.00  0.00     0.049 A 
ATOM     54  C   UNL A   1      41.243  28.742  31.084  1.00  0.00     0.074 A 
ATOM     55  C   UNL A   1      41.719  31.627  36.721  1.00  0.00     0.029 A 
ATOM     56  N   UNL A   1      41.152  31.055  34.647  1.00  0.00    -0.354 N 
ATOM     57  N   UNL A   1      41.262  29.387  32.225  1.00  0.00    -0.248 NA
ATOM     58  C   UNL A   1      42.304  27.734  30.948  1.00  0.00     0.031 C 
ATOM     59  C   UNL A   1      42.562  30.593  36.299  1.00  0.00     0.029 A 
ATOM     60  C   UNL A   1      42.199  30.225  35.014  1.00  0.00     0.049 A 
ATOM     61  H   UNL A   1      40.682  31.024  33.783  1.00  0.00     0.167 HD
ATOM     62  C   UNL A   1      42.320  28.857  32.947  1.00  0.00     0.074 A 
ATOM     63  C   UNL A   1      42.908  27.819  32.125  1.00  0.00     0.031 C 
ATOM     64  C   UNL A   1      42.771  29.201  34.178  1.00  0.00     0.037 A 
BRANCH  51  65
ATOM     65  C   UNL A   1      39.722  33.897  36.786  1.00  0.00     0.064 A 
ATOM     66  C   UNL A   1      38.932  33.585  37.904  1.00  0.00     0.173 A 
ATOM     67  C   UNL A   1      40.424  35.113  36.799  1.00  0.00     0.173 A 
ATOM     68  F   UNL A   1      38.231  32.441  37.936  1.00  0.00    -0.203 F 
ATOM     69  C   UNL A   1      38.824  34.467  38.975  1.00  0.00     0.198 A 
ATOM     70  C   UNL A   1      40.338  35.978  37.887  1.00  0.00     0.198 A 
ATOM     71  F   UNL A   1      41.197  35.458  35.759  1.00  0.00    -0.203 F 
ATOM     72  F   UNL A   1      38.022  34.170  40.007  1.00  0.00    -0.200 F 
ATOM     73  C   UNL A   1      39.533  35.659  38.969  1.00  0.00     0.200 A 
ATOM     74  F   UNL A   1      41.034  37.124  37.885  1.00  0.00    -0.200 F 
ATOM     75  F   UNL A   1      39.434  36.504  40.004  1.00  0.00    -0.200 F 
ENDBRANCH  51  65
BRANCH  52  76
ATOM     76  C   UNL A   1      40.440  28.052  28.707  1.00  0.00     0.064 A 
ATOM     77  C   UNL A   1      39.794  26.810  28.618  1.00  0.00     0.173 A 
ATOM     78  C   UNL A   1      41.217  28.461  27.613  1.00  0.00     0.173 A 
ATOM     79  F   UNL A   1      39.058  26.365  29.648  1.00  0.00    -0.203 F 
ATOM     80  C   UNL A   1      39.933  26.004  27.491  1.00  0.00     0.198 A 
ATOM     81  C   UNL A   1      41.332  27.666  26.474  1.00  0.00     0.198 A 
ATOM     82  F   UNL A   1      41.851  29.642  27.645  1.00  0.00    -0.203 F 
ATOM     83  F   UNL A   1      39.341  24.802  27.452  1.00  0.00    -0.200 F 
ATOM     84  C   UNL A   1      40.698  26.435  26.417  1.00  0.00     0.200 A 
ATOM     85  F   UNL A   1      42.060  28.093  25.434  1.00  0.00    -0.200 F 
ATOM     86  F   UNL A   1      40.828  25.661  25.331  1.00  0.00    -0.200 F 
ENDBRANCH  52  76
BRANCH  64  87
ATOM     87  C   UNL A   1      43.950  28.445  34.715  1.00  0.00     0.064 A 
ATOM     88  C   UNL A   1      45.256  28.942  34.585  1.00  0.00     0.173 A 
ATOM     89  C   UNL A   1      43.768  27.244  35.417  1.00  0.00     0.173 A 
ATOM     90  F   UNL A   1      45.481  30.078  33.908  1.00  0.00    -0.203 F 
ATOM     91  C   UNL A   1      46.338  28.253  35.125  1.00  0.00     0.198 A 
ATOM     92  C   UNL A   1      44.849  26.574  35.980  1.00  0.00     0.198 A 
ATOM     93  F   UNL A   1      42.538  26.732  35.573  1.00  0.00    -0.203 F 
ATOM     94  F   UNL A   1      47.581  28.726  34.956  1.00  0.00    -0.200 F 
ATOM     95  C   UNL A   1      46.134  27.076  35.830  1.00  0.00     0.200 A 
ATOM     96  F   UNL A   1      44.650  25.445  36.672  1.00  0.00    -0.200 F 
ATOM     97  F   UNL A   1      47.176  26.423  36.361  1.00  0.00    -0.200 F 
ENDBRANCH  64  87
ENDBRANCH  38  39
ENDBRANCH  30  33
ENDBRANCH  28  29
ENDBRANCH  27  28
ENDBRANCH   1  27
TORSDOF 15
ENDMDL
MODEL 2
REMARK VINA RESULT:     -12.9      0.686      7.273
REMARK SMILES CC(=O)Nc1cnc(N(C)CCc2cn[nH]c2)c(C(=O)NCCCNC(=O)c2ccc(-c3c4nc(c(-c5c(F)c(F)c(F)c(F)c5F)c5ccc([nH]5)c(-c5c(F)c(F)c(F)c(F)c5F)c5nc(c(-c6c(F)c(F)c(F)c(F)c6F)c6ccc3[nH]6)C=C5)C=C4)cc2)c1
REMARK SMILES IDX 22 1 21 2 19 3 20 4 18 6 5 7 6 8 91 9 7 10 8 11 4 12 1 13
REMARK SMILES IDX 2 14 3 15 9 17 10 18 11 19 12 20 13 21 14 22 17 23 15 24
REMARK SMILES IDX 16 25 23 27 24 28 25 29 26 30 27 32 28 33 29 34 90 35 30 36
REMARK SMILES IDX 89 37 31 38 32 39 33 40 83 41 34 42 88 43 82 44 84 45 35 46
REMARK SMILES IDX 87 47 81 48 80 49 36 51 68 52 48 53 67 54 49 55 52 56 66 57
REMARK SMILES IDX 85 58 50 59 51 60 65 62 86 63 53 64 37 65 38 66 46 67 39 68
REMARK SMILES IDX 40 69 44 70 47 71 41 72 42 73 45 74 43 75 69 76 70 77 78 78
REMARK SMILES IDX 71 79 72 80 76 81 79 82 73 83 74 84 77 85 75 86 54 87 55 88
REMARK SMILES IDX 63 89 56 90 57 91 61 92 64 93 58 94 59 95 62 96 60 97
REMARK H PARENT 21 5 4 16 16 26 25 31 84 50 52 61
REMARK Flexibility Score: inf
ROOT
ATOM      1  C   UNL A   1      31.845  30.140  27.060  1.00  0.00     0.118 C 
ENDROOT
BRANCH   1   2
ATOM      2  N   UNL A   1      32.908  29.424  26.375  1.00  0.00    -0.352 N 
ATOM      3  C   UNL A   1      32.951  28.235  25.687  1.00  0.00     0.255 C 
ATOM      4  O   UNL A   1      34.070  27.803  25.409  1.00  0.00    -0.269 OA
ATOM      5  H   UNL A   1      33.776  29.887  26.410  1.00  0.00     0.163 HD
BRANCH   3   6
ATOM      6  C   UNL A   1      31.741  27.477  25.299  1.00  0.00     0.084 A 
ATOM      7  C   UNL A   1      30.232  25.648  25.820  1.00  0.00     0.060 A 
ATOM      8  C   UNL A   1      29.818  25.704  24.510  1.00  0.00     0.139 A 
ATOM      9  C   UNL A   1      31.260  26.500  26.193  1.00  0.00     0.045 A 
ATOM     10  N   UNL A   1      30.251  26.635  23.632  1.00  0.00    -0.236 NA
ATOM     11  C   UNL A   1      31.181  27.563  24.006  1.00  0.00     0.141 A 
BRANCH   7  12
ATOM     12  N   UNL A   1      29.686  24.706  26.701  1.00  0.00    -0.325 N 
ATOM     13  C   UNL A   1      31.394  22.958  26.301  1.00  0.00     0.114 C 
ATOM     14  C   UNL A   1      30.064  23.397  26.861  1.00  0.00     0.221 C 
ATOM     15  O   UNL A   1      29.366  22.633  27.525  1.00  0.00    -0.275 OA
ATOM     16  H   UNL A   1      28.947  25.019  27.272  1.00  0.00     0.169 HD
ENDBRANCH   7  12
BRANCH  11  17
ATOM     17  N   UNL A   1      31.432  28.538  23.058  1.00  0.00    -0.359 N 
ATOM     18  C   UNL A   1      32.817  28.757  22.642  1.00  0.00     0.145 C 
BRANCH  17  19
ATOM     19  C   UNL A   1      30.414  29.297  22.319  1.00  0.00     0.122 C 
BRANCH  19  20
ATOM     20  C   UNL A   1      29.565  30.227  23.196  1.00  0.00     0.060 C 
BRANCH  20  21
ATOM     21  C   UNL A   1      28.912  31.364  22.485  1.00  0.00    -0.008 A 
ATOM     22  C   UNL A   1      28.703  32.674  22.976  1.00  0.00     0.138 A 
ATOM     23  C   UNL A   1      28.349  31.390  21.227  1.00  0.00     0.108 A 
ATOM     24  N   UNL A   1      28.095  33.464  22.089  1.00  0.00    -0.184 NA
ATOM     25  N   UNL A   1      27.854  32.650  21.053  1.00  0.00    -0.285 N 
ATOM     26  H   UNL A   1      27.367  32.932  20.246  1.00  0.00     0.189 HD
ENDBRANCH  20  21
ENDBRANCH  19  20
ENDBRANCH  17  19
ENDBRANCH  11  17
ENDBRANCH   3   6
ENDBRANCH   1   2
BRANCH   1  27
ATOM     27  C   UNL A   1      31.873  31.610  26.655  1.00  0.00     0.042 C 
BRANCH  27  28
ATOM     28  C   UNL A   1      32.883  32.389  27.491  1.00  0.00     0.118 C 
BRANCH  28  29
ATOM     29  N   UNL A   1      32.531  33.802  27.589  1.00  0.00    -0.352 N 
ATOM     30  C   UNL A   1      33.003  34.757  28.462  1.00  0.00     0.251 C 
ATOM     31  H   UNL A   1      31.862  34.117  26.940  1.00  0.00     0.163 HD
ATOM     32  O   UNL A   1      32.448  35.838  28.562  1.00  0.00    -0.269 OA
BRANCH  30  33
ATOM     33  C   UNL A   1      34.179  34.434  29.297  1.00  0.00     0.039 A 
ATOM     34  C   UNL A   1      33.988  33.909  30.575  1.00  0.00     0.014 A 
ATOM     35  C   UNL A   1      35.464  34.586  28.772  1.00  0.00     0.014 A 
ATOM     36  C   UNL A   1      35.090  33.436  31.290  1.00  0.00     0.010 A 
ATOM     37  C   UNL A   1      36.543  34.027  29.442  1.00  0.00     0.010 A 
ATOM     38  C   UNL A   1      36.367  33.435  30.702  1.00  0.00    -0.014 A 
BRANCH  38  39
ATOM     39  C   UNL A   1      37.531  32.791  31.362  1.00  0.00     0.031 A 
ATOM     40  C   UNL A   1      38.213  31.623  30.706  1.00  0.00     0.074 A 
ATOM     41  C   UNL A   1      37.898  33.187  32.597  1.00  0.00     0.049 A 
ATOM     42  N   UNL A   1      39.155  30.845  31.175  1.00  0.00    -0.248 NA
ATOM     43  C   UNL A   1      37.748  31.258  29.359  1.00  0.00     0.031 C 
ATOM     44  C   UNL A   1      37.270  34.265  33.363  1.00  0.00     0.029 A 
ATOM     45  N   UNL A   1      38.877  32.715  33.435  1.00  0.00    -0.354 N 
ATOM     46  C   UNL A   1      39.376  29.889  30.193  1.00  0.00     0.074 A 
ATOM     47  C   UNL A   1      38.432  30.147  29.128  1.00  0.00     0.031 C 
ATOM     48  C   UNL A   1      37.893  34.388  34.545  1.00  0.00     0.029 A 
ATOM     49  C   UNL A   1      38.933  33.369  34.642  1.00  0.00     0.049 A 
ATOM     50  H   UNL A   1      39.484  31.977  33.195  1.00  0.00     0.167 HD
ATOM     51  C   UNL A   1      40.302  28.902  30.170  1.00  0.00     0.037 A 
ATOM     52  C   UNL A   1      39.723  33.161  35.712  1.00  0.00     0.037 A 
ATOM     53  C   UNL A   1      41.263  28.676  31.216  1.00  0.00     0.049 A 
ATOM     54  C   UNL A   1      40.740  32.053  35.664  1.00  0.00     0.074 A 
ATOM     55  C   UNL A   1      42.301  27.763  31.250  1.00  0.00     0.029 A 
ATOM     56  N   UNL A   1      41.299  29.370  32.417  1.00  0.00    -0.354 N 
ATOM     57  N   UNL A   1      40.998  31.209  34.694  1.00  0.00    -0.248 NA
ATOM     58  C   UNL A   1      41.575  31.866  36.859  1.00  0.00     0.031 C 
ATOM     59  C   UNL A   1      42.935  27.871  32.492  1.00  0.00     0.029 A 
ATOM     60  C   UNL A   1      42.322  28.884  33.213  1.00  0.00     0.049 A 
ATOM     61  H   UNL A   1      40.689  30.101  32.665  1.00  0.00     0.167 HD
ATOM     62  C   UNL A   1      42.030  30.404  35.153  1.00  0.00     0.074 A 
ATOM     63  C   UNL A   1      42.368  30.873  36.480  1.00  0.00     0.031 C 
ATOM     64  C   UNL A   1      42.639  29.363  34.534  1.00  0.00     0.037 A 
BRANCH  51  65
ATOM     65  C   UNL A   1      40.329  28.000  28.970  1.00  0.00     0.064 A 
ATOM     66  C   UNL A   1      39.610  26.795  28.941  1.00  0.00     0.173 A 
ATOM     67  C   UNL A   1      41.055  28.358  27.824  1.00  0.00     0.173 A 
ATOM     68  F   UNL A   1      38.909  26.400  30.014  1.00  0.00    -0.203 F 
ATOM     69  C   UNL A   1      39.642  25.967  27.821  1.00  0.00     0.198 A 
ATOM     70  C   UNL A   1      41.060  27.543  26.695  1.00  0.00     0.198 A 
ATOM     71  F   UNL A   1      41.756  29.501  27.798  1.00  0.00    -0.203 F 
ATOM     72  F   UNL A   1      38.990  24.797  27.836  1.00  0.00    -0.200 F 
ATOM     73  C   UNL A   1      40.360  26.346  26.697  1.00  0.00     0.200 A 
ATOM     74  F   UNL A   1      41.744  27.916  25.605  1.00  0.00    -0.200 F 
ATOM     75  F   UNL A   1      40.385  25.553  25.617  1.00  0.00    -0.200 F 
ENDBRANCH  51  65
BRANCH  52  76
ATOM     76  C   UNL A   1      39.593  34.026  36.914  1.00  0.00     0.064 A 
ATOM     77  C   UNL A   1      40.266  35.254  36.991  1.00  0.00     0.173 A 
ATOM     78  C   UNL A   1      38.798  33.650  38.006  1.00  0.00     0.173 A 
ATOM     79  F   UNL A   1      41.056  35.648  35.980  1.00  0.00    -0.203 F 
ATOM     80  C   UNL A   1      40.164  36.063  38.120  1.00  0.00     0.198 A 
ATOM     81  C   UNL A   1      38.673  34.474  39.124  1.00  0.00     0.198 A 
ATOM     82  F   UNL A   1      38.129  32.488  37.982  1.00  0.00    -0.203 F 
ATOM     83  F   UNL A   1      40.853  37.210  38.185  1.00  0.00    -0.200 F 
ATOM     84  C   UNL A   1      39.362  35.675  39.184  1.00  0.00     0.200 A 
ATOM     85  F   UNL A   1      37.887  34.101  40.143  1.00  0.00    -0.200 F 
ATOM     86  F   UNL A   1      39.260  36.455  40.268  1.00  0.00    -0.200 F 
ENDBRANCH  52  76
BRANCH  64  87
ATOM     87  C   UNL A   1      43.738  28.667  35.280  1.00  0.00     0.064 A 
ATOM     88  C   UNL A   1      45.068  29.105  35.196  1.00  0.00     0.173 A 
ATOM     89  C   UNL A   1      43.451  27.590  36.132  1.00  0.00     0.173 A 
ATOM     90  F   UNL A   1      45.394  30.121  34.382  1.00  0.00    -0.203 F 
ATOM     91  C   UNL A   1      46.073  28.479  35.927  1.00  0.00     0.198 A 
ATOM     92  C   UNL A   1      44.454  26.986  36.883  1.00  0.00     0.198 A 
ATOM     93  F   UNL A   1      42.194  27.139  36.252  1.00  0.00    -0.203 F 
ATOM     94  F   UNL A   1      47.344  28.889  35.802  1.00  0.00    -0.200 F 
ATOM     95  C   UNL A   1      45.765  27.427  36.777  1.00  0.00     0.200 A 
ATOM     96  F   UNL A   1      44.153  25.979  37.715  1.00  0.00    -0.200 F 
ATOM     97  F   UNL A   1      46.732  26.835  37.491  1.00  0.00    -0.200 F 
ENDBRANCH  64  87
ENDBRANCH  38  39
ENDBRANCH  30  33
ENDBRANCH  28  29
ENDBRANCH  27  28
ENDBRANCH   1  27
TORSDOF 15
ENDMDL
MODEL 3
REMARK VINA RESULT:     -12.7      1.492      7.964
REMARK SMILES CC(=O)Nc1cnc(N(C)CCc2cn[nH]c2)c(C(=O)NCCCNC(=O)c2ccc(-c3c4nc(c(-c5c(F)c(F)c(F)c(F)c5F)c5ccc([nH]5)c(-c5c(F)c(F)c(F)c(F)c5F)c5nc(c(-c6c(F)c(F)c(F)c(F)c6F)c6ccc3[nH]6)C=C5)C=C4)cc2)c1
REMARK SMILES IDX 22 1 21 2 19 3 20 4 18 6 5 7 6 8 91 9 7 10 8 11 4 12 1 13
REMARK SMILES IDX 2 14 3 15 9 17 10 18 11 19 12 20 13 21 14 22 17 23 15 24
REMARK SMILES IDX 16 25 23 27 24 28 25 29 26 30 27 32 28 33 29 34 90 35 30 36
REMARK SMILES IDX 89 37 31 38 32 39 33 40 83 41 34 42 88 43 82 44 84 45 35 46
REMARK SMILES IDX 87 47 81 48 80 49 36 51 68 52 48 53 67 54 49 55 52 56 66 57
REMARK SMILES IDX 85 58 50 59 51 60 65 62 86 63 53 64 37 65 38 66 46 67 39 68
REMARK SMILES IDX 40 69 44 70 47 71 41 72 42 73 45 74 43 75 69 76 70 77 78 78
REMARK SMILES IDX 71 79 72 80 76 81 79 82 73 83 74 84 77 85 75 86 54 87 55 88
REMARK SMILES IDX 63 89 56 90 57 91 61 92 64 93 58 94 59 95 62 96 60 97
REMARK H PARENT 21 5 4 16 16 26 25 31 84 50 52 61
REMARK Flexibility Score: inf
ROOT
ATOM      1  C   UNL A   1      32.242  30.020  26.653  1.00  0.00     0.118 C 
ENDROOT
BRANCH   1   2
ATOM      2  N   UNL A   1      33.169  29.648  25.597  1.00  0.00    -0.352 N 
ATOM      3  C   UNL A   1      33.015  29.001  24.394  1.00  0.00     0.255 C 
ATOM      4  O   UNL A   1      34.048  28.648  23.825  1.00  0.00    -0.269 OA
ATOM      5  H   UNL A   1      34.098  29.914  25.782  1.00  0.00     0.163 HD
BRANCH   3   6
ATOM      6  C   UNL A   1      31.696  28.712  23.790  1.00  0.00     0.084 A 
ATOM      7  C   UNL A   1      29.891  29.499  22.370  1.00  0.00     0.060 A 
ATOM      8  C   UNL A   1      29.098  28.542  22.960  1.00  0.00     0.139 A 
ATOM      9  C   UNL A   1      31.185  29.628  22.850  1.00  0.00     0.045 A 
ATOM     10  N   UNL A   1      29.560  27.642  23.855  1.00  0.00    -0.236 NA
ATOM     11  C   UNL A   1      30.864  27.671  24.260  1.00  0.00     0.141 A 
BRANCH   7  12
ATOM     12  N   UNL A   1      29.369  30.353  21.391  1.00  0.00    -0.325 N 
ATOM     13  C   UNL A   1      28.433  32.016  22.969  1.00  0.00     0.114 C 
ATOM     14  C   UNL A   1      28.554  31.439  21.581  1.00  0.00     0.221 C 
ATOM     15  O   UNL A   1      28.010  31.976  20.617  1.00  0.00    -0.275 OA
ATOM     16  H   UNL A   1      29.616  30.151  20.459  1.00  0.00     0.169 HD
ENDBRANCH   7  12
BRANCH  11  17
ATOM     17  N   UNL A   1      31.237  26.614  25.070  1.00  0.00    -0.359 N 
ATOM     18  C   UNL A   1      31.085  26.763  26.516  1.00  0.00     0.145 C 
BRANCH  17  19
ATOM     19  C   UNL A   1      31.657  25.285  24.604  1.00  0.00     0.122 C 
BRANCH  19  20
ATOM     20  C   UNL A   1      33.030  25.263  23.919  1.00  0.00     0.060 C 
BRANCH  20  21
ATOM     21  C   UNL A   1      33.011  25.035  22.446  1.00  0.00    -0.008 A 
ATOM     22  C   UNL A   1      32.935  26.016  21.428  1.00  0.00     0.138 A 
ATOM     23  C   UNL A   1      33.031  23.843  21.754  1.00  0.00     0.108 A 
ATOM     24  N   UNL A   1      32.945  25.487  20.204  1.00  0.00    -0.184 NA
ATOM     25  N   UNL A   1      32.961  24.167  20.429  1.00  0.00    -0.285 N 
ATOM     26  H   UNL A   1      32.926  23.495  19.711  1.00  0.00     0.189 HD
ENDBRANCH  20  21
ENDBRANCH  19  20
ENDBRANCH  17  19
ENDBRANCH  11  17
ENDBRANCH   3   6
ENDBRANCH   1   2
BRANCH   1  27
ATOM     27  C   UNL A   1      31.968  31.519  26.590  1.00  0.00     0.042 C 
BRANCH  27  28
ATOM     28  C   UNL A   1      32.939  32.291  27.477  1.00  0.00     0.118 C 
BRANCH  28  29
ATOM     29  N   UNL A   1      32.588  33.705  27.563  1.00  0.00    -0.352 N 
ATOM     30  C   UNL A   1      33.053  34.664  28.436  1.00  0.00     0.251 C 
ATOM     31  H   UNL A   1      31.926  34.017  26.906  1.00  0.00     0.163 HD
ATOM     32  O   UNL A   1      32.498  35.747  28.524  1.00  0.00    -0.269 OA
BRANCH  30  33
ATOM     33  C   UNL A   1      34.220  34.345  29.283  1.00  0.00     0.039 A 
ATOM     34  C   UNL A   1      34.021  33.740  30.524  1.00  0.00     0.014 A 
ATOM     35  C   UNL A   1      35.510  34.581  28.804  1.00  0.00     0.014 A 
ATOM     36  C   UNL A   1      35.124  33.274  31.242  1.00  0.00     0.010 A 
ATOM     37  C   UNL A   1      36.596  34.031  29.471  1.00  0.00     0.010 A 
ATOM     38  C   UNL A   1      36.414  33.361  30.691  1.00  0.00    -0.014 A 
BRANCH  38  39
ATOM     39  C   UNL A   1      37.588  32.730  31.345  1.00  0.00     0.031 A 
ATOM     40  C   UNL A   1      38.295  31.585  30.676  1.00  0.00     0.074 A 
ATOM     41  C   UNL A   1      37.944  33.117  32.587  1.00  0.00     0.049 A 
ATOM     42  N   UNL A   1      39.250  30.818  31.138  1.00  0.00    -0.248 NA
ATOM     43  C   UNL A   1      37.840  31.229  29.323  1.00  0.00     0.031 C 
ATOM     44  C   UNL A   1      37.293  34.172  33.365  1.00  0.00     0.029 A 
ATOM     45  N   UNL A   1      38.930  32.653  33.421  1.00  0.00    -0.354 N 
ATOM     46  C   UNL A   1      39.492  29.881  30.143  1.00  0.00     0.074 A 
ATOM     47  C   UNL A   1      38.547  30.135  29.079  1.00  0.00     0.031 C 
ATOM     48  C   UNL A   1      37.911  34.291  34.551  1.00  0.00     0.029 A 
ATOM     49  C   UNL A   1      38.969  33.291  34.638  1.00  0.00     0.049 A 
ATOM     50  H   UNL A   1      39.551  31.929  33.173  1.00  0.00     0.167 HD
ATOM     51  C   UNL A   1      40.437  28.912  30.110  1.00  0.00     0.037 A 
ATOM     52  C   UNL A   1      39.760  33.084  35.707  1.00  0.00     0.037 A 
ATOM     53  C   UNL A   1      41.399  28.690  31.157  1.00  0.00     0.049 A 
ATOM     54  C   UNL A   1      40.799  31.997  35.648  1.00  0.00     0.074 A 
ATOM     55  C   UNL A   1      42.454  27.796  31.181  1.00  0.00     0.029 A 
ATOM     56  N   UNL A   1      41.418  29.369  32.366  1.00  0.00    -0.354 N 
ATOM     57  N   UNL A   1      41.075  31.171  34.667  1.00  0.00    -0.248 NA
ATOM     58  C   UNL A   1      41.633  31.809  36.842  1.00  0.00     0.031 C 
ATOM     59  C   UNL A   1      43.083  27.900  32.427  1.00  0.00     0.029 A 
ATOM     60  C   UNL A   1      42.449  28.891  33.159  1.00  0.00     0.049 A 
ATOM     61  H   UNL A   1      40.793  30.085  32.622  1.00  0.00     0.167 HD
ATOM     62  C   UNL A   1      42.121  30.379  35.118  1.00  0.00     0.074 A 
ATOM     63  C   UNL A   1      42.446  30.837  36.453  1.00  0.00     0.031 C 
ATOM     64  C   UNL A   1      42.752  29.359  34.487  1.00  0.00     0.037 A 
BRANCH  51  65
ATOM     65  C   UNL A   1      40.484  28.027  28.899  1.00  0.00     0.064 A 
ATOM     66  C   UNL A   1      39.769  26.820  28.841  1.00  0.00     0.173 A 
ATOM     67  C   UNL A   1      41.228  28.402  27.769  1.00  0.00     0.173 A 
ATOM     68  F   UNL A   1      39.053  26.409  29.898  1.00  0.00    -0.203 F 
ATOM     69  C   UNL A   1      39.821  26.009  27.710  1.00  0.00     0.198 A 
ATOM     70  C   UNL A   1      41.252  27.603  26.629  1.00  0.00     0.198 A 
ATOM     71  F   UNL A   1      41.926  29.547  27.769  1.00  0.00    -0.203 F 
ATOM     72  F   UNL A   1      39.171  24.837  27.700  1.00  0.00    -0.200 F 
ATOM     73  C   UNL A   1      40.555  26.405  26.603  1.00  0.00     0.200 A 
ATOM     74  F   UNL A   1      41.952  27.993  25.554  1.00  0.00    -0.200 F 
ATOM     75  F   UNL A   1      40.599  25.626  25.513  1.00  0.00    -0.200 F 
ENDBRANCH  51  65
BRANCH  52  76
ATOM     76  C   UNL A   1      39.610  33.930  36.920  1.00  0.00     0.064 A 
ATOM     77  C   UNL A   1      38.848  33.491  38.012  1.00  0.00     0.173 A 
ATOM     78  C   UNL A   1      40.220  35.190  37.016  1.00  0.00     0.173 A 
ATOM     79  F   UNL A   1      38.227  32.303  37.959  1.00  0.00    -0.203 F 
ATOM     80  C   UNL A   1      38.688  34.285  39.145  1.00  0.00     0.198 A 
ATOM     81  C   UNL A   1      40.082  35.971  38.162  1.00  0.00     0.198 A 
ATOM     82  F   UNL A   1      40.963  35.655  36.002  1.00  0.00    -0.203 F 
ATOM     83  F   UNL A   1      37.918  33.859  40.156  1.00  0.00    -0.200 F 
ATOM     84  C   UNL A   1      39.310  35.522  39.222  1.00  0.00     0.200 A 
ATOM     85  F   UNL A   1      40.696  37.159  38.237  1.00  0.00    -0.200 F 
ATOM     86  F   UNL A   1      39.159  36.284  40.314  1.00  0.00    -0.200 F 
ENDBRANCH  52  76
BRANCH  64  87
ATOM     87  C   UNL A   1      43.862  28.674  35.228  1.00  0.00     0.064 A 
ATOM     88  C   UNL A   1      43.620  27.546  36.026  1.00  0.00     0.173 A 
ATOM     89  C   UNL A   1      45.188  29.114  35.091  1.00  0.00     0.173 A 
ATOM     90  F   UNL A   1      42.368  27.099  36.199  1.00  0.00    -0.203 F 
ATOM     91  C   UNL A   1      44.665  26.894  36.673  1.00  0.00     0.198 A 
ATOM     92  C   UNL A   1      46.232  28.441  35.718  1.00  0.00     0.198 A 
ATOM     93  F   UNL A   1      45.471  30.184  34.334  1.00  0.00    -0.203 F 
ATOM     94  F   UNL A   1      44.406  25.840  37.462  1.00  0.00    -0.200 F 
ATOM     95  C   UNL A   1      45.970  27.334  36.512  1.00  0.00     0.200 A 
ATOM     96  F   UNL A   1      47.494  28.859  35.549  1.00  0.00    -0.200 F 
ATOM     97  F   UNL A   1      46.976  26.695  37.125  1.00  0.00    -0.200 F 
ENDBRANCH  64  87
ENDBRANCH  38  39
ENDBRANCH  30  33
ENDBRANCH  28  29
ENDBRANCH  27  28
ENDBRANCH   1  27
TORSDOF 15
ENDMDL
