MODEL 1
REMARK VINA RESULT:     -13.3      0.000      0.000
REMARK SMILES Cc1cc(Br)cc2c1O[C@H](C(F)(F)F)C(C(=O)NCCCNC(=O)c1ccc(-c3c4nc(c(-c5c(F)c(F)c(F)c(F)c5F)c5ccc([nH]5)c(-c5c(F)c(F)c(F)c(F)c5F)c5nc(c(-c6c(F)c(F)c(F)c(F)c6F)c6ccc3[nH]6)C=C5)C=C4)cc1)=C2
REMARK SMILES IDX 20 1 19 2 18 3 16 4 17 5 15 7 1 8 2 9 3 10 8 11 4 12 7 13
REMARK SMILES IDX 9 14 5 15 6 16 88 17 10 18 11 19 12 20 13 21 14 22 21 23
REMARK SMILES IDX 22 24 23 25 24 27 25 28 26 29 87 30 27 31 86 32 28 33 29 34
REMARK SMILES IDX 30 35 80 36 31 37 85 38 79 39 81 40 32 41 84 42 78 43 77 44
REMARK SMILES IDX 33 46 65 47 45 48 64 49 46 50 49 51 63 52 82 53 47 54 48 55
REMARK SMILES IDX 62 57 83 58 50 59 34 60 35 61 43 62 36 63 37 64 41 65 44 66
REMARK SMILES IDX 38 67 39 68 42 69 40 70 66 71 67 72 75 73 68 74 69 75 73 76
REMARK SMILES IDX 76 77 70 78 71 79 74 80 72 81 51 82 52 83 60 84 53 85 54 86
REMARK SMILES IDX 58 87 61 88 55 89 56 90 59 91 57 92
REMARK H PARENT 18 6 22 26 81 45 49 56
REMARK Flexibility Score: inf
ROOT
ATOM      1  C   UNL A   1      31.415  32.228  26.583  1.00  0.00     0.042 C 
ENDROOT
BRANCH   1   2
ATOM      2  C   UNL A   1      31.524  30.727  26.355  1.00  0.00     0.118 C 
BRANCH   2   3
ATOM      3  N   UNL A   1      31.280  30.374  24.965  1.00  0.00    -0.352 N 
ATOM      4  C   UNL A   1      31.260  29.250  24.212  1.00  0.00     0.251 C 
ATOM      5  O   UNL A   1      31.015  29.431  23.015  1.00  0.00    -0.270 OA
ATOM      6  H   UNL A   1      31.074  31.171  24.424  1.00  0.00     0.163 HD
BRANCH   4   7
ATOM      7  C   UNL A   1      31.507  27.870  24.718  1.00  0.00     0.067 C 
ATOM      8  C   UNL A   1      31.273  23.222  26.919  1.00  0.00     0.048 C 
ATOM      9  C   UNL A   1      32.364  24.102  26.378  1.00  0.00    -0.007 A 
ATOM     10  C   UNL A   1      33.676  23.614  26.304  1.00  0.00     0.023 A 
ATOM     11  C   UNL A   1      32.093  25.379  25.871  1.00  0.00     0.130 A 
ATOM     12  C   UNL A   1      34.692  24.408  25.770  1.00  0.00     0.019 A 
ATOM     13  C   UNL A   1      33.113  26.179  25.340  1.00  0.00     0.019 A 
ATOM     14  O   UNL A   1      30.804  25.831  25.958  1.00  0.00    -0.475 OA
ATOM     15  Br  UNL A   1      36.458  23.737  25.693  1.00  0.00    -0.051 Br
ATOM     16  C   UNL A   1      34.420  25.690  25.294  1.00  0.00     0.027 A 
ATOM     17  C   UNL A   1      32.797  27.523  24.872  1.00  0.00     0.025 C 
ATOM     18  C   UNL A   1      30.425  26.875  25.022  1.00  0.00     0.314 C 
BRANCH  18  19
ATOM     19  C   UNL A   1      29.827  26.235  23.755  1.00  0.00     0.429 C 
ATOM     20  F   UNL A   1      28.626  26.798  23.466  1.00  0.00    -0.167 F 
ATOM     21  F   UNL A   1      30.606  26.418  22.663  1.00  0.00    -0.167 F 
ATOM     22  F   UNL A   1      29.633  24.903  23.878  1.00  0.00    -0.167 F 
ENDBRANCH  18  19
ENDBRANCH   4   7
ENDBRANCH   2   3
ENDBRANCH   1   2
BRANCH   1  23
ATOM     23  C   UNL A   1      32.662  32.802  27.244  1.00  0.00     0.118 C 
BRANCH  23  24
ATOM     24  N   UNL A   1      32.488  34.208  27.602  1.00  0.00    -0.352 N 
ATOM     25  C   UNL A   1      33.020  34.929  28.640  1.00  0.00     0.251 C 
ATOM     26  H   UNL A   1      31.895  34.717  27.004  1.00  0.00     0.163 HD
ATOM     27  O   UNL A   1      32.547  36.025  28.933  1.00  0.00    -0.269 OA
BRANCH  25  28
ATOM     28  C   UNL A   1      34.151  34.386  29.414  1.00  0.00     0.039 A 
ATOM     29  C   UNL A   1      33.906  33.745  30.631  1.00  0.00     0.014 A 
ATOM     30  C   UNL A   1      35.459  34.524  28.943  1.00  0.00     0.014 A 
ATOM     31  C   UNL A   1      34.968  33.178  31.336  1.00  0.00     0.010 A 
ATOM     32  C   UNL A   1      36.500  33.873  29.592  1.00  0.00     0.010 A 
ATOM     33  C   UNL A   1      36.267  33.203  30.800  1.00  0.00    -0.014 A 
BRANCH  33  34
ATOM     34  C   UNL A   1      37.398  32.545  31.496  1.00  0.00     0.031 A 
ATOM     35  C   UNL A   1      38.125  31.405  30.838  1.00  0.00     0.074 A 
ATOM     36  C   UNL A   1      37.732  32.940  32.740  1.00  0.00     0.049 A 
ATOM     37  N   UNL A   1      39.114  30.681  31.299  1.00  0.00    -0.248 NA
ATOM     38  C   UNL A   1      37.662  31.002  29.499  1.00  0.00     0.031 C 
ATOM     39  C   UNL A   1      37.056  33.993  33.500  1.00  0.00     0.029 A 
ATOM     40  N   UNL A   1      38.722  32.505  33.584  1.00  0.00    -0.354 N 
ATOM     41  C   UNL A   1      39.380  29.740  30.314  1.00  0.00     0.074 A 
ATOM     42  C   UNL A   1      38.410  29.935  29.262  1.00  0.00     0.031 C 
ATOM     43  C   UNL A   1      37.679  34.153  34.679  1.00  0.00     0.029 A 
ATOM     44  C   UNL A   1      38.774  33.194  34.772  1.00  0.00     0.049 A 
ATOM     45  H   UNL A   1      39.337  31.769  33.360  1.00  0.00     0.167 HD
ATOM     46  C   UNL A   1      40.372  28.820  30.276  1.00  0.00     0.037 A 
ATOM     47  C   UNL A   1      39.618  33.068  35.814  1.00  0.00     0.037 A 
ATOM     48  C   UNL A   1      41.359  28.661  31.308  1.00  0.00     0.049 A 
ATOM     49  C   UNL A   1      40.715  32.040  35.746  1.00  0.00     0.074 A 
ATOM     50  C   UNL A   1      42.443  27.802  31.337  1.00  0.00     0.029 A 
ATOM     51  N   UNL A   1      41.384  29.385  32.491  1.00  0.00    -0.354 N 
ATOM     52  N   UNL A   1      41.002  31.205  34.776  1.00  0.00    -0.248 NA
ATOM     53  C   UNL A   1      41.606  31.937  36.910  1.00  0.00     0.031 C 
ATOM     54  C   UNL A   1      43.103  27.979  32.555  1.00  0.00     0.029 A 
ATOM     55  C   UNL A   1      42.457  28.978  33.265  1.00  0.00     0.049 A 
ATOM     56  H   UNL A   1      40.737  30.083  32.742  1.00  0.00     0.167 HD
ATOM     57  C   UNL A   1      42.117  30.497  35.200  1.00  0.00     0.074 A 
ATOM     58  C   UNL A   1      42.463  31.006  36.511  1.00  0.00     0.031 C 
ATOM     59  C   UNL A   1      42.792  29.513  34.559  1.00  0.00     0.037 A 
BRANCH  46  60
ATOM     60  C   UNL A   1      40.463  27.939  29.067  1.00  0.00     0.064 A 
ATOM     61  C   UNL A   1      39.732  26.745  28.979  1.00  0.00     0.173 A 
ATOM     62  C   UNL A   1      41.234  28.320  27.959  1.00  0.00     0.173 A 
ATOM     63  F   UNL A   1      38.989  26.330  30.016  1.00  0.00    -0.203 F 
ATOM     64  C   UNL A   1      39.783  25.956  27.833  1.00  0.00     0.198 A 
ATOM     65  C   UNL A   1      41.260  27.543  26.803  1.00  0.00     0.198 A 
ATOM     66  F   UNL A   1      41.947  29.456  27.989  1.00  0.00    -0.203 F 
ATOM     67  F   UNL A   1      39.104  24.800  27.787  1.00  0.00    -0.200 F 
ATOM     68  C   UNL A   1      40.538  26.360  26.743  1.00  0.00     0.200 A 
ATOM     69  F   UNL A   1      41.980  27.941  25.746  1.00  0.00    -0.200 F 
ATOM     70  F   UNL A   1      40.574  25.607  25.635  1.00  0.00    -0.200 F 
ENDBRANCH  46  60
BRANCH  47  71
ATOM     71  C   UNL A   1      39.490  33.979  36.981  1.00  0.00     0.064 A 
ATOM     72  C   UNL A   1      38.762  33.589  38.114  1.00  0.00     0.173 A 
ATOM     73  C   UNL A   1      40.109  35.236  37.005  1.00  0.00     0.173 A 
ATOM     74  F   UNL A   1      38.140  32.401  38.133  1.00  0.00    -0.203 F 
ATOM     75  C   UNL A   1      38.650  34.426  39.223  1.00  0.00     0.198 A 
ATOM     76  C   UNL A   1      40.017  36.063  38.123  1.00  0.00     0.198 A 
ATOM     77  F   UNL A   1      40.824  35.653  35.949  1.00  0.00    -0.203 F 
ATOM     78  F   UNL A   1      37.924  34.040  40.280  1.00  0.00    -0.200 F 
ATOM     79  C   UNL A   1      39.284  35.659  39.229  1.00  0.00     0.200 A 
ATOM     80  F   UNL A   1      40.644  37.248  38.132  1.00  0.00    -0.200 F 
ATOM     81  F   UNL A   1      39.185  36.459  40.299  1.00  0.00    -0.200 F 
ENDBRANCH  47  71
BRANCH  59  82
ATOM     82  C   UNL A   1      43.989  28.925  35.243  1.00  0.00     0.064 A 
ATOM     83  C   UNL A   1      45.268  29.469  35.066  1.00  0.00     0.173 A 
ATOM     84  C   UNL A   1      43.834  27.889  36.176  1.00  0.00     0.173 A 
ATOM     85  F   UNL A   1      45.466  30.454  34.176  1.00  0.00    -0.203 F 
ATOM     86  C   UNL A   1      46.351  28.998  35.803  1.00  0.00     0.198 A 
ATOM     87  C   UNL A   1      44.913  27.438  36.929  1.00  0.00     0.198 A 
ATOM     88  F   UNL A   1      42.626  27.345  36.386  1.00  0.00    -0.203 F 
ATOM     89  F   UNL A   1      47.569  29.522  35.610  1.00  0.00    -0.200 F 
ATOM     90  C   UNL A   1      46.169  27.994  36.742  1.00  0.00     0.200 A 
ATOM     91  F   UNL A   1      44.733  26.480  37.849  1.00  0.00    -0.200 F 
ATOM     92  F   UNL A   1      47.208  27.563  37.473  1.00  0.00    -0.200 F 
ENDBRANCH  59  82
ENDBRANCH  33  34
ENDBRANCH  25  28
ENDBRANCH  23  24
ENDBRANCH   1  23
TORSDOF 11
ENDMDL
MODEL 2
REMARK VINA RESULT:     -13.3      0.709      7.488
REMARK SMILES Cc1cc(Br)cc2c1O[C@H](C(F)(F)F)C(C(=O)NCCCNC(=O)c1ccc(-c3c4nc(c(-c5c(F)c(F)c(F)c(F)c5F)c5ccc([nH]5)c(-c5c(F)c(F)c(F)c(F)c5F)c5nc(c(-c6c(F)c(F)c(F)c(F)c6F)c6ccc3[nH]6)C=C5)C=C4)cc1)=C2
REMARK SMILES IDX 20 1 19 2 18 3 16 4 17 5 15 7 1 8 2 9 3 10 8 11 4 12 7 13
REMARK SMILES IDX 9 14 5 15 6 16 88 17 10 18 11 19 12 20 13 21 14 22 21 23
REMARK SMILES IDX 22 24 23 25 24 27 25 28 26 29 87 30 27 31 86 32 28 33 29 34
REMARK SMILES IDX 30 35 80 36 31 37 85 38 79 39 81 40 32 41 84 42 78 43 77 44
REMARK SMILES IDX 33 46 65 47 45 48 64 49 46 50 49 51 63 52 82 53 47 54 48 55
REMARK SMILES IDX 62 57 83 58 50 59 34 60 35 61 43 62 36 63 37 64 41 65 44 66
REMARK SMILES IDX 38 67 39 68 42 69 40 70 66 71 67 72 75 73 68 74 69 75 73 76
REMARK SMILES IDX 76 77 70 78 71 79 74 80 72 81 51 82 52 83 60 84 53 85 54 86
REMARK SMILES IDX 58 87 61 88 55 89 56 90 59 91 57 92
REMARK H PARENT 18 6 22 26 81 45 49 56
REMARK Flexibility Score: inf
ROOT
ATOM      1  C   UNL A   1      31.403  32.228  26.657  1.00  0.00     0.042 C 
ENDROOT
BRANCH   1   2
ATOM      2  C   UNL A   1      31.529  30.732  26.406  1.00  0.00     0.118 C 
BRANCH   2   3
ATOM      3  N   UNL A   1      31.300  30.399  25.009  1.00  0.00    -0.352 N 
ATOM      4  C   UNL A   1      31.281  29.286  24.240  1.00  0.00     0.251 C 
ATOM      5  O   UNL A   1      31.052  29.483  23.043  1.00  0.00    -0.270 OA
ATOM      6  H   UNL A   1      31.106  31.204  24.476  1.00  0.00     0.163 HD
BRANCH   4   7
ATOM      7  C   UNL A   1      31.513  27.897  24.731  1.00  0.00     0.067 C 
ATOM      8  C   UNL A   1      31.226  23.227  26.878  1.00  0.00     0.048 C 
ATOM      9  C   UNL A   1      32.327  24.101  26.349  1.00  0.00    -0.007 A 
ATOM     10  C   UNL A   1      33.634  23.601  26.273  1.00  0.00     0.023 A 
ATOM     11  C   UNL A   1      32.071  25.387  25.856  1.00  0.00     0.130 A 
ATOM     12  C   UNL A   1      34.660  24.391  25.750  1.00  0.00     0.019 A 
ATOM     13  C   UNL A   1      33.100  26.183  25.337  1.00  0.00     0.019 A 
ATOM     14  O   UNL A   1      30.787  25.851  25.946  1.00  0.00    -0.475 OA
ATOM     15  Br  UNL A   1      36.419  23.702  25.669  1.00  0.00    -0.051 Br
ATOM     16  C   UNL A   1      34.402  25.680  25.289  1.00  0.00     0.027 A 
ATOM     17  C   UNL A   1      32.799  27.535  24.884  1.00  0.00     0.025 C 
ATOM     18  C   UNL A   1      30.421  26.910  25.021  1.00  0.00     0.314 C 
BRANCH  18  19
ATOM     19  C   UNL A   1      29.819  26.290  23.745  1.00  0.00     0.429 C 
ATOM     20  F   UNL A   1      29.739  24.941  23.871  1.00  0.00    -0.167 F 
ATOM     21  F   UNL A   1      28.560  26.725  23.501  1.00  0.00    -0.167 F 
ATOM     22  F   UNL A   1      30.546  26.554  22.638  1.00  0.00    -0.167 F 
ENDBRANCH  18  19
ENDBRANCH   4   7
ENDBRANCH   2   3
ENDBRANCH   1   2
BRANCH   1  23
ATOM     23  C   UNL A   1      32.719  32.848  27.111  1.00  0.00     0.118 C 
BRANCH  23  24
ATOM     24  N   UNL A   1      32.532  34.202  27.626  1.00  0.00    -0.352 N 
ATOM     25  C   UNL A   1      33.075  34.814  28.727  1.00  0.00     0.251 C 
ATOM     26  H   UNL A   1      31.918  34.765  27.099  1.00  0.00     0.163 HD
ATOM     27  O   UNL A   1      32.592  35.863  29.149  1.00  0.00    -0.269 OA
BRANCH  25  28
ATOM     28  C   UNL A   1      34.231  34.208  29.413  1.00  0.00     0.039 A 
ATOM     29  C   UNL A   1      34.014  33.331  30.479  1.00  0.00     0.014 A 
ATOM     30  C   UNL A   1      35.532  34.520  29.013  1.00  0.00     0.014 A 
ATOM     31  C   UNL A   1      35.103  32.710  31.091  1.00  0.00     0.010 A 
ATOM     32  C   UNL A   1      36.607  33.827  29.554  1.00  0.00     0.010 A 
ATOM     33  C   UNL A   1      36.404  32.923  30.605  1.00  0.00    -0.014 A 
BRANCH  33  34
ATOM     34  C   UNL A   1      37.569  32.220  31.193  1.00  0.00     0.031 A 
ATOM     35  C   UNL A   1      38.063  32.597  32.562  1.00  0.00     0.074 A 
ATOM     36  C   UNL A   1      38.212  31.282  30.470  1.00  0.00     0.049 A 
ATOM     37  N   UNL A   1      39.085  32.124  33.230  1.00  0.00    -0.248 NA
ATOM     38  C   UNL A   1      37.335  33.669  33.262  1.00  0.00     0.031 C 
ATOM     39  C   UNL A   1      37.859  30.879  29.107  1.00  0.00     0.029 A 
ATOM     40  N   UNL A   1      39.294  30.497  30.778  1.00  0.00    -0.354 N 
ATOM     41  C   UNL A   1      39.123  32.844  34.416  1.00  0.00     0.074 A 
ATOM     42  C   UNL A   1      38.070  33.831  34.352  1.00  0.00     0.031 C 
ATOM     43  C   UNL A   1      38.680  29.891  28.714  1.00  0.00     0.029 A 
ATOM     44  C   UNL A   1      39.636  29.615  29.781  1.00  0.00     0.049 A 
ATOM     45  H   UNL A   1      39.780  30.559  31.633  1.00  0.00     0.167 HD
ATOM     46  C   UNL A   1      39.940  32.669  35.480  1.00  0.00     0.037 A 
ATOM     47  C   UNL A   1      40.608  28.684  29.740  1.00  0.00     0.037 A 
ATOM     48  C   UNL A   1      40.958  31.657  35.553  1.00  0.00     0.049 A 
ATOM     49  C   UNL A   1      41.502  28.507  30.937  1.00  0.00     0.074 A 
ATOM     50  C   UNL A   1      41.797  31.355  36.610  1.00  0.00     0.029 A 
ATOM     51  N   UNL A   1      41.266  30.777  34.527  1.00  0.00    -0.354 N 
ATOM     52  N   UNL A   1      41.480  29.145  32.082  1.00  0.00    -0.248 NA
ATOM     53  C   UNL A   1      42.551  27.482  30.841  1.00  0.00     0.031 C 
ATOM     54  C   UNL A   1      42.640  30.316  36.210  1.00  0.00     0.029 A 
ATOM     55  C   UNL A   1      42.297  29.942  34.921  1.00  0.00     0.049 A 
ATOM     56  H   UNL A   1      40.819  30.749  33.650  1.00  0.00     0.167 HD
ATOM     57  C   UNL A   1      42.490  28.584  32.851  1.00  0.00     0.074 A 
ATOM     58  C   UNL A   1      43.101  27.547  32.046  1.00  0.00     0.031 C 
ATOM     59  C   UNL A   1      42.877  28.903  34.109  1.00  0.00     0.037 A 
BRANCH  46  60
ATOM     60  C   UNL A   1      39.748  33.567  36.666  1.00  0.00     0.064 A 
ATOM     61  C   UNL A   1      40.380  34.816  36.744  1.00  0.00     0.173 A 
ATOM     62  C   UNL A   1      38.873  33.207  37.701  1.00  0.00     0.173 A 
ATOM     63  F   UNL A   1      41.235  35.202  35.785  1.00  0.00    -0.203 F 
ATOM     64  C   UNL A   1      40.158  35.665  37.825  1.00  0.00     0.198 A 
ATOM     65  C   UNL A   1      38.631  34.071  38.767  1.00  0.00     0.198 A 
ATOM     66  F   UNL A   1      38.238  32.025  37.672  1.00  0.00    -0.203 F 
ATOM     67  F   UNL A   1      40.803  36.839  37.895  1.00  0.00    -0.200 F 
ATOM     68  C   UNL A   1      39.277  35.297  38.829  1.00  0.00     0.200 A 
ATOM     69  F   UNL A   1      37.769  33.719  39.730  1.00  0.00    -0.200 F 
ATOM     70  F   UNL A   1      39.052  36.122  39.861  1.00  0.00    -0.200 F 
ENDBRANCH  46  60
BRANCH  47  71
ATOM     71  C   UNL A   1      40.744  27.812  28.544  1.00  0.00     0.064 A 
ATOM     72  C   UNL A   1      40.045  26.599  28.461  1.00  0.00     0.173 A 
ATOM     73  C   UNL A   1      41.542  28.180  27.452  1.00  0.00     0.173 A 
ATOM     74  F   UNL A   1      39.279  26.198  29.487  1.00  0.00    -0.203 F 
ATOM     75  C   UNL A   1      40.149  25.783  27.337  1.00  0.00     0.198 A 
ATOM     76  C   UNL A   1      41.627  27.374  26.318  1.00  0.00     0.198 A 
ATOM     77  F   UNL A   1      42.225  29.335  27.478  1.00  0.00    -0.203 F 
ATOM     78  F   UNL A   1      39.494  24.615  27.297  1.00  0.00    -0.200 F 
ATOM     79  C   UNL A   1      40.934  26.175  26.263  1.00  0.00     0.200 A 
ATOM     80  F   UNL A   1      42.374  27.765  25.275  1.00  0.00    -0.200 F 
ATOM     81  F   UNL A   1      41.024  25.394  25.178  1.00  0.00    -0.200 F 
ENDBRANCH  47  71
BRANCH  59  82
ATOM     82  C   UNL A   1      43.998  28.117  34.718  1.00  0.00     0.064 A 
ATOM     83  C   UNL A   1      43.759  26.910  35.389  1.00  0.00     0.173 A 
ATOM     84  C   UNL A   1      45.329  28.512  34.520  1.00  0.00     0.173 A 
ATOM     85  F   UNL A   1      42.502  26.499  35.610  1.00  0.00    -0.203 F 
ATOM     86  C   UNL A   1      44.816  26.124  35.839  1.00  0.00     0.198 A 
ATOM     87  C   UNL A   1      46.383  27.712  34.948  1.00  0.00     0.198 A 
ATOM     88  F   UNL A   1      45.606  29.655  33.874  1.00  0.00    -0.203 F 
ATOM     89  F   UNL A   1      44.567  24.980  36.490  1.00  0.00    -0.200 F 
ATOM     90  C   UNL A   1      46.125  26.519  35.606  1.00  0.00     0.200 A 
ATOM     91  F   UNL A   1      47.647  28.086  34.707  1.00  0.00    -0.200 F 
ATOM     92  F   UNL A   1      47.142  25.745  36.012  1.00  0.00    -0.200 F 
ENDBRANCH  59  82
ENDBRANCH  33  34
ENDBRANCH  25  28
ENDBRANCH  23  24
ENDBRANCH   1  23
TORSDOF 11
ENDMDL
MODEL 3
REMARK VINA RESULT:     -13.3      5.747      9.885
REMARK SMILES Cc1cc(Br)cc2c1O[C@H](C(F)(F)F)C(C(=O)NCCCNC(=O)c1ccc(-c3c4nc(c(-c5c(F)c(F)c(F)c(F)c5F)c5ccc([nH]5)c(-c5c(F)c(F)c(F)c(F)c5F)c5nc(c(-c6c(F)c(F)c(F)c(F)c6F)c6ccc3[nH]6)C=C5)C=C4)cc1)=C2
REMARK SMILES IDX 20 1 19 2 18 3 16 4 17 5 15 7 1 8 2 9 3 10 8 11 4 12 7 13
REMARK SMILES IDX 9 14 5 15 6 16 88 17 10 18 11 19 12 20 13 21 14 22 21 23
REMARK SMILES IDX 22 24 23 25 24 27 25 28 26 29 87 30 27 31 86 32 28 33 29 34
REMARK SMILES IDX 30 35 80 36 31 37 85 38 79 39 81 40 32 41 84 42 78 43 77 44
REMARK SMILES IDX 33 46 65 47 45 48 64 49 46 50 49 51 63 52 82 53 47 54 48 55
REMARK SMILES IDX 62 57 83 58 50 59 34 60 35 61 43 62 36 63 37 64 41 65 44 66
REMARK SMILES IDX 38 67 39 68 42 69 40 70 66 71 67 72 75 73 68 74 69 75 73 76
REMARK SMILES IDX 76 77 70 78 71 79 74 80 72 81 51 82 52 83 60 84 53 85 54 86
REMARK SMILES IDX 58 87 61 88 55 89 56 90 59 91 57 92
REMARK H PARENT 18 6 22 26 81 45 49 56
REMARK Flexibility Score: inf
ROOT
ATOM      1  C   UNL A   1      38.054  19.582  25.016  1.00  0.00     0.042 C 
ENDROOT
BRANCH   1   2
ATOM      2  C   UNL A   1      37.031  20.660  24.690  1.00  0.00     0.118 C 
BRANCH   2   3
ATOM      3  N   UNL A   1      35.742  20.382  25.305  1.00  0.00    -0.352 N 
ATOM      4  C   UNL A   1      34.540  20.993  25.418  1.00  0.00     0.251 C 
ATOM      5  O   UNL A   1      33.700  20.372  26.077  1.00  0.00    -0.270 OA
ATOM      6  H   UNL A   1      35.745  19.512  25.765  1.00  0.00     0.163 HD
BRANCH   4   7
ATOM      7  C   UNL A   1      34.185  22.313  24.822  1.00  0.00     0.067 C 
ATOM      8  C   UNL A   1      33.129  26.300  21.741  1.00  0.00     0.048 C 
ATOM      9  C   UNL A   1      33.477  26.125  23.192  1.00  0.00    -0.007 A 
ATOM     10  C   UNL A   1      33.441  27.231  24.053  1.00  0.00     0.023 A 
ATOM     11  C   UNL A   1      33.765  24.865  23.731  1.00  0.00     0.130 A 
ATOM     12  C   UNL A   1      33.727  27.075  25.410  1.00  0.00     0.019 A 
ATOM     13  C   UNL A   1      34.057  24.708  25.092  1.00  0.00     0.019 A 
ATOM     14  O   UNL A   1      33.796  23.803  22.868  1.00  0.00    -0.475 OA
ATOM     15  Br  UNL A   1      33.687  28.583  26.551  1.00  0.00    -0.051 Br
ATOM     16  C   UNL A   1      34.041  25.823  25.934  1.00  0.00     0.027 A 
ATOM     17  C   UNL A   1      34.404  23.387  25.602  1.00  0.00     0.025 C 
ATOM     18  C   UNL A   1      33.588  22.491  23.457  1.00  0.00     0.314 C 
BRANCH  18  19
ATOM     19  C   UNL A   1      32.090  22.138  23.408  1.00  0.00     0.429 C 
ATOM     20  F   UNL A   1      31.909  20.937  22.801  1.00  0.00    -0.167 F 
ATOM     21  F   UNL A   1      31.541  22.029  24.641  1.00  0.00    -0.167 F 
ATOM     22  F   UNL A   1      31.356  23.049  22.732  1.00  0.00    -0.167 F 
ENDBRANCH  18  19
ENDBRANCH   4   7
ENDBRANCH   2   3
ENDBRANCH   1   2
BRANCH   1  23
ATOM     23  C   UNL A   1      39.203  20.117  25.862  1.00  0.00     0.118 C 
BRANCH  23  24
ATOM     24  N   UNL A   1      40.308  19.164  25.942  1.00  0.00    -0.352 N 
ATOM     25  C   UNL A   1      41.657  19.380  26.066  1.00  0.00     0.251 C 
ATOM     26  H   UNL A   1      40.041  18.217  25.899  1.00  0.00     0.163 HD
ATOM     27  O   UNL A   1      42.449  18.467  25.846  1.00  0.00    -0.269 OA
BRANCH  25  28
ATOM     28  C   UNL A   1      42.158  20.711  26.453  1.00  0.00     0.039 A 
ATOM     29  C   UNL A   1      42.540  21.616  25.459  1.00  0.00     0.014 A 
ATOM     30  C   UNL A   1      42.267  21.060  27.801  1.00  0.00     0.014 A 
ATOM     31  C   UNL A   1      42.959  22.897  25.820  1.00  0.00     0.010 A 
ATOM     32  C   UNL A   1      42.586  22.365  28.155  1.00  0.00     0.010 A 
ATOM     33  C   UNL A   1      42.946  23.293  27.168  1.00  0.00    -0.014 A 
BRANCH  33  34
ATOM     34  C   UNL A   1      43.318  24.671  27.569  1.00  0.00     0.031 A 
ATOM     35  C   UNL A   1      44.765  25.074  27.620  1.00  0.00     0.074 A 
ATOM     36  C   UNL A   1      42.354  25.538  27.938  1.00  0.00     0.049 A 
ATOM     37  N   UNL A   1      45.291  26.218  27.979  1.00  0.00    -0.248 NA
ATOM     38  C   UNL A   1      45.757  24.049  27.252  1.00  0.00     0.031 C 
ATOM     39  C   UNL A   1      40.922  25.236  27.986  1.00  0.00     0.029 A 
ATOM     40  N   UNL A   1      42.431  26.847  28.340  1.00  0.00    -0.354 N 
ATOM     41  C   UNL A   1      46.665  26.044  27.887  1.00  0.00     0.074 A 
ATOM     42  C   UNL A   1      46.898  24.671  27.506  1.00  0.00     0.031 C 
ATOM     43  C   UNL A   1      40.252  26.341  28.351  1.00  0.00     0.029 A 
ATOM     44  C   UNL A   1      41.207  27.417  28.595  1.00  0.00     0.049 A 
ATOM     45  H   UNL A   1      43.282  27.332  28.437  1.00  0.00     0.167 HD
ATOM     46  C   UNL A   1      47.642  26.963  28.065  1.00  0.00     0.037 A 
ATOM     47  C   UNL A   1      40.894  28.671  28.974  1.00  0.00     0.037 A 
ATOM     48  C   UNL A   1      47.399  28.339  28.402  1.00  0.00     0.049 A 
ATOM     49  C   UNL A   1      41.999  29.674  29.163  1.00  0.00     0.074 A 
ATOM     50  C   UNL A   1      48.316  29.365  28.543  1.00  0.00     0.029 A 
ATOM     51  N   UNL A   1      46.145  28.880  28.641  1.00  0.00    -0.354 N 
ATOM     52  N   UNL A   1      43.290  29.518  29.001  1.00  0.00    -0.248 NA
ATOM     53  C   UNL A   1      41.607  31.027  29.584  1.00  0.00     0.031 C 
ATOM     54  C   UNL A   1      47.620  30.520  28.905  1.00  0.00     0.029 A 
ATOM     55  C   UNL A   1      46.266  30.224  28.947  1.00  0.00     0.049 A 
ATOM     56  H   UNL A   1      45.296  28.384  28.599  1.00  0.00     0.167 HD
ATOM     57  C   UNL A   1      43.862  30.752  29.273  1.00  0.00     0.074 A 
ATOM     58  C   UNL A   1      42.777  31.652  29.602  1.00  0.00     0.031 C 
ATOM     59  C   UNL A   1      45.169  31.106  29.253  1.00  0.00     0.037 A 
BRANCH  46  60
ATOM     60  C   UNL A   1      49.061  26.523  27.866  1.00  0.00     0.064 A 
ATOM     61  C   UNL A   1      49.613  26.400  26.582  1.00  0.00     0.173 A 
ATOM     62  C   UNL A   1      49.898  26.284  28.967  1.00  0.00     0.173 A 
ATOM     63  F   UNL A   1      48.851  26.606  25.497  1.00  0.00    -0.203 F 
ATOM     64  C   UNL A   1      50.946  26.038  26.406  1.00  0.00     0.198 A 
ATOM     65  C   UNL A   1      51.238  25.950  28.787  1.00  0.00     0.198 A 
ATOM     66  F   UNL A   1      49.422  26.394  30.216  1.00  0.00    -0.203 F 
ATOM     67  F   UNL A   1      51.440  25.892  25.169  1.00  0.00    -0.200 F 
ATOM     68  C   UNL A   1      51.759  25.823  27.507  1.00  0.00     0.200 A 
ATOM     69  F   UNL A   1      52.027  25.755  29.852  1.00  0.00    -0.200 F 
ATOM     70  F   UNL A   1      53.047  25.490  27.337  1.00  0.00    -0.200 F 
ENDBRANCH  46  60
BRANCH  47  71
ATOM     71  C   UNL A   1      39.469  29.056  29.143  1.00  0.00     0.064 A 
ATOM     72  C   UNL A   1      38.703  29.460  28.039  1.00  0.00     0.173 A 
ATOM     73  C   UNL A   1      38.834  29.002  30.392  1.00  0.00     0.173 A 
ATOM     74  F   UNL A   1      39.270  29.540  26.826  1.00  0.00    -0.203 F 
ATOM     75  C   UNL A   1      37.361  29.804  28.181  1.00  0.00     0.198 A 
ATOM     76  C   UNL A   1      37.485  29.324  30.528  1.00  0.00     0.198 A 
ATOM     77  F   UNL A   1      39.520  28.614  31.478  1.00  0.00    -0.203 F 
ATOM     78  F   UNL A   1      36.661  30.215  27.115  1.00  0.00    -0.200 F 
ATOM     79  C   UNL A   1      36.751  29.729  29.424  1.00  0.00     0.200 A 
ATOM     80  F   UNL A   1      36.895  29.234  31.729  1.00  0.00    -0.200 F 
ATOM     81  F   UNL A   1      35.457  30.050  29.558  1.00  0.00    -0.200 F 
ENDBRANCH  47  71
BRANCH  59  82
ATOM     82  C   UNL A   1      45.515  32.528  29.573  1.00  0.00     0.064 A 
ATOM     83  C   UNL A   1      45.524  33.516  28.578  1.00  0.00     0.173 A 
ATOM     84  C   UNL A   1      45.717  32.926  30.903  1.00  0.00     0.173 A 
ATOM     85  F   UNL A   1      45.346  33.180  27.292  1.00  0.00    -0.203 F 
ATOM     86  C   UNL A   1      45.720  34.854  28.906  1.00  0.00     0.198 A 
ATOM     87  C   UNL A   1      45.887  34.267  31.229  1.00  0.00     0.198 A 
ATOM     88  F   UNL A   1      45.707  32.017  31.889  1.00  0.00    -0.203 F 
ATOM     89  F   UNL A   1      45.738  35.782  27.939  1.00  0.00    -0.200 F 
ATOM     90  C   UNL A   1      45.888  35.230  30.230  1.00  0.00     0.200 A 
ATOM     91  F   UNL A   1      46.032  34.631  32.511  1.00  0.00    -0.200 F 
ATOM     92  F   UNL A   1      46.045  36.523  30.546  1.00  0.00    -0.200 F 
ENDBRANCH  59  82
ENDBRANCH  33  34
ENDBRANCH  25  28
ENDBRANCH  23  24
ENDBRANCH   1  23
TORSDOF 11
ENDMDL
