MODEL 1
REMARK VINA RESULT:     -12.2      0.000      0.000
REMARK SMILES CCCc1nsc(N2CCO[C@H](CC(=O)NCCCNC(=O)c3ccc(-c4c5nc(c(-c6c(F)c(F)c(F)c(F)c6F)c6ccc([nH]6)c(-c6c(F)c(F)c(F)c(F)c6F)c6nc(c(-c7c(F)c(F)c(F)c(F)c7F)c7ccc4[nH]7)C=C6)C=C5)cc3)C2)n1
REMARK SMILES IDX 17 1 16 2 14 3 15 4 13 6 12 7 8 8 9 9 86 10 10 11 11 12 7 13
REMARK SMILES IDX 4 14 5 15 87 16 6 17 3 18 2 19 1 20 18 21 19 22 20 23 21 24
REMARK SMILES IDX 22 26 23 27 24 28 85 29 25 30 84 31 26 32 27 33 28 34 78 35
REMARK SMILES IDX 29 36 83 37 77 38 79 39 30 40 82 41 76 42 75 43 31 45 63 46
REMARK SMILES IDX 43 47 62 48 44 49 47 50 61 51 80 52 45 53 46 54 60 56 81 57
REMARK SMILES IDX 48 58 32 59 33 60 41 61 34 62 35 63 39 64 42 65 36 66 37 67
REMARK SMILES IDX 40 68 38 69 64 70 65 71 73 72 66 73 67 74 71 75 74 76 68 77
REMARK SMILES IDX 69 78 72 79 70 80 49 81 50 82 58 83 51 84 52 85 56 86 59 87
REMARK SMILES IDX 53 88 54 89 57 90 55 91
REMARK H PARENT 16 5 20 25 79 44 47 55
REMARK Flexibility Score: inf
ROOT
ATOM      1  C   UNL A   1      31.435  30.837  26.154  1.00  0.00     0.117 C 
ENDROOT
BRANCH   1   2
ATOM      2  N   UNL A   1      32.631  30.251  26.725  1.00  0.00    -0.356 N 
ATOM      3  C   UNL A   1      32.864  28.991  27.173  1.00  0.00     0.222 C 
ATOM      4  O   UNL A   1      33.963  28.758  27.677  1.00  0.00    -0.275 OA
ATOM      5  H   UNL A   1      33.396  30.865  26.801  1.00  0.00     0.163 HD
BRANCH   3   6
ATOM      6  C   UNL A   1      31.814  27.920  27.041  1.00  0.00     0.133 C 
BRANCH   6   7
ATOM      7  C   UNL A   1      32.308  26.616  26.406  1.00  0.00     0.147 C 
ATOM      8  N   UNL A   1      31.087  26.644  24.274  1.00  0.00    -0.342 N 
ATOM      9  C   UNL A   1      30.161  25.621  24.747  1.00  0.00     0.147 C 
ATOM     10  C   UNL A   1      32.416  26.630  24.865  1.00  0.00     0.151 C 
ATOM     11  C   UNL A   1      30.169  25.522  26.279  1.00  0.00     0.182 C 
ATOM     12  O   UNL A   1      31.496  25.497  26.839  1.00  0.00    -0.374 OA
BRANCH   8  13
ATOM     13  C   UNL A   1      30.660  27.694  23.533  1.00  0.00     0.205 A 
ATOM     14  C   UNL A   1      29.367  29.183  22.555  1.00  0.00     0.144 A 
ATOM     15  N   UNL A   1      30.504  29.719  22.104  1.00  0.00    -0.174 NA
ATOM     16  N   UNL A   1      29.405  27.988  23.269  1.00  0.00    -0.203 NA
ATOM     17  S   UNL A   1      31.736  28.826  22.771  1.00  0.00     0.004 S 
BRANCH  14  18
ATOM     18  C   UNL A   1      28.062  29.850  22.274  1.00  0.00     0.078 C 
BRANCH  18  19
ATOM     19  C   UNL A   1      27.594  30.797  23.388  1.00  0.00     0.005 C 
ATOM     20  C   UNL A   1      28.432  32.063  23.520  1.00  0.00     0.004 C 
ENDBRANCH  18  19
ENDBRANCH  14  18
ENDBRANCH   8  13
ENDBRANCH   6   7
ENDBRANCH   3   6
ENDBRANCH   1   2
BRANCH   1  21
ATOM     21  C   UNL A   1      31.289  32.306  26.549  1.00  0.00     0.042 C 
BRANCH  21  22
ATOM     22  C   UNL A   1      32.525  32.905  27.219  1.00  0.00     0.118 C 
BRANCH  22  23
ATOM     23  N   UNL A   1      32.323  34.279  27.654  1.00  0.00    -0.352 N 
ATOM     24  C   UNL A   1      32.960  35.003  28.628  1.00  0.00     0.251 C 
ATOM     25  H   UNL A   1      31.616  34.767  27.172  1.00  0.00     0.163 HD
ATOM     26  O   UNL A   1      32.517  36.106  28.949  1.00  0.00    -0.269 OA
BRANCH  24  27
ATOM     27  C   UNL A   1      34.154  34.469  29.317  1.00  0.00     0.039 A 
ATOM     28  C   UNL A   1      34.005  33.947  30.606  1.00  0.00     0.014 A 
ATOM     29  C   UNL A   1      35.419  34.509  28.724  1.00  0.00     0.014 A 
ATOM     30  C   UNL A   1      35.106  33.401  31.269  1.00  0.00     0.010 A 
ATOM     31  C   UNL A   1      36.505  33.905  29.360  1.00  0.00     0.010 A 
ATOM     32  C   UNL A   1      36.357  33.341  30.635  1.00  0.00    -0.014 A 
BRANCH  32  33
ATOM     33  C   UNL A   1      37.512  32.669  31.284  1.00  0.00     0.031 A 
ATOM     34  C   UNL A   1      38.216  31.530  30.603  1.00  0.00     0.074 A 
ATOM     35  C   UNL A   1      37.886  33.047  32.523  1.00  0.00     0.049 A 
ATOM     36  N   UNL A   1      39.192  30.775  31.045  1.00  0.00    -0.248 NA
ATOM     37  C   UNL A   1      37.748  31.174  29.254  1.00  0.00     0.031 C 
ATOM     38  C   UNL A   1      37.256  34.111  33.306  1.00  0.00     0.029 A 
ATOM     39  N   UNL A   1      38.878  32.573  33.344  1.00  0.00    -0.354 N 
ATOM     40  C   UNL A   1      39.445  29.854  30.038  1.00  0.00     0.074 A 
ATOM     41  C   UNL A   1      38.494  30.113  28.979  1.00  0.00     0.031 C 
ATOM     42  C   UNL A   1      37.885  34.219  34.487  1.00  0.00     0.029 A 
ATOM     43  C   UNL A   1      38.937  33.209  34.560  1.00  0.00     0.049 A 
ATOM     44  H   UNL A   1      39.489  31.845  33.086  1.00  0.00     0.167 HD
ATOM     45  C   UNL A   1      40.400  28.894  29.993  1.00  0.00     0.037 A 
ATOM     46  C   UNL A   1      39.740  32.995  35.619  1.00  0.00     0.037 A 
ATOM     47  C   UNL A   1      41.362  28.653  31.037  1.00  0.00     0.049 A 
ATOM     48  C   UNL A   1      40.784  31.915  35.545  1.00  0.00     0.074 A 
ATOM     49  C   UNL A   1      42.403  27.741  31.057  1.00  0.00     0.029 A 
ATOM     50  N   UNL A   1      41.400  29.328  32.248  1.00  0.00    -0.354 N 
ATOM     51  N   UNL A   1      41.055  31.092  34.561  1.00  0.00    -0.248 NA
ATOM     52  C   UNL A   1      41.638  31.737  36.728  1.00  0.00     0.031 C 
ATOM     53  C   UNL A   1      43.046  27.837  32.297  1.00  0.00     0.029 A 
ATOM     54  C   UNL A   1      42.433  28.839  33.031  1.00  0.00     0.049 A 
ATOM     55  H   UNL A   1      40.782  30.049  32.513  1.00  0.00     0.167 HD
ATOM     56  C   UNL A   1      42.122  30.317  34.995  1.00  0.00     0.074 A 
ATOM     57  C   UNL A   1      42.461  30.780  36.325  1.00  0.00     0.031 C 
ATOM     58  C   UNL A   1      42.761  29.312  34.350  1.00  0.00     0.037 A 
BRANCH  45  59
ATOM     59  C   UNL A   1      40.460  28.029  28.768  1.00  0.00     0.064 A 
ATOM     60  C   UNL A   1      41.225  28.394  27.650  1.00  0.00     0.173 A 
ATOM     61  C   UNL A   1      39.791  26.797  28.731  1.00  0.00     0.173 A 
ATOM     62  F   UNL A   1      41.875  29.568  27.632  1.00  0.00    -0.203 F 
ATOM     63  C   UNL A   1      41.301  27.567  26.533  1.00  0.00     0.198 A 
ATOM     64  C   UNL A   1      39.892  25.960  27.624  1.00  0.00     0.198 A 
ATOM     65  F   UNL A   1      39.052  26.397  29.777  1.00  0.00    -0.203 F 
ATOM     66  F   UNL A   1      42.006  27.955  25.461  1.00  0.00    -0.200 F 
ATOM     67  C   UNL A   1      40.641  26.348  26.523  1.00  0.00     0.200 A 
ATOM     68  F   UNL A   1      39.264  24.775  27.621  1.00  0.00    -0.200 F 
ATOM     69  F   UNL A   1      40.724  25.547  25.451  1.00  0.00    -0.200 F 
ENDBRANCH  45  59
BRANCH  46  70
ATOM     70  C   UNL A   1      39.599  33.831  36.840  1.00  0.00     0.064 A 
ATOM     71  C   UNL A   1      38.804  33.407  37.913  1.00  0.00     0.173 A 
ATOM     72  C   UNL A   1      40.244  35.070  36.953  1.00  0.00     0.173 A 
ATOM     73  F   UNL A   1      38.150  32.239  37.841  1.00  0.00    -0.203 F 
ATOM     74  C   UNL A   1      38.642  34.201  39.046  1.00  0.00     0.198 A 
ATOM     75  C   UNL A   1      40.104  35.851  38.099  1.00  0.00     0.198 A 
ATOM     76  F   UNL A   1      41.020  35.519  35.956  1.00  0.00    -0.203 F 
ATOM     77  F   UNL A   1      37.840  33.794  40.038  1.00  0.00    -0.200 F 
ATOM     78  C   UNL A   1      39.296  35.420  39.140  1.00  0.00     0.200 A 
ATOM     79  F   UNL A   1      40.749  37.023  38.192  1.00  0.00    -0.200 F 
ATOM     80  F   UNL A   1      39.143  36.183  40.231  1.00  0.00    -0.200 F 
ENDBRANCH  46  70
BRANCH  58  81
ATOM     81  C   UNL A   1      43.912  28.663  35.062  1.00  0.00     0.064 A 
ATOM     82  C   UNL A   1      43.731  27.529  35.868  1.00  0.00     0.173 A 
ATOM     83  C   UNL A   1      45.215  29.160  34.909  1.00  0.00     0.173 A 
ATOM     84  F   UNL A   1      42.501  27.027  36.060  1.00  0.00    -0.203 F 
ATOM     85  C   UNL A   1      44.809  26.932  36.514  1.00  0.00     0.198 A 
ATOM     86  C   UNL A   1      46.295  28.543  35.533  1.00  0.00     0.198 A 
ATOM     87  F   UNL A   1      45.441  30.239  34.145  1.00  0.00    -0.203 F 
ATOM     88  F   UNL A   1      44.607  25.877  37.316  1.00  0.00    -0.200 F 
ATOM     89  C   UNL A   1      46.090  27.434  36.340  1.00  0.00     0.200 A 
ATOM     90  F   UNL A   1      47.534  29.022  35.356  1.00  0.00    -0.200 F 
ATOM     91  F   UNL A   1      47.128  26.854  36.959  1.00  0.00    -0.200 F 
ENDBRANCH  58  81
ENDBRANCH  32  33
ENDBRANCH  24  27
ENDBRANCH  22  23
ENDBRANCH  21  22
ENDBRANCH   1  21
TORSDOF 14
ENDMDL
MODEL 2
REMARK VINA RESULT:     -12.1      0.328      1.642
REMARK SMILES CCCc1nsc(N2CCO[C@H](CC(=O)NCCCNC(=O)c3ccc(-c4c5nc(c(-c6c(F)c(F)c(F)c(F)c6F)c6ccc([nH]6)c(-c6c(F)c(F)c(F)c(F)c6F)c6nc(c(-c7c(F)c(F)c(F)c(F)c7F)c7ccc4[nH]7)C=C6)C=C5)cc3)C2)n1
REMARK SMILES IDX 17 1 16 2 14 3 15 4 13 6 12 7 8 8 9 9 86 10 10 11 11 12 7 13
REMARK SMILES IDX 4 14 5 15 87 16 6 17 3 18 2 19 1 20 18 21 19 22 20 23 21 24
REMARK SMILES IDX 22 26 23 27 24 28 85 29 25 30 84 31 26 32 27 33 28 34 78 35
REMARK SMILES IDX 29 36 83 37 77 38 79 39 30 40 82 41 76 42 75 43 31 45 63 46
REMARK SMILES IDX 43 47 62 48 44 49 47 50 61 51 80 52 45 53 46 54 60 56 81 57
REMARK SMILES IDX 48 58 32 59 33 60 41 61 34 62 35 63 39 64 42 65 36 66 37 67
REMARK SMILES IDX 40 68 38 69 64 70 65 71 73 72 66 73 67 74 71 75 74 76 68 77
REMARK SMILES IDX 69 78 72 79 70 80 49 81 50 82 58 83 51 84 52 85 56 86 59 87
REMARK SMILES IDX 53 88 54 89 57 90 55 91
REMARK H PARENT 16 5 20 25 79 44 47 55
REMARK Flexibility Score: inf
ROOT
ATOM      1  C   UNL A   1      31.617  30.709  25.903  1.00  0.00     0.117 C 
ENDROOT
BRANCH   1   2
ATOM      2  N   UNL A   1      32.837  30.079  26.367  1.00  0.00    -0.356 N 
ATOM      3  C   UNL A   1      33.049  28.835  26.866  1.00  0.00     0.222 C 
ATOM      4  O   UNL A   1      34.184  28.559  27.252  1.00  0.00    -0.275 OA
ATOM      5  H   UNL A   1      33.641  30.644  26.311  1.00  0.00     0.163 HD
BRANCH   3   6
ATOM      6  C   UNL A   1      31.928  27.829  26.930  1.00  0.00     0.133 C 
BRANCH   6   7
ATOM      7  C   UNL A   1      32.268  26.456  26.341  1.00  0.00     0.147 C 
ATOM      8  N   UNL A   1      30.994  26.520  24.242  1.00  0.00    -0.342 N 
ATOM      9  C   UNL A   1      29.984  25.618  24.784  1.00  0.00     0.147 C 
ATOM     10  C   UNL A   1      32.331  26.394  24.799  1.00  0.00     0.151 C 
ATOM     11  C   UNL A   1      30.027  25.583  26.318  1.00  0.00     0.182 C 
ATOM     12  O   UNL A   1      31.360  25.446  26.845  1.00  0.00    -0.374 OA
BRANCH   8  13
ATOM     13  C   UNL A   1      30.653  27.576  23.465  1.00  0.00     0.205 A 
ATOM     14  C   UNL A   1      29.482  29.105  22.401  1.00  0.00     0.144 A 
ATOM     15  N   UNL A   1      30.663  29.584  22.004  1.00  0.00    -0.174 NA
ATOM     16  N   UNL A   1      29.429  27.920  23.131  1.00  0.00    -0.203 NA
ATOM     17  S   UNL A   1      31.818  28.648  22.747  1.00  0.00     0.004 S 
BRANCH  14  18
ATOM     18  C   UNL A   1      28.224  29.824  22.043  1.00  0.00     0.078 C 
BRANCH  18  19
ATOM     19  C   UNL A   1      27.647  30.675  23.182  1.00  0.00     0.005 C 
ATOM     20  C   UNL A   1      28.669  31.577  23.864  1.00  0.00     0.004 C 
ENDBRANCH  18  19
ENDBRANCH  14  18
ENDBRANCH   8  13
ENDBRANCH   6   7
ENDBRANCH   3   6
ENDBRANCH   1   2
BRANCH   1  21
ATOM     21  C   UNL A   1      31.353  32.022  26.637  1.00  0.00     0.042 C 
BRANCH  21  22
ATOM     22  C   UNL A   1      32.595  32.661  27.256  1.00  0.00     0.118 C 
BRANCH  22  23
ATOM     23  N   UNL A   1      32.392  34.054  27.625  1.00  0.00    -0.352 N 
ATOM     24  C   UNL A   1      33.003  34.814  28.588  1.00  0.00     0.251 C 
ATOM     25  H   UNL A   1      31.706  34.526  27.098  1.00  0.00     0.163 HD
ATOM     26  O   UNL A   1      32.559  35.934  28.847  1.00  0.00    -0.269 OA
BRANCH  24  27
ATOM     27  C   UNL A   1      34.167  34.300  29.340  1.00  0.00     0.039 A 
ATOM     28  C   UNL A   1      33.938  33.557  30.502  1.00  0.00     0.014 A 
ATOM     29  C   UNL A   1      35.477  34.572  28.934  1.00  0.00     0.014 A 
ATOM     30  C   UNL A   1      35.016  33.026  31.214  1.00  0.00     0.010 A 
ATOM     31  C   UNL A   1      36.550  33.988  29.608  1.00  0.00     0.010 A 
ATOM     32  C   UNL A   1      36.329  33.205  30.751  1.00  0.00    -0.014 A 
BRANCH  32  33
ATOM     33  C   UNL A   1      37.477  32.559  31.437  1.00  0.00     0.031 A 
ATOM     34  C   UNL A   1      38.195  31.402  30.802  1.00  0.00     0.074 A 
ATOM     35  C   UNL A   1      37.832  32.978  32.668  1.00  0.00     0.049 A 
ATOM     36  N   UNL A   1      39.168  30.666  31.282  1.00  0.00    -0.248 NA
ATOM     37  C   UNL A   1      37.747  31.001  29.459  1.00  0.00     0.031 C 
ATOM     38  C   UNL A   1      37.187  34.064  33.408  1.00  0.00     0.029 A 
ATOM     39  N   UNL A   1      38.814  32.534  33.518  1.00  0.00    -0.354 N 
ATOM     40  C   UNL A   1      39.439  29.715  30.308  1.00  0.00     0.074 A 
ATOM     41  C   UNL A   1      38.501  29.935  29.228  1.00  0.00     0.031 C 
ATOM     42  C   UNL A   1      37.799  34.212  34.594  1.00  0.00     0.029 A 
ATOM     43  C   UNL A   1      38.853  33.209  34.713  1.00  0.00     0.049 A 
ATOM     44  H   UNL A   1      39.432  31.801  33.292  1.00  0.00     0.167 HD
ATOM     45  C   UNL A   1      40.398  28.758  30.307  1.00  0.00     0.037 A 
ATOM     46  C   UNL A   1      39.643  33.032  35.790  1.00  0.00     0.037 A 
ATOM     47  C   UNL A   1      41.346  28.554  31.372  1.00  0.00     0.049 A 
ATOM     48  C   UNL A   1      40.692  31.955  35.765  1.00  0.00     0.074 A 
ATOM     49  C   UNL A   1      42.390  27.648  31.435  1.00  0.00     0.029 A 
ATOM     50  N   UNL A   1      41.364  29.268  32.560  1.00  0.00    -0.354 N 
ATOM     51  N   UNL A   1      40.979  31.103  34.812  1.00  0.00    -0.248 NA
ATOM     52  C   UNL A   1      41.530  31.819  36.965  1.00  0.00     0.031 C 
ATOM     53  C   UNL A   1      43.015  27.785  32.680  1.00  0.00     0.029 A 
ATOM     54  C   UNL A   1      42.388  28.807  33.373  1.00  0.00     0.049 A 
ATOM     55  H   UNL A   1      40.740  29.994  32.793  1.00  0.00     0.167 HD
ATOM     56  C   UNL A   1      42.044  30.347  35.285  1.00  0.00     0.074 A 
ATOM     57  C   UNL A   1      42.362  30.853  36.604  1.00  0.00     0.031 C 
ATOM     58  C   UNL A   1      42.696  29.324  34.681  1.00  0.00     0.037 A 
BRANCH  45  59
ATOM     59  C   UNL A   1      40.478  27.854  29.111  1.00  0.00     0.064 A 
ATOM     60  C   UNL A   1      39.699  26.692  29.017  1.00  0.00     0.173 A 
ATOM     61  C   UNL A   1      41.300  28.183  28.023  1.00  0.00     0.173 A 
ATOM     62  F   UNL A   1      38.904  26.328  30.036  1.00  0.00    -0.203 F 
ATOM     63  C   UNL A   1      39.756  25.880  27.888  1.00  0.00     0.198 A 
ATOM     64  C   UNL A   1      41.334  27.384  26.884  1.00  0.00     0.198 A 
ATOM     65  F   UNL A   1      42.060  29.288  28.059  1.00  0.00    -0.203 F 
ATOM     66  F   UNL A   1      39.032  24.753  27.837  1.00  0.00    -0.200 F 
ATOM     67  C   UNL A   1      40.567  26.230  26.819  1.00  0.00     0.200 A 
ATOM     68  F   UNL A   1      42.109  27.730  25.846  1.00  0.00    -0.200 F 
ATOM     69  F   UNL A   1      40.613  25.453  25.728  1.00  0.00    -0.200 F 
ENDBRANCH  45  59
BRANCH  46  70
ATOM     70  C   UNL A   1      39.481  33.906  36.981  1.00  0.00     0.064 A 
ATOM     71  C   UNL A   1      38.719  33.489  38.080  1.00  0.00     0.173 A 
ATOM     72  C   UNL A   1      40.073  35.175  37.040  1.00  0.00     0.173 A 
ATOM     73  F   UNL A   1      38.116  32.291  38.060  1.00  0.00    -0.203 F 
ATOM     74  C   UNL A   1      38.538  34.316  39.186  1.00  0.00     0.198 A 
ATOM     75  C   UNL A   1      39.915  35.991  38.158  1.00  0.00     0.198 A 
ATOM     76  F   UNL A   1      40.817  35.619  36.016  1.00  0.00    -0.203 F 
ATOM     77  F   UNL A   1      37.766  33.912  40.204  1.00  0.00    -0.200 F 
ATOM     78  C   UNL A   1      39.139  35.565  39.227  1.00  0.00     0.200 A 
ATOM     79  F   UNL A   1      40.509  37.192  38.200  1.00  0.00    -0.200 F 
ATOM     80  F   UNL A   1      38.967  36.360  40.291  1.00  0.00    -0.200 F 
ENDBRANCH  46  70
BRANCH  58  81
ATOM     81  C   UNL A   1      43.838  28.703  35.430  1.00  0.00     0.064 A 
ATOM     82  C   UNL A   1      45.150  29.180  35.295  1.00  0.00     0.173 A 
ATOM     83  C   UNL A   1      43.612  27.640  36.318  1.00  0.00     0.173 A 
ATOM     84  F   UNL A   1      45.419  30.183  34.445  1.00  0.00    -0.203 F 
ATOM     85  C   UNL A   1      46.198  28.601  36.004  1.00  0.00     0.198 A 
ATOM     86  C   UNL A   1      44.659  27.081  37.047  1.00  0.00     0.198 A 
ATOM     87  F   UNL A   1      42.376  27.151  36.485  1.00  0.00    -0.203 F 
ATOM     88  F   UNL A   1      47.451  29.043  35.825  1.00  0.00    -0.200 F 
ATOM     89  C   UNL A   1      45.951  27.557  36.884  1.00  0.00     0.200 A 
ATOM     90  F   UNL A   1      44.417  26.081  37.905  1.00  0.00    -0.200 F 
ATOM     91  F   UNL A   1      46.961  27.004  37.570  1.00  0.00    -0.200 F 
ENDBRANCH  58  81
ENDBRANCH  32  33
ENDBRANCH  24  27
ENDBRANCH  22  23
ENDBRANCH  21  22
ENDBRANCH   1  21
TORSDOF 14
ENDMDL
MODEL 3
REMARK VINA RESULT:     -11.9      0.384      7.485
REMARK SMILES CCCc1nsc(N2CCO[C@H](CC(=O)NCCCNC(=O)c3ccc(-c4c5nc(c(-c6c(F)c(F)c(F)c(F)c6F)c6ccc([nH]6)c(-c6c(F)c(F)c(F)c(F)c6F)c6nc(c(-c7c(F)c(F)c(F)c(F)c7F)c7ccc4[nH]7)C=C6)C=C5)cc3)C2)n1
REMARK SMILES IDX 17 1 16 2 14 3 15 4 13 6 12 7 8 8 9 9 86 10 10 11 11 12 7 13
REMARK SMILES IDX 4 14 5 15 87 16 6 17 3 18 2 19 1 20 18 21 19 22 20 23 21 24
REMARK SMILES IDX 22 26 23 27 24 28 85 29 25 30 84 31 26 32 27 33 28 34 78 35
REMARK SMILES IDX 29 36 83 37 77 38 79 39 30 40 82 41 76 42 75 43 31 45 63 46
REMARK SMILES IDX 43 47 62 48 44 49 47 50 61 51 80 52 45 53 46 54 60 56 81 57
REMARK SMILES IDX 48 58 32 59 33 60 41 61 34 62 35 63 39 64 42 65 36 66 37 67
REMARK SMILES IDX 40 68 38 69 64 70 65 71 73 72 66 73 67 74 71 75 74 76 68 77
REMARK SMILES IDX 69 78 72 79 70 80 49 81 50 82 58 83 51 84 52 85 56 86 59 87
REMARK SMILES IDX 53 88 54 89 57 90 55 91
REMARK H PARENT 16 5 20 25 79 44 47 55
REMARK Flexibility Score: inf
ROOT
ATOM      1  C   UNL A   1      31.397  30.820  26.033  1.00  0.00     0.117 C 
ENDROOT
BRANCH   1   2
ATOM      2  N   UNL A   1      32.583  30.189  26.577  1.00  0.00    -0.356 N 
ATOM      3  C   UNL A   1      32.774  28.926  27.035  1.00  0.00     0.222 C 
ATOM      4  O   UNL A   1      33.876  28.651  27.509  1.00  0.00    -0.275 OA
ATOM      5  H   UNL A   1      33.376  30.769  26.620  1.00  0.00     0.163 HD
BRANCH   3   6
ATOM      6  C   UNL A   1      31.674  27.900  26.951  1.00  0.00     0.133 C 
BRANCH   6   7
ATOM      7  C   UNL A   1      32.096  26.560  26.339  1.00  0.00     0.147 C 
ATOM      8  N   UNL A   1      30.889  26.623  24.201  1.00  0.00    -0.342 N 
ATOM      9  C   UNL A   1      29.904  25.663  24.685  1.00  0.00     0.147 C 
ATOM     10  C   UNL A   1      32.212  26.543  24.800  1.00  0.00     0.151 C 
ATOM     11  C   UNL A   1      29.899  25.588  26.218  1.00  0.00     0.182 C 
ATOM     12  O   UNL A   1      31.220  25.497  26.786  1.00  0.00    -0.374 OA
BRANCH   8  13
ATOM     13  C   UNL A   1      30.525  27.684  23.440  1.00  0.00     0.205 A 
ATOM     14  C   UNL A   1      29.321  29.210  22.408  1.00  0.00     0.144 A 
ATOM     15  N   UNL A   1      30.492  29.706  22.001  1.00  0.00    -0.174 NA
ATOM     16  N   UNL A   1      29.292  28.016  23.126  1.00  0.00    -0.203 NA
ATOM     17  S   UNL A   1      31.667  28.777  22.718  1.00  0.00     0.004 S 
BRANCH  14  18
ATOM     18  C   UNL A   1      28.051  29.917  22.074  1.00  0.00     0.078 C 
BRANCH  18  19
ATOM     19  C   UNL A   1      28.007  31.376  22.548  1.00  0.00     0.005 C 
ATOM     20  C   UNL A   1      27.286  31.577  23.876  1.00  0.00     0.004 C 
ENDBRANCH  18  19
ENDBRANCH  14  18
ENDBRANCH   8  13
ENDBRANCH   6   7
ENDBRANCH   3   6
ENDBRANCH   1   2
BRANCH   1  21
ATOM     21  C   UNL A   1      31.271  32.269  26.501  1.00  0.00     0.042 C 
BRANCH  21  22
ATOM     22  C   UNL A   1      32.538  32.840  27.136  1.00  0.00     0.118 C 
BRANCH  22  23
ATOM     23  N   UNL A   1      32.363  34.199  27.626  1.00  0.00    -0.352 N 
ATOM     24  C   UNL A   1      32.991  34.859  28.649  1.00  0.00     0.251 C 
ATOM     25  H   UNL A   1      31.685  34.728  27.146  1.00  0.00     0.163 HD
ATOM     26  O   UNL A   1      32.571  35.961  29.007  1.00  0.00    -0.269 OA
BRANCH  24  27
ATOM     27  C   UNL A   1      34.148  34.260  29.348  1.00  0.00     0.039 A 
ATOM     28  C   UNL A   1      33.910  33.472  30.480  1.00  0.00     0.014 A 
ATOM     29  C   UNL A   1      35.459  34.492  28.924  1.00  0.00     0.014 A 
ATOM     30  C   UNL A   1      34.978  32.862  31.140  1.00  0.00     0.010 A 
ATOM     31  C   UNL A   1      36.519  33.830  29.545  1.00  0.00     0.010 A 
ATOM     32  C   UNL A   1      36.287  33.004  30.655  1.00  0.00    -0.014 A 
BRANCH  32  33
ATOM     33  C   UNL A   1      37.420  32.276  31.282  1.00  0.00     0.031 A 
ATOM     34  C   UNL A   1      37.908  32.654  32.652  1.00  0.00     0.074 A 
ATOM     35  C   UNL A   1      38.053  31.311  30.584  1.00  0.00     0.049 A 
ATOM     36  N   UNL A   1      38.927  32.183  33.327  1.00  0.00    -0.248 NA
ATOM     37  C   UNL A   1      37.166  33.717  33.348  1.00  0.00     0.031 C 
ATOM     38  C   UNL A   1      37.702  30.881  29.230  1.00  0.00     0.029 A 
ATOM     39  N   UNL A   1      39.130  30.527  30.913  1.00  0.00    -0.354 N 
ATOM     40  C   UNL A   1      38.955  32.897  34.518  1.00  0.00     0.074 A 
ATOM     41  C   UNL A   1      37.880  33.863  34.456  1.00  0.00     0.031 C 
ATOM     42  C   UNL A   1      38.537  29.902  28.849  1.00  0.00     0.029 A 
ATOM     43  C   UNL A   1      39.505  29.661  29.915  1.00  0.00     0.049 A 
ATOM     44  H   UNL A   1      39.591  30.581  31.781  1.00  0.00     0.167 HD
ATOM     45  C   UNL A   1      39.790  32.745  35.573  1.00  0.00     0.037 A 
ATOM     46  C   UNL A   1      40.520  28.779  29.861  1.00  0.00     0.037 A 
ATOM     47  C   UNL A   1      40.844  31.767  35.644  1.00  0.00     0.049 A 
ATOM     48  C   UNL A   1      41.438  28.638  31.045  1.00  0.00     0.074 A 
ATOM     49  C   UNL A   1      41.704  31.499  36.695  1.00  0.00     0.029 A 
ATOM     50  N   UNL A   1      41.183  30.896  34.619  1.00  0.00    -0.354 N 
ATOM     51  N   UNL A   1      41.414  29.276  32.189  1.00  0.00    -0.248 NA
ATOM     52  C   UNL A   1      42.521  27.651  30.930  1.00  0.00     0.031 C 
ATOM     53  C   UNL A   1      42.591  30.494  36.291  1.00  0.00     0.029 A 
ATOM     54  C   UNL A   1      42.254  30.105  35.005  1.00  0.00     0.049 A 
ATOM     55  H   UNL A   1      40.731  30.848  33.745  1.00  0.00     0.167 HD
ATOM     56  C   UNL A   1      42.460  28.753  32.938  1.00  0.00     0.074 A 
ATOM     57  C   UNL A   1      43.087  27.733  32.125  1.00  0.00     0.031 C 
ATOM     58  C   UNL A   1      42.864  29.090  34.187  1.00  0.00     0.037 A 
BRANCH  45  59
ATOM     59  C   UNL A   1      39.595  33.655  36.751  1.00  0.00     0.064 A 
ATOM     60  C   UNL A   1      38.777  33.291  37.831  1.00  0.00     0.173 A 
ATOM     61  C   UNL A   1      40.276  34.879  36.828  1.00  0.00     0.173 A 
ATOM     62  F   UNL A   1      38.095  32.135  37.802  1.00  0.00    -0.203 F 
ATOM     63  C   UNL A   1      38.631  34.127  38.934  1.00  0.00     0.198 A 
ATOM     64  C   UNL A   1      40.150  35.700  37.944  1.00  0.00     0.198 A 
ATOM     65  F   UNL A   1      41.078  35.270  35.826  1.00  0.00    -0.203 F 
ATOM     66  F   UNL A   1      37.813  33.776  39.936  1.00  0.00    -0.200 F 
ATOM     67  C   UNL A   1      39.323  35.328  38.994  1.00  0.00     0.200 A 
ATOM     68  F   UNL A   1      40.830  36.854  38.007  1.00  0.00    -0.200 F 
ATOM     69  F   UNL A   1      39.191  36.127  40.061  1.00  0.00    -0.200 F 
ENDBRANCH  45  59
BRANCH  46  70
ATOM     70  C   UNL A   1      40.718  27.946  28.645  1.00  0.00     0.064 A 
ATOM     71  C   UNL A   1      40.083  26.704  28.514  1.00  0.00     0.173 A 
ATOM     72  C   UNL A   1      41.550  28.369  27.599  1.00  0.00     0.173 A 
ATOM     73  F   UNL A   1      39.294  26.249  29.498  1.00  0.00    -0.203 F 
ATOM     74  C   UNL A   1      40.289  25.906  27.392  1.00  0.00     0.198 A 
ATOM     75  C   UNL A   1      41.734  27.582  26.464  1.00  0.00     0.198 A 
ATOM     76  F   UNL A   1      42.177  29.552  27.675  1.00  0.00    -0.203 F 
ATOM     77  F   UNL A   1      39.706  24.702  27.312  1.00  0.00    -0.200 F 
ATOM     78  C   UNL A   1      41.111  26.347  26.365  1.00  0.00     0.200 A 
ATOM     79  F   UNL A   1      42.518  28.018  25.468  1.00  0.00    -0.200 F 
ATOM     80  F   UNL A   1      41.307  25.580  25.284  1.00  0.00    -0.200 F 
ENDBRANCH  46  70
BRANCH  58  81
ATOM     81  C   UNL A   1      44.022  28.328  34.761  1.00  0.00     0.064 A 
ATOM     82  C   UNL A   1      45.340  28.794  34.639  1.00  0.00     0.173 A 
ATOM     83  C   UNL A   1      43.808  27.137  35.471  1.00  0.00     0.173 A 
ATOM     84  F   UNL A   1      45.598  29.918  33.954  1.00  0.00    -0.203 F 
ATOM     85  C   UNL A   1      46.403  28.082  35.187  1.00  0.00     0.198 A 
ATOM     86  C   UNL A   1      44.871  26.443  36.042  1.00  0.00     0.198 A 
ATOM     87  F   UNL A   1      42.566  26.654  35.620  1.00  0.00    -0.203 F 
ATOM     88  F   UNL A   1      47.659  28.521  35.019  1.00  0.00    -0.200 F 
ATOM     89  C   UNL A   1      46.167  26.911  35.893  1.00  0.00     0.200 A 
ATOM     90  F   UNL A   1      44.641  25.319  36.734  1.00  0.00    -0.200 F 
ATOM     91  F   UNL A   1      47.192  26.230  36.424  1.00  0.00    -0.200 F 
ENDBRANCH  58  81
ENDBRANCH  32  33
ENDBRANCH  24  27
ENDBRANCH  22  23
ENDBRANCH  21  22
ENDBRANCH   1  21
TORSDOF 14
ENDMDL
